MODEL 1
REMARK minimizedAffinity -7.74103689
REMARK CNNscore 0.605791688
REMARK CNNaffinity 7.46554613
REMARK  6 active torsions:
REMARK  status: ('A' for Active; 'I' for Inactive)
REMARK    1  A    between atoms: C3_3  and  C4_4 
REMARK    2  A    between atoms: C4_4  and  O1_5 
REMARK    3  A    between atoms: C7_9  and  O3_10 
REMARK    4  A    between atoms: C24_28  and  C25_29 
REMARK    5  A    between atoms: C43_49  and  O7_51 
REMARK    6  A    between atoms: C45_52  and  O8_53 
ROOT
HETATM    1  C1  UNL     1       3.567  48.074 -10.170  1.00  0.00     0.013 C 
HETATM    2  C2  UNL     1       2.796  49.336 -10.529  1.00  0.00     0.023 C 
HETATM    3  C3  UNL     1       3.688  50.520 -10.973  1.00  0.00     0.047 C 
HETATM    4  C5  UNL     1       3.047  51.736 -10.278  1.00  0.00     0.160 C 
HETATM    5  O2  UNL     1       1.738  51.293  -9.871  1.00  0.00    -0.373 OA
HETATM    6  C6  UNL     1       1.884  49.915  -9.442  1.00  0.00     0.167 C 
HETATM    7  C7  UNL     1       2.332  49.872  -7.948  1.00  0.00     0.226 C 
HETATM    8  C8  UNL     1       1.687  50.987  -7.224  1.00  0.00    -0.072 C 
HETATM    9  C9  UNL     1       1.269  52.046  -6.840  1.00  0.00    -0.103 C 
HETATM   10  C10 UNL     1       0.860  53.422  -6.514  1.00  0.00     0.100 C 
HETATM   11  C11 UNL     1       2.094  54.306  -6.233  1.00  0.00     0.014 C 
HETATM   12  C12 UNL     1       1.842  55.229  -4.971  1.00  0.00     0.000 C 
HETATM   13  C13 UNL     1       0.798  56.320  -5.237  1.00  0.00     0.006 C 
HETATM   14  C14 UNL     1       0.467  56.542  -6.698  1.00  0.00     0.001 C 
HETATM   15  C15 UNL     1       1.618  56.361  -7.688  1.00  0.00     0.014 C 
HETATM   16  C16 UNL     1       2.653  55.218  -7.404  1.00  0.00     0.006 C 
HETATM   17  C17 UNL     1       3.170  54.513  -8.749  1.00  0.00     0.034 C 
HETATM   18  C18 UNL     1       4.462  55.285  -9.160  1.00  0.00     0.012 C 
HETATM   19  C19 UNL     1       4.657  56.401  -8.143  1.00  0.00     0.044 C 
HETATM   20  C20 UNL     1       4.073  55.792  -6.865  1.00  0.00     0.094 C 
HETATM   21  O4  UNL     1       4.909  54.680  -6.440  1.00  0.00    -0.363 OA
HETATM   22  C21 UNL     1       6.338  54.810  -6.403  1.00  0.00     0.263 C 
HETATM   23  C22 UNL     1       6.867  55.962  -5.655  1.00  0.00    -0.080 C 
HETATM   24  C23 UNL     1       7.343  56.905  -5.079  1.00  0.00    -0.093 C 
HETATM   25  C24 UNL     1       7.900  58.097  -4.381  1.00  0.00     0.121 C 
HETATM   26  C31 UNL     1       7.411  58.172  -2.915  1.00  0.00     0.190 C 
HETATM   27  O5  UNL     1       6.018  58.491  -2.918  1.00  0.00    -0.384 OA
HETATM   28  C32 UNL     1       5.311  58.311  -1.692  1.00  0.00     0.122 C 
HETATM   29  C33 UNL     1       5.215  56.844  -1.293  1.00  0.00     0.033 C 
HETATM   30  C34 UNL     1       4.674  56.028  -2.459  1.00  0.00     0.013 C 
HETATM   31  C35 UNL     1       3.310  56.519  -3.065  1.00  0.00    -0.025 C 
HETATM   32  C36 UNL     1       2.209  56.009  -2.099  1.00  0.00     0.016 C 
HETATM   33  C37 UNL     1       3.201  55.823  -4.485  1.00  0.00     0.031 C 
HETATM   34  C38 UNL     1       3.817  56.622  -5.629  1.00  0.00    -0.036 C 
HETATM   35  C39 UNL     1       4.047  57.938  -5.578  1.00  0.00     0.057 C 
HETATM   36  C40 UNL     1       3.673  58.752  -4.414  1.00  0.00     0.154 C 
HETATM   37  O6  UNL     1       3.686  59.977  -4.557  1.00  0.00    -0.293 OA
HETATM   38  C41 UNL     1       3.203  58.084  -3.123  1.00  0.00     0.071 C 
HETATM   39  C42 UNL     1       3.877  58.802  -1.927  1.00  0.00     0.045 C 
HETATM   40  C43 UNL     1       2.276  54.249 -10.026  1.00  0.00     0.087 C 
HETATM   41  C44 UNL     1       2.082  55.523 -10.896  1.00  0.00     0.049 C 
HETATM   42  C45 UNL     1       2.899  53.108 -10.971  1.00  0.00     0.181 C 
ENDROOT
BRANCH  25  43
HETATM   43  C25 UNL     1       9.418  58.133  -4.447  1.00  0.00    -0.040 A 
HETATM   44  C26 UNL     1      10.188  56.956  -4.452  1.00  0.00     0.008 A 
HETATM   45  C27 UNL     1      11.583  57.016  -4.491  1.00  0.00     0.001 A 
HETATM   46  C28 UNL     1      12.226  58.254  -4.521  1.00  0.00     0.000 A 
HETATM   47  C29 UNL     1      11.479  59.427  -4.521  1.00  0.00     0.001 A 
HETATM   48  C30 UNL     1      10.083  59.369  -4.477  1.00  0.00     0.008 A 
ENDBRANCH  25  43
BRANCH  40  49
HETATM   49  O7  UNL     1       0.961  53.867  -9.619  1.00  0.00    -0.387 OA
HETATM   50  H54 UNL     1       0.932  52.886  -9.588  1.00  0.00     0.210 HD
ENDBRANCH  40  49
BRANCH  42  51
HETATM   51  O8  UNL     1       2.077  52.898 -12.137  1.00  0.00    -0.390 OA
HETATM   52  H56 UNL     1       1.569  53.708 -12.323  1.00  0.00     0.210 HD
ENDBRANCH  42  51
BRANCH   7  53
HETATM   53  O3  UNL     1       3.752  50.016  -7.806  1.00  0.00    -0.381 OA
HETATM   54  H12 UNL     1       3.902  50.499  -6.976  1.00  0.00     0.211 HD
ENDBRANCH   7  53
BRANCH   3  55
HETATM   55  C4  UNL     1       3.882  50.584 -12.487  1.00  0.00     0.172 C 
BRANCH  55  56
HETATM   56  O1  UNL     1       4.842  49.652 -12.965  1.00  0.00    -0.400 OA
HETATM   57  H8  UNL     1       4.521  48.769 -12.684  1.00  0.00     0.209 HD
ENDBRANCH  55  56
ENDBRANCH   3  55
TORSDOF 6
ENDMDL
MODEL 2
REMARK minimizedAffinity -7.97792387
REMARK CNNscore 0.579331636
REMARK CNNaffinity 7.14525175
REMARK  6 active torsions:
REMARK  status: ('A' for Active; 'I' for Inactive)
REMARK    1  A    between atoms: C3_3  and  C4_4 
REMARK    2  A    between atoms: C4_4  and  O1_5 
REMARK    3  A    between atoms: C7_9  and  O3_10 
REMARK    4  A    between atoms: C24_28  and  C25_29 
REMARK    5  A    between atoms: C43_49  and  O7_51 
REMARK    6  A    between atoms: C45_52  and  O8_53 
ROOT
HETATM    1  C1  UNL     1       7.670  43.875  -9.193  1.00  0.00     0.013 C 
HETATM    2  C2  UNL     1       7.564  44.608  -7.865  1.00  0.00     0.023 C 
HETATM    3  C3  UNL     1       6.113  44.880  -7.403  1.00  0.00     0.047 C 
HETATM    4  C5  UNL     1       6.171  46.318  -6.853  1.00  0.00     0.160 C 
HETATM    5  O2  UNL     1       7.572  46.595  -6.667  1.00  0.00    -0.373 OA
HETATM    6  C6  UNL     1       8.268  45.967  -7.773  1.00  0.00     0.167 C 
HETATM    7  C7  UNL     1       8.272  46.924  -9.006  1.00  0.00     0.226 C 
HETATM    8  C8  UNL     1       8.393  48.317  -8.528  1.00  0.00    -0.072 C 
HETATM    9  C9  UNL     1       8.277  49.380  -7.980  1.00  0.00    -0.103 C 
HETATM   10  C10 UNL     1       7.976  50.607  -7.226  1.00  0.00     0.100 C 
HETATM   11  C11 UNL     1       6.567  51.133  -7.581  1.00  0.00     0.014 C 
HETATM   12  C12 UNL     1       6.590  52.706  -7.765  1.00  0.00     0.000 C 
HETATM   13  C13 UNL     1       6.820  53.452  -6.445  1.00  0.00     0.006 C 
HETATM   14  C14 UNL     1       6.636  52.612  -5.199  1.00  0.00     0.001 C 
HETATM   15  C15 UNL     1       5.551  51.536  -5.263  1.00  0.00     0.014 C 
HETATM   16  C16 UNL     1       5.360  50.770  -6.618  1.00  0.00     0.006 C 
HETATM   17  C17 UNL     1       4.986  49.225  -6.401  1.00  0.00     0.034 C 
HETATM   18  C18 UNL     1       3.427  49.165  -6.397  1.00  0.00     0.012 C 
HETATM   19  C19 UNL     1       2.925  50.595  -6.553  1.00  0.00     0.044 C 
HETATM   20  C20 UNL     1       4.021  51.240  -7.407  1.00  0.00     0.094 C 
HETATM   21  O4  UNL     1       4.011  50.638  -8.732  1.00  0.00    -0.363 OA
HETATM   22  C21 UNL     1       2.777  50.451  -9.442  1.00  0.00     0.263 C 
HETATM   23  C22 UNL     1       1.920  51.638  -9.581  1.00  0.00    -0.080 C 
HETATM   24  C23 UNL     1       1.174  52.576  -9.693  1.00  0.00    -0.093 C 
HETATM   25  C24 UNL     1       0.260  53.749  -9.793  1.00  0.00     0.121 C 
HETATM   26  C31 UNL     1       0.967  54.960 -10.447  1.00  0.00     0.190 C 
HETATM   27  O5  UNL     1       1.945  55.460  -9.534  1.00  0.00    -0.384 OA
HETATM   28  C32 UNL     1       2.908  56.376 -10.056  1.00  0.00     0.122 C 
HETATM   29  C33 UNL     1       3.841  55.718 -11.063  1.00  0.00     0.033 C 
HETATM   30  C34 UNL     1       4.436  54.452 -10.463  1.00  0.00     0.013 C 
HETATM   31  C35 UNL     1       5.161  54.624  -9.079  1.00  0.00    -0.025 C 
HETATM   32  C36 UNL     1       6.557  55.218  -9.403  1.00  0.00     0.016 C 
HETATM   33  C37 UNL     1       5.279  53.163  -8.477  1.00  0.00     0.031 C 
HETATM   34  C38 UNL     1       4.090  52.733  -7.623  1.00  0.00    -0.036 C 
HETATM   35  C39 UNL     1       3.230  53.588  -7.062  1.00  0.00     0.057 C 
HETATM   36  C40 UNL     1       3.387  55.044  -7.177  1.00  0.00     0.154 C 
HETATM   37  O6  UNL     1       2.708  55.745  -6.425  1.00  0.00    -0.293 OA
HETATM   38  C41 UNL     1       4.423  55.636  -8.132  1.00  0.00     0.071 C 
HETATM   39  C42 UNL     1       3.776  56.831  -8.876  1.00  0.00     0.045 C 
HETATM   40  C43 UNL     1       5.560  48.317  -5.241  1.00  0.00     0.087 C 
HETATM   41  C44 UNL     1       4.854  48.568  -3.877  1.00  0.00     0.049 C 
HETATM   42  C45 UNL     1       5.418  46.752  -5.577  1.00  0.00     0.181 C 
ENDROOT
BRANCH  25  43
HETATM   43  C25 UNL     1      -1.022  53.405 -10.534  1.00  0.00    -0.040 A 
HETATM   44  C26 UNL     1      -1.032  52.517 -11.624  1.00  0.00     0.008 A 
HETATM   45  C27 UNL     1      -2.221  52.235 -12.303  1.00  0.00     0.001 A 
HETATM   46  C28 UNL     1      -3.412  52.840 -11.903  1.00  0.00     0.000 A 
HETATM   47  C29 UNL     1      -3.419  53.718 -10.823  1.00  0.00     0.001 A 
HETATM   48  C30 UNL     1      -2.230  54.005 -10.146  1.00  0.00     0.008 A 
ENDBRANCH  25  43
BRANCH  40  49
HETATM   49  O7  UNL     1       6.934  48.636  -5.017  1.00  0.00    -0.387 OA
HETATM   50  H54 UNL     1       7.474  48.018  -5.557  1.00  0.00     0.210 HD
ENDBRANCH  40  49
BRANCH  42  51
HETATM   51  O8  UNL     1       5.930  45.943  -4.498  1.00  0.00    -0.390 OA
HETATM   52  H56 UNL     1       5.884  46.450  -3.666  1.00  0.00     0.210 HD
ENDBRANCH  42  51
BRANCH   7  53
HETATM   53  O3  UNL     1       7.063  46.823  -9.771  1.00  0.00    -0.381 OA
HETATM   54  H12 UNL     1       6.884  47.709 -10.128  1.00  0.00     0.211 HD
ENDBRANCH   7  53
BRANCH   3  55
HETATM   55  C4  UNL     1       5.566  43.787  -6.485  1.00  0.00     0.172 C 
BRANCH  55  56
HETATM   56  O1  UNL     1       4.159  43.870  -6.299  1.00  0.00    -0.400 OA
HETATM   57  H8  UNL     1       3.767  43.811  -7.196  1.00  0.00     0.209 HD
ENDBRANCH  55  56
ENDBRANCH   3  55
TORSDOF 6
ENDMDL
MODEL 3
REMARK minimizedAffinity -9.40315056
REMARK CNNscore 0.526296079
REMARK CNNaffinity 7.53409624
REMARK  6 active torsions:
REMARK  status: ('A' for Active; 'I' for Inactive)
REMARK    1  A    between atoms: C3_3  and  C4_4 
REMARK    2  A    between atoms: C4_4  and  O1_5 
REMARK    3  A    between atoms: C7_9  and  O3_10 
REMARK    4  A    between atoms: C24_28  and  C25_29 
REMARK    5  A    between atoms: C43_49  and  O7_51 
REMARK    6  A    between atoms: C45_52  and  O8_53 
ROOT
HETATM    1  C1  UNL     1      -4.631  50.733 -10.525  1.00  0.00     0.013 C 
HETATM    2  C2  UNL     1      -3.503  51.111 -11.474  1.00  0.00     0.023 C 
HETATM    3  C3  UNL     1      -2.233  50.241 -11.329  1.00  0.00     0.047 C 
HETATM    4  C5  UNL     1      -1.082  51.260 -11.432  1.00  0.00     0.160 C 
HETATM    5  O2  UNL     1      -1.678  52.449 -11.985  1.00  0.00    -0.373 OA
HETATM    6  C6  UNL     1      -3.002  52.557 -11.401  1.00  0.00     0.167 C 
HETATM    7  C7  UNL     1      -2.912  53.279 -10.020  1.00  0.00     0.226 C 
HETATM    8  C8  UNL     1      -1.861  54.316 -10.092  1.00  0.00    -0.072 C 
HETATM    9  C9  UNL     1      -0.851  54.949 -10.241  1.00  0.00    -0.103 C 
HETATM   10  C10 UNL     1       0.470  55.556 -10.467  1.00  0.00     0.100 C 
HETATM   11  C11 UNL     1       1.526  54.928  -9.530  1.00  0.00     0.014 C 
HETATM   12  C12 UNL     1       2.466  56.048  -8.922  1.00  0.00     0.000 C 
HETATM   13  C13 UNL     1       3.392  56.676  -9.971  1.00  0.00     0.006 C 
HETATM   14  C14 UNL     1       3.496  55.905 -11.271  1.00  0.00     0.001 C 
HETATM   15  C15 UNL     1       3.425  54.382 -11.162  1.00  0.00     0.014 C 
HETATM   16  C16 UNL     1       2.448  53.770 -10.099  1.00  0.00     0.006 C 
HETATM   17  C17 UNL     1       1.755  52.417 -10.613  1.00  0.00     0.034 C 
HETATM   18  C18 UNL     1       2.674  51.258 -10.116  1.00  0.00     0.012 C 
HETATM   19  C19 UNL     1       3.855  51.901  -9.399  1.00  0.00     0.044 C 
HETATM   20  C20 UNL     1       3.234  53.171  -8.810  1.00  0.00     0.094 C 
HETATM   21  O4  UNL     1       2.266  52.802  -7.789  1.00  0.00    -0.363 OA
HETATM   22  C21 UNL     1       2.591  51.818  -6.795  1.00  0.00     0.263 C 
HETATM   23  C22 UNL     1       3.838  52.037  -6.045  1.00  0.00    -0.080 C 
HETATM   24  C23 UNL     1       4.864  52.160  -5.428  1.00  0.00    -0.093 C 
HETATM   25  C24 UNL     1       6.152  52.326  -4.699  1.00  0.00     0.121 C 
HETATM   26  C31 UNL     1       6.231  53.704  -3.999  1.00  0.00     0.190 C 
HETATM   27  O5  UNL     1       6.358  54.714  -5.001  1.00  0.00    -0.384 OA
HETATM   28  C32 UNL     1       6.142  56.064  -4.590  1.00  0.00     0.122 C 
HETATM   29  C33 UNL     1       4.697  56.317  -4.183  1.00  0.00     0.033 C 
HETATM   30  C34 UNL     1       3.761  55.836  -5.282  1.00  0.00     0.013 C 
HETATM   31  C35 UNL     1       4.033  56.416  -6.717  1.00  0.00    -0.025 C 
HETATM   32  C36 UNL     1       3.425  57.844  -6.720  1.00  0.00     0.016 C 
HETATM   33  C37 UNL     1       3.261  55.457  -7.716  1.00  0.00     0.031 C 
HETATM   34  C38 UNL     1       4.080  54.270  -8.212  1.00  0.00    -0.036 C 
HETATM   35  C39 UNL     1       5.416  54.225  -8.186  1.00  0.00     0.057 C 
HETATM   36  C40 UNL     1       6.227  55.356  -7.718  1.00  0.00     0.154 C 
HETATM   37  O6  UNL     1       7.434  55.325  -7.968  1.00  0.00    -0.293 OA
HETATM   38  C41 UNL     1       5.564  56.551  -7.034  1.00  0.00     0.071 C 
HETATM   39  C42 UNL     1       6.424  56.952  -5.809  1.00  0.00     0.045 C 
HETATM   40  C43 UNL     1       1.312  52.145 -12.106  1.00  0.00     0.087 C 
HETATM   41  C44 UNL     1       2.505  51.757 -13.024  1.00  0.00     0.049 C 
HETATM   42  C45 UNL     1       0.222  50.969 -12.205  1.00  0.00     0.181 C 
ENDROOT
BRANCH  25  43
HETATM   43  C25 UNL     1       6.390  51.200  -3.706  1.00  0.00    -0.040 A 
HETATM   44  C26 UNL     1       7.647  50.585  -3.570  1.00  0.00     0.008 A 
HETATM   45  C27 UNL     1       7.834  49.537  -2.665  1.00  0.00     0.001 A 
HETATM   46  C28 UNL     1       6.765  49.089  -1.888  1.00  0.00     0.000 A 
HETATM   47  C29 UNL     1       5.516  49.690  -2.008  1.00  0.00     0.001 A 
HETATM   48  C30 UNL     1       5.327  50.736  -2.916  1.00  0.00     0.008 A 
ENDBRANCH  25  43
BRANCH  40  49
HETATM   49  O7  UNL     1       0.776  53.342 -12.672  1.00  0.00    -0.387 OA
HETATM   50  H54 UNL     1      -0.198  53.323 -12.542  1.00  0.00     0.210 HD
ENDBRANCH  40  49
BRANCH  42  51
HETATM   51  O8  UNL     1      -0.153  50.726 -13.576  1.00  0.00    -0.390 OA
HETATM   52  H56 UNL     1       0.571  51.010 -14.163  1.00  0.00     0.210 HD
ENDBRANCH  42  51
BRANCH   7  53
HETATM   53  O3  UNL     1      -2.571  52.376  -8.960  1.00  0.00    -0.381 OA
HETATM   54  H12 UNL     1      -2.033  52.880  -8.327  1.00  0.00     0.211 HD
ENDBRANCH   7  53
BRANCH   3  55
HETATM   55  C4  UNL     1      -2.216  49.049 -12.285  1.00  0.00     0.172 C 
BRANCH  55  56
HETATM   56  O1  UNL     1      -3.285  49.072 -13.222  1.00  0.00    -0.400 OA
HETATM   57  H8  UNL     1      -3.196  49.919 -13.708  1.00  0.00     0.209 HD
ENDBRANCH  55  56
ENDBRANCH   3  55
TORSDOF 6
ENDMDL
MODEL 4
REMARK minimizedAffinity -8.00126266
REMARK CNNscore 0.315514356
REMARK CNNaffinity 6.68175125
REMARK  6 active torsions:
REMARK  status: ('A' for Active; 'I' for Inactive)
REMARK    1  A    between atoms: C3_3  and  C4_4 
REMARK    2  A    between atoms: C4_4  and  O1_5 
REMARK    3  A    between atoms: C7_9  and  O3_10 
REMARK    4  A    between atoms: C24_28  and  C25_29 
REMARK    5  A    between atoms: C43_49  and  O7_51 
REMARK    6  A    between atoms: C45_52  and  O8_53 
ROOT
HETATM    1  C1  UNL     1     -19.191  35.705 -17.951  1.00  0.00     0.013 C 
HETATM    2  C2  UNL     1     -19.872  37.011 -17.569  1.00  0.00     0.023 C 
HETATM    3  C3  UNL     1     -20.921  37.504 -18.594  1.00  0.00     0.047 C 
HETATM    4  C5  UNL     1     -20.667  39.022 -18.670  1.00  0.00     0.160 C 
HETATM    5  O2  UNL     1     -19.869  39.330 -17.511  1.00  0.00    -0.373 OA
HETATM    6  C6  UNL     1     -18.958  38.217 -17.330  1.00  0.00     0.167 C 
HETATM    7  C7  UNL     1     -17.692  38.421 -18.219  1.00  0.00     0.226 C 
HETATM    8  C8  UNL     1     -17.370  39.862 -18.268  1.00  0.00    -0.072 C 
HETATM    9  C9  UNL     1     -17.374  41.059 -18.383  1.00  0.00    -0.103 C 
HETATM   10  C10 UNL     1     -17.559  42.504 -18.589  1.00  0.00     0.100 C 
HETATM   11  C11 UNL     1     -17.906  42.804 -20.064  1.00  0.00     0.014 C 
HETATM   12  C12 UNL     1     -17.102  44.068 -20.579  1.00  0.00     0.000 C 
HETATM   13  C13 UNL     1     -17.578  45.373 -19.931  1.00  0.00     0.006 C 
HETATM   14  C14 UNL     1     -18.909  45.281 -19.214  1.00  0.00     0.001 C 
HETATM   15  C15 UNL     1     -19.944  44.339 -19.829  1.00  0.00     0.014 C 
HETATM   16  C16 UNL     1     -19.430  42.998 -20.458  1.00  0.00     0.006 C 
HETATM   17  C17 UNL     1     -20.448  41.780 -20.220  1.00  0.00     0.034 C 
HETATM   18  C18 UNL     1     -21.378  41.758 -21.472  1.00  0.00     0.012 C 
HETATM   19  C19 UNL     1     -20.959  42.921 -22.360  1.00  0.00     0.044 C 
HETATM   20  C20 UNL     1     -19.456  43.028 -22.081  1.00  0.00     0.094 C 
HETATM   21  O4  UNL     1     -18.790  41.840 -22.593  1.00  0.00    -0.363 OA
HETATM   22  C21 UNL     1     -19.087  41.342 -23.906  1.00  0.00     0.263 C 
HETATM   23  C22 UNL     1     -18.987  42.312 -25.008  1.00  0.00    -0.080 C 
HETATM   24  C23 UNL     1     -18.946  43.078 -25.936  1.00  0.00    -0.093 C 
HETATM   25  C24 UNL     1     -18.913  44.056 -27.059  1.00  0.00     0.121 C 
HETATM   26  C31 UNL     1     -17.538  44.759 -27.154  1.00  0.00     0.190 C 
HETATM   27  O5  UNL     1     -17.399  45.634 -26.034  1.00  0.00    -0.384 OA
HETATM   28  C32 UNL     1     -16.092  46.144 -25.770  1.00  0.00     0.122 C 
HETATM   29  C33 UNL     1     -15.125  45.051 -25.336  1.00  0.00     0.033 C 
HETATM   30  C34 UNL     1     -15.732  44.252 -24.192  1.00  0.00     0.013 C 
HETATM   31  C35 UNL     1     -16.206  45.085 -22.948  1.00  0.00    -0.025 C 
HETATM   32  C36 UNL     1     -14.922  45.410 -22.140  1.00  0.00     0.016 C 
HETATM   33  C37 UNL     1     -17.173  44.126 -22.137  1.00  0.00     0.031 C 
HETATM   34  C38 UNL     1     -18.638  44.207 -22.553  1.00  0.00    -0.036 C 
HETATM   35  C39 UNL     1     -19.169  45.243 -23.208  1.00  0.00     0.057 C 
HETATM   36  C40 UNL     1     -18.386  46.439 -23.546  1.00  0.00     0.154 C 
HETATM   37  O6  UNL     1     -19.011  47.435 -23.915  1.00  0.00    -0.293 OA
HETATM   38  C41 UNL     1     -16.870  46.449 -23.352  1.00  0.00     0.071 C 
HETATM   39  C42 UNL     1     -16.223  47.117 -24.591  1.00  0.00     0.045 C 
HETATM   40  C43 UNL     1     -21.308  41.571 -18.910  1.00  0.00     0.087 C 
HETATM   41  C44 UNL     1     -22.563  42.489 -18.864  1.00  0.00     0.049 C 
HETATM   42  C45 UNL     1     -21.812  40.054 -18.757  1.00  0.00     0.181 C 
ENDROOT
BRANCH  25  43
HETATM   43  C25 UNL     1     -19.282  43.408 -28.384  1.00  0.00    -0.040 A 
HETATM   44  C26 UNL     1     -20.519  42.766 -28.576  1.00  0.00     0.008 A 
HETATM   45  C27 UNL     1     -20.825  42.159 -29.796  1.00  0.00     0.001 A 
HETATM   46  C28 UNL     1     -19.898  42.183 -30.838  1.00  0.00     0.000 A 
HETATM   47  C29 UNL     1     -18.672  42.817 -30.665  1.00  0.00     0.001 A 
HETATM   48  C30 UNL     1     -18.362  43.421 -29.443  1.00  0.00     0.008 A 
ENDBRANCH  25  43
BRANCH  40  49
HETATM   49  O7  UNL     1     -20.534  41.935 -17.765  1.00  0.00    -0.387 OA
HETATM   50  H54 UNL     1     -20.103  41.120 -17.426  1.00  0.00     0.210 HD
ENDBRANCH  40  49
BRANCH  42  51
HETATM   51  O8  UNL     1     -22.610  39.891 -17.567  1.00  0.00    -0.390 OA
HETATM   52  H56 UNL     1     -23.004  40.748 -17.325  1.00  0.00     0.210 HD
ENDBRANCH  42  51
BRANCH   7  53
HETATM   53  O3  UNL     1     -17.900  37.969 -19.564  1.00  0.00    -0.381 OA
HETATM   54  H12 UNL     1     -17.382  38.557 -20.139  1.00  0.00     0.211 HD
ENDBRANCH   7  53
BRANCH   3  55
HETATM   55  C4  UNL     1     -22.338  37.033 -18.268  1.00  0.00     0.172 C 
BRANCH  55  56
HETATM   56  O1  UNL     1     -23.230  37.153 -19.368  1.00  0.00    -0.400 OA
HETATM   57  H8  UNL     1     -22.835  36.621 -20.092  1.00  0.00     0.209 HD
ENDBRANCH  55  56
ENDBRANCH   3  55
TORSDOF 6
ENDMDL
MODEL 5
REMARK minimizedAffinity -8.62803268
REMARK CNNscore 0.303173691
REMARK CNNaffinity 6.24942923
REMARK  6 active torsions:
REMARK  status: ('A' for Active; 'I' for Inactive)
REMARK    1  A    between atoms: C3_3  and  C4_4 
REMARK    2  A    between atoms: C4_4  and  O1_5 
REMARK    3  A    between atoms: C7_9  and  O3_10 
REMARK    4  A    between atoms: C24_28  and  C25_29 
REMARK    5  A    between atoms: C43_49  and  O7_51 
REMARK    6  A    between atoms: C45_52  and  O8_53 
ROOT
HETATM    1  C1  UNL     1      -6.700  42.820 -22.885  1.00  0.00     0.013 C 
HETATM    2  C2  UNL     1      -7.198  43.814 -23.924  1.00  0.00     0.023 C 
HETATM    3  C3  UNL     1      -8.068  44.955 -23.345  1.00  0.00     0.047 C 
HETATM    4  C5  UNL     1      -9.205  45.101 -24.374  1.00  0.00     0.160 C 
HETATM    5  O2  UNL     1      -8.743  44.409 -25.549  1.00  0.00    -0.373 OA
HETATM    6  C6  UNL     1      -8.020  43.241 -25.083  1.00  0.00     0.167 C 
HETATM    7  C7  UNL     1      -9.019  42.071 -24.823  1.00  0.00     0.226 C 
HETATM    8  C8  UNL     1     -10.098  42.131 -25.831  1.00  0.00    -0.072 C 
HETATM    9  C9  UNL     1     -10.996  42.442 -26.566  1.00  0.00    -0.103 C 
HETATM   10  C10 UNL     1     -12.096  42.993 -27.373  1.00  0.00     0.100 C 
HETATM   11  C11 UNL     1     -13.280  43.406 -26.471  1.00  0.00     0.014 C 
HETATM   12  C12 UNL     1     -14.655  42.956 -27.116  1.00  0.00     0.000 C 
HETATM   13  C13 UNL     1     -15.003  43.751 -28.380  1.00  0.00     0.006 C 
HETATM   14  C14 UNL     1     -14.190  45.013 -28.582  1.00  0.00     0.001 C 
HETATM   15  C15 UNL     1     -13.791  45.771 -27.316  1.00  0.00     0.014 C 
HETATM   16  C16 UNL     1     -13.413  44.929 -26.048  1.00  0.00     0.006 C 
HETATM   17  C17 UNL     1     -12.227  45.599 -25.200  1.00  0.00     0.034 C 
HETATM   18  C18 UNL     1     -12.926  46.493 -24.130  1.00  0.00     0.012 C 
HETATM   19  C19 UNL     1     -14.426  46.388 -24.372  1.00  0.00     0.044 C 
HETATM   20  C20 UNL     1     -14.576  44.964 -24.915  1.00  0.00     0.094 C 
HETATM   21  O4  UNL     1     -14.247  44.014 -23.864  1.00  0.00    -0.363 OA
HETATM   22  C21 UNL     1     -14.781  44.174 -22.540  1.00  0.00     0.263 C 
HETATM   23  C22 UNL     1     -16.240  44.327 -22.441  1.00  0.00    -0.080 C 
HETATM   24  C23 UNL     1     -17.427  44.486 -22.315  1.00  0.00    -0.093 C 
HETATM   25  C24 UNL     1     -18.895  44.706 -22.194  1.00  0.00     0.121 C 
HETATM   26  C31 UNL     1     -19.694  43.558 -22.856  1.00  0.00     0.190 C 
HETATM   27  O5  UNL     1     -19.526  43.648 -24.272  1.00  0.00    -0.384 OA
HETATM   28  C32 UNL     1     -19.927  42.517 -25.044  1.00  0.00     0.122 C 
HETATM   29  C33 UNL     1     -19.050  41.300 -24.781  1.00  0.00     0.033 C 
HETATM   30  C34 UNL     1     -17.584  41.680 -24.934  1.00  0.00     0.013 C 
HETATM   31  C35 UNL     1     -17.188  42.353 -26.297  1.00  0.00    -0.025 C 
HETATM   32  C36 UNL     1     -17.073  41.195 -27.324  1.00  0.00     0.016 C 
HETATM   33  C37 UNL     1     -15.782  43.040 -26.041  1.00  0.00     0.031 C 
HETATM   34  C38 UNL     1     -15.864  44.476 -25.536  1.00  0.00    -0.036 C 
HETATM   35  C39 UNL     1     -16.939  45.257 -25.683  1.00  0.00     0.057 C 
HETATM   36  C40 UNL     1     -18.138  44.807 -26.403  1.00  0.00     0.154 C 
HETATM   37  O6  UNL     1     -18.966  45.668 -26.709  1.00  0.00    -0.293 OA
HETATM   38  C41 UNL     1     -18.285  43.346 -26.822  1.00  0.00     0.071 C 
HETATM   39  C42 UNL     1     -19.735  42.893 -26.519  1.00  0.00     0.045 C 
HETATM   40  C43 UNL     1     -11.001  46.376 -25.829  1.00  0.00     0.087 C 
HETATM   41  C44 UNL     1     -11.367  47.825 -26.260  1.00  0.00     0.049 C 
HETATM   42  C45 UNL     1      -9.764  46.473 -24.809  1.00  0.00     0.181 C 
ENDROOT
BRANCH  25  43
HETATM   43  C25 UNL     1     -19.321  44.896 -20.747  1.00  0.00    -0.040 A 
HETATM   44  C26 UNL     1     -19.269  46.153 -20.118  1.00  0.00     0.008 A 
HETATM   45  C27 UNL     1     -19.645  46.298 -18.781  1.00  0.00     0.001 A 
HETATM   46  C28 UNL     1     -20.074  45.187 -18.054  1.00  0.00     0.000 A 
HETATM   47  C29 UNL     1     -20.135  43.937 -18.663  1.00  0.00     0.001 A 
HETATM   48  C30 UNL     1     -19.755  43.790 -20.000  1.00  0.00     0.008 A 
ENDBRANCH  25  43
BRANCH  40  49
HETATM   49  O7  UNL     1     -10.583  45.722 -27.028  1.00  0.00    -0.387 OA
HETATM   50  H54 UNL     1      -9.864  45.095 -26.789  1.00  0.00     0.210 HD
ENDBRANCH  40  49
BRANCH  42  51
HETATM   51  O8  UNL     1      -8.666  47.201 -25.395  1.00  0.00    -0.390 OA
HETATM   52  H56 UNL     1      -9.009  47.803 -26.081  1.00  0.00     0.210 HD
ENDBRANCH  42  51
BRANCH   7  53
HETATM   53  O3  UNL     1      -9.623  42.156 -23.524  1.00  0.00    -0.381 OA
HETATM   54  H12 UNL     1     -10.526  41.807 -23.613  1.00  0.00     0.211 HD
ENDBRANCH   7  53
BRANCH   3  55
HETATM   55  C4  UNL     1      -7.257  46.203 -22.997  1.00  0.00     0.172 C 
BRANCH  55  56
HETATM   56  O1  UNL     1      -6.319  45.983 -21.952  1.00  0.00    -0.400 OA
HETATM   57  H8  UNL     1      -5.738  45.257 -22.263  1.00  0.00     0.209 HD
ENDBRANCH  55  56
ENDBRANCH   3  55
TORSDOF 6
ENDMDL
MODEL 6
REMARK minimizedAffinity -8.02969837
REMARK CNNscore 0.297944695
REMARK CNNaffinity 7.10364342
REMARK  6 active torsions:
REMARK  status: ('A' for Active; 'I' for Inactive)
REMARK    1  A    between atoms: C3_3  and  C4_4 
REMARK    2  A    between atoms: C4_4  and  O1_5 
REMARK    3  A    between atoms: C7_9  and  O3_10 
REMARK    4  A    between atoms: C24_28  and  C25_29 
REMARK    5  A    between atoms: C43_49  and  O7_51 
REMARK    6  A    between atoms: C45_52  and  O8_53 
ROOT
HETATM    1  C1  UNL     1      -4.232  52.305   0.269  1.00  0.00     0.013 C 
HETATM    2  C2  UNL     1      -4.462  53.785  -0.001  1.00  0.00     0.023 C 
HETATM    3  C3  UNL     1      -4.291  54.194  -1.483  1.00  0.00     0.047 C 
HETATM    4  C5  UNL     1      -3.528  55.531  -1.404  1.00  0.00     0.160 C 
HETATM    5  O2  UNL     1      -3.664  55.963  -0.037  1.00  0.00    -0.373 OA
HETATM    6  C6  UNL     1      -3.587  54.769   0.783  1.00  0.00     0.167 C 
HETATM    7  C7  UNL     1      -2.093  54.421   1.072  1.00  0.00     0.226 C 
HETATM    8  C8  UNL     1      -1.332  55.678   1.222  1.00  0.00    -0.072 C 
HETATM    9  C9  UNL     1      -0.827  56.762   1.100  1.00  0.00    -0.103 C 
HETATM   10  C10 UNL     1      -0.290  58.094   0.775  1.00  0.00     0.100 C 
HETATM   11  C11 UNL     1       0.569  58.037  -0.507  1.00  0.00     0.014 C 
HETATM   12  C12 UNL     1       1.893  58.888  -0.327  1.00  0.00     0.000 C 
HETATM   13  C13 UNL     1       1.621  60.396  -0.265  1.00  0.00     0.006 C 
HETATM   14  C14 UNL     1       0.239  60.813  -0.724  1.00  0.00     0.001 C 
HETATM   15  C15 UNL     1      -0.370  59.998  -1.864  1.00  0.00     0.014 C 
HETATM   16  C16 UNL     1      -0.098  58.453  -1.884  1.00  0.00     0.006 C 
HETATM   17  C17 UNL     1      -1.362  57.616  -2.412  1.00  0.00     0.034 C 
HETATM   18  C18 UNL     1      -1.148  57.455  -3.949  1.00  0.00     0.012 C 
HETATM   19  C19 UNL     1       0.136  58.194  -4.301  1.00  0.00     0.044 C 
HETATM   20  C20 UNL     1       0.973  58.031  -3.029  1.00  0.00     0.094 C 
HETATM   21  O4  UNL     1       1.322  56.628  -2.863  1.00  0.00    -0.363 OA
HETATM   22  C21 UNL     1       1.820  55.862  -3.971  1.00  0.00     0.263 C 
HETATM   23  C22 UNL     1       2.966  56.434  -4.695  1.00  0.00    -0.080 C 
HETATM   24  C23 UNL     1       3.885  56.877  -5.334  1.00  0.00    -0.093 C 
HETATM   25  C24 UNL     1       5.005  57.465  -6.121  1.00  0.00     0.121 C 
HETATM   26  C31 UNL     1       6.222  57.781  -5.220  1.00  0.00     0.190 C 
HETATM   27  O5  UNL     1       5.884  58.881  -4.372  1.00  0.00    -0.384 OA
HETATM   28  C32 UNL     1       6.749  59.134  -3.266  1.00  0.00     0.122 C 
HETATM   29  C33 UNL     1       6.702  58.017  -2.231  1.00  0.00     0.033 C 
HETATM   30  C34 UNL     1       5.256  57.732  -1.849  1.00  0.00     0.013 C 
HETATM   31  C35 UNL     1       4.420  58.967  -1.357  1.00  0.00    -0.025 C 
HETATM   32  C36 UNL     1       4.841  59.205   0.117  1.00  0.00     0.016 C 
HETATM   33  C37 UNL     1       2.902  58.520  -1.459  1.00  0.00     0.031 C 
HETATM   34  C38 UNL     1       2.247  58.812  -2.805  1.00  0.00    -0.036 C 
HETATM   35  C39 UNL     1       2.707  59.714  -3.677  1.00  0.00     0.057 C 
HETATM   36  C40 UNL     1       3.876  60.555  -3.387  1.00  0.00     0.154 C 
HETATM   37  O6  UNL     1       4.070  61.523  -4.126  1.00  0.00    -0.293 OA
HETATM   38  C41 UNL     1       4.744  60.275  -2.161  1.00  0.00     0.071 C 
HETATM   39  C42 UNL     1       6.231  60.403  -2.575  1.00  0.00     0.045 C 
HETATM   40  C43 UNL     1      -2.870  57.986  -2.117  1.00  0.00     0.087 C 
HETATM   41  C44 UNL     1      -3.393  59.139  -3.020  1.00  0.00     0.049 C 
HETATM   42  C45 UNL     1      -3.848  56.728  -2.324  1.00  0.00     0.181 C 
ENDROOT
BRANCH  25  43
HETATM   43  C25 UNL     1       5.409  56.572  -7.283  1.00  0.00    -0.040 A 
HETATM   44  C26 UNL     1       4.537  56.309  -8.353  1.00  0.00     0.008 A 
HETATM   45  C27 UNL     1       4.924  55.467  -9.399  1.00  0.00     0.001 A 
HETATM   46  C28 UNL     1       6.187  54.875  -9.384  1.00  0.00     0.000 A 
HETATM   47  C29 UNL     1       7.064  55.129  -8.334  1.00  0.00     0.001 A 
HETATM   48  C30 UNL     1       6.676  55.968  -7.285  1.00  0.00     0.008 A 
ENDBRANCH  25  43
BRANCH  40  49
HETATM   49  O7  UNL     1      -2.992  58.471  -0.779  1.00  0.00    -0.387 OA
HETATM   50  H54 UNL     1      -3.229  57.709  -0.206  1.00  0.00     0.210 HD
ENDBRANCH  40  49
BRANCH  42  51
HETATM   51  O8  UNL     1      -5.220  57.093  -2.068  1.00  0.00    -0.390 OA
HETATM   52  H56 UNL     1      -5.331  58.050  -2.213  1.00  0.00     0.210 HD
ENDBRANCH  42  51
BRANCH   7  53
HETATM   53  O3  UNL     1      -1.500  53.669   0.005  1.00  0.00    -0.381 OA
HETATM   54  H12 UNL     1      -0.567  53.937  -0.040  1.00  0.00     0.211 HD
ENDBRANCH   7  53
BRANCH   3  55
HETATM   55  C4  UNL     1      -5.605  54.169  -2.262  1.00  0.00     0.172 C 
BRANCH  55  56
HETATM   56  O1  UNL     1      -5.783  52.977  -3.015  1.00  0.00    -0.400 OA
HETATM   57  H8  UNL     1      -5.739  52.242  -2.367  1.00  0.00     0.209 HD
ENDBRANCH  55  56
ENDBRANCH   3  55
TORSDOF 6
ENDMDL
MODEL 7
REMARK minimizedAffinity -7.93646812
REMARK CNNscore 0.292818546
REMARK CNNaffinity 6.71548796
REMARK  6 active torsions:
REMARK  status: ('A' for Active; 'I' for Inactive)
REMARK    1  A    between atoms: C3_3  and  C4_4 
REMARK    2  A    between atoms: C4_4  and  O1_5 
REMARK    3  A    between atoms: C7_9  and  O3_10 
REMARK    4  A    between atoms: C24_28  and  C25_29 
REMARK    5  A    between atoms: C43_49  and  O7_51 
REMARK    6  A    between atoms: C45_52  and  O8_53 
ROOT
HETATM    1  C1  UNL     1      -1.776  54.214   2.305  1.00  0.00     0.013 C 
HETATM    2  C2  UNL     1      -1.126  55.495   1.805  1.00  0.00     0.023 C 
HETATM    3  C3  UNL     1      -1.874  56.170   0.632  1.00  0.00     0.047 C 
HETATM    4  C5  UNL     1      -0.741  56.617  -0.311  1.00  0.00     0.160 C 
HETATM    5  O2  UNL     1       0.459  56.555   0.483  1.00  0.00    -0.373 OA
HETATM    6  C6  UNL     1       0.329  55.389   1.336  1.00  0.00     0.167 C 
HETATM    7  C7  UNL     1       0.806  54.117   0.568  1.00  0.00     0.226 C 
HETATM    8  C8  UNL     1       1.941  54.484  -0.304  1.00  0.00    -0.072 C 
HETATM    9  C9  UNL     1       2.690  54.979  -1.103  1.00  0.00    -0.103 C 
HETATM   10  C10 UNL     1       3.459  55.697  -2.132  1.00  0.00     0.100 C 
HETATM   11  C11 UNL     1       2.789  55.546  -3.516  1.00  0.00     0.014 C 
HETATM   12  C12 UNL     1       3.877  55.266  -4.633  1.00  0.00     0.000 C 
HETATM   13  C13 UNL     1       4.767  56.484  -4.908  1.00  0.00     0.006 C 
HETATM   14  C14 UNL     1       4.248  57.792  -4.348  1.00  0.00     0.001 C 
HETATM   15  C15 UNL     1       2.730  57.970  -4.344  1.00  0.00     0.014 C 
HETATM   16  C16 UNL     1       1.846  56.713  -4.031  1.00  0.00     0.006 C 
HETATM   17  C17 UNL     1       0.539  57.081  -3.176  1.00  0.00     0.034 C 
HETATM   18  C18 UNL     1      -0.588  57.343  -4.222  1.00  0.00     0.012 C 
HETATM   19  C19 UNL     1       0.037  57.185  -5.602  1.00  0.00     0.044 C 
HETATM   20  C20 UNL     1       1.117  56.126  -5.358  1.00  0.00     0.094 C 
HETATM   21  O4  UNL     1       0.480  54.859  -5.032  1.00  0.00    -0.363 OA
HETATM   22  C21 UNL     1      -0.624  54.373  -5.812  1.00  0.00     0.263 C 
HETATM   23  C22 UNL     1      -0.412  54.305  -7.266  1.00  0.00    -0.080 C 
HETATM   24  C23 UNL     1      -0.293  54.259  -8.463  1.00  0.00    -0.093 C 
HETATM   25  C24 UNL     1      -0.125  54.240  -9.943  1.00  0.00     0.121 C 
HETATM   26  C31 UNL     1       1.111  53.408 -10.360  1.00  0.00     0.190 C 
HETATM   27  O5  UNL     1       2.287  54.117  -9.966  1.00  0.00    -0.384 OA
HETATM   28  C32 UNL     1       3.516  53.391  -9.984  1.00  0.00     0.122 C 
HETATM   29  C33 UNL     1       3.546  52.286  -8.936  1.00  0.00     0.033 C 
HETATM   30  C34 UNL     1       3.170  52.857  -7.576  1.00  0.00     0.013 C 
HETATM   31  C35 UNL     1       4.015  54.090  -7.092  1.00  0.00    -0.025 C 
HETATM   32  C36 UNL     1       5.352  53.508  -6.563  1.00  0.00     0.016 C 
HETATM   33  C37 UNL     1       3.170  54.752  -5.926  1.00  0.00     0.031 C 
HETATM   34  C38 UNL     1       2.176  55.812  -6.388  1.00  0.00    -0.036 C 
HETATM   35  C39 UNL     1       2.263  56.455  -7.557  1.00  0.00     0.057 C 
HETATM   36  C40 UNL     1       3.373  56.228  -8.492  1.00  0.00     0.154 C 
HETATM   37  O6  UNL     1       3.509  57.038  -9.411  1.00  0.00    -0.293 OA
HETATM   38  C41 UNL     1       4.358  55.083  -8.259  1.00  0.00     0.071 C 
HETATM   39  C42 UNL     1       4.626  54.384  -9.616  1.00  0.00     0.045 C 
HETATM   40  C43 UNL     1       0.487  58.184  -2.045  1.00  0.00     0.087 C 
HETATM   41  C44 UNL     1       0.387  59.627  -2.618  1.00  0.00     0.049 C 
HETATM   42  C45 UNL     1      -0.759  57.970  -1.054  1.00  0.00     0.181 C 
ENDROOT
BRANCH  25  43
HETATM   43  C25 UNL     1      -1.376  53.740 -10.648  1.00  0.00    -0.040 A 
HETATM   44  C26 UNL     1      -1.316  52.777 -11.671  1.00  0.00     0.008 A 
HETATM   45  C27 UNL     1      -2.478  52.350 -12.318  1.00  0.00     0.001 A 
HETATM   46  C28 UNL     1      -3.714  52.884 -11.954  1.00  0.00     0.000 A 
HETATM   47  C29 UNL     1      -3.791  53.834 -10.941  1.00  0.00     0.001 A 
HETATM   48  C30 UNL     1      -2.629  54.266 -10.295  1.00  0.00     0.008 A 
ENDBRANCH  25  43
BRANCH  40  49
HETATM   49  O7  UNL     1       1.703  58.161  -1.296  1.00  0.00    -0.387 OA
HETATM   50  H54 UNL     1       1.562  57.578  -0.518  1.00  0.00     0.210 HD
ENDBRANCH  40  49
BRANCH  42  51
HETATM   51  O8  UNL     1      -0.798  58.998  -0.043  1.00  0.00    -0.390 OA
HETATM   52  H56 UNL     1      -0.345  59.793  -0.375  1.00  0.00     0.210 HD
ENDBRANCH  42  51
BRANCH   7  53
HETATM   53  O3  UNL     1      -0.228  53.567  -0.259  1.00  0.00    -0.381 OA
HETATM   54  H12 UNL     1       0.211  53.192  -1.041  1.00  0.00     0.211 HD
ENDBRANCH   7  53
BRANCH   3  55
HETATM   55  C4  UNL     1      -2.875  57.229   1.094  1.00  0.00     0.172 C 
BRANCH  55  56
HETATM   56  O1  UNL     1      -3.735  57.673   0.054  1.00  0.00    -0.400 OA
HETATM   57  H8  UNL     1      -4.193  56.870  -0.275  1.00  0.00     0.209 HD
ENDBRANCH  55  56
ENDBRANCH   3  55
TORSDOF 6
ENDMDL
MODEL 8
REMARK minimizedAffinity -7.88539791
REMARK CNNscore 0.28184855
REMARK CNNaffinity 6.81607437
REMARK  6 active torsions:
REMARK  status: ('A' for Active; 'I' for Inactive)
REMARK    1  A    between atoms: C3_3  and  C4_4 
REMARK    2  A    between atoms: C4_4  and  O1_5 
REMARK    3  A    between atoms: C7_9  and  O3_10 
REMARK    4  A    between atoms: C24_28  and  C25_29 
REMARK    5  A    between atoms: C43_49  and  O7_51 
REMARK    6  A    between atoms: C45_52  and  O8_53 
ROOT
HETATM    1  C1  UNL     1       0.395  45.524  -9.064  1.00  0.00     0.013 C 
HETATM    2  C2  UNL     1       0.324  46.614 -10.123  1.00  0.00     0.023 C 
HETATM    3  C3  UNL     1       1.701  47.178 -10.547  1.00  0.00     0.047 C 
HETATM    4  C5  UNL     1       1.455  48.695 -10.649  1.00  0.00     0.160 C 
HETATM    5  O2  UNL     1       0.023  48.845 -10.685  1.00  0.00    -0.373 OA
HETATM    6  C6  UNL     1      -0.519  47.847  -9.782  1.00  0.00     0.167 C 
HETATM    7  C7  UNL     1      -0.527  48.404  -8.324  1.00  0.00     0.226 C 
HETATM    8  C8  UNL     1      -0.826  49.851  -8.368  1.00  0.00    -0.072 C 
HETATM    9  C9  UNL     1      -0.860  51.032  -8.585  1.00  0.00    -0.103 C 
HETATM   10  C10 UNL     1      -0.744  52.451  -8.958  1.00  0.00     0.100 C 
HETATM   11  C11 UNL     1       0.626  53.017  -8.526  1.00  0.00     0.014 C 
HETATM   12  C12 UNL     1       0.457  54.457  -7.888  1.00  0.00     0.000 C 
HETATM   13  C13 UNL     1       0.053  55.517  -8.920  1.00  0.00     0.006 C 
HETATM   14  C14 UNL     1       0.227  55.097 -10.365  1.00  0.00     0.001 C 
HETATM   15  C15 UNL     1       1.417  54.185 -10.666  1.00  0.00     0.014 C 
HETATM   16  C16 UNL     1       1.788  53.092  -9.604  1.00  0.00     0.006 C 
HETATM   17  C17 UNL     1       2.300  51.730 -10.280  1.00  0.00     0.034 C 
HETATM   18  C18 UNL     1       3.852  51.861 -10.368  1.00  0.00     0.012 C 
HETATM   19  C19 UNL     1       4.216  53.235  -9.821  1.00  0.00     0.044 C 
HETATM   20  C20 UNL     1       3.128  53.473  -8.769  1.00  0.00     0.094 C 
HETATM   21  O4  UNL     1       3.299  52.523  -7.681  1.00  0.00    -0.363 OA
HETATM   22  C21 UNL     1       4.597  52.290  -7.111  1.00  0.00     0.263 C 
HETATM   23  C22 UNL     1       5.336  53.481  -6.667  1.00  0.00    -0.080 C 
HETATM   24  C23 UNL     1       5.989  54.430  -6.317  1.00  0.00    -0.093 C 
HETATM   25  C24 UNL     1       6.783  55.625  -5.917  1.00  0.00     0.121 C 
HETATM   26  C31 UNL     1       6.009  56.505  -4.907  1.00  0.00     0.190 C 
HETATM   27  O5  UNL     1       4.918  57.125  -5.591  1.00  0.00    -0.384 OA
HETATM   28  C32 UNL     1       3.910  57.731  -4.783  1.00  0.00     0.122 C 
HETATM   29  C33 UNL     1       3.127  56.706  -3.973  1.00  0.00     0.033 C 
HETATM   30  C34 UNL     1       2.621  55.603  -4.892  1.00  0.00     0.013 C 
HETATM   31  C35 UNL     1       1.779  56.076  -6.132  1.00  0.00    -0.025 C 
HETATM   32  C36 UNL     1       0.358  56.380  -5.589  1.00  0.00     0.016 C 
HETATM   33  C37 UNL     1       1.765  54.845  -7.131  1.00  0.00     0.031 C 
HETATM   34  C38 UNL     1       2.923  54.823  -8.123  1.00  0.00    -0.036 C 
HETATM   35  C39 UNL     1       3.647  55.899  -8.446  1.00  0.00     0.057 C 
HETATM   36  C40 UNL     1       3.351  57.231  -7.902  1.00  0.00     0.154 C 
HETATM   37  O6  UNL     1       3.897  58.194  -8.445  1.00  0.00    -0.293 OA
HETATM   38  C41 UNL     1       2.336  57.397  -6.772  1.00  0.00     0.071 C 
HETATM   39  C42 UNL     1       2.912  58.398  -5.740  1.00  0.00     0.045 C 
HETATM   40  C43 UNL     1       1.735  51.130 -11.629  1.00  0.00     0.087 C 
HETATM   41  C44 UNL     1       2.306  51.844 -12.888  1.00  0.00     0.049 C 
HETATM   42  C45 UNL     1       2.060  49.563 -11.773  1.00  0.00     0.181 C 
ENDROOT
BRANCH  25  43
HETATM   43  C25 UNL     1       8.146  55.240  -5.365  1.00  0.00    -0.040 A 
HETATM   44  C26 UNL     1       8.353  54.030  -4.678  1.00  0.00     0.008 A 
HETATM   45  C27 UNL     1       9.610  53.709  -4.161  1.00  0.00     0.001 A 
HETATM   46  C28 UNL     1      10.675  54.596  -4.320  1.00  0.00     0.000 A 
HETATM   47  C29 UNL     1      10.488  55.795  -5.001  1.00  0.00     0.001 A 
HETATM   48  C30 UNL     1       9.230  56.119  -5.515  1.00  0.00     0.008 A 
ENDBRANCH  25  43
BRANCH  40  49
HETATM   49  O7  UNL     1       0.323  51.333 -11.691  1.00  0.00    -0.387 OA
HETATM   50  H54 UNL     1      -0.109  50.527 -11.333  1.00  0.00     0.210 HD
ENDBRANCH  40  49
BRANCH  42  51
HETATM   51  O8  UNL     1       1.554  49.042 -13.018  1.00  0.00    -0.390 OA
HETATM   52  H56 UNL     1       1.485  49.767 -13.666  1.00  0.00     0.210 HD
ENDBRANCH  42  51
BRANCH   7  53
HETATM   53  O3  UNL     1       0.740  48.234  -7.675  1.00  0.00    -0.381 OA
HETATM   54  H12 UNL     1       0.855  48.995  -7.082  1.00  0.00     0.211 HD
ENDBRANCH   7  53
BRANCH   3  55
HETATM   55  C4  UNL     1       2.285  46.467 -11.767  1.00  0.00     0.172 C 
BRANCH  55  56
HETATM   56  O1  UNL     1       3.580  45.931 -11.531  1.00  0.00    -0.400 OA
HETATM   57  H8  UNL     1       3.481  45.315 -10.773  1.00  0.00     0.209 HD
ENDBRANCH  55  56
ENDBRANCH   3  55
TORSDOF 6
ENDMDL
MODEL 9
REMARK minimizedAffinity -8.7472868
REMARK CNNscore 0.265596837
REMARK CNNaffinity 6.70192528
REMARK  6 active torsions:
REMARK  status: ('A' for Active; 'I' for Inactive)
REMARK    1  A    between atoms: C3_3  and  C4_4 
REMARK    2  A    between atoms: C4_4  and  O1_5 
REMARK    3  A    between atoms: C7_9  and  O3_10 
REMARK    4  A    between atoms: C24_28  and  C25_29 
REMARK    5  A    between atoms: C43_49  and  O7_51 
REMARK    6  A    between atoms: C45_52  and  O8_53 
ROOT
HETATM    1  C1  UNL     1       1.321  48.843  -9.383  1.00  0.00     0.013 C 
HETATM    2  C2  UNL     1       1.367  50.246  -9.970  1.00  0.00     0.023 C 
HETATM    3  C3  UNL     1       2.776  50.704 -10.413  1.00  0.00     0.047 C 
HETATM    4  C5  UNL     1       2.847  52.168  -9.940  1.00  0.00     0.160 C 
HETATM    5  O2  UNL     1       1.484  52.543  -9.665  1.00  0.00    -0.373 OA
HETATM    6  C6  UNL     1       0.846  51.379  -9.079  1.00  0.00     0.167 C 
HETATM    7  C7  UNL     1       1.117  51.346  -7.543  1.00  0.00     0.226 C 
HETATM    8  C8  UNL     1       1.128  52.732  -7.030  1.00  0.00    -0.072 C 
HETATM    9  C9  UNL     1       1.321  53.898  -6.816  1.00  0.00    -0.103 C 
HETATM   10  C10 UNL     1       1.692  55.317  -6.692  1.00  0.00     0.100 C 
HETATM   11  C11 UNL     1       3.190  55.459  -6.345  1.00  0.00     0.014 C 
HETATM   12  C12 UNL     1       3.401  56.565  -5.230  1.00  0.00     0.000 C 
HETATM   13  C13 UNL     1       3.119  57.982  -5.744  1.00  0.00     0.006 C 
HETATM   14  C14 UNL     1       3.040  58.109  -7.251  1.00  0.00     0.001 C 
HETATM   15  C15 UNL     1       3.969  57.201  -8.056  1.00  0.00     0.014 C 
HETATM   16  C16 UNL     1       4.215  55.748  -7.521  1.00  0.00     0.006 C 
HETATM   17  C17 UNL     1       4.350  54.674  -8.706  1.00  0.00     0.034 C 
HETATM   18  C18 UNL     1       5.875  54.583  -9.021  1.00  0.00     0.012 C 
HETATM   19  C19 UNL     1       6.579  55.579  -8.109  1.00  0.00     0.044 C 
HETATM   20  C20 UNL     1       5.689  55.575  -6.862  1.00  0.00     0.094 C 
HETATM   21  O4  UNL     1       5.775  54.273  -6.218  1.00  0.00    -0.363 OA
HETATM   22  C21 UNL     1       7.048  53.644  -6.006  1.00  0.00     0.263 C 
HETATM   23  C22 UNL     1       8.067  54.452  -5.319  1.00  0.00    -0.080 C 
HETATM   24  C23 UNL     1       8.941  55.087  -4.786  1.00  0.00    -0.093 C 
HETATM   25  C24 UNL     1      10.009  55.906  -4.149  1.00  0.00     0.121 C 
HETATM   26  C31 UNL     1       9.554  56.456  -2.776  1.00  0.00     0.190 C 
HETATM   27  O5  UNL     1       8.551  57.449  -2.996  1.00  0.00    -0.384 OA
HETATM   28  C32 UNL     1       7.789  57.860  -1.861  1.00  0.00     0.122 C 
HETATM   29  C33 UNL     1       6.901  56.743  -1.329  1.00  0.00     0.033 C 
HETATM   30  C34 UNL     1       6.075  56.156  -2.465  1.00  0.00     0.013 C 
HETATM   31  C35 UNL     1       5.221  57.183  -3.292  1.00  0.00    -0.025 C 
HETATM   32  C36 UNL     1       3.965  57.482  -2.432  1.00  0.00     0.016 C 
HETATM   33  C37 UNL     1       4.837  56.432  -4.634  1.00  0.00     0.031 C 
HETATM   34  C38 UNL     1       5.847  56.600  -5.764  1.00  0.00    -0.036 C 
HETATM   35  C39 UNL     1       6.742  57.591  -5.821  1.00  0.00     0.057 C 
HETATM   36  C40 UNL     1       6.797  58.653  -4.807  1.00  0.00     0.154 C 
HETATM   37  O6  UNL     1       7.470  59.651  -5.074  1.00  0.00    -0.293 OA
HETATM   38  C41 UNL     1       5.971  58.542  -3.527  1.00  0.00     0.071 C 
HETATM   39  C42 UNL     1       6.856  58.983  -2.334  1.00  0.00     0.045 C 
HETATM   40  C43 UNL     1       3.526  54.717 -10.054  1.00  0.00     0.087 C 
HETATM   41  C44 UNL     1       4.093  55.749 -11.070  1.00  0.00     0.049 C 
HETATM   42  C45 UNL     1       3.494  53.286 -10.785  1.00  0.00     0.181 C 
ENDROOT
BRANCH  25  43
HETATM   43  C25 UNL     1      11.312  55.134  -4.018  1.00  0.00    -0.040 A 
HETATM   44  C26 UNL     1      11.666  54.474  -2.828  1.00  0.00     0.008 A 
HETATM   45  C27 UNL     1      12.879  53.790  -2.726  1.00  0.00     0.001 A 
HETATM   46  C28 UNL     1      13.756  53.761  -3.810  1.00  0.00     0.000 A 
HETATM   47  C29 UNL     1      13.419  54.406  -4.996  1.00  0.00     0.001 A 
HETATM   48  C30 UNL     1      12.207  55.094  -5.099  1.00  0.00     0.008 A 
ENDBRANCH  25  43
BRANCH  40  49
HETATM   49  O7  UNL     1       2.190  55.146  -9.787  1.00  0.00    -0.387 OA
HETATM   50  H54 UNL     1       1.639  54.343  -9.657  1.00  0.00     0.210 HD
ENDBRANCH  40  49
BRANCH  42  51
HETATM   51  O8  UNL     1       2.755  53.353 -12.021  1.00  0.00    -0.390 OA
HETATM   52  H56 UNL     1       2.770  54.268 -12.356  1.00  0.00     0.210 HD
ENDBRANCH  42  51
BRANCH   7  53
HETATM   53  O3  UNL     1       2.383  50.749  -7.231  1.00  0.00    -0.381 OA
HETATM   54  H12 UNL     1       2.721  51.207  -6.443  1.00  0.00     0.211 HD
ENDBRANCH   7  53
BRANCH   3  55
HETATM   55  C4  UNL     1       3.059  50.417 -11.888  1.00  0.00     0.172 C 
BRANCH  55  56
HETATM   56  O1  UNL     1       4.033  49.400 -12.079  1.00  0.00    -0.400 OA
HETATM   57  H8  UNL     1       3.684  48.605 -11.622  1.00  0.00     0.209 HD
ENDBRANCH  55  56
ENDBRANCH   3  55
TORSDOF 6
ENDMDL
