MODEL 1
REMARK minimizedAffinity -8.36953259
REMARK CNNscore 0.505837917
REMARK CNNaffinity 6.80130148
REMARK  16 active torsions:
REMARK  status: ('A' for Active; 'I' for Inactive)
REMARK    1  A    between atoms: C4_4  and  C5_5 
REMARK    2  A    between atoms: C5_5  and  C6_6 
REMARK    3  A    between atoms: C6_6  and  C7_7 
REMARK    4  A    between atoms: C9_9  and  C10_10 
REMARK    5  A    between atoms: C10_10  and  O1_11 
REMARK    6  A    between atoms: C10_10  and  C11_12 
REMARK    7  A    between atoms: C11_12  and  C12_13 
REMARK    8  A    between atoms: C14_15  and  C15_16 
REMARK    9  A    between atoms: C15_16  and  C16_17 
REMARK   10  A    between atoms: C16_17  and  C17_18 
REMARK   11  A    between atoms: C19_20  and  C20_21 
REMARK   12  A    between atoms: C20_21  and  C21_22 
REMARK   13  A    between atoms: C21_22  and  C22_23 
REMARK   14  A    between atoms: C22_23  and  O2_24 
REMARK   15  A    between atoms: C24_26  and  C26_28 
REMARK   16  A    between atoms: C29_32  and  O4_34 
ROOT
HETATM    1  C17 UNL     1       0.516   6.508  11.635  1.00  0.00    -0.006 C 
HETATM    2  C18 UNL     1       1.261   5.919  12.866  1.00  0.00     0.019 C 
HETATM    3  C19 UNL     1       1.313   6.226  10.271  1.00  0.00     0.026 C 
HETATM    4  C23 UNL     1       2.213   7.386   9.807  1.00  0.00    -0.066 C 
HETATM    5  C24 UNL     1       2.430   7.708   8.506  1.00  0.00    -0.021 C 
HETATM    6  C25 UNL     1       3.298   8.851   8.056  1.00  0.00     0.052 C 
HETATM    7  C27 UNL     1       2.816   8.165  10.944  1.00  0.00     0.038 C 
HETATM    8  C28 UNL     1       1.752   8.769  11.859  1.00  0.00     0.042 C 
HETATM    9  C29 UNL     1       0.370   8.070  11.821  1.00  0.00     0.062 C 
HETATM   10  C30 UNL     1      -0.524   8.740  10.758  1.00  0.00     0.046 C 
ENDROOT
BRANCH   1  11
HETATM   11  C16 UNL     1      -0.872   5.761  11.524  1.00  0.00     0.016 C 
BRANCH  11  12
HETATM   12  C15 UNL     1      -1.451   5.015  12.741  1.00  0.00     0.028 C 
BRANCH  12  13
HETATM   13  C14 UNL     1      -2.599   4.090  12.448  1.00  0.00    -0.024 C 
HETATM   14  C12 UNL     1      -2.570   2.906  11.804  1.00  0.00    -0.085 C 
HETATM   15  C13 UNL     1      -1.332   2.284  11.218  1.00  0.00     0.043 C 
BRANCH  14  16
HETATM   16  C11 UNL     1      -3.845   2.083  11.673  1.00  0.00     0.069 C 
BRANCH  16  17
HETATM   17  C10 UNL     1      -4.998   2.845  10.994  1.00  0.00     0.145 C 
BRANCH  17  18
HETATM   18  C9  UNL     1      -5.808   3.649  11.978  1.00  0.00     0.007 C 
HETATM   19  C7  UNL     1      -6.866   3.280  12.731  1.00  0.00    -0.085 C 
HETATM   20  C8  UNL     1      -7.475   1.903  12.743  1.00  0.00     0.043 C 
BRANCH  19  21
HETATM   21  C6  UNL     1      -7.559   4.296  13.622  1.00  0.00     0.037 C 
BRANCH  21  22
HETATM   22  C5  UNL     1      -7.779   5.672  12.976  1.00  0.00     0.031 C 
BRANCH  22  23
HETATM   23  C4  UNL     1      -9.222   6.101  12.934  1.00  0.00    -0.024 C 
HETATM   24  C2  UNL     1      -9.922   6.732  13.898  1.00  0.00    -0.091 C 
HETATM   25  C1  UNL     1      -9.359   7.186  15.214  1.00  0.00     0.042 C 
HETATM   26  C3  UNL     1     -11.380   7.057  13.701  1.00  0.00     0.042 C 
ENDBRANCH  22  23
ENDBRANCH  21  22
ENDBRANCH  19  21
ENDBRANCH  17  18
BRANCH  17  27
HETATM   27  O1  UNL     1      -5.859   1.966  10.278  1.00  0.00    -0.391 OA
HETATM   28  H17 UNL     1      -5.327   1.593   9.554  1.00  0.00     0.210 HD
ENDBRANCH  17  27
ENDBRANCH  16  17
ENDBRANCH  14  16
ENDBRANCH  12  13
ENDBRANCH  11  12
ENDBRANCH   1  11
BRANCH   3  29
HETATM   29  C20 UNL     1       2.167   4.926  10.223  1.00  0.00     0.012 C 
BRANCH  29  30
HETATM   30  C21 UNL     1       3.636   5.167   9.850  1.00  0.00     0.027 C 
BRANCH  30  31
HETATM   31  C22 UNL     1       4.235   3.999   9.073  1.00  0.00     0.164 C 
BRANCH  31  32
HETATM   32  O2  UNL     1       4.159   2.780   9.798  1.00  0.00    -0.401 OA
HETATM   33  H38 UNL     1       4.091   2.985  10.757  1.00  0.00     0.209 HD
ENDBRANCH  31  32
ENDBRANCH  30  31
ENDBRANCH  29  30
ENDBRANCH   3  29
BRANCH   9  34
HETATM   34  O4  UNL     1      -0.242   8.352  13.088  1.00  0.00    -0.389 OA
HETATM   35  H50 UNL     1      -0.254   9.319  13.212  1.00  0.00     0.210 HD
ENDBRANCH   9  34
BRANCH   5  36
HETATM   36  C26 UNL     1       1.829   6.944   7.360  1.00  0.00     0.265 C 
HETATM   37  O3  UNL     1       2.375   6.025   6.761  1.00  0.00    -0.302 OA
ENDBRANCH   5  36
TORSDOF 16
ENDMDL
MODEL 2
REMARK minimizedAffinity -6.40267706
REMARK CNNscore 0.454036027
REMARK CNNaffinity 6.70499945
REMARK  16 active torsions:
REMARK  status: ('A' for Active; 'I' for Inactive)
REMARK    1  A    between atoms: C4_4  and  C5_5 
REMARK    2  A    between atoms: C5_5  and  C6_6 
REMARK    3  A    between atoms: C6_6  and  C7_7 
REMARK    4  A    between atoms: C9_9  and  C10_10 
REMARK    5  A    between atoms: C10_10  and  O1_11 
REMARK    6  A    between atoms: C10_10  and  C11_12 
REMARK    7  A    between atoms: C11_12  and  C12_13 
REMARK    8  A    between atoms: C14_15  and  C15_16 
REMARK    9  A    between atoms: C15_16  and  C16_17 
REMARK   10  A    between atoms: C16_17  and  C17_18 
REMARK   11  A    between atoms: C19_20  and  C20_21 
REMARK   12  A    between atoms: C20_21  and  C21_22 
REMARK   13  A    between atoms: C21_22  and  C22_23 
REMARK   14  A    between atoms: C22_23  and  O2_24 
REMARK   15  A    between atoms: C24_26  and  C26_28 
REMARK   16  A    between atoms: C29_32  and  O4_34 
ROOT
HETATM    1  C17 UNL     1      -3.524   6.774  14.253  1.00  0.00    -0.006 C 
HETATM    2  C18 UNL     1      -3.914   6.108  15.603  1.00  0.00     0.019 C 
HETATM    3  C19 UNL     1      -2.536   5.842  13.399  1.00  0.00     0.026 C 
HETATM    4  C23 UNL     1      -1.042   6.175  13.563  1.00  0.00    -0.066 C 
HETATM    5  C24 UNL     1      -0.123   6.069  12.569  1.00  0.00    -0.021 C 
HETATM    6  C25 UNL     1       1.333   6.410  12.728  1.00  0.00     0.052 C 
HETATM    7  C27 UNL     1      -0.690   6.671  14.940  1.00  0.00     0.038 C 
HETATM    8  C28 UNL     1      -1.469   7.929  15.318  1.00  0.00     0.042 C 
HETATM    9  C29 UNL     1      -2.795   8.145  14.547  1.00  0.00     0.062 C 
HETATM   10  C30 UNL     1      -2.533   8.991  13.285  1.00  0.00     0.046 C 
ENDROOT
BRANCH   1  11
HETATM   11  C16 UNL     1      -4.850   6.940  13.410  1.00  0.00     0.016 C 
BRANCH  11  12
HETATM   12  C15 UNL     1      -5.850   5.774  13.300  1.00  0.00     0.028 C 
BRANCH  12  13
HETATM   13  C14 UNL     1      -7.050   5.864  14.200  1.00  0.00    -0.024 C 
HETATM   14  C12 UNL     1      -7.528   6.948  14.844  1.00  0.00    -0.085 C 
HETATM   15  C13 UNL     1      -6.903   8.316  14.791  1.00  0.00     0.043 C 
BRANCH  14  16
HETATM   16  C11 UNL     1      -8.811   6.841  15.658  1.00  0.00     0.069 C 
BRANCH  16  17
HETATM   17  C10 UNL     1     -10.031   7.472  14.961  1.00  0.00     0.145 C 
BRANCH  17  18
HETATM   18  C9  UNL     1     -10.373   8.828  15.524  1.00  0.00     0.007 C 
HETATM   19  C7  UNL     1     -11.051   9.850  14.960  1.00  0.00    -0.085 C 
HETATM   20  C8  UNL     1     -11.644   9.831  13.577  1.00  0.00     0.043 C 
BRANCH  19  21
HETATM   21  C6  UNL     1     -11.227  11.155  15.716  1.00  0.00     0.037 C 
BRANCH  21  22
HETATM   22  C5  UNL     1     -10.133  12.201  15.457  1.00  0.00     0.031 C 
BRANCH  22  23
HETATM   23  C4  UNL     1     -10.532  13.269  14.473  1.00  0.00    -0.024 C 
HETATM   24  C2  UNL     1      -9.806  14.332  14.072  1.00  0.00    -0.091 C 
HETATM   25  C1  UNL     1      -8.397  14.626  14.506  1.00  0.00     0.042 C 
HETATM   26  C3  UNL     1     -10.377  15.331  13.101  1.00  0.00     0.042 C 
ENDBRANCH  22  23
ENDBRANCH  21  22
ENDBRANCH  19  21
ENDBRANCH  17  18
BRANCH  17  27
HETATM   27  O1  UNL     1     -11.174   6.626  15.035  1.00  0.00    -0.391 OA
HETATM   28  H17 UNL     1     -10.958   5.830  14.520  1.00  0.00     0.210 HD
ENDBRANCH  17  27
ENDBRANCH  16  17
ENDBRANCH  14  16
ENDBRANCH  12  13
ENDBRANCH  11  12
ENDBRANCH   1  11
BRANCH   3  29
HETATM   29  C20 UNL     1      -2.693   4.306  13.590  1.00  0.00     0.012 C 
BRANCH  29  30
HETATM   30  C21 UNL     1      -2.717   3.519  12.272  1.00  0.00     0.027 C 
BRANCH  30  31
HETATM   31  C22 UNL     1      -3.841   3.972  11.347  1.00  0.00     0.164 C 
BRANCH  31  32
HETATM   32  O2  UNL     1      -4.304   2.917  10.513  1.00  0.00    -0.401 OA
HETATM   33  H38 UNL     1      -3.592   2.245  10.428  1.00  0.00     0.209 HD
ENDBRANCH  31  32
ENDBRANCH  30  31
ENDBRANCH  29  30
ENDBRANCH   3  29
BRANCH   9  34
HETATM   34  O4  UNL     1      -3.614   8.954  15.404  1.00  0.00    -0.389 OA
HETATM   35  H50 UNL     1      -3.114   9.760  15.631  1.00  0.00     0.210 HD
ENDBRANCH   9  34
BRANCH   5  36
HETATM   36  C26 UNL     1      -0.462   5.583  11.188  1.00  0.00     0.265 C 
HETATM   37  O3  UNL     1       0.043   4.611  10.638  1.00  0.00    -0.302 OA
ENDBRANCH   5  36
TORSDOF 16
ENDMDL
MODEL 3
REMARK minimizedAffinity -7.74244308
REMARK CNNscore 0.432543039
REMARK CNNaffinity 7.30255842
REMARK  16 active torsions:
REMARK  status: ('A' for Active; 'I' for Inactive)
REMARK    1  A    between atoms: C4_4  and  C5_5 
REMARK    2  A    between atoms: C5_5  and  C6_6 
REMARK    3  A    between atoms: C6_6  and  C7_7 
REMARK    4  A    between atoms: C9_9  and  C10_10 
REMARK    5  A    between atoms: C10_10  and  O1_11 
REMARK    6  A    between atoms: C10_10  and  C11_12 
REMARK    7  A    between atoms: C11_12  and  C12_13 
REMARK    8  A    between atoms: C14_15  and  C15_16 
REMARK    9  A    between atoms: C15_16  and  C16_17 
REMARK   10  A    between atoms: C16_17  and  C17_18 
REMARK   11  A    between atoms: C19_20  and  C20_21 
REMARK   12  A    between atoms: C20_21  and  C21_22 
REMARK   13  A    between atoms: C21_22  and  C22_23 
REMARK   14  A    between atoms: C22_23  and  O2_24 
REMARK   15  A    between atoms: C24_26  and  C26_28 
REMARK   16  A    between atoms: C29_32  and  O4_34 
ROOT
HETATM    1  C17 UNL     1      -1.216   6.657  14.046  1.00  0.00    -0.006 C 
HETATM    2  C18 UNL     1      -1.103   5.208  14.597  1.00  0.00     0.019 C 
HETATM    3  C19 UNL     1      -0.841   6.728  12.487  1.00  0.00     0.026 C 
HETATM    4  C23 UNL     1       0.615   7.135  12.198  1.00  0.00    -0.066 C 
HETATM    5  C24 UNL     1       1.001   7.884  11.134  1.00  0.00    -0.021 C 
HETATM    6  C25 UNL     1       2.423   8.294  10.863  1.00  0.00     0.052 C 
HETATM    7  C27 UNL     1       1.588   6.647  13.238  1.00  0.00     0.038 C 
HETATM    8  C28 UNL     1       1.251   7.167  14.634  1.00  0.00     0.042 C 
HETATM    9  C29 UNL     1      -0.225   7.592  14.845  1.00  0.00     0.062 C 
HETATM   10  C30 UNL     1      -0.387   9.091  14.521  1.00  0.00     0.046 C 
ENDROOT
BRANCH   1  11
HETATM   11  C16 UNL     1      -2.729   7.094  14.179  1.00  0.00     0.016 C 
BRANCH  11  12
HETATM   12  C15 UNL     1      -3.847   6.035  14.142  1.00  0.00     0.028 C 
BRANCH  12  13
HETATM   13  C14 UNL     1      -4.974   6.249  15.114  1.00  0.00    -0.024 C 
HETATM   14  C12 UNL     1      -5.858   7.266  15.151  1.00  0.00    -0.085 C 
HETATM   15  C13 UNL     1      -5.860   8.430  14.198  1.00  0.00     0.043 C 
BRANCH  14  16
HETATM   16  C11 UNL     1      -6.978   7.259  16.183  1.00  0.00     0.069 C 
BRANCH  16  17
HETATM   17  C10 UNL     1      -7.913   6.041  16.062  1.00  0.00     0.145 C 
BRANCH  17  18
HETATM   18  C9  UNL     1      -7.789   5.357  14.724  1.00  0.00     0.007 C 
HETATM   19  C7  UNL     1      -8.434   5.606  13.564  1.00  0.00    -0.085 C 
HETATM   20  C8  UNL     1      -9.459   6.690  13.365  1.00  0.00     0.043 C 
BRANCH  19  21
HETATM   21  C6  UNL     1      -8.174   4.735  12.347  1.00  0.00     0.037 C 
BRANCH  21  22
HETATM   22  C5  UNL     1      -7.640   3.331  12.664  1.00  0.00     0.031 C 
BRANCH  22  23
HETATM   23  C4  UNL     1      -6.143   3.270  12.825  1.00  0.00    -0.024 C 
HETATM   24  C2  UNL     1      -5.217   3.110  11.859  1.00  0.00    -0.091 C 
HETATM   25  C1  UNL     1      -5.513   3.014  10.389  1.00  0.00     0.042 C 
HETATM   26  C3  UNL     1      -3.753   3.034  12.204  1.00  0.00     0.042 C 
ENDBRANCH  22  23
ENDBRANCH  21  22
ENDBRANCH  19  21
ENDBRANCH  17  18
BRANCH  17  27
HETATM   27  O1  UNL     1      -9.273   6.397  16.288  1.00  0.00    -0.391 OA
HETATM   28  H17 UNL     1      -9.329   6.682  17.215  1.00  0.00     0.210 HD
ENDBRANCH  17  27
ENDBRANCH  16  17
ENDBRANCH  14  16
ENDBRANCH  12  13
ENDBRANCH  11  12
ENDBRANCH   1  11
BRANCH   3  29
HETATM   29  C20 UNL     1      -1.144   5.457  11.642  1.00  0.00     0.012 C 
BRANCH  29  30
HETATM   30  C21 UNL     1       0.071   4.539  11.450  1.00  0.00     0.027 C 
BRANCH  30  31
HETATM   31  C22 UNL     1      -0.257   3.076  11.731  1.00  0.00     0.164 C 
BRANCH  31  32
HETATM   32  O2  UNL     1       0.490   2.194  10.904  1.00  0.00    -0.401 OA
HETATM   33  H38 UNL     1       0.768   2.677  10.095  1.00  0.00     0.209 HD
ENDBRANCH  31  32
ENDBRANCH  30  31
ENDBRANCH  29  30
ENDBRANCH   3  29
BRANCH   9  34
HETATM   34  O4  UNL     1      -0.467   7.462  16.254  1.00  0.00    -0.389 OA
HETATM   35  H50 UNL     1       0.203   7.988  16.728  1.00  0.00     0.210 HD
ENDBRANCH   9  34
BRANCH   5  36
HETATM   36  C26 UNL     1       0.040   8.384  10.092  1.00  0.00     0.265 C 
HETATM   37  O3  UNL     1       0.060   8.074   8.907  1.00  0.00    -0.302 OA
ENDBRANCH   5  36
TORSDOF 16
ENDMDL
MODEL 4
REMARK minimizedAffinity -7.60345268
REMARK CNNscore 0.418090492
REMARK CNNaffinity 7.01239347
REMARK  16 active torsions:
REMARK  status: ('A' for Active; 'I' for Inactive)
REMARK    1  A    between atoms: C4_4  and  C5_5 
REMARK    2  A    between atoms: C5_5  and  C6_6 
REMARK    3  A    between atoms: C6_6  and  C7_7 
REMARK    4  A    between atoms: C9_9  and  C10_10 
REMARK    5  A    between atoms: C10_10  and  O1_11 
REMARK    6  A    between atoms: C10_10  and  C11_12 
REMARK    7  A    between atoms: C11_12  and  C12_13 
REMARK    8  A    between atoms: C14_15  and  C15_16 
REMARK    9  A    between atoms: C15_16  and  C16_17 
REMARK   10  A    between atoms: C16_17  and  C17_18 
REMARK   11  A    between atoms: C19_20  and  C20_21 
REMARK   12  A    between atoms: C20_21  and  C21_22 
REMARK   13  A    between atoms: C21_22  and  C22_23 
REMARK   14  A    between atoms: C22_23  and  O2_24 
REMARK   15  A    between atoms: C24_26  and  C26_28 
REMARK   16  A    between atoms: C29_32  and  O4_34 
ROOT
HETATM    1  C17 UNL     1      -1.852   6.543  13.521  1.00  0.00    -0.006 C 
HETATM    2  C18 UNL     1      -1.690   5.595  14.742  1.00  0.00     0.019 C 
HETATM    3  C19 UNL     1      -0.772   6.223  12.378  1.00  0.00     0.026 C 
HETATM    4  C23 UNL     1       0.486   7.110  12.421  1.00  0.00    -0.066 C 
HETATM    5  C24 UNL     1       1.163   7.526  11.321  1.00  0.00    -0.021 C 
HETATM    6  C25 UNL     1       2.383   8.406  11.365  1.00  0.00     0.052 C 
HETATM    7  C27 UNL     1       0.885   7.510  13.816  1.00  0.00     0.038 C 
HETATM    8  C28 UNL     1      -0.222   8.275  14.538  1.00  0.00     0.042 C 
HETATM    9  C29 UNL     1      -1.654   8.037  13.997  1.00  0.00     0.062 C 
HETATM   10  C30 UNL     1      -1.983   9.082  12.913  1.00  0.00     0.046 C 
ENDROOT
BRANCH   1  11
HETATM   11  C16 UNL     1      -3.279   6.270  12.900  1.00  0.00     0.016 C 
BRANCH  11  12
HETATM   12  C15 UNL     1      -3.876   4.850  12.924  1.00  0.00     0.028 C 
BRANCH  12  13
HETATM   13  C14 UNL     1      -5.314   4.760  13.351  1.00  0.00    -0.024 C 
HETATM   14  C12 UNL     1      -5.914   5.380  14.387  1.00  0.00    -0.085 C 
HETATM   15  C13 UNL     1      -5.216   6.295  15.355  1.00  0.00     0.043 C 
BRANCH  14  16
HETATM   16  C11 UNL     1      -7.412   5.209  14.608  1.00  0.00     0.069 C 
BRANCH  16  17
HETATM   17  C10 UNL     1      -8.219   5.142  13.298  1.00  0.00     0.145 C 
BRANCH  17  18
HETATM   18  C9  UNL     1      -9.355   6.133  13.276  1.00  0.00     0.007 C 
HETATM   19  C7  UNL     1      -9.663   7.113  14.152  1.00  0.00    -0.085 C 
HETATM   20  C8  UNL     1      -8.876   7.435  15.395  1.00  0.00     0.043 C 
BRANCH  19  21
HETATM   21  C6  UNL     1     -10.905   7.961  13.941  1.00  0.00     0.037 C 
BRANCH  21  22
HETATM   22  C5  UNL     1     -12.014   7.283  13.122  1.00  0.00     0.031 C 
BRANCH  22  23
HETATM   23  C4  UNL     1     -12.995   6.501  13.954  1.00  0.00    -0.024 C 
HETATM   24  C2  UNL     1     -14.331   6.418  13.791  1.00  0.00    -0.091 C 
HETATM   25  C1  UNL     1     -15.105   7.068  12.679  1.00  0.00     0.042 C 
HETATM   26  C3  UNL     1     -15.173   5.613  14.746  1.00  0.00     0.042 C 
ENDBRANCH  22  23
ENDBRANCH  21  22
ENDBRANCH  19  21
ENDBRANCH  17  18
BRANCH  17  27
HETATM   27  O1  UNL     1      -8.727   3.834  13.060  1.00  0.00    -0.391 OA
HETATM   28  H17 UNL     1      -7.953   3.262  12.922  1.00  0.00     0.210 HD
ENDBRANCH  17  27
ENDBRANCH  16  17
ENDBRANCH  14  16
ENDBRANCH  12  13
ENDBRANCH  11  12
ENDBRANCH   1  11
BRANCH   3  29
HETATM   29  C20 UNL     1      -0.295   4.746  12.267  1.00  0.00     0.012 C 
BRANCH  29  30
HETATM   30  C21 UNL     1      -0.917   3.983  11.090  1.00  0.00     0.027 C 
BRANCH  30  31
HETATM   31  C22 UNL     1      -1.063   2.493  11.377  1.00  0.00     0.164 C 
BRANCH  31  32
HETATM   32  O2  UNL     1       0.049   1.746  10.903  1.00  0.00    -0.401 OA
HETATM   33  H38 UNL     1       0.488   2.252  10.184  1.00  0.00     0.209 HD
ENDBRANCH  31  32
ENDBRANCH  30  31
ENDBRANCH  29  30
ENDBRANCH   3  29
BRANCH   9  34
HETATM   34  O4  UNL     1      -2.534   8.314  15.096  1.00  0.00    -0.389 OA
HETATM   35  H50 UNL     1      -2.342   9.214  15.420  1.00  0.00     0.210 HD
ENDBRANCH   9  34
BRANCH   5  36
HETATM   36  C26 UNL     1       0.771   7.142   9.922  1.00  0.00     0.265 C 
HETATM   37  O3  UNL     1       0.027   7.788   9.195  1.00  0.00    -0.302 OA
ENDBRANCH   5  36
TORSDOF 16
ENDMDL
MODEL 5
REMARK minimizedAffinity -6.79063225
REMARK CNNscore 0.373705
REMARK CNNaffinity 6.50485373
REMARK  16 active torsions:
REMARK  status: ('A' for Active; 'I' for Inactive)
REMARK    1  A    between atoms: C4_4  and  C5_5 
REMARK    2  A    between atoms: C5_5  and  C6_6 
REMARK    3  A    between atoms: C6_6  and  C7_7 
REMARK    4  A    between atoms: C9_9  and  C10_10 
REMARK    5  A    between atoms: C10_10  and  O1_11 
REMARK    6  A    between atoms: C10_10  and  C11_12 
REMARK    7  A    between atoms: C11_12  and  C12_13 
REMARK    8  A    between atoms: C14_15  and  C15_16 
REMARK    9  A    between atoms: C15_16  and  C16_17 
REMARK   10  A    between atoms: C16_17  and  C17_18 
REMARK   11  A    between atoms: C19_20  and  C20_21 
REMARK   12  A    between atoms: C20_21  and  C21_22 
REMARK   13  A    between atoms: C21_22  and  C22_23 
REMARK   14  A    between atoms: C22_23  and  O2_24 
REMARK   15  A    between atoms: C24_26  and  C26_28 
REMARK   16  A    between atoms: C29_32  and  O4_34 
ROOT
HETATM    1  C17 UNL     1       0.953   6.627  11.871  1.00  0.00    -0.006 C 
HETATM    2  C18 UNL     1       1.150   5.282  12.626  1.00  0.00     0.019 C 
HETATM    3  C19 UNL     1       1.876   6.710  10.562  1.00  0.00     0.026 C 
HETATM    4  C23 UNL     1       3.209   7.455  10.765  1.00  0.00    -0.066 C 
HETATM    5  C24 UNL     1       3.806   8.222   9.818  1.00  0.00    -0.021 C 
HETATM    6  C25 UNL     1       5.099   8.961  10.026  1.00  0.00     0.052 C 
HETATM    7  C27 UNL     1       3.783   7.280  12.146  1.00  0.00     0.038 C 
HETATM    8  C28 UNL     1       2.831   7.769  13.235  1.00  0.00     0.042 C 
HETATM    9  C29 UNL     1       1.335   7.820  12.834  1.00  0.00     0.062 C 
HETATM   10  C30 UNL     1       0.995   9.211  12.263  1.00  0.00     0.046 C 
ENDROOT
BRANCH   1  11
HETATM   11  C16 UNL     1      -0.549   6.676  11.383  1.00  0.00     0.016 C 
BRANCH  11  12
HETATM   12  C15 UNL     1      -1.578   5.675  11.940  1.00  0.00     0.028 C 
BRANCH  12  13
HETATM   13  C14 UNL     1      -2.386   6.161  13.111  1.00  0.00    -0.024 C 
HETATM   14  C12 UNL     1      -2.848   7.406  13.343  1.00  0.00    -0.085 C 
HETATM   15  C13 UNL     1      -2.609   8.587  12.442  1.00  0.00     0.043 C 
BRANCH  14  16
HETATM   16  C11 UNL     1      -3.717   7.677  14.565  1.00  0.00     0.069 C 
BRANCH  16  17
HETATM   17  C10 UNL     1      -4.100   6.401  15.338  1.00  0.00     0.145 C 
BRANCH  17  18
HETATM   18  C9  UNL     1      -5.589   6.278  15.534  1.00  0.00     0.007 C 
HETATM   19  C7  UNL     1      -6.534   5.798  14.697  1.00  0.00    -0.085 C 
HETATM   20  C8  UNL     1      -6.265   5.247  13.322  1.00  0.00     0.043 C 
BRANCH  19  21
HETATM   21  C6  UNL     1      -7.996   5.825  15.104  1.00  0.00     0.037 C 
BRANCH  21  22
HETATM   22  C5  UNL     1      -8.959   6.313  14.012  1.00  0.00     0.031 C 
BRANCH  22  23
HETATM   23  C4  UNL     1     -10.119   7.118  14.536  1.00  0.00    -0.024 C 
HETATM   24  C2  UNL     1     -10.083   8.340  15.104  1.00  0.00    -0.091 C 
HETATM   25  C1  UNL     1      -8.845   9.174  15.274  1.00  0.00     0.042 C 
HETATM   26  C3  UNL     1     -11.344   8.989  15.610  1.00  0.00     0.042 C 
ENDBRANCH  22  23
ENDBRANCH  21  22
ENDBRANCH  19  21
ENDBRANCH  17  18
BRANCH  17  27
HETATM   27  O1  UNL     1      -3.448   6.336  16.602  1.00  0.00    -0.391 OA
HETATM   28  H17 UNL     1      -2.498   6.255  16.415  1.00  0.00     0.210 HD
ENDBRANCH  17  27
ENDBRANCH  16  17
ENDBRANCH  14  16
ENDBRANCH  12  13
ENDBRANCH  11  12
ENDBRANCH   1  11
BRANCH   3  29
HETATM   29  C20 UNL     1       2.201   5.362   9.855  1.00  0.00     0.012 C 
BRANCH  29  30
HETATM   30  C21 UNL     1       3.704   5.098   9.690  1.00  0.00     0.027 C 
BRANCH  30  31
HETATM   31  C22 UNL     1       3.986   3.810   8.924  1.00  0.00     0.164 C 
BRANCH  31  32
HETATM   32  O2  UNL     1       4.221   2.711   9.795  1.00  0.00    -0.401 OA
HETATM   33  H38 UNL     1       4.521   3.056  10.665  1.00  0.00     0.209 HD
ENDBRANCH  31  32
ENDBRANCH  30  31
ENDBRANCH  29  30
ENDBRANCH   3  29
BRANCH   9  34
HETATM   34  O4  UNL     1       0.601   7.704  14.062  1.00  0.00    -0.389 OA
HETATM   35  H50 UNL     1       0.907   8.406  14.667  1.00  0.00     0.210 HD
ENDBRANCH   9  34
BRANCH   5  36
HETATM   36  C26 UNL     1       3.240   8.411   8.439  1.00  0.00     0.265 C 
HETATM   37  O3  UNL     1       2.200   9.005   8.179  1.00  0.00    -0.302 OA
ENDBRANCH   5  36
TORSDOF 16
ENDMDL
MODEL 6
REMARK minimizedAffinity -7.31105566
REMARK CNNscore 0.373027623
REMARK CNNaffinity 6.65214777
REMARK  16 active torsions:
REMARK  status: ('A' for Active; 'I' for Inactive)
REMARK    1  A    between atoms: C4_4  and  C5_5 
REMARK    2  A    between atoms: C5_5  and  C6_6 
REMARK    3  A    between atoms: C6_6  and  C7_7 
REMARK    4  A    between atoms: C9_9  and  C10_10 
REMARK    5  A    between atoms: C10_10  and  O1_11 
REMARK    6  A    between atoms: C10_10  and  C11_12 
REMARK    7  A    between atoms: C11_12  and  C12_13 
REMARK    8  A    between atoms: C14_15  and  C15_16 
REMARK    9  A    between atoms: C15_16  and  C16_17 
REMARK   10  A    between atoms: C16_17  and  C17_18 
REMARK   11  A    between atoms: C19_20  and  C20_21 
REMARK   12  A    between atoms: C20_21  and  C21_22 
REMARK   13  A    between atoms: C21_22  and  C22_23 
REMARK   14  A    between atoms: C22_23  and  O2_24 
REMARK   15  A    between atoms: C24_26  and  C26_28 
REMARK   16  A    between atoms: C29_32  and  O4_34 
ROOT
HETATM    1  C17 UNL     1      -1.194   6.658  13.206  1.00  0.00    -0.006 C 
HETATM    2  C18 UNL     1      -1.077   5.387  14.094  1.00  0.00     0.019 C 
HETATM    3  C19 UNL     1      -0.456   6.462  11.795  1.00  0.00     0.026 C 
HETATM    4  C23 UNL     1       0.979   7.017  11.742  1.00  0.00    -0.066 C 
HETATM    5  C24 UNL     1       1.539   7.580  10.641  1.00  0.00    -0.021 C 
HETATM    6  C25 UNL     1       2.936   8.136  10.598  1.00  0.00     0.052 C 
HETATM    7  C27 UNL     1       1.709   6.907  13.054  1.00  0.00     0.038 C 
HETATM    8  C28 UNL     1       0.989   7.646  14.180  1.00  0.00     0.042 C 
HETATM    9  C29 UNL     1      -0.527   7.877  13.958  1.00  0.00     0.062 C 
HETATM   10  C30 UNL     1      -0.753   9.234  13.263  1.00  0.00     0.046 C 
ENDROOT
BRANCH   1  11
HETATM   11  C16 UNL     1      -2.729   6.878  12.899  1.00  0.00     0.016 C 
BRANCH  11  12
HETATM   12  C15 UNL     1      -3.330   8.295  12.934  1.00  0.00     0.028 C 
BRANCH  12  13
HETATM   13  C14 UNL     1      -4.672   8.413  13.601  1.00  0.00    -0.024 C 
HETATM   14  C12 UNL     1      -5.100   7.799  14.723  1.00  0.00    -0.085 C 
HETATM   15  C13 UNL     1      -4.282   6.828  15.529  1.00  0.00     0.043 C 
BRANCH  14  16
HETATM   16  C11 UNL     1      -6.484   8.112  15.277  1.00  0.00     0.069 C 
BRANCH  16  17
HETATM   17  C10 UNL     1      -7.189   6.888  15.889  1.00  0.00     0.145 C 
BRANCH  17  18
HETATM   18  C9  UNL     1      -8.526   6.619  15.246  1.00  0.00     0.007 C 
HETATM   19  C7  UNL     1      -9.538   7.469  14.970  1.00  0.00    -0.085 C 
HETATM   20  C8  UNL     1      -9.524   8.946  15.259  1.00  0.00     0.043 C 
BRANCH  19  21
HETATM   21  C6  UNL     1     -10.826   6.946  14.358  1.00  0.00     0.037 C 
BRANCH  21  22
HETATM   22  C5  UNL     1     -11.132   7.480  12.951  1.00  0.00     0.031 C 
BRANCH  22  23
HETATM   23  C4  UNL     1     -12.226   8.515  12.917  1.00  0.00    -0.024 C 
HETATM   24  C2  UNL     1     -13.557   8.305  12.897  1.00  0.00    -0.091 C 
HETATM   25  C1  UNL     1     -14.218   6.957  12.964  1.00  0.00     0.042 C 
HETATM   26  C3  UNL     1     -14.517   9.464  12.826  1.00  0.00     0.042 C 
ENDBRANCH  22  23
ENDBRANCH  21  22
ENDBRANCH  19  21
ENDBRANCH  17  18
BRANCH  17  27
HETATM   27  O1  UNL     1      -7.359   7.027  17.295  1.00  0.00    -0.391 OA
HETATM   28  H17 UNL     1      -6.466   7.035  17.678  1.00  0.00     0.210 HD
ENDBRANCH  17  27
ENDBRANCH  16  17
ENDBRANCH  14  16
ENDBRANCH  12  13
ENDBRANCH  11  12
ENDBRANCH   1  11
BRANCH   3  29
HETATM   29  C20 UNL     1      -0.415   5.013  11.228  1.00  0.00     0.012 C 
BRANCH  29  30
HETATM   30  C21 UNL     1      -1.799   4.442  10.892  1.00  0.00     0.027 C 
BRANCH  30  31
HETATM   31  C22 UNL     1      -1.868   2.932  11.092  1.00  0.00     0.164 C 
BRANCH  31  32
HETATM   32  O2  UNL     1      -1.720   2.224   9.869  1.00  0.00    -0.401 OA
HETATM   33  H38 UNL     1      -1.974   2.816   9.127  1.00  0.00     0.209 HD
ENDBRANCH  31  32
ENDBRANCH  30  31
ENDBRANCH  29  30
ENDBRANCH   3  29
BRANCH   9  34
HETATM   34  O4  UNL     1      -1.095   8.003  15.270  1.00  0.00    -0.389 OA
HETATM   35  H50 UNL     1      -0.618   8.712  15.741  1.00  0.00     0.210 HD
ENDBRANCH   9  34
BRANCH   5  36
HETATM   36  C26 UNL     1       0.820   7.704   9.327  1.00  0.00     0.265 C 
HETATM   37  O3  UNL     1       0.238   8.707   8.933  1.00  0.00    -0.302 OA
ENDBRANCH   5  36
TORSDOF 16
ENDMDL
MODEL 7
REMARK minimizedAffinity -7.36747313
REMARK CNNscore 0.331055194
REMARK CNNaffinity 7.19907379
REMARK  16 active torsions:
REMARK  status: ('A' for Active; 'I' for Inactive)
REMARK    1  A    between atoms: C4_4  and  C5_5 
REMARK    2  A    between atoms: C5_5  and  C6_6 
REMARK    3  A    between atoms: C6_6  and  C7_7 
REMARK    4  A    between atoms: C9_9  and  C10_10 
REMARK    5  A    between atoms: C10_10  and  O1_11 
REMARK    6  A    between atoms: C10_10  and  C11_12 
REMARK    7  A    between atoms: C11_12  and  C12_13 
REMARK    8  A    between atoms: C14_15  and  C15_16 
REMARK    9  A    between atoms: C15_16  and  C16_17 
REMARK   10  A    between atoms: C16_17  and  C17_18 
REMARK   11  A    between atoms: C19_20  and  C20_21 
REMARK   12  A    between atoms: C20_21  and  C21_22 
REMARK   13  A    between atoms: C21_22  and  C22_23 
REMARK   14  A    between atoms: C22_23  and  O2_24 
REMARK   15  A    between atoms: C24_26  and  C26_28 
REMARK   16  A    between atoms: C29_32  and  O4_34 
ROOT
HETATM    1  C17 UNL     1      -1.980   7.134  13.599  1.00  0.00    -0.006 C 
HETATM    2  C18 UNL     1      -2.496   6.091  14.630  1.00  0.00     0.019 C 
HETATM    3  C19 UNL     1      -1.255   6.427  12.355  1.00  0.00     0.026 C 
HETATM    4  C23 UNL     1       0.278   6.345  12.471  1.00  0.00    -0.066 C 
HETATM    5  C24 UNL     1       1.129   6.446  11.419  1.00  0.00    -0.021 C 
HETATM    6  C25 UNL     1       2.628   6.381  11.538  1.00  0.00     0.052 C 
HETATM    7  C27 UNL     1       0.760   6.173  13.887  1.00  0.00     0.038 C 
HETATM    8  C28 UNL     1       0.307   7.315  14.795  1.00  0.00     0.042 C 
HETATM    9  C29 UNL     1      -0.943   8.092  14.309  1.00  0.00     0.062 C 
HETATM   10  C30 UNL     1      -0.509   9.289  13.441  1.00  0.00     0.046 C 
ENDROOT
BRANCH   1  11
HETATM   11  C16 UNL     1      -3.243   7.895  13.029  1.00  0.00     0.016 C 
BRANCH  11  12
HETATM   12  C15 UNL     1      -4.652   7.558  13.552  1.00  0.00     0.028 C 
BRANCH  12  13
HETATM   13  C14 UNL     1      -5.144   6.172  13.242  1.00  0.00    -0.024 C 
HETATM   14  C12 UNL     1      -5.936   5.384  13.996  1.00  0.00    -0.085 C 
HETATM   15  C13 UNL     1      -6.474   5.758  15.350  1.00  0.00     0.043 C 
BRANCH  14  16
HETATM   16  C11 UNL     1      -6.383   4.028  13.463  1.00  0.00     0.069 C 
BRANCH  16  17
HETATM   17  C10 UNL     1      -7.719   4.081  12.700  1.00  0.00     0.145 C 
BRANCH  17  18
HETATM   18  C9  UNL     1      -8.659   5.116  13.264  1.00  0.00     0.007 C 
HETATM   19  C7  UNL     1      -9.393   6.054  12.629  1.00  0.00    -0.085 C 
HETATM   20  C8  UNL     1      -9.426   6.255  11.137  1.00  0.00     0.043 C 
BRANCH  19  21
HETATM   21  C6  UNL     1     -10.236   7.031  13.428  1.00  0.00     0.037 C 
BRANCH  21  22
HETATM   22  C5  UNL     1     -11.405   7.656  12.652  1.00  0.00     0.031 C 
BRANCH  22  23
HETATM   23  C4  UNL     1     -11.622   9.116  12.948  1.00  0.00    -0.024 C 
HETATM   24  C2  UNL     1     -12.204   9.658  14.037  1.00  0.00    -0.091 C 
HETATM   25  C1  UNL     1     -12.709   8.882  15.220  1.00  0.00     0.042 C 
HETATM   26  C3  UNL     1     -12.373  11.150  14.155  1.00  0.00     0.042 C 
ENDBRANCH  22  23
ENDBRANCH  21  22
ENDBRANCH  19  21
ENDBRANCH  17  18
BRANCH  17  27
HETATM   27  O1  UNL     1      -8.366   2.813  12.684  1.00  0.00    -0.391 OA
HETATM   28  H17 UNL     1      -7.792   2.221  12.169  1.00  0.00     0.210 HD
ENDBRANCH  17  27
ENDBRANCH  16  17
ENDBRANCH  14  16
ENDBRANCH  12  13
ENDBRANCH  11  12
ENDBRANCH   1  11
BRANCH   3  29
HETATM   29  C20 UNL     1      -1.768   5.010  11.966  1.00  0.00     0.012 C 
BRANCH  29  30
HETATM   30  C21 UNL     1      -0.710   3.908  12.116  1.00  0.00     0.027 C 
BRANCH  30  31
HETATM   31  C22 UNL     1      -0.983   2.714  11.208  1.00  0.00     0.164 C 
BRANCH  31  32
HETATM   32  O2  UNL     1       0.172   1.907  11.025  1.00  0.00    -0.401 OA
HETATM   33  H38 UNL     1       0.971   2.454  11.194  1.00  0.00     0.209 HD
ENDBRANCH  31  32
ENDBRANCH  30  31
ENDBRANCH  29  30
ENDBRANCH   3  29
BRANCH   9  34
HETATM   34  O4  UNL     1      -1.534   8.652  15.491  1.00  0.00    -0.389 OA
HETATM   35  H50 UNL     1      -0.854   9.179  15.951  1.00  0.00     0.210 HD
ENDBRANCH   9  34
BRANCH   5  36
HETATM   36  C26 UNL     1       0.664   6.625  10.001  1.00  0.00     0.265 C 
HETATM   37  O3  UNL     1       0.503   7.704   9.443  1.00  0.00    -0.302 OA
ENDBRANCH   5  36
TORSDOF 16
ENDMDL
MODEL 8
REMARK minimizedAffinity -8.19765091
REMARK CNNscore 0.318434983
REMARK CNNaffinity 6.59207153
REMARK  16 active torsions:
REMARK  status: ('A' for Active; 'I' for Inactive)
REMARK    1  A    between atoms: C4_4  and  C5_5 
REMARK    2  A    between atoms: C5_5  and  C6_6 
REMARK    3  A    between atoms: C6_6  and  C7_7 
REMARK    4  A    between atoms: C9_9  and  C10_10 
REMARK    5  A    between atoms: C10_10  and  O1_11 
REMARK    6  A    between atoms: C10_10  and  C11_12 
REMARK    7  A    between atoms: C11_12  and  C12_13 
REMARK    8  A    between atoms: C14_15  and  C15_16 
REMARK    9  A    between atoms: C15_16  and  C16_17 
REMARK   10  A    between atoms: C16_17  and  C17_18 
REMARK   11  A    between atoms: C19_20  and  C20_21 
REMARK   12  A    between atoms: C20_21  and  C21_22 
REMARK   13  A    between atoms: C21_22  and  C22_23 
REMARK   14  A    between atoms: C22_23  and  O2_24 
REMARK   15  A    between atoms: C24_26  and  C26_28 
REMARK   16  A    between atoms: C29_32  and  O4_34 
ROOT
HETATM    1  C17 UNL     1       0.509   6.518  11.715  1.00  0.00    -0.006 C 
HETATM    2  C18 UNL     1       1.220   5.987  12.992  1.00  0.00     0.019 C 
HETATM    3  C19 UNL     1       1.362   6.206  10.391  1.00  0.00     0.026 C 
HETATM    4  C23 UNL     1       2.256   7.367   9.919  1.00  0.00    -0.066 C 
HETATM    5  C24 UNL     1       2.514   7.648   8.616  1.00  0.00    -0.021 C 
HETATM    6  C25 UNL     1       3.375   8.794   8.157  1.00  0.00     0.052 C 
HETATM    7  C27 UNL     1       2.800   8.197  11.049  1.00  0.00     0.038 C 
HETATM    8  C28 UNL     1       1.692   8.810  11.903  1.00  0.00     0.042 C 
HETATM    9  C29 UNL     1       0.326   8.082  11.839  1.00  0.00     0.062 C 
HETATM   10  C30 UNL     1      -0.541   8.696  10.721  1.00  0.00     0.046 C 
ENDROOT
BRANCH   1  11
HETATM   11  C16 UNL     1      -0.859   5.738  11.579  1.00  0.00     0.016 C 
BRANCH  11  12
HETATM   12  C15 UNL     1      -1.358   4.844  12.730  1.00  0.00     0.028 C 
BRANCH  12  13
HETATM   13  C14 UNL     1      -2.562   4.000  12.418  1.00  0.00    -0.024 C 
HETATM   14  C12 UNL     1      -2.608   2.834  11.742  1.00  0.00    -0.085 C 
HETATM   15  C13 UNL     1      -1.413   2.152  11.134  1.00  0.00     0.043 C 
BRANCH  14  16
HETATM   16  C11 UNL     1      -3.932   2.095  11.597  1.00  0.00     0.069 C 
BRANCH  16  17
HETATM   17  C10 UNL     1      -5.011   2.911  10.860  1.00  0.00     0.145 C 
BRANCH  17  18
HETATM   18  C9  UNL     1      -5.832   3.754  11.802  1.00  0.00     0.007 C 
HETATM   19  C7  UNL     1      -6.866   3.403  12.596  1.00  0.00    -0.085 C 
HETATM   20  C8  UNL     1      -7.429   2.012  12.710  1.00  0.00     0.043 C 
BRANCH  19  21
HETATM   21  C6  UNL     1      -7.577   4.455  13.429  1.00  0.00     0.037 C 
BRANCH  21  22
HETATM   22  C5  UNL     1      -6.874   5.819  13.478  1.00  0.00     0.031 C 
BRANCH  22  23
HETATM   23  C4  UNL     1      -5.778   5.903  14.508  1.00  0.00    -0.024 C 
HETATM   24  C2  UNL     1      -4.580   6.510  14.387  1.00  0.00    -0.091 C 
HETATM   25  C1  UNL     1      -4.125   7.287  13.184  1.00  0.00     0.042 C 
HETATM   26  C3  UNL     1      -3.579   6.466  15.512  1.00  0.00     0.042 C 
ENDBRANCH  22  23
ENDBRANCH  21  22
ENDBRANCH  19  21
ENDBRANCH  17  18
BRANCH  17  27
HETATM   27  O1  UNL     1      -5.874   2.074  10.098  1.00  0.00    -0.391 OA
HETATM   28  H17 UNL     1      -5.324   1.676   9.402  1.00  0.00     0.210 HD
ENDBRANCH  17  27
ENDBRANCH  16  17
ENDBRANCH  14  16
ENDBRANCH  12  13
ENDBRANCH  11  12
ENDBRANCH   1  11
BRANCH   3  29
HETATM   29  C20 UNL     1       2.242   4.923  10.420  1.00  0.00     0.012 C 
BRANCH  29  30
HETATM   30  C21 UNL     1       3.684   5.153   9.946  1.00  0.00     0.027 C 
BRANCH  30  31
HETATM   31  C22 UNL     1       4.227   3.974   9.147  1.00  0.00     0.164 C 
BRANCH  31  32
HETATM   32  O2  UNL     1       3.459   3.721   7.979  1.00  0.00    -0.401 OA
HETATM   33  H38 UNL     1       2.556   4.086   8.108  1.00  0.00     0.209 HD
ENDBRANCH  31  32
ENDBRANCH  30  31
ENDBRANCH  29  30
ENDBRANCH   3  29
BRANCH   9  34
HETATM   34  O4  UNL     1      -0.338   8.394  13.072  1.00  0.00    -0.389 OA
HETATM   35  H50 UNL     1      -0.373   9.365  13.162  1.00  0.00     0.210 HD
ENDBRANCH   9  34
BRANCH   5  36
HETATM   36  C26 UNL     1       1.971   6.833   7.477  1.00  0.00     0.265 C 
HETATM   37  O3  UNL     1       1.368   7.284   6.511  1.00  0.00    -0.302 OA
ENDBRANCH   5  36
TORSDOF 16
ENDMDL
MODEL 9
REMARK minimizedAffinity -7.84167004
REMARK CNNscore 0.313369572
REMARK CNNaffinity 6.97719431
REMARK  16 active torsions:
REMARK  status: ('A' for Active; 'I' for Inactive)
REMARK    1  A    between atoms: C4_4  and  C5_5 
REMARK    2  A    between atoms: C5_5  and  C6_6 
REMARK    3  A    between atoms: C6_6  and  C7_7 
REMARK    4  A    between atoms: C9_9  and  C10_10 
REMARK    5  A    between atoms: C10_10  and  O1_11 
REMARK    6  A    between atoms: C10_10  and  C11_12 
REMARK    7  A    between atoms: C11_12  and  C12_13 
REMARK    8  A    between atoms: C14_15  and  C15_16 
REMARK    9  A    between atoms: C15_16  and  C16_17 
REMARK   10  A    between atoms: C16_17  and  C17_18 
REMARK   11  A    between atoms: C19_20  and  C20_21 
REMARK   12  A    between atoms: C20_21  and  C21_22 
REMARK   13  A    between atoms: C21_22  and  C22_23 
REMARK   14  A    between atoms: C22_23  and  O2_24 
REMARK   15  A    between atoms: C24_26  and  C26_28 
REMARK   16  A    between atoms: C29_32  and  O4_34 
ROOT
HETATM    1  C17 UNL     1      -0.961   6.630  13.629  1.00  0.00    -0.006 C 
HETATM    2  C18 UNL     1      -0.827   5.248  14.327  1.00  0.00     0.019 C 
HETATM    3  C19 UNL     1      -0.677   6.526  12.053  1.00  0.00     0.026 C 
HETATM    4  C23 UNL     1       0.764   6.879  11.639  1.00  0.00    -0.066 C 
HETATM    5  C24 UNL     1       1.092   7.503  10.479  1.00  0.00    -0.021 C 
HETATM    6  C25 UNL     1       2.499   7.861  10.085  1.00  0.00     0.052 C 
HETATM    7  C27 UNL     1       1.791   6.494  12.669  1.00  0.00     0.038 C 
HETATM    8  C28 UNL     1       1.539   7.167  14.017  1.00  0.00     0.042 C 
HETATM    9  C29 UNL     1       0.082   7.633  14.264  1.00  0.00     0.062 C 
HETATM   10  C30 UNL     1      -0.088   9.089  13.788  1.00  0.00     0.046 C 
ENDROOT
BRANCH   1  11
HETATM   11  C16 UNL     1      -2.460   7.100  13.799  1.00  0.00     0.016 C 
BRANCH  11  12
HETATM   12  C15 UNL     1      -3.516   6.718  12.745  1.00  0.00     0.028 C 
BRANCH  12  13
HETATM   13  C14 UNL     1      -4.677   5.911  13.253  1.00  0.00    -0.024 C 
HETATM   14  C12 UNL     1      -5.101   4.704  12.828  1.00  0.00    -0.085 C 
HETATM   15  C13 UNL     1      -4.472   3.926  11.704  1.00  0.00     0.043 C 
BRANCH  14  16
HETATM   16  C11 UNL     1      -6.265   4.018  13.531  1.00  0.00     0.069 C 
BRANCH  16  17
HETATM   17  C10 UNL     1      -7.634   4.342  12.906  1.00  0.00     0.145 C 
BRANCH  17  18
HETATM   18  C9  UNL     1      -8.214   5.628  13.438  1.00  0.00     0.007 C 
HETATM   19  C7  UNL     1      -8.223   6.116  14.697  1.00  0.00    -0.085 C 
HETATM   20  C8  UNL     1      -7.607   5.433  15.888  1.00  0.00     0.043 C 
BRANCH  19  21
HETATM   21  C6  UNL     1      -8.924   7.428  14.999  1.00  0.00     0.037 C 
BRANCH  21  22
HETATM   22  C5  UNL     1     -10.415   7.460  14.631  1.00  0.00     0.031 C 
BRANCH  22  23
HETATM   23  C4  UNL     1     -11.046   8.821  14.765  1.00  0.00    -0.024 C 
HETATM   24  C2  UNL     1     -11.647   9.549  13.802  1.00  0.00    -0.091 C 
HETATM   25  C1  UNL     1     -11.851   9.098  12.383  1.00  0.00     0.042 C 
HETATM   26  C3  UNL     1     -12.197  10.918  14.104  1.00  0.00     0.042 C 
ENDBRANCH  22  23
ENDBRANCH  21  22
ENDBRANCH  19  21
ENDBRANCH  17  18
BRANCH  17  27
HETATM   27  O1  UNL     1      -8.566   3.284  13.105  1.00  0.00    -0.391 OA
HETATM   28  H17 UNL     1      -8.224   2.522  12.607  1.00  0.00     0.210 HD
ENDBRANCH  17  27
ENDBRANCH  16  17
ENDBRANCH  14  16
ENDBRANCH  12  13
ENDBRANCH  11  12
ENDBRANCH   1  11
BRANCH   3  29
HETATM   29  C20 UNL     1      -1.038   5.175  11.370  1.00  0.00     0.012 C 
BRANCH  29  30
HETATM   30  C21 UNL     1      -0.155   4.002  11.817  1.00  0.00     0.027 C 
BRANCH  30  31
HETATM   31  C22 UNL     1      -0.772   2.650  11.478  1.00  0.00     0.164 C 
BRANCH  31  32
HETATM   32  O2  UNL     1       0.170   1.768  10.881  1.00  0.00    -0.401 OA
HETATM   33  H38 UNL     1       0.888   2.300  10.473  1.00  0.00     0.209 HD
ENDBRANCH  31  32
ENDBRANCH  30  31
ENDBRANCH  29  30
ENDBRANCH   3  29
BRANCH   9  34
HETATM   34  O4  UNL     1      -0.079   7.659  15.690  1.00  0.00    -0.389 OA
HETATM   35  H50 UNL     1       0.621   8.225  16.065  1.00  0.00     0.210 HD
ENDBRANCH   9  34
BRANCH   5  36
HETATM   36  C26 UNL     1       0.077   7.901   9.445  1.00  0.00     0.265 C 
HETATM   37  O3  UNL     1      -0.416   9.017   9.333  1.00  0.00    -0.302 OA
ENDBRANCH   5  36
TORSDOF 16
ENDMDL
