MODEL 1
REMARK minimizedAffinity -9.40973091
REMARK  5 active torsions:
REMARK  status: ('A' for Active; 'I' for Inactive)
REMARK    1  A    between atoms: C3_3  and  C4_4 
REMARK    2  A    between atoms: C4_4  and  O2_6 
REMARK    3  A    between atoms: O2_6  and  C5_7 
REMARK    4  A    between atoms: C5_7  and  C6_8 
REMARK    5  A    between atoms: C12_14  and  C13_15 
ROOT
HETATM    1  C1  UNL     1      -0.518   4.060  12.144  1.00  0.00     0.069 C 
HETATM    2  C2  UNL     1      -1.624   4.993  12.561  1.00  0.00     0.018 C 
HETATM    3  C3  UNL     1      -1.513   6.338  12.623  1.00  0.00     0.052 C 
HETATM    4  C12 UNL     1      -2.670   7.239  13.031  1.00  0.00     0.104 C 
HETATM    5  C22 UNL     1      -3.975   6.450  13.169  1.00  0.00     0.024 C 
HETATM    6  C23 UNL     1      -4.004   5.103  13.096  1.00  0.00     0.020 C 
HETATM    7  C24 UNL     1      -5.281   4.305  13.194  1.00  0.00     0.058 C 
HETATM    8  C25 UNL     1      -6.490   5.126  12.768  1.00  0.00     0.014 C 
HETATM    9  C26 UNL     1      -6.536   6.446  13.525  1.00  0.00     0.084 C 
HETATM   10  C27 UNL     1      -5.243   7.215  13.363  1.00  0.00     0.158 C 
HETATM   11  O5  UNL     1      -5.225   8.443  13.444  1.00  0.00    -0.293 OA
HETATM   12  N1  UNL     1      -2.836   4.396  12.879  1.00  0.00    -0.362 N 
HETATM   13  H22 UNL     1      -2.916   3.400  12.705  1.00  0.00     0.165 HD
ENDROOT
BRANCH   4  14
HETATM   14  C13 UNL     1      -2.336   8.010  14.296  1.00  0.00     0.029 A 
HETATM   15  C14 UNL     1      -2.340   7.518  15.546  1.00  0.00     0.154 A 
HETATM   16  O3  UNL     1      -2.052   8.201  16.702  1.00  0.00    -0.321 OA
HETATM   17  C15 UNL     1      -1.784   9.544  16.594  1.00  0.00     0.089 A 
HETATM   18  C16 UNL     1      -1.554  10.246  17.778  1.00  0.00     0.040 A 
HETATM   19  C20 UNL     1      -1.727  10.206  15.369  1.00  0.00     0.050 A 
HETATM   20  C17 UNL     1      -1.263  11.613  17.729  1.00  0.00     0.026 A 
HETATM   21  C18 UNL     1      -1.200  12.267  16.496  1.00  0.00     0.035 A 
HETATM   22 CL1  UNL     1      -0.824  13.946  16.440  1.00  0.00    -0.084 Cl
HETATM   23  C19 UNL     1      -1.434  11.571  15.312  1.00  0.00     0.042 A 
HETATM   24  C21 UNL     1      -1.961   9.436  14.135  1.00  0.00     0.194 A 
HETATM   25  O4  UNL     1      -1.825   9.953  13.033  1.00  0.00    -0.287 OA
ENDBRANCH   4  14
BRANCH   3  26
HETATM   26  C4  UNL     1      -0.262   6.998  12.218  1.00  0.00     0.292 C 
HETATM   27  O1  UNL     1       0.716   7.108  12.946  1.00  0.00    -0.259 OA
BRANCH  26  28
HETATM   28  O2  UNL     1      -0.429   7.509  10.974  1.00  0.00    -0.313 OA
BRANCH  28  29
HETATM   29  C5  UNL     1       0.638   8.337  10.501  1.00  0.00     0.217 C 
BRANCH  29  30
HETATM   30  C6  UNL     1       1.317   7.648   9.343  1.00  0.00    -0.034 A 
HETATM   31  C7  UNL     1       1.052   8.059   8.027  1.00  0.00     0.009 A 
HETATM   32  C8  UNL     1       1.640   7.401   6.944  1.00  0.00     0.001 A 
HETATM   33  C9  UNL     1       2.499   6.326   7.163  1.00  0.00     0.000 A 
HETATM   34  C10 UNL     1       2.782   5.914   8.468  1.00  0.00     0.001 A 
HETATM   35  C11 UNL     1       2.195   6.573   9.552  1.00  0.00     0.009 A 
ENDBRANCH  29  30
ENDBRANCH  28  29
ENDBRANCH  26  28
ENDBRANCH   3  26
TORSDOF 5
ENDMDL
MODEL 2
REMARK minimizedAffinity -9.07487679
REMARK  5 active torsions:
REMARK  status: ('A' for Active; 'I' for Inactive)
REMARK    1  A    between atoms: C3_3  and  C4_4 
REMARK    2  A    between atoms: C4_4  and  O2_6 
REMARK    3  A    between atoms: O2_6  and  C5_7 
REMARK    4  A    between atoms: C5_7  and  C6_8 
REMARK    5  A    between atoms: C12_14  and  C13_15 
ROOT
HETATM    1  C1  UNL     1       1.940   5.158  10.375  1.00  0.00     0.069 C 
HETATM    2  C2  UNL     1       1.565   5.790  11.688  1.00  0.00     0.018 C 
HETATM    3  C3  UNL     1       0.507   5.423  12.443  1.00  0.00     0.052 C 
HETATM    4  C12 UNL     1       0.183   6.082  13.777  1.00  0.00     0.104 C 
HETATM    5  C22 UNL     1       1.290   7.046  14.212  1.00  0.00     0.024 C 
HETATM    6  C23 UNL     1       2.317   7.365  13.396  1.00  0.00     0.020 C 
HETATM    7  C24 UNL     1       3.438   8.285  13.812  1.00  0.00     0.058 C 
HETATM    8  C25 UNL     1       3.621   8.299  15.325  1.00  0.00     0.014 C 
HETATM    9  C26 UNL     1       2.300   8.592  16.022  1.00  0.00     0.084 C 
HETATM   10  C27 UNL     1       1.224   7.618  15.589  1.00  0.00     0.158 C 
HETATM   11  O5  UNL     1       0.285   7.344  16.335  1.00  0.00    -0.293 OA
HETATM   12  N1  UNL     1       2.397   6.807  12.134  1.00  0.00    -0.362 N 
HETATM   13  H22 UNL     1       3.246   6.971  11.602  1.00  0.00     0.165 HD
ENDROOT
BRANCH   4  14
HETATM   14  C13 UNL     1      -1.175   6.760  13.730  1.00  0.00     0.029 A 
HETATM   15  C14 UNL     1      -1.497   7.835  12.990  1.00  0.00     0.154 A 
HETATM   16  O3  UNL     1      -2.715   8.468  12.942  1.00  0.00    -0.321 OA
HETATM   17  C15 UNL     1      -3.703   8.003  13.775  1.00  0.00     0.089 A 
HETATM   18  C16 UNL     1      -4.918   8.690  13.768  1.00  0.00     0.040 A 
HETATM   19  C20 UNL     1      -3.537   6.890  14.596  1.00  0.00     0.050 A 
HETATM   20  C17 UNL     1      -5.967   8.254  14.585  1.00  0.00     0.026 A 
HETATM   21  C18 UNL     1      -5.794   7.133  15.399  1.00  0.00     0.035 A 
HETATM   22 CL1  UNL     1      -7.093   6.589  16.390  1.00  0.00    -0.084 Cl
HETATM   23  C19 UNL     1      -4.581   6.447  15.413  1.00  0.00     0.042 A 
HETATM   24  C21 UNL     1      -2.249   6.176  14.572  1.00  0.00     0.194 A 
HETATM   25  O4  UNL     1      -2.089   5.138  15.202  1.00  0.00    -0.287 OA
ENDBRANCH   4  14
BRANCH   3  26
HETATM   26  C4  UNL     1      -0.346   4.298  12.029  1.00  0.00     0.292 C 
HETATM   27  O1  UNL     1      -0.053   3.122  12.202  1.00  0.00    -0.259 OA
BRANCH  26  28
HETATM   28  O2  UNL     1      -1.425   4.794  11.376  1.00  0.00    -0.313 OA
BRANCH  28  29
HETATM   29  C5  UNL     1      -2.118   3.864  10.539  1.00  0.00     0.217 C 
BRANCH  29  30
HETATM   30  C6  UNL     1      -3.536   3.720  11.035  1.00  0.00    -0.034 A 
HETATM   31  C7  UNL     1      -3.905   4.260  12.277  1.00  0.00     0.009 A 
HETATM   32  C8  UNL     1      -5.202   4.094  12.767  1.00  0.00     0.001 A 
HETATM   33  C9  UNL     1      -6.146   3.390  12.022  1.00  0.00     0.000 A 
HETATM   34  C10 UNL     1      -5.796   2.858  10.779  1.00  0.00     0.001 A 
HETATM   35  C11 UNL     1      -4.499   3.024  10.287  1.00  0.00     0.009 A 
ENDBRANCH  29  30
ENDBRANCH  28  29
ENDBRANCH  26  28
ENDBRANCH   3  26
TORSDOF 5
ENDMDL
MODEL 3
REMARK minimizedAffinity -8.99128437
REMARK  5 active torsions:
REMARK  status: ('A' for Active; 'I' for Inactive)
REMARK    1  A    between atoms: C3_3  and  C4_4 
REMARK    2  A    between atoms: C4_4  and  O2_6 
REMARK    3  A    between atoms: O2_6  and  C5_7 
REMARK    4  A    between atoms: C5_7  and  C6_8 
REMARK    5  A    between atoms: C12_14  and  C13_15 
ROOT
HETATM    1  C1  UNL     1      -6.054   8.002  15.749  1.00  0.00     0.069 C 
HETATM    2  C2  UNL     1      -4.665   8.538  15.525  1.00  0.00     0.018 C 
HETATM    3  C3  UNL     1      -4.049   8.595  14.324  1.00  0.00     0.052 C 
HETATM    4  C12 UNL     1      -2.649   9.167  14.148  1.00  0.00     0.104 C 
HETATM    5  C22 UNL     1      -2.139   9.815  15.438  1.00  0.00     0.024 C 
HETATM    6  C23 UNL     1      -2.814   9.712  16.602  1.00  0.00     0.020 C 
HETATM    7  C24 UNL     1      -2.352  10.370  17.878  1.00  0.00     0.058 C 
HETATM    8  C25 UNL     1      -1.480  11.587  17.598  1.00  0.00     0.014 C 
HETATM    9  C26 UNL     1      -0.344  11.226  16.652  1.00  0.00     0.084 C 
HETATM   10  C27 UNL     1      -0.871  10.601  15.378  1.00  0.00     0.158 C 
HETATM   11  O5  UNL     1      -0.241  10.690  14.324  1.00  0.00    -0.293 OA
HETATM   12  N1  UNL     1      -4.008   9.016  16.650  1.00  0.00    -0.362 N 
HETATM   13  H22 UNL     1      -4.547   9.067  17.508  1.00  0.00     0.165 HD
ENDROOT
BRANCH   4  14
HETATM   14  C13 UNL     1      -1.693   8.107  13.628  1.00  0.00     0.029 A 
HETATM   15  C14 UNL     1      -1.284   7.015  14.296  1.00  0.00     0.154 A 
HETATM   16  O3  UNL     1      -0.413   6.053  13.848  1.00  0.00    -0.321 OA
HETATM   17  C15 UNL     1       0.155   6.239  12.612  1.00  0.00     0.089 A 
HETATM   18  C16 UNL     1       1.087   5.291  12.188  1.00  0.00     0.040 A 
HETATM   19  C20 UNL     1      -0.171   7.313  11.785  1.00  0.00     0.050 A 
HETATM   20  C17 UNL     1       1.688   5.421  10.932  1.00  0.00     0.026 A 
HETATM   21  C18 UNL     1       1.350   6.496  10.107  1.00  0.00     0.035 A 
HETATM   22 CL1  UNL     1       2.080   6.642   8.554  1.00  0.00    -0.084 Cl
HETATM   23  C19 UNL     1       0.424   7.448  10.527  1.00  0.00     0.042 A 
HETATM   24  C21 UNL     1      -1.169   8.291  12.252  1.00  0.00     0.194 A 
HETATM   25  O4  UNL     1      -1.558   9.194  11.522  1.00  0.00    -0.287 OA
ENDBRANCH   4  14
BRANCH   3  26
HETATM   26  C4  UNL     1      -4.753   8.165  13.107  1.00  0.00     0.292 C 
HETATM   27  O1  UNL     1      -4.803   8.828  12.079  1.00  0.00    -0.259 OA
BRANCH  26  28
HETATM   28  O2  UNL     1      -5.375   6.989  13.363  1.00  0.00    -0.313 OA
BRANCH  28  29
HETATM   29  C5  UNL     1      -4.616   5.814  13.061  1.00  0.00     0.217 C 
BRANCH  29  30
HETATM   30  C6  UNL     1      -5.560   4.647  12.901  1.00  0.00    -0.034 A 
HETATM   31  C7  UNL     1      -6.708   4.558  13.703  1.00  0.00     0.009 A 
HETATM   32  C8  UNL     1      -7.566   3.460  13.597  1.00  0.00     0.001 A 
HETATM   33  C9  UNL     1      -7.287   2.441  12.688  1.00  0.00     0.000 A 
HETATM   34  C10 UNL     1      -6.154   2.523  11.875  1.00  0.00     0.001 A 
HETATM   35  C11 UNL     1      -5.296   3.622  11.980  1.00  0.00     0.009 A 
ENDBRANCH  29  30
ENDBRANCH  28  29
ENDBRANCH  26  28
ENDBRANCH   3  26
TORSDOF 5
ENDMDL
MODEL 4
REMARK minimizedAffinity -8.94862556
REMARK  5 active torsions:
REMARK  status: ('A' for Active; 'I' for Inactive)
REMARK    1  A    between atoms: C3_3  and  C4_4 
REMARK    2  A    between atoms: C4_4  and  O2_6 
REMARK    3  A    between atoms: O2_6  and  C5_7 
REMARK    4  A    between atoms: C5_7  and  C6_8 
REMARK    5  A    between atoms: C12_14  and  C13_15 
ROOT
HETATM    1  C1  UNL     1      -2.863   9.552  17.185  1.00  0.00     0.069 C 
HETATM    2  C2  UNL     1      -2.989   8.553  16.066  1.00  0.00     0.018 C 
HETATM    3  C3  UNL     1      -1.946   7.952  15.451  1.00  0.00     0.052 C 
HETATM    4  C12 UNL     1      -2.129   6.931  14.337  1.00  0.00     0.104 C 
HETATM    5  C22 UNL     1      -3.602   6.556  14.154  1.00  0.00     0.024 C 
HETATM    6  C23 UNL     1      -4.589   7.207  14.805  1.00  0.00     0.020 C 
HETATM    7  C24 UNL     1      -6.045   6.835  14.669  1.00  0.00     0.058 C 
HETATM    8  C25 UNL     1      -6.216   5.374  14.270  1.00  0.00     0.014 C 
HETATM    9  C26 UNL     1      -5.386   5.054  13.036  1.00  0.00     0.084 C 
HETATM   10  C27 UNL     1      -3.931   5.419  13.244  1.00  0.00     0.158 C 
HETATM   11  O5  UNL     1      -3.040   4.828  12.636  1.00  0.00    -0.293 OA
HETATM   12  N1  UNL     1      -4.282   8.236  15.676  1.00  0.00    -0.362 N 
HETATM   13  H22 UNL     1      -5.037   8.614  16.240  1.00  0.00     0.165 HD
ENDROOT
BRANCH   4  14
HETATM   14  C13 UNL     1      -1.503   7.423  13.044  1.00  0.00     0.029 A 
HETATM   15  C14 UNL     1      -1.872   8.513  12.351  1.00  0.00     0.154 A 
HETATM   16  O3  UNL     1      -1.325   8.967  11.176  1.00  0.00    -0.321 OA
HETATM   17  C15 UNL     1      -0.335   8.208  10.603  1.00  0.00     0.089 A 
HETATM   18  C16 UNL     1       0.172   8.640   9.377  1.00  0.00     0.040 A 
HETATM   19  C20 UNL     1       0.172   7.054  11.199  1.00  0.00     0.050 A 
HETATM   20  C17 UNL     1       1.192   7.915   8.753  1.00  0.00     0.026 A 
HETATM   21  C18 UNL     1       1.700   6.764   9.361  1.00  0.00     0.035 A 
HETATM   22 CL1  UNL     1       2.968   5.884   8.597  1.00  0.00    -0.084 Cl
HETATM   23  C19 UNL     1       1.193   6.325  10.583  1.00  0.00     0.042 A 
HETATM   24  C21 UNL     1      -0.373   6.629  12.500  1.00  0.00     0.194 A 
HETATM   25  O4  UNL     1       0.108   5.680  13.107  1.00  0.00    -0.287 OA
ENDBRANCH   4  14
BRANCH   3  26
HETATM   26  C4  UNL     1      -0.570   8.216  15.897  1.00  0.00     0.292 C 
HETATM   27  O1  UNL     1       0.193   7.347  16.301  1.00  0.00    -0.259 OA
BRANCH  26  28
HETATM   28  O2  UNL     1      -0.352   9.552  15.855  1.00  0.00    -0.313 OA
BRANCH  28  29
HETATM   29  C5  UNL     1       0.978   9.968  16.177  1.00  0.00     0.217 C 
BRANCH  29  30
HETATM   30  C6  UNL     1       1.026  10.382  17.628  1.00  0.00    -0.034 A 
HETATM   31  C7  UNL     1      -0.116  10.919  18.244  1.00  0.00     0.009 A 
HETATM   32  C8  UNL     1      -0.072  11.347  19.573  1.00  0.00     0.001 A 
HETATM   33  C9  UNL     1       1.111  11.242  20.302  1.00  0.00     0.000 A 
HETATM   34  C10 UNL     1       2.251  10.697  19.705  1.00  0.00     0.001 A 
HETATM   35  C11 UNL     1       2.208  10.268  18.376  1.00  0.00     0.009 A 
ENDBRANCH  29  30
ENDBRANCH  28  29
ENDBRANCH  26  28
ENDBRANCH   3  26
TORSDOF 5
ENDMDL
MODEL 5
REMARK minimizedAffinity -8.87774467
REMARK  5 active torsions:
REMARK  status: ('A' for Active; 'I' for Inactive)
REMARK    1  A    between atoms: C3_3  and  C4_4 
REMARK    2  A    between atoms: C4_4  and  O2_6 
REMARK    3  A    between atoms: O2_6  and  C5_7 
REMARK    4  A    between atoms: C5_7  and  C6_8 
REMARK    5  A    between atoms: C12_14  and  C13_15 
ROOT
HETATM    1  C1  UNL     1      -2.279   7.339  16.127  1.00  0.00     0.069 C 
HETATM    2  C2  UNL     1      -1.072   7.967  15.481  1.00  0.00     0.018 C 
HETATM    3  C3  UNL     1      -0.953   8.223  14.160  1.00  0.00     0.052 C 
HETATM    4  C12 UNL     1       0.283   8.880  13.560  1.00  0.00     0.104 C 
HETATM    5  C22 UNL     1       1.247   9.361  14.648  1.00  0.00     0.024 C 
HETATM    6  C23 UNL     1       1.060   9.061  15.950  1.00  0.00     0.020 C 
HETATM    7  C24 UNL     1       1.976   9.551  17.044  1.00  0.00     0.058 C 
HETATM    8  C25 UNL     1       2.691  10.835  16.643  1.00  0.00     0.014 C 
HETATM    9  C26 UNL     1       3.382  10.667  15.298  1.00  0.00     0.084 C 
HETATM   10  C27 UNL     1       2.408  10.206  14.235  1.00  0.00     0.158 C 
HETATM   11  O5  UNL     1       2.594  10.474  13.049  1.00  0.00    -0.293 OA
HETATM   12  N1  UNL     1      -0.034   8.309  16.336  1.00  0.00    -0.362 N 
HETATM   13  H22 UNL     1      -0.209   8.213  17.331  1.00  0.00     0.165 HD
ENDROOT
BRANCH   4  14
HETATM   14  C13 UNL     1       0.961   7.951  12.569  1.00  0.00     0.029 A 
HETATM   15  C14 UNL     1       1.735   6.896  12.875  1.00  0.00     0.154 A 
HETATM   16  O3  UNL     1       2.365   6.053  11.993  1.00  0.00    -0.321 OA
HETATM   17  C15 UNL     1       2.251   6.336  10.655  1.00  0.00     0.089 A 
HETATM   18  C16 UNL     1       2.945   5.513   9.767  1.00  0.00     0.040 A 
HETATM   19  C20 UNL     1       1.475   7.387  10.169  1.00  0.00     0.050 A 
HETATM   20  C17 UNL     1       2.856   5.744   8.391  1.00  0.00     0.026 A 
HETATM   21  C18 UNL     1       2.069   6.794   7.912  1.00  0.00     0.035 A 
HETATM   22 CL1  UNL     1       1.948   7.065   6.215  1.00  0.00    -0.084 Cl
HETATM   23  C19 UNL     1       1.378   7.623   8.794  1.00  0.00     0.042 A 
HETATM   24  C21 UNL     1       0.742   8.230  11.128  1.00  0.00     0.194 A 
HETATM   25  O4  UNL     1      -0.028   9.102  10.743  1.00  0.00    -0.287 OA
ENDBRANCH   4  14
BRANCH   3  26
HETATM   26  C4  UNL     1      -2.069   7.938  13.245  1.00  0.00     0.292 C 
HETATM   27  O1  UNL     1      -2.826   8.795  12.807  1.00  0.00    -0.259 OA
BRANCH  26  28
HETATM   28  O2  UNL     1      -2.142   6.598  13.060  1.00  0.00    -0.313 OA
BRANCH  28  29
HETATM   29  C5  UNL     1      -3.279   5.958  13.645  1.00  0.00     0.217 C 
BRANCH  29  30
HETATM   30  C6  UNL     1      -3.810   4.924  12.682  1.00  0.00    -0.034 A 
HETATM   31  C7  UNL     1      -2.998   4.454  11.638  1.00  0.00     0.009 A 
HETATM   32  C8  UNL     1      -3.492   3.531  10.713  1.00  0.00     0.001 A 
HETATM   33  C9  UNL     1      -4.801   3.066  10.821  1.00  0.00     0.000 A 
HETATM   34  C10 UNL     1      -5.617   3.517  11.862  1.00  0.00     0.001 A 
HETATM   35  C11 UNL     1      -5.123   4.439  12.789  1.00  0.00     0.009 A 
ENDBRANCH  29  30
ENDBRANCH  28  29
ENDBRANCH  26  28
ENDBRANCH   3  26
TORSDOF 5
ENDMDL
MODEL 6
REMARK minimizedAffinity -8.71442509
REMARK  5 active torsions:
REMARK  status: ('A' for Active; 'I' for Inactive)
REMARK    1  A    between atoms: C3_3  and  C4_4 
REMARK    2  A    between atoms: C4_4  and  O2_6 
REMARK    3  A    between atoms: O2_6  and  C5_7 
REMARK    4  A    between atoms: C5_7  and  C6_8 
REMARK    5  A    between atoms: C12_14  and  C13_15 
ROOT
HETATM    1  C1  UNL     1       2.960   7.591  15.255  1.00  0.00     0.069 C 
HETATM    2  C2  UNL     1       2.442   7.368  13.859  1.00  0.00     0.018 C 
HETATM    3  C3  UNL     1       1.144   7.169  13.543  1.00  0.00     0.052 C 
HETATM    4  C12 UNL     1       0.670   6.968  12.110  1.00  0.00     0.104 C 
HETATM    5  C22 UNL     1       1.800   7.206  11.105  1.00  0.00     0.024 C 
HETATM    6  C23 UNL     1       3.076   7.395  11.501  1.00  0.00     0.020 C 
HETATM    7  C24 UNL     1       4.202   7.665  10.533  1.00  0.00     0.058 C 
HETATM    8  C25 UNL     1       3.693   8.292   9.241  1.00  0.00     0.014 C 
HETATM    9  C26 UNL     1       2.566   7.459   8.649  1.00  0.00     0.084 C 
HETATM   10  C27 UNL     1       1.454   7.249   9.653  1.00  0.00     0.158 C 
HETATM   11  O5  UNL     1       0.295   7.064   9.282  1.00  0.00    -0.293 OA
HETATM   12  N1  UNL     1       3.391   7.392  12.847  1.00  0.00    -0.362 N 
HETATM   13  H22 UNL     1       4.334   7.663  13.109  1.00  0.00     0.165 HD
ENDROOT
BRANCH   4  14
HETATM   14  C13 UNL     1       0.033   5.600  11.938  1.00  0.00     0.029 A 
HETATM   15  C14 UNL     1       0.686   4.445  11.724  1.00  0.00     0.154 A 
HETATM   16  O3  UNL     1       0.129   3.202  11.555  1.00  0.00    -0.321 OA
HETATM   17  C15 UNL     1      -1.242   3.119  11.541  1.00  0.00     0.089 A 
HETATM   18  C16 UNL     1      -1.803   1.863  11.306  1.00  0.00     0.040 A 
HETATM   19  C20 UNL     1      -2.067   4.221  11.760  1.00  0.00     0.050 A 
HETATM   20  C17 UNL     1      -3.194   1.715  11.294  1.00  0.00     0.026 A 
HETATM   21  C18 UNL     1      -4.013   2.823  11.522  1.00  0.00     0.035 A 
HETATM   22 CL1  UNL     1      -5.724   2.633  11.525  1.00  0.00    -0.084 Cl
HETATM   23  C19 UNL     1      -3.458   4.080  11.753  1.00  0.00     0.042 A 
HETATM   24  C21 UNL     1      -1.447   5.531  12.020  1.00  0.00     0.194 A 
HETATM   25  O4  UNL     1      -2.128   6.506  12.314  1.00  0.00    -0.287 OA
ENDBRANCH   4  14
BRANCH   3  26
HETATM   26  C4  UNL     1       0.110   7.214  14.589  1.00  0.00     0.292 C 
HETATM   27  O1  UNL     1      -0.111   6.294  15.367  1.00  0.00    -0.259 OA
BRANCH  26  28
HETATM   28  O2  UNL     1      -0.569   8.380  14.472  1.00  0.00    -0.313 OA
BRANCH  28  29
HETATM   29  C5  UNL     1      -1.564   8.614  15.473  1.00  0.00     0.217 C 
BRANCH  29  30
HETATM   30  C6  UNL     1      -2.903   8.154  14.950  1.00  0.00    -0.034 A 
HETATM   31  C7  UNL     1      -3.588   8.925  13.998  1.00  0.00     0.009 A 
HETATM   32  C8  UNL     1      -4.848   8.534  13.539  1.00  0.00     0.001 A 
HETATM   33  C9  UNL     1      -5.438   7.368  14.025  1.00  0.00     0.000 A 
HETATM   34  C10 UNL     1      -4.761   6.585  14.964  1.00  0.00     0.001 A 
HETATM   35  C11 UNL     1      -3.500   6.975  15.423  1.00  0.00     0.009 A 
ENDBRANCH  29  30
ENDBRANCH  28  29
ENDBRANCH  26  28
ENDBRANCH   3  26
TORSDOF 5
ENDMDL
MODEL 7
REMARK minimizedAffinity -8.65892601
REMARK  5 active torsions:
REMARK  status: ('A' for Active; 'I' for Inactive)
REMARK    1  A    between atoms: C3_3  and  C4_4 
REMARK    2  A    between atoms: C4_4  and  O2_6 
REMARK    3  A    between atoms: O2_6  and  C5_7 
REMARK    4  A    between atoms: C5_7  and  C6_8 
REMARK    5  A    between atoms: C12_14  and  C13_15 
ROOT
HETATM    1  C1  UNL     1      -8.428   4.255  12.561  1.00  0.00     0.069 C 
HETATM    2  C2  UNL     1      -6.952   4.499  12.728  1.00  0.00     0.018 C 
HETATM    3  C3  UNL     1      -6.380   5.022  13.835  1.00  0.00     0.052 C 
HETATM    4  C12 UNL     1      -4.877   5.229  13.961  1.00  0.00     0.104 C 
HETATM    5  C22 UNL     1      -4.123   4.610  12.782  1.00  0.00     0.024 C 
HETATM    6  C23 UNL     1      -4.768   4.109  11.708  1.00  0.00     0.020 C 
HETATM    7  C24 UNL     1      -4.051   3.462  10.549  1.00  0.00     0.058 C 
HETATM    8  C25 UNL     1      -2.700   2.898  10.969  1.00  0.00     0.014 C 
HETATM    9  C26 UNL     1      -1.874   3.958  11.683  1.00  0.00     0.084 C 
HETATM   10  C27 UNL     1      -2.632   4.547  12.854  1.00  0.00     0.158 C 
HETATM   11  O5  UNL     1      -2.034   5.013  13.823  1.00  0.00    -0.293 OA
HETATM   12  N1  UNL     1      -6.150   4.134  11.657  1.00  0.00    -0.362 N 
HETATM   13  H22 UNL     1      -6.600   3.636  10.896  1.00  0.00     0.165 HD
ENDROOT
BRANCH   4  14
HETATM   14  C13 UNL     1      -4.547   6.701  14.137  1.00  0.00     0.029 A 
HETATM   15  C14 UNL     1      -4.809   7.681  13.257  1.00  0.00     0.154 A 
HETATM   16  O3  UNL     1      -4.508   9.014  13.393  1.00  0.00    -0.321 OA
HETATM   17  C15 UNL     1      -3.816   9.396  14.516  1.00  0.00     0.089 A 
HETATM   18  C16 UNL     1      -3.458  10.741  14.619  1.00  0.00     0.040 A 
HETATM   19  C20 UNL     1      -3.478   8.505  15.533  1.00  0.00     0.050 A 
HETATM   20  C17 UNL     1      -2.764  11.190  15.746  1.00  0.00     0.026 A 
HETATM   21  C18 UNL     1      -2.436  10.292  16.765  1.00  0.00     0.035 A 
HETATM   22 CL1  UNL     1      -1.597  10.854  18.160  1.00  0.00    -0.084 Cl
HETATM   23  C19 UNL     1      -2.786   8.947  16.665  1.00  0.00     0.042 A 
HETATM   24  C21 UNL     1      -3.881   7.094  15.404  1.00  0.00     0.194 A 
HETATM   25  O4  UNL     1      -3.692   6.297  16.315  1.00  0.00    -0.287 OA
ENDBRANCH   4  14
BRANCH   3  26
HETATM   26  C4  UNL     1      -7.201   5.347  15.012  1.00  0.00     0.292 C 
HETATM   27  O1  UNL     1      -7.376   4.582  15.951  1.00  0.00    -0.259 OA
BRANCH  26  28
HETATM   28  O2  UNL     1      -7.763   6.565  14.820  1.00  0.00    -0.313 OA
BRANCH  28  29
HETATM   29  C5  UNL     1      -8.957   6.814  15.569  1.00  0.00     0.217 C 
BRANCH  29  30
HETATM   30  C6  UNL     1      -9.939   7.554  14.693  1.00  0.00    -0.034 A 
HETATM   31  C7  UNL     1     -10.633   6.870  13.683  1.00  0.00     0.009 A 
HETATM   32  C8  UNL     1     -11.511   7.551  12.837  1.00  0.00     0.001 A 
HETATM   33  C9  UNL     1     -11.707   8.923  12.991  1.00  0.00     0.000 A 
HETATM   34  C10 UNL     1     -11.032   9.614  14.001  1.00  0.00     0.001 A 
HETATM   35  C11 UNL     1     -10.154   8.932  14.848  1.00  0.00     0.009 A 
ENDBRANCH  29  30
ENDBRANCH  28  29
ENDBRANCH  26  28
ENDBRANCH   3  26
TORSDOF 5
ENDMDL
MODEL 8
REMARK minimizedAffinity -8.65863228
REMARK  5 active torsions:
REMARK  status: ('A' for Active; 'I' for Inactive)
REMARK    1  A    between atoms: C3_3  and  C4_4 
REMARK    2  A    between atoms: C4_4  and  O2_6 
REMARK    3  A    between atoms: O2_6  and  C5_7 
REMARK    4  A    between atoms: C5_7  and  C6_8 
REMARK    5  A    between atoms: C12_14  and  C13_15 
ROOT
HETATM    1  C1  UNL     1      -1.804   4.266  10.931  1.00  0.00     0.069 C 
HETATM    2  C2  UNL     1      -0.839   5.218  11.585  1.00  0.00     0.018 C 
HETATM    3  C3  UNL     1      -0.986   5.729  12.827  1.00  0.00     0.052 C 
HETATM    4  C12 UNL     1       0.033   6.673  13.451  1.00  0.00     0.104 C 
HETATM    5  C22 UNL     1       1.287   6.802  12.582  1.00  0.00     0.024 C 
HETATM    6  C23 UNL     1       1.356   6.262  11.347  1.00  0.00     0.020 C 
HETATM    7  C24 UNL     1       2.591   6.345  10.484  1.00  0.00     0.058 C 
HETATM    8  C25 UNL     1       3.851   6.514  11.324  1.00  0.00     0.014 C 
HETATM    9  C26 UNL     1       3.701   7.681  12.288  1.00  0.00     0.084 C 
HETATM   10  C27 UNL     1       2.464   7.527  13.147  1.00  0.00     0.158 C 
HETATM   11  O5  UNL     1       2.406   8.034  14.267  1.00  0.00    -0.293 OA
HETATM   12  N1  UNL     1       0.280   5.559  10.838  1.00  0.00    -0.362 N 
HETATM   13  H22 UNL     1       0.415   5.063   9.962  1.00  0.00     0.165 HD
ENDROOT
BRANCH   4  14
HETATM   14  C13 UNL     1      -0.593   8.024  13.748  1.00  0.00     0.029 A 
HETATM   15  C14 UNL     1      -1.025   8.914  12.839  1.00  0.00     0.154 A 
HETATM   16  O3  UNL     1      -1.584  10.143  13.088  1.00  0.00    -0.321 OA
HETATM   17  C15 UNL     1      -1.663  10.548  14.398  1.00  0.00     0.089 A 
HETATM   18  C16 UNL     1      -2.173  11.825  14.641  1.00  0.00     0.040 A 
HETATM   19  C20 UNL     1      -1.270   9.740  15.463  1.00  0.00     0.050 A 
HETATM   20  C17 UNL     1      -2.290  12.287  15.956  1.00  0.00     0.026 A 
HETATM   21  C18 UNL     1      -1.902  11.467  17.018  1.00  0.00     0.035 A 
HETATM   22 CL1  UNL     1      -2.065  12.033  18.636  1.00  0.00    -0.084 Cl
HETATM   23  C19 UNL     1      -1.388  10.194  16.780  1.00  0.00     0.042 A 
HETATM   24  C21 UNL     1      -0.750   8.393  15.178  1.00  0.00     0.194 A 
HETATM   25  O4  UNL     1      -0.484   7.613  16.084  1.00  0.00    -0.287 OA
ENDBRANCH   4  14
BRANCH   3  26
HETATM   26  C4  UNL     1      -2.124   5.324  13.666  1.00  0.00     0.292 C 
HETATM   27  O1  UNL     1      -2.012   4.938  14.822  1.00  0.00    -0.259 OA
BRANCH  26  28
HETATM   28  O2  UNL     1      -3.251   5.380  12.918  1.00  0.00    -0.313 OA
BRANCH  28  29
HETATM   29  C5  UNL     1      -4.307   6.180  13.456  1.00  0.00     0.217 C 
BRANCH  29  30
HETATM   30  C6  UNL     1      -5.615   5.444  13.290  1.00  0.00    -0.034 A 
HETATM   31  C7  UNL     1      -5.621   4.117  12.834  1.00  0.00     0.009 A 
HETATM   32  C8  UNL     1      -6.826   3.440  12.632  1.00  0.00     0.001 A 
HETATM   33  C9  UNL     1      -8.038   4.080  12.886  1.00  0.00     0.000 A 
HETATM   34  C10 UNL     1      -8.046   5.397  13.353  1.00  0.00     0.001 A 
HETATM   35  C11 UNL     1      -6.841   6.075  13.555  1.00  0.00     0.009 A 
ENDBRANCH  29  30
ENDBRANCH  28  29
ENDBRANCH  26  28
ENDBRANCH   3  26
TORSDOF 5
ENDMDL
MODEL 9
REMARK minimizedAffinity -8.65150356
REMARK  5 active torsions:
REMARK  status: ('A' for Active; 'I' for Inactive)
REMARK    1  A    between atoms: C3_3  and  C4_4 
REMARK    2  A    between atoms: C4_4  and  O2_6 
REMARK    3  A    between atoms: O2_6  and  C5_7 
REMARK    4  A    between atoms: C5_7  and  C6_8 
REMARK    5  A    between atoms: C12_14  and  C13_15 
ROOT
HETATM    1  C1  UNL     1       4.436   8.074  13.177  1.00  0.00     0.069 C 
HETATM    2  C2  UNL     1       3.264   8.098  12.233  1.00  0.00     0.018 C 
HETATM    3  C3  UNL     1       2.051   8.615  12.527  1.00  0.00     0.052 C 
HETATM    4  C12 UNL     1       0.902   8.633  11.527  1.00  0.00     0.104 C 
HETATM    5  C22 UNL     1       1.358   8.177  10.139  1.00  0.00     0.024 C 
HETATM    6  C23 UNL     1       2.590   7.669   9.925  1.00  0.00     0.020 C 
HETATM    7  C24 UNL     1       3.076   7.245   8.561  1.00  0.00     0.058 C 
HETATM    8  C25 UNL     1       2.343   7.984   7.449  1.00  0.00     0.014 C 
HETATM    9  C26 UNL     1       0.837   7.862   7.626  1.00  0.00     0.084 C 
HETATM   10  C27 UNL     1       0.406   8.331   8.999  1.00  0.00     0.158 C 
HETATM   11  O5  UNL     1      -0.724   8.781   9.187  1.00  0.00    -0.293 OA
HETATM   12  N1  UNL     1       3.485   7.560  10.973  1.00  0.00    -0.362 N 
HETATM   13  H22 UNL     1       4.439   7.294  10.750  1.00  0.00     0.165 HD
ENDROOT
BRANCH   4  14
HETATM   14  C13 UNL     1      -0.272   7.816  12.037  1.00  0.00     0.029 A 
HETATM   15  C14 UNL     1      -0.336   6.475  12.095  1.00  0.00     0.154 A 
HETATM   16  O3  UNL     1      -1.392   5.719  12.542  1.00  0.00    -0.321 OA
HETATM   17  C15 UNL     1      -2.532   6.384  12.919  1.00  0.00     0.089 A 
HETATM   18  C16 UNL     1      -3.624   5.608  13.311  1.00  0.00     0.040 A 
HETATM   19  C20 UNL     1      -2.627   7.775  12.930  1.00  0.00     0.050 A 
HETATM   20  C17 UNL     1      -4.808   6.230  13.719  1.00  0.00     0.026 A 
HETATM   21  C18 UNL     1      -4.891   7.624  13.735  1.00  0.00     0.035 A 
HETATM   22 CL1  UNL     1      -6.345   8.386  14.255  1.00  0.00    -0.084 Cl
HETATM   23  C19 UNL     1      -3.806   8.404  13.339  1.00  0.00     0.042 A 
HETATM   24  C21 UNL     1      -1.454   8.568  12.524  1.00  0.00     0.194 A 
HETATM   25  O4  UNL     1      -1.458   9.790  12.611  1.00  0.00    -0.287 OA
ENDBRANCH   4  14
BRANCH   3  26
HETATM   26  C4  UNL     1       1.814   9.258  13.829  1.00  0.00     0.292 C 
HETATM   27  O1  UNL     1       2.003  10.448  14.043  1.00  0.00    -0.259 OA
BRANCH  26  28
HETATM   28  O2  UNL     1       1.445   8.306  14.719  1.00  0.00    -0.313 OA
BRANCH  28  29
HETATM   29  C5  UNL     1       1.398   8.726  16.085  1.00  0.00     0.217 C 
BRANCH  29  30
HETATM   30  C6  UNL     1      -0.035   9.015  16.461  1.00  0.00    -0.034 A 
HETATM   31  C7  UNL     1      -1.037   8.072  16.184  1.00  0.00     0.009 A 
HETATM   32  C8  UNL     1      -2.374   8.345  16.486  1.00  0.00     0.001 A 
HETATM   33  C9  UNL     1      -2.723   9.562  17.069  1.00  0.00     0.000 A 
HETATM   34  C10 UNL     1      -1.734  10.505  17.361  1.00  0.00     0.001 A 
HETATM   35  C11 UNL     1      -0.397  10.231  17.060  1.00  0.00     0.009 A 
ENDBRANCH  29  30
ENDBRANCH  28  29
ENDBRANCH  26  28
ENDBRANCH   3  26
TORSDOF 5
ENDMDL
