MODEL 1
REMARK minimizedAffinity -9.17271805
REMARK CNNscore 0.74635011
REMARK CNNaffinity 6.76906395
REMARK  8 active torsions:
REMARK  status: ('A' for Active; 'I' for Inactive)
REMARK    1  A    between atoms: C2_2  and  C3_3 
REMARK    2  A    between atoms: C2_2  and  C27_30 
REMARK    3  A    between atoms: C3_3  and  C4_4 
REMARK    4  A    between atoms: C4_4  and  C5_5 
REMARK    5  A    between atoms: C5_5  and  C7_7 
REMARK    6  A    between atoms: C26_28  and  O3_29 
REMARK    7  A    between atoms: C27_30  and  C29_32 
REMARK    8  A    between atoms: C29_32  and  O5_34 
ROOT
HETATM    1  C7  UNL     1      -0.859  10.726  18.154  1.00  0.00    -0.002 C 
HETATM    2  C8  UNL     1      -2.197  11.401  18.556  1.00  0.00     0.006 C 
HETATM    3  C9  UNL     1      -3.275  10.806  17.641  1.00  0.00     0.010 C 
HETATM    4  C10 UNL     1      -2.614   9.565  17.038  1.00  0.00     0.027 C 
HETATM    5  C11 UNL     1      -3.213   8.798  15.875  1.00  0.00    -0.036 C 
HETATM    6  C12 UNL     1      -2.434   7.971  15.129  1.00  0.00     0.002 C 
HETATM    7  C13 UNL     1      -0.933   7.968  15.367  1.00  0.00     0.157 C 
HETATM    8  O1  UNL     1      -0.187   7.275  14.676  1.00  0.00    -0.293 OA
HETATM    9  C14 UNL     1      -0.336   8.800  16.488  1.00  0.00     0.093 C 
HETATM   10  C15 UNL     1      -1.165  10.049  16.782  1.00  0.00    -0.026 C 
HETATM   11  C16 UNL     1      -1.064  11.027  15.591  1.00  0.00     0.016 C 
HETATM   12  C17 UNL     1      -2.994   7.027  14.041  1.00  0.00    -0.008 C 
HETATM   13  C18 UNL     1      -2.674   7.686  12.674  1.00  0.00     0.021 C 
HETATM   14  C19 UNL     1      -2.342   5.606  14.092  1.00  0.00     0.022 C 
HETATM   15  C20 UNL     1      -3.239   4.435  13.695  1.00  0.00     0.080 C 
HETATM   16  C21 UNL     1      -4.292   4.843  12.702  1.00  0.00     0.131 C 
HETATM   17  O2  UNL     1      -4.475   4.214  11.660  1.00  0.00    -0.298 OA
HETATM   18  C22 UNL     1      -5.183   6.013  13.089  1.00  0.00     0.056 C 
HETATM   19  C23 UNL     1      -6.564   5.468  13.452  1.00  0.00     0.018 C 
HETATM   20  C24 UNL     1      -4.538   6.823  14.242  1.00  0.00     0.012 C 
HETATM   21  C25 UNL     1      -5.244   8.162  14.446  1.00  0.00     0.042 C 
HETATM   22  C26 UNL     1      -4.705   8.903  15.669  1.00  0.00     0.148 C 
ENDROOT
BRANCH   1  23
HETATM   23  C5  UNL     1       0.393  11.624  18.386  1.00  0.00    -0.014 C 
HETATM   24  C6  UNL     1       1.673  11.173  17.675  1.00  0.00     0.010 C 
BRANCH  23  25
HETATM   25  C4  UNL     1       0.633  11.873  19.895  1.00  0.00     0.009 C 
BRANCH  25  26
HETATM   26  C3  UNL     1       1.185  10.666  20.680  1.00  0.00     0.034 C 
BRANCH  26  27
HETATM   27  C2  UNL     1       2.370  10.862  21.613  1.00  0.00    -0.075 C 
HETATM   28  C1  UNL     1       2.730  12.072  22.080  1.00  0.00     0.015 C 
BRANCH  27  29
HETATM   29  C27 UNL     1       3.199   9.627  21.976  1.00  0.00     0.107 C 
HETATM   30  C28 UNL     1       4.464   9.971  22.762  1.00  0.00     0.026 C 
BRANCH  29  31
HETATM   31  C29 UNL     1       2.389   8.572  22.729  1.00  0.00     0.147 C 
HETATM   32  O4  UNL     1       1.767   7.628  22.273  1.00  0.00    -0.650 OA
BRANCH  31  33
HETATM   33  O5  UNL     1       2.391   8.787  24.064  1.00  0.00    -0.776 OA
HETATM   34  H42 UNL     1       1.846   8.053  24.417  1.00  0.00     0.167 HD
ENDBRANCH  31  33
ENDBRANCH  29  31
ENDBRANCH  27  29
ENDBRANCH  26  27
ENDBRANCH  25  26
ENDBRANCH  23  25
ENDBRANCH   1  23
BRANCH  22  35
HETATM   35  O3  UNL     1      -5.062  10.270  15.503  1.00  0.00    -0.391 OA
HETATM   36  H37 UNL     1      -6.032  10.316  15.446  1.00  0.00     0.210 HD
ENDBRANCH  22  35
TORSDOF 8
ENDMDL
MODEL 2
REMARK minimizedAffinity -6.22554398
REMARK CNNscore 0.744305849
REMARK CNNaffinity 6.20086813
REMARK  8 active torsions:
REMARK  status: ('A' for Active; 'I' for Inactive)
REMARK    1  A    between atoms: C2_2  and  C3_3 
REMARK    2  A    between atoms: C2_2  and  C27_30 
REMARK    3  A    between atoms: C3_3  and  C4_4 
REMARK    4  A    between atoms: C4_4  and  C5_5 
REMARK    5  A    between atoms: C5_5  and  C7_7 
REMARK    6  A    between atoms: C26_28  and  O3_29 
REMARK    7  A    between atoms: C27_30  and  C29_32 
REMARK    8  A    between atoms: C29_32  and  O5_34 
ROOT
HETATM    1  C7  UNL     1     -17.030   2.997  14.374  1.00  0.00    -0.002 C 
HETATM    2  C8  UNL     1     -16.519   2.920  15.837  1.00  0.00     0.006 C 
HETATM    3  C9  UNL     1     -16.009   1.487  16.043  1.00  0.00     0.010 C 
HETATM    4  C10 UNL     1     -15.882   0.926  14.626  1.00  0.00     0.027 C 
HETATM    5  C11 UNL     1     -15.656  -0.547  14.343  1.00  0.00    -0.036 C 
HETATM    6  C12 UNL     1     -15.937  -1.058  13.116  1.00  0.00     0.002 C 
HETATM    7  C13 UNL     1     -16.644  -0.175  12.101  1.00  0.00     0.157 C 
HETATM    8  O1  UNL     1     -16.966  -0.617  10.998  1.00  0.00    -0.293 OA
HETATM    9  C14 UNL     1     -16.934   1.280  12.425  1.00  0.00     0.093 C 
HETATM   10  C15 UNL     1     -17.134   1.507  13.922  1.00  0.00    -0.026 C 
HETATM   11  C16 UNL     1     -18.444   0.828  14.377  1.00  0.00     0.016 C 
HETATM   12  C17 UNL     1     -15.579  -2.501  12.692  1.00  0.00    -0.008 C 
HETATM   13  C18 UNL     1     -16.894  -3.319  12.745  1.00  0.00     0.021 C 
HETATM   14  C19 UNL     1     -14.989  -2.566  11.243  1.00  0.00     0.022 C 
HETATM   15  C20 UNL     1     -13.937  -3.644  10.990  1.00  0.00     0.080 C 
HETATM   16  C21 UNL     1     -14.134  -4.845  11.874  1.00  0.00     0.131 C 
HETATM   17  O2  UNL     1     -14.165  -5.986  11.415  1.00  0.00    -0.298 OA
HETATM   18  C22 UNL     1     -14.200  -4.589  13.372  1.00  0.00     0.056 C 
HETATM   19  C23 UNL     1     -12.891  -5.067  14.000  1.00  0.00     0.018 C 
HETATM   20  C24 UNL     1     -14.485  -3.092  13.651  1.00  0.00     0.012 C 
HETATM   21  C25 UNL     1     -14.859  -2.859  15.114  1.00  0.00     0.042 C 
HETATM   22  C26 UNL     1     -15.004  -1.370  15.429  1.00  0.00     0.148 C 
ENDROOT
BRANCH   1  23
HETATM   23  C5  UNL     1     -18.187   4.019  14.166  1.00  0.00    -0.014 C 
HETATM   24  C6  UNL     1     -18.547   4.326  12.709  1.00  0.00     0.010 C 
BRANCH  23  25
HETATM   25  C4  UNL     1     -17.947   5.313  14.982  1.00  0.00     0.009 C 
BRANCH  25  26
HETATM   26  C3  UNL     1     -16.668   6.092  14.614  1.00  0.00     0.034 C 
BRANCH  26  27
HETATM   27  C2  UNL     1     -16.789   7.444  13.929  1.00  0.00    -0.075 C 
HETATM   28  C1  UNL     1     -17.963   8.095  13.818  1.00  0.00     0.015 C 
BRANCH  27  29
HETATM   29  C27 UNL     1     -15.525   8.039  13.305  1.00  0.00     0.107 C 
HETATM   30  C28 UNL     1     -14.421   7.003  13.094  1.00  0.00     0.026 C 
BRANCH  29  31
HETATM   31  C29 UNL     1     -15.804   8.776  11.995  1.00  0.00     0.147 C 
HETATM   32  O4  UNL     1     -15.915   9.976  11.810  1.00  0.00    -0.650 OA
BRANCH  31  33
HETATM   33  O5  UNL     1     -15.954   7.925  10.955  1.00  0.00    -0.776 OA
HETATM   34  H42 UNL     1     -16.125   8.519  10.194  1.00  0.00     0.167 HD
ENDBRANCH  31  33
ENDBRANCH  29  31
ENDBRANCH  27  29
ENDBRANCH  26  27
ENDBRANCH  25  26
ENDBRANCH  23  25
ENDBRANCH   1  23
BRANCH  22  35
HETATM   35  O3  UNL     1     -15.780  -1.282  16.617  1.00  0.00    -0.391 OA
HETATM   36  H37 UNL     1     -15.302  -1.758  17.317  1.00  0.00     0.210 HD
ENDBRANCH  22  35
TORSDOF 8
ENDMDL
MODEL 3
REMARK minimizedAffinity -6.35551596
REMARK CNNscore 0.655770302
REMARK CNNaffinity 6.22411966
REMARK  8 active torsions:
REMARK  status: ('A' for Active; 'I' for Inactive)
REMARK    1  A    between atoms: C2_2  and  C3_3 
REMARK    2  A    between atoms: C2_2  and  C27_30 
REMARK    3  A    between atoms: C3_3  and  C4_4 
REMARK    4  A    between atoms: C4_4  and  C5_5 
REMARK    5  A    between atoms: C5_5  and  C7_7 
REMARK    6  A    between atoms: C26_28  and  O3_29 
REMARK    7  A    between atoms: C27_30  and  C29_32 
REMARK    8  A    between atoms: C29_32  and  O5_34 
ROOT
HETATM    1  C7  UNL     1     -17.243   3.290  14.684  1.00  0.00    -0.002 C 
HETATM    2  C8  UNL     1     -17.484   3.258  13.152  1.00  0.00     0.006 C 
HETATM    3  C9  UNL     1     -17.188   1.824  12.696  1.00  0.00     0.010 C 
HETATM    4  C10 UNL     1     -17.173   1.012  13.992  1.00  0.00     0.027 C 
HETATM    5  C11 UNL     1     -16.666  -0.416  14.061  1.00  0.00    -0.036 C 
HETATM    6  C12 UNL     1     -16.304  -0.954  15.255  1.00  0.00     0.002 C 
HETATM    7  C13 UNL     1     -16.246  -0.053  16.477  1.00  0.00     0.157 C 
HETATM    8  O1  UNL     1     -15.870  -0.489  17.565  1.00  0.00    -0.293 OA
HETATM    9  C14 UNL     1     -16.686   1.398  16.377  1.00  0.00     0.093 C 
HETATM   10  C15 UNL     1     -16.462   1.971  14.979  1.00  0.00    -0.026 C 
HETATM   11  C16 UNL     1     -14.947   2.093  14.707  1.00  0.00     0.016 C 
HETATM   12  C17 UNL     1     -15.942  -2.446  15.441  1.00  0.00    -0.008 C 
HETATM   13  C18 UNL     1     -14.396  -2.518  15.546  1.00  0.00     0.021 C 
HETATM   14  C19 UNL     1     -16.575  -3.056  16.736  1.00  0.00     0.022 C 
HETATM   15  C20 UNL     1     -16.972  -4.529  16.665  1.00  0.00     0.080 C 
HETATM   16  C21 UNL     1     -16.109  -5.301  15.706  1.00  0.00     0.131 C 
HETATM   17  O2  UNL     1     -15.565  -6.355  16.033  1.00  0.00    -0.298 OA
HETATM   18  C22 UNL     1     -16.015  -4.766  14.286  1.00  0.00     0.056 C 
HETATM   19  C23 UNL     1     -16.834  -5.678  13.372  1.00  0.00     0.018 C 
HETATM   20  C24 UNL     1     -16.483  -3.290  14.233  1.00  0.00     0.012 C 
HETATM   21  C25 UNL     1     -16.117  -2.636  12.902  1.00  0.00     0.042 C 
HETATM   22  C26 UNL     1     -16.699  -1.227  12.788  1.00  0.00     0.148 C 
ENDROOT
BRANCH   1  23
HETATM   23  C5  UNL     1     -16.778   4.677  15.219  1.00  0.00    -0.014 C 
HETATM   24  C6  UNL     1     -17.848   5.501  15.943  1.00  0.00     0.010 C 
BRANCH  23  25
HETATM   25  C4  UNL     1     -16.075   5.499  14.111  1.00  0.00     0.009 C 
BRANCH  25  26
HETATM   26  C3  UNL     1     -14.580   5.789  14.357  1.00  0.00     0.034 C 
BRANCH  26  27
HETATM   27  C2  UNL     1     -14.159   7.167  14.841  1.00  0.00    -0.075 C 
HETATM   28  C1  UNL     1     -14.462   7.627  16.069  1.00  0.00     0.015 C 
BRANCH  27  29
HETATM   29  C27 UNL     1     -13.408   8.066  13.854  1.00  0.00     0.107 C 
HETATM   30  C28 UNL     1     -12.345   7.314  13.055  1.00  0.00     0.026 C 
BRANCH  29  31
HETATM   31  C29 UNL     1     -14.345   8.810  12.904  1.00  0.00     0.147 C 
HETATM   32  O4  UNL     1     -14.974   8.366  11.958  1.00  0.00    -0.650 OA
BRANCH  31  33
HETATM   33  O5  UNL     1     -14.425  10.128  13.197  1.00  0.00    -0.776 OA
HETATM   34  H42 UNL     1     -15.046  10.477  12.523  1.00  0.00     0.167 HD
ENDBRANCH  31  33
ENDBRANCH  29  31
ENDBRANCH  27  29
ENDBRANCH  26  27
ENDBRANCH  25  26
ENDBRANCH  23  25
ENDBRANCH   1  23
BRANCH  22  35
HETATM   35  O3  UNL     1     -15.944  -0.559  11.785  1.00  0.00    -0.391 OA
HETATM   36  H37 UNL     1     -16.042  -1.061  10.958  1.00  0.00     0.210 HD
ENDBRANCH  22  35
TORSDOF 8
ENDMDL
MODEL 4
REMARK minimizedAffinity -8.81631279
REMARK CNNscore 0.580499649
REMARK CNNaffinity 6.69146156
REMARK  8 active torsions:
REMARK  status: ('A' for Active; 'I' for Inactive)
REMARK    1  A    between atoms: C2_2  and  C3_3 
REMARK    2  A    between atoms: C2_2  and  C27_30 
REMARK    3  A    between atoms: C3_3  and  C4_4 
REMARK    4  A    between atoms: C4_4  and  C5_5 
REMARK    5  A    between atoms: C5_5  and  C7_7 
REMARK    6  A    between atoms: C26_28  and  O3_29 
REMARK    7  A    between atoms: C27_30  and  C29_32 
REMARK    8  A    between atoms: C29_32  and  O5_34 
ROOT
HETATM    1  C7  UNL     1      -1.943  10.106  14.163  1.00  0.00    -0.002 C 
HETATM    2  C8  UNL     1      -0.694   9.322  13.680  1.00  0.00     0.006 C 
HETATM    3  C9  UNL     1      -1.156   7.880  13.433  1.00  0.00     0.010 C 
HETATM    4  C10 UNL     1      -2.683   7.975  13.401  1.00  0.00     0.027 C 
HETATM    5  C11 UNL     1      -3.582   6.754  13.438  1.00  0.00    -0.036 C 
HETATM    6  C12 UNL     1      -4.886   6.877  13.800  1.00  0.00     0.002 C 
HETATM    7  C13 UNL     1      -5.374   8.214  14.335  1.00  0.00     0.157 C 
HETATM    8  O1  UNL     1      -6.533   8.352  14.725  1.00  0.00    -0.293 OA
HETATM    9  C14 UNL     1      -4.439   9.411  14.363  1.00  0.00     0.093 C 
HETATM   10  C15 UNL     1      -2.978   8.997  14.527  1.00  0.00    -0.026 C 
HETATM   11  C16 UNL     1      -2.763   8.410  15.939  1.00  0.00     0.016 C 
HETATM   12  C17 UNL     1      -5.910   5.723  13.700  1.00  0.00    -0.008 C 
HETATM   13  C18 UNL     1      -6.116   5.187  15.140  1.00  0.00     0.021 C 
HETATM   14  C19 UNL     1      -7.287   6.196  13.125  1.00  0.00     0.022 C 
HETATM   15  C20 UNL     1      -8.051   5.180  12.279  1.00  0.00     0.080 C 
HETATM   16  C21 UNL     1      -7.752   3.765  12.690  1.00  0.00     0.131 C 
HETATM   17  O2  UNL     1      -8.650   2.956  12.920  1.00  0.00    -0.298 OA
HETATM   18  C22 UNL     1      -6.288   3.354  12.716  1.00  0.00     0.056 C 
HETATM   19  C23 UNL     1      -6.020   2.447  11.516  1.00  0.00     0.018 C 
HETATM   20  C24 UNL     1      -5.376   4.607  12.733  1.00  0.00     0.012 C 
HETATM   21  C25 UNL     1      -3.931   4.241  13.066  1.00  0.00     0.042 C 
HETATM   22  C26 UNL     1      -3.002   5.449  12.947  1.00  0.00     0.148 C 
ENDROOT
BRANCH   1  23
HETATM   23  C5  UNL     1      -1.610  11.289  15.121  1.00  0.00    -0.014 C 
HETATM   24  C6  UNL     1      -1.794  12.692  14.531  1.00  0.00     0.010 C 
BRANCH  23  25
HETATM   25  C4  UNL     1      -0.212  11.117  15.762  1.00  0.00     0.009 C 
BRANCH  25  26
HETATM   26  C3  UNL     1       0.109  12.094  16.911  1.00  0.00     0.034 C 
BRANCH  26  27
HETATM   27  C2  UNL     1       0.190  11.569  18.335  1.00  0.00    -0.075 C 
HETATM   28  C1  UNL     1      -0.871  11.036  18.971  1.00  0.00     0.015 C 
BRANCH  27  29
HETATM   29  C27 UNL     1       1.525  11.713  19.070  1.00  0.00     0.107 C 
HETATM   30  C28 UNL     1       1.360  12.177  20.517  1.00  0.00     0.026 C 
BRANCH  29  31
HETATM   31  C29 UNL     1       2.364  10.436  19.025  1.00  0.00     0.147 C 
HETATM   32  O4  UNL     1       2.554   9.623  19.913  1.00  0.00    -0.650 OA
BRANCH  31  33
HETATM   33  O5  UNL     1       2.956  10.260  17.822  1.00  0.00    -0.776 OA
HETATM   34  H42 UNL     1       3.452   9.421  17.931  1.00  0.00     0.167 HD
ENDBRANCH  31  33
ENDBRANCH  29  31
ENDBRANCH  27  29
ENDBRANCH  26  27
ENDBRANCH  25  26
ENDBRANCH  23  25
ENDBRANCH   1  23
BRANCH  22  35
HETATM   35  O3  UNL     1      -1.837   5.139  13.700  1.00  0.00    -0.391 OA
HETATM   36  H37 UNL     1      -1.443   4.336  13.318  1.00  0.00     0.210 HD
ENDBRANCH  22  35
TORSDOF 8
ENDMDL
MODEL 5
REMARK minimizedAffinity -7.44868612
REMARK CNNscore 0.519069374
REMARK CNNaffinity 6.24551201
REMARK  8 active torsions:
REMARK  status: ('A' for Active; 'I' for Inactive)
REMARK    1  A    between atoms: C2_2  and  C3_3 
REMARK    2  A    between atoms: C2_2  and  C27_30 
REMARK    3  A    between atoms: C3_3  and  C4_4 
REMARK    4  A    between atoms: C4_4  and  C5_5 
REMARK    5  A    between atoms: C5_5  and  C7_7 
REMARK    6  A    between atoms: C26_28  and  O3_29 
REMARK    7  A    between atoms: C27_30  and  C29_32 
REMARK    8  A    between atoms: C29_32  and  O5_34 
ROOT
HETATM    1  C7  UNL     1       1.269  11.931  17.462  1.00  0.00    -0.002 C 
HETATM    2  C8  UNL     1       2.708  12.504  17.386  1.00  0.00     0.006 C 
HETATM    3  C9  UNL     1       3.407  11.771  16.234  1.00  0.00     0.010 C 
HETATM    4  C10 UNL     1       2.264  11.110  15.460  1.00  0.00     0.027 C 
HETATM    5  C11 UNL     1       2.496  10.066  14.385  1.00  0.00    -0.036 C 
HETATM    6  C12 UNL     1       1.487   9.237  14.011  1.00  0.00     0.002 C 
HETATM    7  C13 UNL     1       0.192   9.254  14.806  1.00  0.00     0.157 C 
HETATM    8  O1  UNL     1      -0.726   8.480  14.534  1.00  0.00    -0.293 OA
HETATM    9  C14 UNL     1       0.001  10.256  15.931  1.00  0.00     0.093 C 
HETATM   10  C15 UNL     1       1.323  10.635  16.595  1.00  0.00    -0.026 C 
HETATM   11  C16 UNL     1       1.882   9.417  17.364  1.00  0.00     0.016 C 
HETATM   12  C17 UNL     1       1.584   8.265  12.812  1.00  0.00    -0.008 C 
HETATM   13  C18 UNL     1       1.810   6.850  13.405  1.00  0.00     0.021 C 
HETATM   14  C19 UNL     1       0.282   8.257  11.944  1.00  0.00     0.022 C 
HETATM   15  C20 UNL     1       0.469   8.025  10.446  1.00  0.00     0.080 C 
HETATM   16  C21 UNL     1       1.682   7.184  10.153  1.00  0.00     0.131 C 
HETATM   17  O2  UNL     1       1.621   6.196   9.422  1.00  0.00    -0.298 OA
HETATM   18  C22 UNL     1       3.005   7.666  10.727  1.00  0.00     0.056 C 
HETATM   19  C23 UNL     1       3.845   8.239   9.586  1.00  0.00     0.018 C 
HETATM   20  C24 UNL     1       2.758   8.693  11.861  1.00  0.00     0.012 C 
HETATM   21  C25 UNL     1       4.034   8.962  12.657  1.00  0.00     0.042 C 
HETATM   22  C26 UNL     1       3.834  10.075  13.684  1.00  0.00     0.148 C 
ENDROOT
BRANCH   1  23
HETATM   23  C5  UNL     1       0.658  11.956  18.895  1.00  0.00    -0.014 C 
HETATM   24  C6  UNL     1       0.918  13.231  19.705  1.00  0.00     0.010 C 
BRANCH  23  25
HETATM   25  C4  UNL     1       1.039  10.684  19.690  1.00  0.00     0.009 C 
BRANCH  25  26
HETATM   26  C3  UNL     1       1.805  10.937  21.005  1.00  0.00     0.034 C 
BRANCH  26  27
HETATM   27  C2  UNL     1       3.296  10.646  21.068  1.00  0.00    -0.075 C 
HETATM   28  C1  UNL     1       4.181  11.226  20.235  1.00  0.00     0.015 C 
BRANCH  27  29
HETATM   29  C27 UNL     1       3.775   9.612  22.090  1.00  0.00     0.107 C 
HETATM   30  C28 UNL     1       4.584  10.232  23.229  1.00  0.00     0.026 C 
BRANCH  29  31
HETATM   31  C29 UNL     1       2.632   8.772  22.660  1.00  0.00     0.147 C 
HETATM   32  O4  UNL     1       1.917   7.974  22.080  1.00  0.00    -0.650 OA
BRANCH  31  33
HETATM   33  O5  UNL     1       2.435   9.010  23.976  1.00  0.00    -0.776 OA
HETATM   34  H42 UNL     1       1.689   8.417  24.209  1.00  0.00     0.167 HD
ENDBRANCH  31  33
ENDBRANCH  29  31
ENDBRANCH  27  29
ENDBRANCH  26  27
ENDBRANCH  25  26
ENDBRANCH  23  25
ENDBRANCH   1  23
BRANCH  22  35
HETATM   35  O3  UNL     1       4.870   9.929  14.647  1.00  0.00    -0.391 OA
HETATM   36  H37 UNL     1       5.719  10.011  14.181  1.00  0.00     0.210 HD
ENDBRANCH  22  35
TORSDOF 8
ENDMDL
MODEL 6
REMARK minimizedAffinity -6.52475023
REMARK CNNscore 0.509624481
REMARK CNNaffinity 5.92206955
REMARK  8 active torsions:
REMARK  status: ('A' for Active; 'I' for Inactive)
REMARK    1  A    between atoms: C2_2  and  C3_3 
REMARK    2  A    between atoms: C2_2  and  C27_30 
REMARK    3  A    between atoms: C3_3  and  C4_4 
REMARK    4  A    between atoms: C4_4  and  C5_5 
REMARK    5  A    between atoms: C5_5  and  C7_7 
REMARK    6  A    between atoms: C26_28  and  O3_29 
REMARK    7  A    between atoms: C27_30  and  C29_32 
REMARK    8  A    between atoms: C29_32  and  O5_34 
ROOT
HETATM    1  C7  UNL     1      -6.251 -10.245   8.476  1.00  0.00    -0.002 C 
HETATM    2  C8  UNL     1      -7.495  -9.535   7.881  1.00  0.00     0.006 C 
HETATM    3  C9  UNL     1      -7.303  -9.527   6.359  1.00  0.00     0.010 C 
HETATM    4  C10 UNL     1      -6.190 -10.547   6.114  1.00  0.00     0.027 C 
HETATM    5  C11 UNL     1      -5.486 -10.690   4.778  1.00  0.00    -0.036 C 
HETATM    6  C12 UNL     1      -4.276 -11.304   4.707  1.00  0.00     0.002 C 
HETATM    7  C13 UNL     1      -3.568 -11.678   5.999  1.00  0.00     0.157 C 
HETATM    8  O1  UNL     1      -2.446 -12.185   5.979  1.00  0.00    -0.293 OA
HETATM    9  C14 UNL     1      -4.254 -11.459   7.336  1.00  0.00     0.093 C 
HETATM   10  C15 UNL     1      -5.227 -10.282   7.298  1.00  0.00    -0.026 C 
HETATM   11  C16 UNL     1      -4.438  -8.964   7.143  1.00  0.00     0.016 C 
HETATM   12  C17 UNL     1      -3.571 -11.643   3.374  1.00  0.00    -0.008 C 
HETATM   13  C18 UNL     1      -2.450 -10.589   3.184  1.00  0.00     0.021 C 
HETATM   14  C19 UNL     1      -2.936 -13.074   3.383  1.00  0.00     0.022 C 
HETATM   15  C20 UNL     1      -2.924 -13.817   2.049  1.00  0.00     0.080 C 
HETATM   16  C21 UNL     1      -2.859 -12.874   0.878  1.00  0.00     0.131 C 
HETATM   17  O2  UNL     1      -2.030 -13.017  -0.019  1.00  0.00    -0.298 OA
HETATM   18  C22 UNL     1      -3.926 -11.793   0.810  1.00  0.00     0.056 C 
HETATM   19  C23 UNL     1      -4.920 -12.166  -0.291  1.00  0.00     0.018 C 
HETATM   20  C24 UNL     1      -4.604 -11.615   2.192  1.00  0.00     0.012 C 
HETATM   21  C25 UNL     1      -5.453 -10.346   2.238  1.00  0.00     0.042 C 
HETATM   22  C26 UNL     1      -6.234 -10.238   3.547  1.00  0.00     0.148 C 
ENDROOT
BRANCH   1  23
HETATM   23  C5  UNL     1      -5.868  -9.753   9.904  1.00  0.00    -0.014 C 
HETATM   24  C6  UNL     1      -4.465 -10.138  10.384  1.00  0.00     0.010 C 
BRANCH  23  25
HETATM   25  C4  UNL     1      -6.953 -10.138  10.939  1.00  0.00     0.009 C 
BRANCH  25  26
HETATM   26  C3  UNL     1      -6.658 -11.411  11.757  1.00  0.00     0.034 C 
BRANCH  26  27
HETATM   27  C2  UNL     1      -7.789 -12.380  12.063  1.00  0.00    -0.075 C 
HETATM   28  C1  UNL     1      -8.929 -12.410  11.347  1.00  0.00     0.015 C 
BRANCH  27  29
HETATM   29  C27 UNL     1      -7.622 -13.309  13.268  1.00  0.00     0.107 C 
HETATM   30  C28 UNL     1      -8.938 -13.942  13.718  1.00  0.00     0.026 C 
BRANCH  29  31
HETATM   31  C29 UNL     1      -6.574 -14.397  13.034  1.00  0.00     0.147 C 
HETATM   32  O4  UNL     1      -5.384 -14.371  13.297  1.00  0.00    -0.650 OA
BRANCH  31  33
HETATM   33  O5  UNL     1      -7.101 -15.491  12.440  1.00  0.00    -0.776 OA
HETATM   34  H42 UNL     1      -6.336 -16.097  12.351  1.00  0.00     0.167 HD
ENDBRANCH  31  33
ENDBRANCH  29  31
ENDBRANCH  27  29
ENDBRANCH  26  27
ENDBRANCH  25  26
ENDBRANCH  23  25
ENDBRANCH   1  23
BRANCH  22  35
HETATM   35  O3  UNL     1      -6.594  -8.869   3.691  1.00  0.00    -0.391 OA
HETATM   36  H37 UNL     1      -7.135  -8.624   2.922  1.00  0.00     0.210 HD
ENDBRANCH  22  35
TORSDOF 8
ENDMDL
MODEL 7
REMARK minimizedAffinity -7.90424299
REMARK CNNscore 0.487557054
REMARK CNNaffinity 6.35313082
REMARK  8 active torsions:
REMARK  status: ('A' for Active; 'I' for Inactive)
REMARK    1  A    between atoms: C2_2  and  C3_3 
REMARK    2  A    between atoms: C2_2  and  C27_30 
REMARK    3  A    between atoms: C3_3  and  C4_4 
REMARK    4  A    between atoms: C4_4  and  C5_5 
REMARK    5  A    between atoms: C5_5  and  C7_7 
REMARK    6  A    between atoms: C26_28  and  O3_29 
REMARK    7  A    between atoms: C27_30  and  C29_32 
REMARK    8  A    between atoms: C29_32  and  O5_34 
ROOT
HETATM    1  C7  UNL     1      -1.367  10.979  18.501  1.00  0.00    -0.002 C 
HETATM    2  C8  UNL     1      -2.911  10.961  18.648  1.00  0.00     0.006 C 
HETATM    3  C9  UNL     1      -3.447  10.110  17.489  1.00  0.00     0.010 C 
HETATM    4  C10 UNL     1      -2.216   9.368  16.966  1.00  0.00     0.027 C 
HETATM    5  C11 UNL     1      -2.213   8.603  15.656  1.00  0.00    -0.036 C 
HETATM    6  C12 UNL     1      -1.038   8.302  15.044  1.00  0.00     0.002 C 
HETATM    7  C13 UNL     1       0.248   8.896  15.596  1.00  0.00     0.157 C 
HETATM    8  O1  UNL     1       1.326   8.693  15.039  1.00  0.00    -0.293 OA
HETATM    9  C14 UNL     1       0.221   9.725  16.869  1.00  0.00     0.093 C 
HETATM   10  C15 UNL     1      -1.111  10.450  17.055  1.00  0.00    -0.026 C 
HETATM   11  C16 UNL     1      -1.258  11.545  15.976  1.00  0.00     0.016 C 
HETATM   12  C17 UNL     1      -0.935   7.384  13.805  1.00  0.00    -0.008 C 
HETATM   13  C18 UNL     1      -0.718   8.312  12.581  1.00  0.00     0.021 C 
HETATM   14  C19 UNL     1       0.261   6.379  13.906  1.00  0.00     0.022 C 
HETATM   15  C20 UNL     1       0.053   5.013  13.256  1.00  0.00     0.080 C 
HETATM   16  C21 UNL     1      -0.892   5.082  12.087  1.00  0.00     0.131 C 
HETATM   17  O2  UNL     1      -0.603   4.598  10.994  1.00  0.00    -0.298 OA
HETATM   18  C22 UNL     1      -2.258   5.697  12.347  1.00  0.00     0.056 C 
HETATM   19  C23 UNL     1      -3.295   4.574  12.372  1.00  0.00     0.018 C 
HETATM   20  C24 UNL     1      -2.238   6.521  13.659  1.00  0.00     0.012 C 
HETATM   21  C25 UNL     1      -3.487   7.392  13.789  1.00  0.00     0.042 C 
HETATM   22  C26 UNL     1      -3.541   8.100  15.143  1.00  0.00     0.148 C 
ENDROOT
BRANCH   1  23
HETATM   23  C5  UNL     1      -0.699  12.275  19.049  1.00  0.00    -0.014 C 
HETATM   24  C6  UNL     1      -0.685  13.471  18.092  1.00  0.00     0.010 C 
BRANCH  23  25
HETATM   25  C4  UNL     1       0.710  11.981  19.620  1.00  0.00     0.009 C 
BRANCH  25  26
HETATM   26  C3  UNL     1       0.843  10.650  20.387  1.00  0.00     0.034 C 
BRANCH  26  27
HETATM   27  C2  UNL     1       2.056  10.419  21.274  1.00  0.00    -0.075 C 
HETATM   28  C1  UNL     1       2.320   9.228  21.844  1.00  0.00     0.015 C 
BRANCH  27  29
HETATM   29  C27 UNL     1       2.967  11.617  21.557  1.00  0.00     0.107 C 
HETATM   30  C28 UNL     1       3.435  11.678  23.011  1.00  0.00     0.026 C 
BRANCH  29  31
HETATM   31  C29 UNL     1       4.172  11.676  20.619  1.00  0.00     0.147 C 
HETATM   32  O4  UNL     1       4.710  10.762  20.017  1.00  0.00    -0.650 OA
BRANCH  31  33
HETATM   33  O5  UNL     1       4.665  12.930  20.503  1.00  0.00    -0.776 OA
HETATM   34  H42 UNL     1       5.419  12.826  19.885  1.00  0.00     0.167 HD
ENDBRANCH  31  33
ENDBRANCH  29  31
ENDBRANCH  27  29
ENDBRANCH  26  27
ENDBRANCH  25  26
ENDBRANCH  23  25
ENDBRANCH   1  23
BRANCH  22  35
HETATM   35  O3  UNL     1      -4.433   9.197  14.990  1.00  0.00    -0.391 OA
HETATM   36  H37 UNL     1      -5.299   8.839  14.730  1.00  0.00     0.210 HD
ENDBRANCH  22  35
TORSDOF 8
ENDMDL
MODEL 8
REMARK minimizedAffinity -6.41038322
REMARK CNNscore 0.47084567
REMARK CNNaffinity 6.19898462
REMARK  8 active torsions:
REMARK  status: ('A' for Active; 'I' for Inactive)
REMARK    1  A    between atoms: C2_2  and  C3_3 
REMARK    2  A    between atoms: C2_2  and  C27_30 
REMARK    3  A    between atoms: C3_3  and  C4_4 
REMARK    4  A    between atoms: C4_4  and  C5_5 
REMARK    5  A    between atoms: C5_5  and  C7_7 
REMARK    6  A    between atoms: C26_28  and  O3_29 
REMARK    7  A    between atoms: C27_30  and  C29_32 
REMARK    8  A    between atoms: C29_32  and  O5_34 
ROOT
HETATM    1  C7  UNL     1      -0.346  13.074  19.649  1.00  0.00    -0.002 C 
HETATM    2  C8  UNL     1      -1.592  13.990  19.537  1.00  0.00     0.006 C 
HETATM    3  C9  UNL     1      -2.424  13.451  18.366  1.00  0.00     0.010 C 
HETATM    4  C10 UNL     1      -1.851  12.056  18.109  1.00  0.00     0.027 C 
HETATM    5  C11 UNL     1      -2.191  11.243  16.874  1.00  0.00    -0.036 C 
HETATM    6  C12 UNL     1      -1.388  10.218  16.490  1.00  0.00     0.002 C 
HETATM    7  C13 UNL     1      -0.062  10.018  17.206  1.00  0.00     0.157 C 
HETATM    8  O1  UNL     1       0.719   9.135  16.852  1.00  0.00    -0.293 OA
HETATM    9  C14 UNL     1       0.301  10.890  18.396  1.00  0.00     0.093 C 
HETATM   10  C15 UNL     1      -0.331  12.278  18.306  1.00  0.00    -0.026 C 
HETATM   11  C16 UNL     1       0.314  13.065  17.145  1.00  0.00     0.016 C 
HETATM   12  C17 UNL     1      -1.748   9.235  15.352  1.00  0.00    -0.008 C 
HETATM   13  C18 UNL     1      -0.903   9.653  14.120  1.00  0.00     0.021 C 
HETATM   14  C19 UNL     1      -1.419   7.750  15.721  1.00  0.00     0.022 C 
HETATM   15  C20 UNL     1      -2.350   6.687  15.141  1.00  0.00     0.080 C 
HETATM   16  C21 UNL     1      -2.948   7.116  13.829  1.00  0.00     0.131 C 
HETATM   17  O2  UNL     1      -2.912   6.391  12.836  1.00  0.00    -0.298 OA
HETATM   18  C22 UNL     1      -3.681   8.448  13.814  1.00  0.00     0.056 C 
HETATM   19  C23 UNL     1      -5.183   8.171  13.743  1.00  0.00     0.018 C 
HETATM   20  C24 UNL     1      -3.287   9.295  15.050  1.00  0.00     0.012 C 
HETATM   21  C25 UNL     1      -3.760  10.741  14.910  1.00  0.00     0.042 C 
HETATM   22  C26 UNL     1      -3.499  11.545  16.183  1.00  0.00     0.148 C 
ENDROOT
BRANCH   1  23
HETATM   23  C5  UNL     1       0.916  13.794  20.210  1.00  0.00    -0.014 C 
HETATM   24  C6  UNL     1       1.307  15.096  19.502  1.00  0.00     0.010 C 
BRANCH  23  25
HETATM   25  C4  UNL     1       2.115  12.821  20.322  1.00  0.00     0.009 C 
BRANCH  25  26
HETATM   26  C3  UNL     1       2.774  12.749  21.714  1.00  0.00     0.034 C 
BRANCH  26  27
HETATM   27  C2  UNL     1       4.243  13.111  21.863  1.00  0.00    -0.075 C 
HETATM   28  C1  UNL     1       4.675  14.386  21.888  1.00  0.00     0.015 C 
BRANCH  27  29
HETATM   29  C27 UNL     1       5.254  11.962  21.930  1.00  0.00     0.107 C 
HETATM   30  C28 UNL     1       6.203  12.075  23.123  1.00  0.00     0.026 C 
BRANCH  29  31
HETATM   31  C29 UNL     1       4.587  10.587  21.924  1.00  0.00     0.147 C 
HETATM   32  O4  UNL     1       4.199   9.938  20.968  1.00  0.00    -0.650 OA
BRANCH  31  33
HETATM   33  O5  UNL     1       4.420  10.098  23.173  1.00  0.00    -0.776 OA
HETATM   34  H42 UNL     1       3.991   9.229  23.025  1.00  0.00     0.167 HD
ENDBRANCH  31  33
ENDBRANCH  29  31
ENDBRANCH  27  29
ENDBRANCH  26  27
ENDBRANCH  25  26
ENDBRANCH  23  25
ENDBRANCH   1  23
BRANCH  22  35
HETATM   35  O3  UNL     1      -3.528  12.917  15.807  1.00  0.00    -0.391 OA
HETATM   36  H37 UNL     1      -4.405  13.102  15.432  1.00  0.00     0.210 HD
ENDBRANCH  22  35
TORSDOF 8
ENDMDL
MODEL 9
REMARK minimizedAffinity -6.5043354
REMARK CNNscore 0.453540891
REMARK CNNaffinity 5.9668541
REMARK  8 active torsions:
REMARK  status: ('A' for Active; 'I' for Inactive)
REMARK    1  A    between atoms: C2_2  and  C3_3 
REMARK    2  A    between atoms: C2_2  and  C27_30 
REMARK    3  A    between atoms: C3_3  and  C4_4 
REMARK    4  A    between atoms: C4_4  and  C5_5 
REMARK    5  A    between atoms: C5_5  and  C7_7 
REMARK    6  A    between atoms: C26_28  and  O3_29 
REMARK    7  A    between atoms: C27_30  and  C29_32 
REMARK    8  A    between atoms: C29_32  and  O5_34 
ROOT
HETATM    1  C7  UNL     1     -14.240   6.399  23.387  1.00  0.00    -0.002 C 
HETATM    2  C8  UNL     1     -14.108   6.023  21.888  1.00  0.00     0.006 C 
HETATM    3  C9  UNL     1     -13.398   7.200  21.206  1.00  0.00     0.010 C 
HETATM    4  C10 UNL     1     -12.813   8.008  22.365  1.00  0.00     0.027 C 
HETATM    5  C11 UNL     1     -12.241   9.402  22.187  1.00  0.00    -0.036 C 
HETATM    6  C12 UNL     1     -12.100  10.224  23.260  1.00  0.00     0.002 C 
HETATM    7  C13 UNL     1     -12.686   9.792  24.594  1.00  0.00     0.157 C 
HETATM    8  O1  UNL     1     -12.629  10.531  25.577  1.00  0.00    -0.293 OA
HETATM    9  C14 UNL     1     -13.325   8.422  24.740  1.00  0.00     0.093 C 
HETATM   10  C15 UNL     1     -13.935   7.929  23.429  1.00  0.00    -0.026 C 
HETATM   11  C16 UNL     1     -15.160   8.799  23.071  1.00  0.00     0.016 C 
HETATM   12  C17 UNL     1     -11.373  11.587  23.199  1.00  0.00    -0.008 C 
HETATM   13  C18 UNL     1     -12.475  12.677  23.182  1.00  0.00     0.021 C 
HETATM   14  C19 UNL     1     -10.437  11.819  24.432  1.00  0.00     0.022 C 
HETATM   15  C20 UNL     1      -9.166  12.625  24.174  1.00  0.00     0.080 C 
HETATM   16  C21 UNL     1      -9.343  13.613  23.053  1.00  0.00     0.131 C 
HETATM   17  O2  UNL     1      -9.035  14.797  23.181  1.00  0.00    -0.298 OA
HETATM   18  C22 UNL     1      -9.831  13.059  21.723  1.00  0.00     0.056 C 
HETATM   19  C23 UNL     1      -8.656  13.043  20.746  1.00  0.00     0.018 C 
HETATM   20  C24 UNL     1     -10.463  11.658  21.921  1.00  0.00     0.012 C 
HETATM   21  C25 UNL     1     -11.230  11.211  20.678  1.00  0.00     0.042 C 
HETATM   22  C26 UNL     1     -11.736   9.776  20.814  1.00  0.00     0.148 C 
ENDROOT
BRANCH   1  23
HETATM   23  C5  UNL     1     -15.483   5.772  24.086  1.00  0.00    -0.014 C 
HETATM   24  C6  UNL     1     -16.445   6.767  24.745  1.00  0.00     0.010 C 
BRANCH  23  25
HETATM   25  C4  UNL     1     -15.069   4.644  25.061  1.00  0.00     0.009 C 
BRANCH  25  26
HETATM   26  C3  UNL     1     -13.589   4.217  24.981  1.00  0.00     0.034 C 
BRANCH  26  27
HETATM   27  C2  UNL     1     -13.220   2.941  24.242  1.00  0.00    -0.075 C 
HETATM   28  C1  UNL     1     -13.327   2.823  22.905  1.00  0.00     0.015 C 
BRANCH  27  29
HETATM   29  C27 UNL     1     -12.763   1.743  25.078  1.00  0.00     0.107 C 
HETATM   30  C28 UNL     1     -11.284   1.410  24.880  1.00  0.00     0.026 C 
BRANCH  29  31
HETATM   31  C29 UNL     1     -13.062   1.914  26.567  1.00  0.00     0.147 C 
HETATM   32  O4  UNL     1     -12.358   2.412  27.429  1.00  0.00    -0.650 OA
BRANCH  31  33
HETATM   33  O5  UNL     1     -14.271   1.410  26.903  1.00  0.00    -0.776 OA
HETATM   34  H42 UNL     1     -14.334   1.583  27.866  1.00  0.00     0.167 HD
ENDBRANCH  31  33
ENDBRANCH  29  31
ENDBRANCH  27  29
ENDBRANCH  26  27
ENDBRANCH  25  26
ENDBRANCH  23  25
ENDBRANCH   1  23
BRANCH  22  35
HETATM   35  O3  UNL     1     -12.788   9.627  19.869  1.00  0.00    -0.391 OA
HETATM   36  H37 UNL     1     -12.419   9.802  18.987  1.00  0.00     0.210 HD
ENDBRANCH  22  35
TORSDOF 8
ENDMDL
