MODEL 1
REMARK minimizedAffinity -11.0259447
REMARK CNNscore 0.478807062
REMARK CNNaffinity 7.81295156
REMARK  12 active torsions:
REMARK  status: ('A' for Active; 'I' for Inactive)
REMARK    1  A    between atoms: O1_2  and  C2_3 
REMARK    2  A    between atoms: C4_5  and  C5_6 
REMARK    3  A    between atoms: C8_10  and  O3_11 
REMARK    4  A    between atoms: O3_11  and  C9_12 
REMARK    5  A    between atoms: C9_12  and  C10_13 
REMARK    6  A    between atoms: C10_13  and  O4_14 
REMARK    7  A    between atoms: C15_19  and  O5_20 
REMARK    8  A    between atoms: C19_24  and  C20_25 
REMARK    9  A    between atoms: C20_25  and  C21_26 
REMARK   10  A    between atoms: C21_26  and  N1_27 
REMARK   11  A    between atoms: C32_39  and  O6_40 
REMARK   12  A    between atoms: C35_43  and  O7_44 
ROOT
HETATM    1  C5  UNL     1       0.591   8.094  12.276  1.00  0.00     0.191 C 
HETATM    2  O2  UNL     1       0.539   6.698  11.971  1.00  0.00    -0.338 OA
HETATM    3  C6  UNL     1      -0.702   6.115  12.046  1.00  0.00     0.079 A 
HETATM    4  C7  UNL     1      -0.721   4.819  11.542  1.00  0.00     0.075 A 
HETATM    5  C8  UNL     1      -1.886   4.063  11.576  1.00  0.00     0.083 A 
HETATM    6  C11 UNL     1      -3.099   4.652  12.019  1.00  0.00     0.015 A 
HETATM    7  C12 UNL     1      -4.384   3.879  12.069  1.00  0.00    -0.016 A 
HETATM    8  C13 UNL     1      -4.721   2.838  11.185  1.00  0.00     0.015 A 
HETATM    9  C14 UNL     1      -5.904   2.103  11.328  1.00  0.00     0.037 A 
HETATM   10  C15 UNL     1      -6.783   2.416  12.354  1.00  0.00     0.066 A 
HETATM   11  C16 UNL     1      -6.516   3.472  13.211  1.00  0.00     0.044 A 
HETATM   12  C17 UNL     1      -5.340   4.219  13.051  1.00  0.00    -0.044 A 
HETATM   13  C18 UNL     1      -5.098   5.456  13.879  1.00  0.00     0.049 C 
HETATM   14  C19 UNL     1      -4.497   6.533  12.950  1.00  0.00     0.027 C 
HETATM   15  C29 UNL     1      -3.085   6.009  12.538  1.00  0.00    -0.031 A 
HETATM   16  C30 UNL     1      -1.847   6.710  12.615  1.00  0.00    -0.015 A 
HETATM   17  C31 UNL     1      -1.656   8.046  13.295  1.00  0.00     0.076 C 
HETATM   18  C32 UNL     1      -0.184   8.381  13.575  1.00  0.00     0.156 C 
ENDROOT
BRANCH  14  19
HETATM   19  C20 UNL     1      -4.677   7.987  13.467  1.00  0.00     0.041 C 
BRANCH  19  20
HETATM   20  C21 UNL     1      -4.876   8.304  14.995  1.00  0.00     0.038 C 
HETATM   21  C25 UNL     1      -3.949   7.449  15.898  1.00  0.00     0.031 C 
HETATM   22  C26 UNL     1      -2.833   8.381  16.336  1.00  0.00     0.002 C 
HETATM   23  C27 UNL     1      -3.516   9.730  16.475  1.00  0.00     0.002 C 
HETATM   24  C28 UNL     1      -4.545   9.777  15.351  1.00  0.00     0.031 C 
BRANCH  20  25
HETATM   25  N1  UNL     1      -6.327   8.063  15.390  1.00  0.00    -0.342 N 
HETATM   26  C22 UNL     1      -7.388   8.823  15.058  1.00  0.00     0.183 A 
HETATM   27  N2  UNL     1      -8.479   8.258  15.588  1.00  0.00    -0.361 N 
HETATM   28  C23 UNL     1      -8.141   7.153  16.327  1.00  0.00     0.106 A 
HETATM   29  H22 UNL     1      -9.425   8.614  15.463  1.00  0.00     0.166 HD
HETATM   30  C24 UNL     1      -6.784   7.033  16.231  1.00  0.00     0.109 A 
ENDBRANCH  20  25
ENDBRANCH  19  20
ENDBRANCH  14  19
BRANCH   5  31
HETATM   31  O3  UNL     1      -1.906   2.746  11.197  1.00  0.00    -0.348 OA
BRANCH  31  32
HETATM   32  C9  UNL     1      -0.673   2.010  11.250  1.00  0.00     0.201 C 
BRANCH  32  33
HETATM   33  C10 UNL     1      -0.900   0.652  10.589  1.00  0.00     0.190 C 
BRANCH  33  34
HETATM   34  O4  UNL     1      -0.631   0.739   9.189  1.00  0.00    -0.399 OA
HETATM   35  H11 UNL     1      -0.605  -0.171   8.844  1.00  0.00     0.209 HD
ENDBRANCH  33  34
ENDBRANCH  32  33
ENDBRANCH  31  32
ENDBRANCH   5  31
BRANCH  10  36
HETATM   36  O5  UNL     1      -7.944   1.728  12.534  1.00  0.00    -0.361 OA
HETATM   37  H14 UNL     1      -7.939   0.949  11.952  1.00  0.00     0.217 HD
ENDBRANCH  10  36
BRANCH  18  38
HETATM   38  O6  UNL     1       0.303   7.624  14.691  1.00  0.00    -0.392 OA
HETATM   39  H36 UNL     1      -0.437   7.278  15.221  1.00  0.00     0.210 HD
ENDBRANCH  18  38
BRANCH   1  40
HETATM   40  C4  UNL     1       2.041   8.541  12.207  1.00  0.00    -0.024 A 
HETATM   41  C3  UNL     1       2.936   7.792  11.415  1.00  0.00     0.049 A 
HETATM   42  C2  UNL     1       4.282   8.151  11.302  1.00  0.00     0.101 A 
HETATM   43  C35 UNL     1       4.746   9.281  11.978  1.00  0.00     0.099 A 
HETATM   44  C34 UNL     1       3.886  10.024  12.784  1.00  0.00     0.040 A 
HETATM   45  C33 UNL     1       2.545   9.652  12.901  1.00  0.00     0.013 A 
BRANCH  42  46
HETATM   46  O1  UNL     1       5.170   7.476  10.505  1.00  0.00    -0.353 OA
HETATM   47  C1  UNL     1       5.644   6.250  11.050  1.00  0.00     0.210 C 
ENDBRANCH  42  46
BRANCH  43  48
HETATM   48  O7  UNL     1       6.059   9.646  11.858  1.00  0.00    -0.358 OA
HETATM   49  H39 UNL     1       6.239  10.398  12.441  1.00  0.00     0.217 HD
ENDBRANCH  43  48
ENDBRANCH   1  40
TORSDOF 12
ENDMDL
MODEL 2
REMARK minimizedAffinity -10.2813644
REMARK CNNscore 0.420047849
REMARK CNNaffinity 7.68737268
REMARK  12 active torsions:
REMARK  status: ('A' for Active; 'I' for Inactive)
REMARK    1  A    between atoms: O1_2  and  C2_3 
REMARK    2  A    between atoms: C4_5  and  C5_6 
REMARK    3  A    between atoms: C8_10  and  O3_11 
REMARK    4  A    between atoms: O3_11  and  C9_12 
REMARK    5  A    between atoms: C9_12  and  C10_13 
REMARK    6  A    between atoms: C10_13  and  O4_14 
REMARK    7  A    between atoms: C15_19  and  O5_20 
REMARK    8  A    between atoms: C19_24  and  C20_25 
REMARK    9  A    between atoms: C20_25  and  C21_26 
REMARK   10  A    between atoms: C21_26  and  N1_27 
REMARK   11  A    between atoms: C32_39  and  O6_40 
REMARK   12  A    between atoms: C35_43  and  O7_44 
ROOT
HETATM    1  C5  UNL     1      -7.489   7.138  15.103  1.00  0.00     0.191 C 
HETATM    2  O2  UNL     1      -7.615   6.213  14.020  1.00  0.00    -0.338 OA
HETATM    3  C6  UNL     1      -6.461   5.571  13.645  1.00  0.00     0.079 A 
HETATM    4  C7  UNL     1      -6.686   4.543  12.734  1.00  0.00     0.075 A 
HETATM    5  C8  UNL     1      -5.625   3.813  12.215  1.00  0.00     0.083 A 
HETATM    6  C11 UNL     1      -4.310   4.031  12.701  1.00  0.00     0.015 A 
HETATM    7  C12 UNL     1      -3.132   3.264  12.175  1.00  0.00    -0.016 A 
HETATM    8  C13 UNL     1      -3.191   1.939  11.707  1.00  0.00     0.015 A 
HETATM    9  C14 UNL     1      -2.072   1.301  11.159  1.00  0.00     0.037 A 
HETATM   10  C15 UNL     1      -0.865   1.978  11.091  1.00  0.00     0.066 A 
HETATM   11  C16 UNL     1      -0.749   3.264  11.594  1.00  0.00     0.044 A 
HETATM   12  C17 UNL     1      -1.868   3.892  12.162  1.00  0.00    -0.044 A 
HETATM   13  C18 UNL     1      -1.732   5.231  12.841  1.00  0.00     0.049 C 
HETATM   14  C19 UNL     1      -2.585   5.193  14.128  1.00  0.00     0.027 C 
HETATM   15  C29 UNL     1      -4.072   5.098  13.658  1.00  0.00    -0.031 A 
HETATM   16  C30 UNL     1      -5.162   5.918  14.069  1.00  0.00    -0.015 A 
HETATM   17  C31 UNL     1      -5.029   7.167  14.910  1.00  0.00     0.076 C 
HETATM   18  C32 UNL     1      -6.278   8.060  14.874  1.00  0.00     0.156 C 
ENDROOT
BRANCH  14  19
HETATM   19  C20 UNL     1      -2.164   6.238  15.198  1.00  0.00     0.041 C 
BRANCH  19  20
HETATM   20  C21 UNL     1      -1.408   7.562  14.811  1.00  0.00     0.038 C 
HETATM   21  C25 UNL     1      -1.670   7.979  13.340  1.00  0.00     0.031 C 
HETATM   22  C26 UNL     1      -2.661   9.127  13.413  1.00  0.00     0.002 C 
HETATM   23  C27 UNL     1      -2.276   9.865  14.683  1.00  0.00     0.002 C 
HETATM   24  C28 UNL     1      -1.851   8.779  15.665  1.00  0.00     0.031 C 
BRANCH  20  25
HETATM   25  N1  UNL     1       0.090   7.385  15.026  1.00  0.00    -0.342 N 
HETATM   26  C22 UNL     1       0.928   6.646  14.275  1.00  0.00     0.183 A 
HETATM   27  N2  UNL     1       2.157   6.771  14.789  1.00  0.00    -0.361 N 
HETATM   28  C23 UNL     1       2.132   7.546  15.920  1.00  0.00     0.106 A 
HETATM   29  H22 UNL     1       2.989   6.338  14.391  1.00  0.00     0.166 HD
HETATM   30  C24 UNL     1       0.830   7.919  16.095  1.00  0.00     0.109 A 
ENDBRANCH  20  25
ENDBRANCH  19  20
ENDBRANCH  14  19
BRANCH   5  31
HETATM   31  O3  UNL     1      -5.804   2.876  11.230  1.00  0.00    -0.348 OA
BRANCH  31  32
HETATM   32  C9  UNL     1      -6.316   1.588  11.608  1.00  0.00     0.201 C 
BRANCH  32  33
HETATM   33  C10 UNL     1      -7.224   1.772  12.822  1.00  0.00     0.190 C 
BRANCH  33  34
HETATM   34  O4  UNL     1      -8.556   2.063  12.395  1.00  0.00    -0.399 OA
HETATM   35  H11 UNL     1      -9.131   1.989  13.177  1.00  0.00     0.209 HD
ENDBRANCH  33  34
ENDBRANCH  32  33
ENDBRANCH  31  32
ENDBRANCH   5  31
BRANCH  10  36
HETATM   36  O5  UNL     1       0.251   1.399  10.564  1.00  0.00    -0.361 OA
HETATM   37  H14 UNL     1      -0.004   0.561  10.142  1.00  0.00     0.217 HD
ENDBRANCH  10  36
BRANCH  18  38
HETATM   38  O6  UNL     1      -6.352   8.775  13.634  1.00  0.00    -0.392 OA
HETATM   39  H36 UNL     1      -5.485   8.787  13.191  1.00  0.00     0.210 HD
ENDBRANCH  18  38
BRANCH   1  40
HETATM   40  C4  UNL     1      -8.842   7.792  15.328  1.00  0.00    -0.024 A 
HETATM   41  C3  UNL     1      -9.808   7.703  14.304  1.00  0.00     0.049 A 
HETATM   42  C2  UNL     1     -11.074   8.277  14.447  1.00  0.00     0.101 A 
HETATM   43  C35 UNL     1     -11.391   8.943  15.633  1.00  0.00     0.099 A 
HETATM   44  C34 UNL     1     -10.446   9.064  16.649  1.00  0.00     0.040 A 
HETATM   45  C33 UNL     1      -9.179   8.496  16.493  1.00  0.00     0.013 A 
BRANCH  42  46
HETATM   46  O1  UNL     1     -12.053   8.171  13.494  1.00  0.00    -0.353 OA
HETATM   47  C1  UNL     1     -11.962   9.122  12.439  1.00  0.00     0.210 C 
ENDBRANCH  42  46
BRANCH  43  48
HETATM   48  O7  UNL     1     -12.635   9.493  15.784  1.00  0.00    -0.358 OA
HETATM   49  H39 UNL     1     -12.672   9.979  16.621  1.00  0.00     0.217 HD
ENDBRANCH  43  48
ENDBRANCH   1  40
TORSDOF 12
ENDMDL
MODEL 3
REMARK minimizedAffinity -10.3408079
REMARK CNNscore 0.330397069
REMARK CNNaffinity 7.11841631
REMARK  12 active torsions:
REMARK  status: ('A' for Active; 'I' for Inactive)
REMARK    1  A    between atoms: O1_2  and  C2_3 
REMARK    2  A    between atoms: C4_5  and  C5_6 
REMARK    3  A    between atoms: C8_10  and  O3_11 
REMARK    4  A    between atoms: O3_11  and  C9_12 
REMARK    5  A    between atoms: C9_12  and  C10_13 
REMARK    6  A    between atoms: C10_13  and  O4_14 
REMARK    7  A    between atoms: C15_19  and  O5_20 
REMARK    8  A    between atoms: C19_24  and  C20_25 
REMARK    9  A    between atoms: C20_25  and  C21_26 
REMARK   10  A    between atoms: C21_26  and  N1_27 
REMARK   11  A    between atoms: C32_39  and  O6_40 
REMARK   12  A    between atoms: C35_43  and  O7_44 
ROOT
HETATM    1  C5  UNL     1      -3.686   9.967  16.531  1.00  0.00     0.191 C 
HETATM    2  O2  UNL     1      -4.903   9.637  15.856  1.00  0.00    -0.338 OA
HETATM    3  C6  UNL     1      -4.915   8.430  15.203  1.00  0.00     0.079 A 
HETATM    4  C7  UNL     1      -6.181   8.075  14.746  1.00  0.00     0.075 A 
HETATM    5  C8  UNL     1      -6.371   6.903  14.026  1.00  0.00     0.083 A 
HETATM    6  C11 UNL     1      -5.294   5.997  13.852  1.00  0.00     0.015 A 
HETATM    7  C12 UNL     1      -5.450   4.715  13.086  1.00  0.00    -0.016 A 
HETATM    8  C13 UNL     1      -6.641   3.970  13.020  1.00  0.00     0.015 A 
HETATM    9  C14 UNL     1      -6.748   2.820  12.228  1.00  0.00     0.037 A 
HETATM   10  C15 UNL     1      -5.649   2.386  11.503  1.00  0.00     0.066 A 
HETATM   11  C16 UNL     1      -4.440   3.059  11.586  1.00  0.00     0.044 A 
HETATM   12  C17 UNL     1      -4.332   4.198  12.397  1.00  0.00    -0.044 A 
HETATM   13  C18 UNL     1      -2.995   4.861  12.614  1.00  0.00     0.049 C 
HETATM   14  C19 UNL     1      -2.899   5.247  14.106  1.00  0.00     0.027 C 
HETATM   15  C29 UNL     1      -3.972   6.359  14.335  1.00  0.00    -0.031 A 
HETATM   16  C30 UNL     1      -3.782   7.629  14.951  1.00  0.00    -0.015 A 
HETATM   17  C31 UNL     1      -2.439   8.208  15.332  1.00  0.00     0.076 C 
HETATM   18  C32 UNL     1      -2.483   9.719  15.604  1.00  0.00     0.156 C 
ENDROOT
BRANCH  14  19
HETATM   19  C20 UNL     1      -1.445   5.441  14.617  1.00  0.00     0.041 C 
BRANCH  19  20
HETATM   20  C21 UNL     1      -0.312   6.024  13.693  1.00  0.00     0.038 C 
HETATM   21  C25 UNL     1       0.349   4.929  12.815  1.00  0.00     0.031 C 
HETATM   22  C26 UNL     1      -0.228   5.121  11.423  1.00  0.00     0.002 C 
HETATM   23  C27 UNL     1      -0.411   6.623  11.305  1.00  0.00     0.002 C 
HETATM   24  C28 UNL     1      -0.838   7.086  12.693  1.00  0.00     0.031 C 
BRANCH  20  25
HETATM   25  N1  UNL     1       0.756   6.699  14.545  1.00  0.00    -0.342 N 
HETATM   26  C22 UNL     1       0.689   6.953  15.866  1.00  0.00     0.183 A 
HETATM   27  N2  UNL     1       1.835   7.540  16.229  1.00  0.00    -0.361 N 
HETATM   28  C23 UNL     1       2.644   7.735  15.139  1.00  0.00     0.106 A 
HETATM   29  H22 UNL     1       2.060   7.810  17.184  1.00  0.00     0.166 HD
HETATM   30  C24 UNL     1       1.964   7.232  14.067  1.00  0.00     0.109 A 
ENDBRANCH  20  25
ENDBRANCH  19  20
ENDBRANCH  14  19
BRANCH   5  31
HETATM   31  O3  UNL     1      -7.581   6.588  13.463  1.00  0.00    -0.348 OA
BRANCH  31  32
HETATM   32  C9  UNL     1      -8.675   6.282  14.341  1.00  0.00     0.201 C 
BRANCH  32  33
HETATM   33  C10 UNL     1      -8.115   6.075  15.747  1.00  0.00     0.190 C 
BRANCH  33  34
HETATM   34  O4  UNL     1      -8.238   4.703  16.124  1.00  0.00    -0.399 OA
HETATM   35  H11 UNL     1      -7.711   4.579  16.934  1.00  0.00     0.209 HD
ENDBRANCH  33  34
ENDBRANCH  32  33
ENDBRANCH  31  32
ENDBRANCH   5  31
BRANCH  10  36
HETATM   36  O5  UNL     1      -5.705   1.275  10.717  1.00  0.00    -0.361 OA
HETATM   37  H14 UNL     1      -6.631   0.983  10.655  1.00  0.00     0.217 HD
ENDBRANCH  10  36
BRANCH  18  38
HETATM   38  O6  UNL     1      -2.569  10.451  14.375  1.00  0.00    -0.392 OA
HETATM   39  H36 UNL     1      -2.297   9.896  13.623  1.00  0.00     0.210 HD
ENDBRANCH  18  38
BRANCH   1  40
HETATM   40  C4  UNL     1      -3.838  11.354  17.132  1.00  0.00    -0.024 A 
HETATM   41  C3  UNL     1      -4.488  12.348  16.369  1.00  0.00     0.049 A 
HETATM   42  C2  UNL     1      -4.667  13.643  16.864  1.00  0.00     0.101 A 
HETATM   43  C35 UNL     1      -4.204  13.954  18.144  1.00  0.00     0.099 A 
HETATM   44  C34 UNL     1      -3.539  12.997  18.907  1.00  0.00     0.040 A 
HETATM   45  C33 UNL     1      -3.355  11.708  18.401  1.00  0.00     0.013 A 
BRANCH  42  46
HETATM   46  O1  UNL     1      -5.333  14.620  16.173  1.00  0.00    -0.353 OA
HETATM   47  C1  UNL     1      -4.853  14.846  14.852  1.00  0.00     0.210 C 
ENDBRANCH  42  46
BRANCH  43  48
HETATM   48  O7  UNL     1      -4.391  15.216  18.639  1.00  0.00    -0.358 OA
HETATM   49  H39 UNL     1      -3.951  15.292  19.499  1.00  0.00     0.217 HD
ENDBRANCH  43  48
ENDBRANCH   1  40
TORSDOF 12
ENDMDL
MODEL 4
REMARK minimizedAffinity -11.0517426
REMARK CNNscore 0.264948845
REMARK CNNaffinity 7.52675486
REMARK  12 active torsions:
REMARK  status: ('A' for Active; 'I' for Inactive)
REMARK    1  A    between atoms: O1_2  and  C2_3 
REMARK    2  A    between atoms: C4_5  and  C5_6 
REMARK    3  A    between atoms: C8_10  and  O3_11 
REMARK    4  A    between atoms: O3_11  and  C9_12 
REMARK    5  A    between atoms: C9_12  and  C10_13 
REMARK    6  A    between atoms: C10_13  and  O4_14 
REMARK    7  A    between atoms: C15_19  and  O5_20 
REMARK    8  A    between atoms: C19_24  and  C20_25 
REMARK    9  A    between atoms: C20_25  and  C21_26 
REMARK   10  A    between atoms: C21_26  and  N1_27 
REMARK   11  A    between atoms: C32_39  and  O6_40 
REMARK   12  A    between atoms: C35_43  and  O7_44 
ROOT
HETATM    1  C5  UNL     1       1.552   6.732  12.039  1.00  0.00     0.191 C 
HETATM    2  O2  UNL     1       1.169   5.441  11.559  1.00  0.00    -0.338 OA
HETATM    3  C6  UNL     1      -0.156   5.116  11.712  1.00  0.00     0.079 A 
HETATM    4  C7  UNL     1      -0.506   3.946  11.045  1.00  0.00     0.075 A 
HETATM    5  C8  UNL     1      -1.798   3.445  11.124  1.00  0.00     0.083 A 
HETATM    6  C11 UNL     1      -2.806   4.189  11.791  1.00  0.00     0.015 A 
HETATM    7  C12 UNL     1      -4.218   3.692  11.899  1.00  0.00    -0.016 A 
HETATM    8  C13 UNL     1      -4.856   2.893  10.933  1.00  0.00     0.015 A 
HETATM    9  C14 UNL     1      -6.152   2.399  11.125  1.00  0.00     0.037 A 
HETATM   10  C15 UNL     1      -6.839   2.717  12.286  1.00  0.00     0.066 A 
HETATM   11  C16 UNL     1      -6.269   3.549  13.236  1.00  0.00     0.044 A 
HETATM   12  C17 UNL     1      -4.979   4.059  13.030  1.00  0.00    -0.044 A 
HETATM   13  C18 UNL     1      -4.396   5.076  13.979  1.00  0.00     0.049 C 
HETATM   14  C19 UNL     1      -3.666   6.143  13.134  1.00  0.00     0.027 C 
HETATM   15  C29 UNL     1      -2.447   5.416  12.481  1.00  0.00    -0.031 A 
HETATM   16  C30 UNL     1      -1.085   5.833  12.494  1.00  0.00    -0.015 A 
HETATM   17  C31 UNL     1      -0.544   6.978  13.317  1.00  0.00     0.076 C 
HETATM   18  C32 UNL     1       0.986   6.962  13.452  1.00  0.00     0.156 C 
ENDROOT
BRANCH  14  19
HETATM   19  C20 UNL     1      -3.474   7.503  13.860  1.00  0.00     0.041 C 
BRANCH  19  20
HETATM   20  C21 UNL     1      -4.490   8.012  14.948  1.00  0.00     0.038 C 
HETATM   21  C25 UNL     1      -5.744   8.673  14.316  1.00  0.00     0.031 C 
HETATM   22  C26 UNL     1      -6.854   7.644  14.445  1.00  0.00     0.002 C 
HETATM   23  C27 UNL     1      -6.558   6.948  15.760  1.00  0.00     0.002 C 
HETATM   24  C28 UNL     1      -5.038   6.869  15.841  1.00  0.00     0.031 C 
BRANCH  20  25
HETATM   25  N1  UNL     1      -3.804   9.013  15.870  1.00  0.00    -0.342 N 
HETATM   26  C22 UNL     1      -4.243  10.245  16.187  1.00  0.00     0.183 A 
HETATM   27  N2  UNL     1      -3.362  10.788  17.035  1.00  0.00    -0.361 N 
HETATM   28  C23 UNL     1      -2.301   9.943  17.237  1.00  0.00     0.106 A 
HETATM   29  H22 UNL     1      -3.469  11.708  17.458  1.00  0.00     0.166 HD
HETATM   30  C24 UNL     1      -2.556   8.829  16.488  1.00  0.00     0.109 A 
ENDBRANCH  20  25
ENDBRANCH  19  20
ENDBRANCH  14  19
BRANCH   5  31
HETATM   31  O3  UNL     1      -2.140   2.235  10.578  1.00  0.00    -0.348 OA
BRANCH  31  32
HETATM   32  C9  UNL     1      -1.691   1.043  11.242  1.00  0.00     0.201 C 
BRANCH  32  33
HETATM   33  C10 UNL     1      -0.549   0.443  10.424  1.00  0.00     0.190 C 
BRANCH  33  34
HETATM   34  O4  UNL     1      -0.711   0.774   9.044  1.00  0.00    -0.399 OA
HETATM   35  H11 UNL     1       0.119   0.537   8.593  1.00  0.00     0.209 HD
ENDBRANCH  33  34
ENDBRANCH  32  33
ENDBRANCH  31  32
ENDBRANCH   5  31
BRANCH  10  36
HETATM   36  O5  UNL     1      -8.101   2.258  12.518  1.00  0.00    -0.361 OA
HETATM   37  H14 UNL     1      -8.321   1.595  11.840  1.00  0.00     0.217 HD
ENDBRANCH  10  36
BRANCH  18  38
HETATM   38  O6  UNL     1       1.399   5.956  14.386  1.00  0.00    -0.392 OA
HETATM   39  H36 UNL     1       0.656   5.687  14.954  1.00  0.00     0.210 HD
ENDBRANCH  18  38
BRANCH   1  40
HETATM   40  C4  UNL     1       3.052   6.884  11.848  1.00  0.00    -0.024 A 
HETATM   41  C3  UNL     1       3.760   7.723  12.734  1.00  0.00     0.049 A 
HETATM   42  C2  UNL     1       5.141   7.902  12.618  1.00  0.00     0.101 A 
HETATM   43  C35 UNL     1       5.835   7.227  11.612  1.00  0.00     0.099 A 
HETATM   44  C34 UNL     1       5.155   6.411  10.711  1.00  0.00     0.040 A 
HETATM   45  C33 UNL     1       3.772   6.246  10.827  1.00  0.00     0.013 A 
BRANCH  42  46
HETATM   46  O1  UNL     1       5.869   8.671  13.488  1.00  0.00    -0.353 OA
HETATM   47  C1  UNL     1       5.997   8.129  14.798  1.00  0.00     0.210 C 
ENDBRANCH  42  46
BRANCH  43  48
HETATM   48  O7  UNL     1       7.190   7.387  11.505  1.00  0.00    -0.358 OA
HETATM   49  H39 UNL     1       7.507   6.917  10.719  1.00  0.00     0.217 HD
ENDBRANCH  43  48
ENDBRANCH   1  40
TORSDOF 12
ENDMDL
MODEL 5
REMARK minimizedAffinity -10.154254
REMARK CNNscore 0.195268258
REMARK CNNaffinity 7.08873701
REMARK  12 active torsions:
REMARK  status: ('A' for Active; 'I' for Inactive)
REMARK    1  A    between atoms: O1_2  and  C2_3 
REMARK    2  A    between atoms: C4_5  and  C5_6 
REMARK    3  A    between atoms: C8_10  and  O3_11 
REMARK    4  A    between atoms: O3_11  and  C9_12 
REMARK    5  A    between atoms: C9_12  and  C10_13 
REMARK    6  A    between atoms: C10_13  and  O4_14 
REMARK    7  A    between atoms: C15_19  and  O5_20 
REMARK    8  A    between atoms: C19_24  and  C20_25 
REMARK    9  A    between atoms: C20_25  and  C21_26 
REMARK   10  A    between atoms: C21_26  and  N1_27 
REMARK   11  A    between atoms: C32_39  and  O6_40 
REMARK   12  A    between atoms: C35_43  and  O7_44 
ROOT
HETATM    1  C5  UNL     1      -3.507  10.969  15.138  1.00  0.00     0.191 C 
HETATM    2  O2  UNL     1      -2.305  10.297  14.750  1.00  0.00    -0.338 OA
HETATM    3  C6  UNL     1      -2.468   9.047  14.206  1.00  0.00     0.079 A 
HETATM    4  C7  UNL     1      -1.293   8.537  13.664  1.00  0.00     0.075 A 
HETATM    5  C8  UNL     1      -1.264   7.265  13.108  1.00  0.00     0.083 A 
HETATM    6  C11 UNL     1      -2.466   6.520  12.981  1.00  0.00     0.015 A 
HETATM    7  C12 UNL     1      -2.487   5.144  12.383  1.00  0.00    -0.016 A 
HETATM    8  C13 UNL     1      -1.611   4.702  11.375  1.00  0.00     0.015 A 
HETATM    9  C14 UNL     1      -1.631   3.382  10.909  1.00  0.00     0.037 A 
HETATM   10  C15 UNL     1      -2.549   2.486  11.434  1.00  0.00     0.066 A 
HETATM   11  C16 UNL     1      -3.468   2.896  12.386  1.00  0.00     0.044 A 
HETATM   12  C17 UNL     1      -3.458   4.225  12.835  1.00  0.00    -0.044 A 
HETATM   13  C18 UNL     1      -4.535   4.729  13.763  1.00  0.00     0.049 C 
HETATM   14  C19 UNL     1      -4.940   6.141  13.289  1.00  0.00     0.027 C 
HETATM   15  C29 UNL     1      -3.697   7.054  13.539  1.00  0.00    -0.031 A 
HETATM   16  C30 UNL     1      -3.665   8.302  14.223  1.00  0.00    -0.015 A 
HETATM   17  C31 UNL     1      -4.821   8.885  15.003  1.00  0.00     0.076 C 
HETATM   18  C32 UNL     1      -4.405  10.020  15.951  1.00  0.00     0.156 C 
ENDROOT
BRANCH  14  19
HETATM   19  C20 UNL     1      -6.351   6.588  13.763  1.00  0.00     0.041 C 
BRANCH  19  20
HETATM   20  C21 UNL     1      -7.602   5.641  13.648  1.00  0.00     0.038 C 
HETATM   21  C25 UNL     1      -7.868   5.194  12.187  1.00  0.00     0.031 C 
HETATM   22  C26 UNL     1      -7.370   3.762  12.102  1.00  0.00     0.002 C 
HETATM   23  C27 UNL     1      -7.678   3.184  13.471  1.00  0.00     0.002 C 
HETATM   24  C28 UNL     1      -7.435   4.325  14.453  1.00  0.00     0.031 C 
BRANCH  20  25
HETATM   25  N1  UNL     1      -8.838   6.346  14.193  1.00  0.00    -0.342 N 
HETATM   26  C22 UNL     1      -9.023   6.785  15.453  1.00  0.00     0.183 A 
HETATM   27  N2  UNL     1     -10.229   7.359  15.513  1.00  0.00    -0.361 N 
HETATM   28  C23 UNL     1     -10.878   7.250  14.310  1.00  0.00     0.106 A 
HETATM   29  H22 UNL     1     -10.609   7.805  16.347  1.00  0.00     0.166 HD
HETATM   30  C24 UNL     1     -10.020   6.590  13.476  1.00  0.00     0.109 A 
ENDBRANCH  20  25
ENDBRANCH  19  20
ENDBRANCH  14  19
BRANCH   5  31
HETATM   31  O3  UNL     1      -0.097   6.690  12.674  1.00  0.00    -0.348 OA
BRANCH  31  32
HETATM   32  C9  UNL     1       0.756   6.074  13.652  1.00  0.00     0.201 C 
BRANCH  32  33
HETATM   33  C10 UNL     1       1.868   7.059  14.004  1.00  0.00     0.190 C 
BRANCH  33  34
HETATM   34  O4  UNL     1       2.597   6.589  15.138  1.00  0.00    -0.399 OA
HETATM   35  H11 UNL     1       3.398   7.138  15.213  1.00  0.00     0.209 HD
ENDBRANCH  33  34
ENDBRANCH  32  33
ENDBRANCH  31  32
ENDBRANCH   5  31
BRANCH  10  36
HETATM   36  O5  UNL     1      -2.605   1.191  11.013  1.00  0.00    -0.361 OA
HETATM   37  H14 UNL     1      -1.834   1.014  10.447  1.00  0.00     0.217 HD
ENDBRANCH  10  36
BRANCH  18  38
HETATM   38  O6  UNL     1      -3.749   9.493  17.111  1.00  0.00    -0.392 OA
HETATM   39  H36 UNL     1      -3.945   8.546  17.218  1.00  0.00     0.210 HD
ENDBRANCH  18  38
BRANCH   1  40
HETATM   40  C4  UNL     1      -3.125  12.295  15.773  1.00  0.00    -0.024 A 
HETATM   41  C3  UNL     1      -2.635  12.288  17.096  1.00  0.00     0.049 A 
HETATM   42  C2  UNL     1      -2.260  13.471  17.739  1.00  0.00     0.101 A 
HETATM   43  C35 UNL     1      -2.361  14.682  17.052  1.00  0.00     0.099 A 
HETATM   44  C34 UNL     1      -2.863  14.718  15.753  1.00  0.00     0.040 A 
HETATM   45  C33 UNL     1      -3.246  13.532  15.122  1.00  0.00     0.013 A 
BRANCH  42  46
HETATM   46  O1  UNL     1      -1.736  13.499  19.005  1.00  0.00    -0.353 OA
HETATM   47  C1  UNL     1      -0.475  12.855  19.141  1.00  0.00     0.210 C 
ENDBRANCH  42  46
BRANCH  43  48
HETATM   48  O7  UNL     1      -1.980  15.842  17.671  1.00  0.00    -0.358 OA
HETATM   49  H39 UNL     1      -2.181  16.595  17.095  1.00  0.00     0.217 HD
ENDBRANCH  43  48
ENDBRANCH   1  40
TORSDOF 12
ENDMDL
MODEL 6
REMARK minimizedAffinity -10.4333878
REMARK CNNscore 0.160796598
REMARK CNNaffinity 6.90037727
REMARK  12 active torsions:
REMARK  status: ('A' for Active; 'I' for Inactive)
REMARK    1  A    between atoms: O1_2  and  C2_3 
REMARK    2  A    between atoms: C4_5  and  C5_6 
REMARK    3  A    between atoms: C8_10  and  O3_11 
REMARK    4  A    between atoms: O3_11  and  C9_12 
REMARK    5  A    between atoms: C9_12  and  C10_13 
REMARK    6  A    between atoms: C10_13  and  O4_14 
REMARK    7  A    between atoms: C15_19  and  O5_20 
REMARK    8  A    between atoms: C19_24  and  C20_25 
REMARK    9  A    between atoms: C20_25  and  C21_26 
REMARK   10  A    between atoms: C21_26  and  N1_27 
REMARK   11  A    between atoms: C32_39  and  O6_40 
REMARK   12  A    between atoms: C35_43  and  O7_44 
ROOT
HETATM    1  C5  UNL     1      -3.399   4.577  11.855  1.00  0.00     0.191 C 
HETATM    2  O2  UNL     1      -3.176   5.327  13.052  1.00  0.00    -0.338 OA
HETATM    3  C6  UNL     1      -2.016   6.061  13.091  1.00  0.00     0.079 A 
HETATM    4  C7  UNL     1      -1.958   6.922  14.183  1.00  0.00     0.075 A 
HETATM    5  C8  UNL     1      -0.837   7.712  14.402  1.00  0.00     0.083 A 
HETATM    6  C11 UNL     1       0.211   7.734  13.447  1.00  0.00     0.015 A 
HETATM    7  C12 UNL     1       1.440   8.575  13.636  1.00  0.00    -0.016 A 
HETATM    8  C13 UNL     1       1.463   9.807  14.313  1.00  0.00     0.015 A 
HETATM    9  C14 UNL     1       2.655  10.510  14.523  1.00  0.00     0.037 A 
HETATM   10  C15 UNL     1       3.847   9.996  14.035  1.00  0.00     0.066 A 
HETATM   11  C16 UNL     1       3.859   8.814  13.312  1.00  0.00     0.044 A 
HETATM   12  C17 UNL     1       2.659   8.124  13.087  1.00  0.00    -0.044 A 
HETATM   13  C18 UNL     1       2.628   6.914  12.185  1.00  0.00     0.049 C 
HETATM   14  C19 UNL     1       1.354   7.008  11.318  1.00  0.00     0.027 C 
HETATM   15  C29 UNL     1       0.150   6.843  12.300  1.00  0.00    -0.031 A 
HETATM   16  C30 UNL     1      -0.950   5.947  12.175  1.00  0.00    -0.015 A 
HETATM   17  C31 UNL     1      -1.052   4.849  11.143  1.00  0.00     0.076 C 
HETATM   18  C32 UNL     1      -2.126   3.801  11.472  1.00  0.00     0.156 C 
ENDROOT
BRANCH  14  19
HETATM   19  C20 UNL     1       1.418   6.178  10.007  1.00  0.00     0.041 C 
BRANCH  19  20
HETATM   20  C21 UNL     1       2.483   6.476   8.889  1.00  0.00     0.038 C 
HETATM   21  C25 UNL     1       1.835   7.032   7.594  1.00  0.00     0.031 C 
HETATM   22  C26 UNL     1       2.124   8.523   7.602  1.00  0.00     0.002 C 
HETATM   23  C27 UNL     1       3.495   8.628   8.243  1.00  0.00     0.002 C 
HETATM   24  C28 UNL     1       3.521   7.547   9.317  1.00  0.00     0.031 C 
BRANCH  20  25
HETATM   25  N1  UNL     1       3.259   5.207   8.559  1.00  0.00    -0.342 N 
HETATM   26  C22 UNL     1       3.377   4.628   7.349  1.00  0.00     0.183 A 
HETATM   27  N2  UNL     1       4.152   3.546   7.486  1.00  0.00    -0.361 N 
HETATM   28  C23 UNL     1       4.502   3.365   8.799  1.00  0.00     0.106 A 
HETATM   29  H22 UNL     1       4.429   2.941   6.715  1.00  0.00     0.166 HD
HETATM   30  C24 UNL     1       3.924   4.392   9.491  1.00  0.00     0.109 A 
ENDBRANCH  20  25
ENDBRANCH  19  20
ENDBRANCH  14  19
BRANCH   5  31
HETATM   31  O3  UNL     1      -0.702   8.479  15.530  1.00  0.00    -0.348 OA
BRANCH  31  32
HETATM   32  C9  UNL     1      -1.650   9.537  15.745  1.00  0.00     0.201 C 
BRANCH  32  33
HETATM   33  C10 UNL     1      -2.363   9.277  17.070  1.00  0.00     0.190 C 
BRANCH  33  34
HETATM   34  O4  UNL     1      -2.500   7.872  17.284  1.00  0.00    -0.399 OA
HETATM   35  H11 UNL     1      -2.785   7.748  18.207  1.00  0.00     0.209 HD
ENDBRANCH  33  34
ENDBRANCH  32  33
ENDBRANCH  31  32
ENDBRANCH   5  31
BRANCH  10  36
HETATM   36  O5  UNL     1       5.032  10.643  14.216  1.00  0.00    -0.361 OA
HETATM   37  H14 UNL     1       4.894  11.378  14.838  1.00  0.00     0.217 HD
ENDBRANCH  10  36
BRANCH  18  38
HETATM   38  O6  UNL     1      -1.675   2.926  12.514  1.00  0.00    -0.392 OA
HETATM   39  H36 UNL     1      -0.707   2.971  12.607  1.00  0.00     0.210 HD
ENDBRANCH  18  38
BRANCH   1  40
HETATM   40  C4  UNL     1      -4.684   3.785  12.024  1.00  0.00    -0.024 A 
HETATM   41  C3  UNL     1      -5.623   4.226  12.979  1.00  0.00     0.049 A 
HETATM   42  C2  UNL     1      -6.828   3.548  13.181  1.00  0.00     0.101 A 
HETATM   43  C35 UNL     1      -7.112   2.417  12.413  1.00  0.00     0.099 A 
HETATM   44  C34 UNL     1      -6.190   1.948  11.479  1.00  0.00     0.040 A 
HETATM   45  C33 UNL     1      -4.983   2.626  11.291  1.00  0.00     0.013 A 
BRANCH  42  46
HETATM   46  O1  UNL     1      -7.784   3.973  14.066  1.00  0.00    -0.353 OA
HETATM   47  C1  UNL     1      -7.491   5.207  14.712  1.00  0.00     0.210 C 
ENDBRANCH  42  46
BRANCH  43  48
HETATM   48  O7  UNL     1      -8.297   1.758  12.596  1.00  0.00    -0.358 OA
HETATM   49  H39 UNL     1      -8.309   0.960  12.047  1.00  0.00     0.217 HD
ENDBRANCH  43  48
ENDBRANCH   1  40
TORSDOF 12
ENDMDL
MODEL 7
REMARK minimizedAffinity -9.54975033
REMARK CNNscore 0.148356199
REMARK CNNaffinity 7.10685396
REMARK  12 active torsions:
REMARK  status: ('A' for Active; 'I' for Inactive)
REMARK    1  A    between atoms: O1_2  and  C2_3 
REMARK    2  A    between atoms: C4_5  and  C5_6 
REMARK    3  A    between atoms: C8_10  and  O3_11 
REMARK    4  A    between atoms: O3_11  and  C9_12 
REMARK    5  A    between atoms: C9_12  and  C10_13 
REMARK    6  A    between atoms: C10_13  and  O4_14 
REMARK    7  A    between atoms: C15_19  and  O5_20 
REMARK    8  A    between atoms: C19_24  and  C20_25 
REMARK    9  A    between atoms: C20_25  and  C21_26 
REMARK   10  A    between atoms: C21_26  and  N1_27 
REMARK   11  A    between atoms: C32_39  and  O6_40 
REMARK   12  A    between atoms: C35_43  and  O7_44 
ROOT
HETATM    1  C5  UNL     1      -7.624   7.373  14.510  1.00  0.00     0.191 C 
HETATM    2  O2  UNL     1      -6.667   8.433  14.585  1.00  0.00    -0.338 OA
HETATM    3  C6  UNL     1      -5.377   8.097  14.257  1.00  0.00     0.079 A 
HETATM    4  C7  UNL     1      -4.541   9.204  14.149  1.00  0.00     0.075 A 
HETATM    5  C8  UNL     1      -3.191   9.047  13.864  1.00  0.00     0.083 A 
HETATM    6  C11 UNL     1      -2.677   7.759  13.562  1.00  0.00     0.015 A 
HETATM    7  C12 UNL     1      -1.227   7.539  13.242  1.00  0.00    -0.016 A 
HETATM    8  C13 UNL     1      -0.402   8.481  12.602  1.00  0.00     0.015 A 
HETATM    9  C14 UNL     1       0.963   8.246  12.397  1.00  0.00     0.037 A 
HETATM   10  C15 UNL     1       1.520   7.048  12.815  1.00  0.00     0.066 A 
HETATM   11  C16 UNL     1       0.731   6.069  13.397  1.00  0.00     0.044 A 
HETATM   12  C17 UNL     1      -0.641   6.300  13.581  1.00  0.00    -0.044 A 
HETATM   13  C18 UNL     1      -1.543   5.200  14.081  1.00  0.00     0.049 C 
HETATM   14  C19 UNL     1      -2.853   5.260  13.266  1.00  0.00     0.027 C 
HETATM   15  C29 UNL     1      -3.549   6.601  13.665  1.00  0.00    -0.031 A 
HETATM   16  C30 UNL     1      -4.895   6.782  14.092  1.00  0.00    -0.015 A 
HETATM   17  C31 UNL     1      -5.853   5.659  14.416  1.00  0.00     0.076 C 
HETATM   18  C32 UNL     1      -7.081   6.118  15.215  1.00  0.00     0.156 C 
ENDROOT
BRANCH  14  19
HETATM   19  C20 UNL     1      -3.656   3.930  13.257  1.00  0.00     0.041 C 
BRANCH  19  20
HETATM   20  C21 UNL     1      -3.803   3.060  11.955  1.00  0.00     0.038 C 
HETATM   21  C25 UNL     1      -3.579   3.891  10.665  1.00  0.00     0.031 C 
HETATM   22  C26 UNL     1      -2.187   3.525  10.181  1.00  0.00     0.002 C 
HETATM   23  C27 UNL     1      -2.044   2.059  10.549  1.00  0.00     0.002 C 
HETATM   24  C28 UNL     1      -2.768   1.907  11.882  1.00  0.00     0.031 C 
BRANCH  20  25
HETATM   25  N1  UNL     1      -5.187   2.423  11.911  1.00  0.00    -0.342 N 
HETATM   26  C22 UNL     1      -5.520   1.266  11.309  1.00  0.00     0.183 A 
HETATM   27  N2  UNL     1      -6.825   1.057  11.517  1.00  0.00    -0.361 N 
HETATM   28  C23 UNL     1      -7.379   2.105  12.207  1.00  0.00     0.106 A 
HETATM   29  H22 UNL     1      -7.330   0.233  11.195  1.00  0.00     0.166 HD
HETATM   30  C24 UNL     1      -6.361   2.986  12.439  1.00  0.00     0.109 A 
ENDBRANCH  20  25
ENDBRANCH  19  20
ENDBRANCH  14  19
BRANCH   5  31
HETATM   31  O3  UNL     1      -2.322  10.107  13.869  1.00  0.00    -0.348 OA
BRANCH  31  32
HETATM   32  C9  UNL     1      -1.768  10.520  15.129  1.00  0.00     0.201 C 
BRANCH  32  33
HETATM   33  C10 UNL     1      -2.616   9.913  16.245  1.00  0.00     0.190 C 
BRANCH  33  34
HETATM   34  O4  UNL     1      -3.273  10.948  16.977  1.00  0.00    -0.399 OA
HETATM   35  H11 UNL     1      -3.936  10.520  17.547  1.00  0.00     0.209 HD
ENDBRANCH  33  34
ENDBRANCH  32  33
ENDBRANCH  31  32
ENDBRANCH   5  31
BRANCH  10  36
HETATM   36  O5  UNL     1       2.844   6.775  12.639  1.00  0.00    -0.361 OA
HETATM   37  H14 UNL     1       3.291   7.586  12.341  1.00  0.00     0.217 HD
ENDBRANCH  10  36
BRANCH  18  38
HETATM   38  O6  UNL     1      -6.731   6.358  16.585  1.00  0.00    -0.392 OA
HETATM   39  H36 UNL     1      -5.890   5.921  16.807  1.00  0.00     0.210 HD
ENDBRANCH  18  38
BRANCH   1  40
HETATM   40  C4  UNL     1      -8.968   7.915  14.970  1.00  0.00    -0.024 A 
HETATM   41  C3  UNL     1     -10.137   7.241  14.560  1.00  0.00     0.049 A 
HETATM   42  C2  UNL     1     -11.405   7.682  14.952  1.00  0.00     0.101 A 
HETATM   43  C35 UNL     1     -11.513   8.805  15.774  1.00  0.00     0.099 A 
HETATM   44  C34 UNL     1     -10.374   9.500  16.173  1.00  0.00     0.040 A 
HETATM   45  C33 UNL     1      -9.111   9.059  15.768  1.00  0.00     0.013 A 
BRANCH  42  46
HETATM   46  O1  UNL     1     -12.560   7.027  14.613  1.00  0.00    -0.353 OA
HETATM   47  C1  UNL     1     -12.946   7.167  13.250  1.00  0.00     0.210 C 
ENDBRANCH  42  46
BRANCH  43  48
HETATM   48  O7  UNL     1     -12.751   9.231  16.173  1.00  0.00    -0.358 OA
HETATM   49  H39 UNL     1     -12.661  10.057  16.671  1.00  0.00     0.217 HD
ENDBRANCH  43  48
ENDBRANCH   1  40
TORSDOF 12
ENDMDL
MODEL 8
REMARK minimizedAffinity -8.90662384
REMARK CNNscore 0.131709248
REMARK CNNaffinity 7.14223862
REMARK  12 active torsions:
REMARK  status: ('A' for Active; 'I' for Inactive)
REMARK    1  A    between atoms: O1_2  and  C2_3 
REMARK    2  A    between atoms: C4_5  and  C5_6 
REMARK    3  A    between atoms: C8_10  and  O3_11 
REMARK    4  A    between atoms: O3_11  and  C9_12 
REMARK    5  A    between atoms: C9_12  and  C10_13 
REMARK    6  A    between atoms: C10_13  and  O4_14 
REMARK    7  A    between atoms: C15_19  and  O5_20 
REMARK    8  A    between atoms: C19_24  and  C20_25 
REMARK    9  A    between atoms: C20_25  and  C21_26 
REMARK   10  A    between atoms: C21_26  and  N1_27 
REMARK   11  A    between atoms: C32_39  and  O6_40 
REMARK   12  A    between atoms: C35_43  and  O7_44 
ROOT
HETATM    1  C5  UNL     1      -7.364   7.014  15.140  1.00  0.00     0.191 C 
HETATM    2  O2  UNL     1      -7.276   6.177  13.984  1.00  0.00    -0.338 OA
HETATM    3  C6  UNL     1      -6.019   5.725  13.667  1.00  0.00     0.079 A 
HETATM    4  C7  UNL     1      -6.028   4.758  12.667  1.00  0.00     0.075 A 
HETATM    5  C8  UNL     1      -4.839   4.220  12.192  1.00  0.00     0.083 A 
HETATM    6  C11 UNL     1      -3.609   4.566  12.808  1.00  0.00     0.015 A 
HETATM    7  C12 UNL     1      -2.299   4.007  12.335  1.00  0.00    -0.016 A 
HETATM    8  C13 UNL     1      -2.139   2.731  11.767  1.00  0.00     0.015 A 
HETATM    9  C14 UNL     1      -0.903   2.293  11.275  1.00  0.00     0.037 A 
HETATM   10  C15 UNL     1       0.202   3.126  11.366  1.00  0.00     0.066 A 
HETATM   11  C16 UNL     1       0.099   4.368  11.971  1.00  0.00     0.044 A 
HETATM   12  C17 UNL     1      -1.136   4.794  12.481  1.00  0.00    -0.044 A 
HETATM   13  C18 UNL     1      -1.240   6.077  13.268  1.00  0.00     0.049 C 
HETATM   14  C19 UNL     1      -2.178   5.818  14.466  1.00  0.00     0.027 C 
HETATM   15  C29 UNL     1      -3.596   5.570  13.860  1.00  0.00    -0.031 A 
HETATM   16  C30 UNL     1      -4.817   6.202  14.231  1.00  0.00    -0.015 A 
HETATM   17  C31 UNL     1      -4.924   7.381  15.170  1.00  0.00     0.076 C 
HETATM   18  C32 UNL     1      -6.278   8.103  15.089  1.00  0.00     0.156 C 
ENDROOT
BRANCH  14  19
HETATM   19  C20 UNL     1      -1.990   6.813  15.644  1.00  0.00     0.041 C 
BRANCH  19  20
HETATM   20  C21 UNL     1      -0.894   7.941  15.609  1.00  0.00     0.038 C 
HETATM   21  C25 UNL     1       0.517   7.399  15.958  1.00  0.00     0.031 C 
HETATM   22  C26 UNL     1       1.254   7.301  14.633  1.00  0.00     0.002 C 
HETATM   23  C27 UNL     1       0.726   8.477  13.832  1.00  0.00     0.002 C 
HETATM   24  C28 UNL     1      -0.746   8.593  14.209  1.00  0.00     0.031 C 
BRANCH  20  25
HETATM   25  N1  UNL     1      -1.262   9.052  16.584  1.00  0.00    -0.342 N 
HETATM   26  C22 UNL     1      -2.482   9.299  17.099  1.00  0.00     0.183 A 
HETATM   27  N2  UNL     1      -2.374  10.348  17.923  1.00  0.00    -0.361 N 
HETATM   28  C23 UNL     1      -1.095  10.842  17.913  1.00  0.00     0.106 A 
HETATM   29  H22 UNL     1      -3.146  10.725  18.470  1.00  0.00     0.166 HD
HETATM   30  C24 UNL     1      -0.390  10.049  17.052  1.00  0.00     0.109 A 
ENDBRANCH  20  25
ENDBRANCH  19  20
ENDBRANCH  14  19
BRANCH   5  31
HETATM   31  O3  UNL     1      -4.810   3.355  11.128  1.00  0.00    -0.348 OA
BRANCH  31  32
HETATM   32  C9  UNL     1      -6.035   2.704  10.754  1.00  0.00     0.201 C 
BRANCH  32  33
HETATM   33  C10 UNL     1      -6.000   1.276  11.294  1.00  0.00     0.190 C 
BRANCH  33  34
HETATM   34  O4  UNL     1      -7.114   1.054  12.160  1.00  0.00    -0.399 OA
HETATM   35  H11 UNL     1      -7.159   0.096  12.330  1.00  0.00     0.209 HD
ENDBRANCH  33  34
ENDBRANCH  32  33
ENDBRANCH  31  32
ENDBRANCH   5  31
BRANCH  10  36
HETATM   36  O5  UNL     1       1.424   2.745  10.900  1.00  0.00    -0.361 OA
HETATM   37  H14 UNL     1       1.322   1.919  10.396  1.00  0.00     0.217 HD
ENDBRANCH  10  36
BRANCH  18  38
HETATM   38  O6  UNL     1      -6.351   8.905  13.903  1.00  0.00    -0.392 OA
HETATM   39  H36 UNL     1      -5.462   9.068  13.542  1.00  0.00     0.210 HD
ENDBRANCH  18  38
BRANCH   1  40
HETATM   40  C4  UNL     1      -8.808   7.465  15.290  1.00  0.00    -0.024 A 
HETATM   41  C3  UNL     1      -9.112   8.418  16.285  1.00  0.00     0.049 A 
HETATM   42  C2  UNL     1     -10.418   8.880  16.473  1.00  0.00     0.101 A 
HETATM   43  C35 UNL     1     -11.438   8.397  15.651  1.00  0.00     0.099 A 
HETATM   44  C34 UNL     1     -11.166   7.439  14.677  1.00  0.00     0.040 A 
HETATM   45  C33 UNL     1      -9.860   6.974  14.503  1.00  0.00     0.013 A 
BRANCH  42  46
HETATM   46  O1  UNL     1     -10.743   9.838  17.396  1.00  0.00    -0.353 OA
HETATM   47  C1  UNL     1     -10.480  11.175  16.985  1.00  0.00     0.210 C 
ENDBRANCH  42  46
BRANCH  43  48
HETATM   48  O7  UNL     1     -12.715   8.858  15.821  1.00  0.00    -0.358 OA
HETATM   49  H39 UNL     1     -13.312   8.375  15.231  1.00  0.00     0.217 HD
ENDBRANCH  43  48
ENDBRANCH   1  40
TORSDOF 12
ENDMDL
MODEL 9
REMARK minimizedAffinity -10.0789099
REMARK CNNscore 0.1286228
REMARK CNNaffinity 7.20684433
REMARK  12 active torsions:
REMARK  status: ('A' for Active; 'I' for Inactive)
REMARK    1  A    between atoms: O1_2  and  C2_3 
REMARK    2  A    between atoms: C4_5  and  C5_6 
REMARK    3  A    between atoms: C8_10  and  O3_11 
REMARK    4  A    between atoms: O3_11  and  C9_12 
REMARK    5  A    between atoms: C9_12  and  C10_13 
REMARK    6  A    between atoms: C10_13  and  O4_14 
REMARK    7  A    between atoms: C15_19  and  O5_20 
REMARK    8  A    between atoms: C19_24  and  C20_25 
REMARK    9  A    between atoms: C20_25  and  C21_26 
REMARK   10  A    between atoms: C21_26  and  N1_27 
REMARK   11  A    between atoms: C32_39  and  O6_40 
REMARK   12  A    between atoms: C35_43  and  O7_44 
ROOT
HETATM    1  C5  UNL     1      -7.696   6.934  14.998  1.00  0.00     0.191 C 
HETATM    2  O2  UNL     1      -7.746   6.061  13.866  1.00  0.00    -0.338 OA
HETATM    3  C6  UNL     1      -6.562   5.453  13.528  1.00  0.00     0.079 A 
HETATM    4  C7  UNL     1      -6.719   4.468  12.558  1.00  0.00     0.075 A 
HETATM    5  C8  UNL     1      -5.619   3.778  12.066  1.00  0.00     0.083 A 
HETATM    6  C11 UNL     1      -4.337   3.990  12.636  1.00  0.00     0.015 A 
HETATM    7  C12 UNL     1      -3.119   3.265  12.142  1.00  0.00    -0.016 A 
HETATM    8  C13 UNL     1      -3.131   1.964  11.609  1.00  0.00     0.015 A 
HETATM    9  C14 UNL     1      -1.973   1.368  11.096  1.00  0.00     0.037 A 
HETATM   10  C15 UNL     1      -0.774   2.063  11.129  1.00  0.00     0.066 A 
HETATM   11  C16 UNL     1      -0.707   3.324  11.699  1.00  0.00     0.044 A 
HETATM   12  C17 UNL     1      -1.866   3.909  12.231  1.00  0.00    -0.044 A 
HETATM   13  C18 UNL     1      -1.791   5.216  12.980  1.00  0.00     0.049 C 
HETATM   14  C19 UNL     1      -2.714   5.104  14.213  1.00  0.00     0.027 C 
HETATM   15  C29 UNL     1      -4.170   5.013  13.655  1.00  0.00    -0.031 A 
HETATM   16  C30 UNL     1      -5.295   5.797  14.041  1.00  0.00    -0.015 A 
HETATM   17  C31 UNL     1      -5.230   7.005  14.947  1.00  0.00     0.076 C 
HETATM   18  C32 UNL     1      -6.489   7.882  14.883  1.00  0.00     0.156 C 
ENDROOT
BRANCH  14  19
HETATM   19  C20 UNL     1      -2.371   6.101  15.354  1.00  0.00     0.041 C 
BRANCH  19  20
HETATM   20  C21 UNL     1      -1.520   7.399  15.093  1.00  0.00     0.038 C 
HETATM   21  C25 UNL     1      -0.114   7.319  15.743  1.00  0.00     0.031 C 
HETATM   22  C26 UNL     1       0.846   7.033  14.602  1.00  0.00     0.002 C 
HETATM   23  C27 UNL     1       0.251   7.784  13.425  1.00  0.00     0.002 C 
HETATM   24  C28 UNL     1      -1.259   7.653  13.586  1.00  0.00     0.031 C 
BRANCH  20  25
HETATM   25  N1  UNL     1      -2.257   8.618  15.633  1.00  0.00    -0.342 N 
HETATM   26  C22 UNL     1      -2.824   9.601  14.907  1.00  0.00     0.183 A 
HETATM   27  N2  UNL     1      -3.379  10.471  15.759  1.00  0.00    -0.361 N 
HETATM   28  C23 UNL     1      -3.131  10.103  17.056  1.00  0.00     0.106 A 
HETATM   29  H22 UNL     1      -3.903  11.295  15.472  1.00  0.00     0.166 HD
HETATM   30  C24 UNL     1      -2.402   8.949  16.990  1.00  0.00     0.109 A 
ENDBRANCH  20  25
ENDBRANCH  19  20
ENDBRANCH  14  19
BRANCH   5  31
HETATM   31  O3  UNL     1      -5.727   2.888  11.029  1.00  0.00    -0.348 OA
BRANCH  31  32
HETATM   32  C9  UNL     1      -5.019   3.178   9.813  1.00  0.00     0.201 C 
BRANCH  32  33
HETATM   33  C10 UNL     1      -6.045   3.501   8.728  1.00  0.00     0.190 C 
BRANCH  33  34
HETATM   34  O4  UNL     1      -5.857   2.638   7.607  1.00  0.00    -0.399 OA
HETATM   35  H11 UNL     1      -6.633   2.746   7.027  1.00  0.00     0.209 HD
ENDBRANCH  33  34
ENDBRANCH  32  33
ENDBRANCH  31  32
ENDBRANCH   5  31
BRANCH  10  36
HETATM   36  O5  UNL     1       0.378   1.525  10.640  1.00  0.00    -0.361 OA
HETATM   37  H14 UNL     1       0.162   0.705  10.165  1.00  0.00     0.217 HD
ENDBRANCH  10  36
BRANCH  18  38
HETATM   38  O6  UNL     1      -6.504   8.655  13.676  1.00  0.00    -0.392 OA
HETATM   39  H36 UNL     1      -5.614   8.700  13.284  1.00  0.00     0.210 HD
ENDBRANCH  18  38
BRANCH   1  40
HETATM   40  C4  UNL     1      -9.069   7.559  15.176  1.00  0.00    -0.024 A 
HETATM   41  C3  UNL     1     -10.123   7.106  14.354  1.00  0.00     0.049 A 
HETATM   42  C2  UNL     1     -11.412   7.634  14.469  1.00  0.00     0.101 A 
HETATM   43  C35 UNL     1     -11.663   8.620  15.424  1.00  0.00     0.099 A 
HETATM   44  C34 UNL     1     -10.634   9.100  16.232  1.00  0.00     0.040 A 
HETATM   45  C33 UNL     1      -9.346   8.575  16.103  1.00  0.00     0.013 A 
BRANCH  42  46
HETATM   46  O1  UNL     1     -12.470   7.187  13.722  1.00  0.00    -0.353 OA
HETATM   47  C1  UNL     1     -13.146   6.058  14.263  1.00  0.00     0.210 C 
ENDBRANCH  42  46
BRANCH  43  48
HETATM   48  O7  UNL     1     -12.927   9.129  15.552  1.00  0.00    -0.358 OA
HETATM   49  H39 UNL     1     -12.920   9.850  16.199  1.00  0.00     0.217 HD
ENDBRANCH  43  48
ENDBRANCH   1  40
TORSDOF 12
ENDMDL
