MODEL 1
REMARK minimizedAffinity -8.48521805
REMARK CNNscore 0.515285432
REMARK CNNaffinity 7.34421587
REMARK  13 active torsions:
REMARK  status: ('A' for Active; 'I' for Inactive)
REMARK    1  A    between atoms: O1_2  and  C2_3 
REMARK    2  A    between atoms: C12_14  and  C13_15 
REMARK    3  A    between atoms: C13_15  and  C15_17 
REMARK    4  A    between atoms: C15_17  and  C16_18 
REMARK    5  A    between atoms: C17_19  and  C18_20 
REMARK    6  A    between atoms: C18_20  and  O3_23 
REMARK    7  A    between atoms: C28_31  and  O4_32 
REMARK    8  A    between atoms: O4_32  and  C29_33 
REMARK    9  A    between atoms: C30_35  and  C31_36 
REMARK   10  A    between atoms: C31_36  and  O6_37 
REMARK   11  A    between atoms: C32_38  and  O7_39 
REMARK   12  A    between atoms: C33_40  and  O8_41 
REMARK   13  A    between atoms: C34_42  and  O9_43 
ROOT
HETATM    1  C2  UNL     1      -6.796  48.807 -20.991  1.00  0.00     0.270 C 
HETATM    2  O2  UNL     1      -7.356  47.484 -20.816  1.00  0.00    -0.344 OA
HETATM    3  C3  UNL     1      -6.389  46.511 -21.286  1.00  0.00     0.095 C 
HETATM    4  C4  UNL     1      -5.544  46.233 -20.051  1.00  0.00     0.008 C 
HETATM    5  C5  UNL     1      -4.564  47.053 -19.654  1.00  0.00    -0.021 C 
HETATM    6  C6  UNL     1      -4.305  48.360 -20.357  1.00  0.00     0.030 C 
HETATM    7  C7  UNL     1      -5.338  48.633 -21.548  1.00  0.00     0.024 C 
HETATM    8  C8  UNL     1      -4.936  49.913 -22.350  1.00  0.00     0.016 C 
HETATM    9  C9  UNL     1      -3.440  50.128 -22.638  1.00  0.00     0.011 C 
HETATM   10  C10 UNL     1      -2.607  50.000 -21.358  1.00  0.00    -0.032 C 
HETATM   11  C11 UNL     1      -3.057  51.130 -20.383  1.00  0.00     0.016 C 
HETATM   12  C12 UNL     1      -1.062  50.028 -21.527  1.00  0.00    -0.002 C 
HETATM   13  C21 UNL     1      -0.553  49.320 -20.239  1.00  0.00     0.006 C 
HETATM   14  C22 UNL     1      -1.766  48.555 -19.645  1.00  0.00     0.011 C 
HETATM   15  C23 UNL     1      -2.813  48.545 -20.780  1.00  0.00    -0.029 C 
HETATM   16  C24 UNL     1      -2.372  47.390 -21.743  1.00  0.00     0.016 C 
HETATM   17  C25 UNL     1      -5.610  47.325 -22.353  1.00  0.00     0.039 C 
HETATM   18  C26 UNL     1      -6.425  47.547 -23.655  1.00  0.00     0.011 C 
HETATM   19  C27 UNL     1      -7.725  46.762 -23.746  1.00  0.00     0.033 C 
HETATM   20  C28 UNL     1      -7.499  45.320 -23.334  1.00  0.00     0.136 C 
HETATM   21  C35 UNL     1      -7.096  45.200 -21.823  1.00  0.00     0.014 C 
HETATM   22  C36 UNL     1      -6.159  43.959 -21.756  1.00  0.00     0.021 C 
HETATM   23  C37 UNL     1      -8.332  44.879 -20.943  1.00  0.00     0.021 C 
ENDROOT
BRANCH  20  24
HETATM   24  O4  UNL     1      -8.643  44.494 -23.602  1.00  0.00    -0.352 OA
BRANCH  24  25
HETATM   25  C29 UNL     1      -8.469  43.551 -24.657  1.00  0.00     0.292 C 
HETATM   26  O5  UNL     1      -9.203  43.937 -25.820  1.00  0.00    -0.348 OA
HETATM   27  C30 UNL     1     -10.626  44.039 -25.638  1.00  0.00     0.179 C 
HETATM   28  C32 UNL     1     -11.183  43.121 -24.535  1.00  0.00     0.180 C 
HETATM   29  C33 UNL     1     -10.366  41.837 -24.522  1.00  0.00     0.183 C 
HETATM   30  C34 UNL     1      -8.900  42.139 -24.181  1.00  0.00     0.204 C 
BRANCH  27  31
HETATM   31  C31 UNL     1     -11.077  45.489 -25.416  1.00  0.00     0.198 C 
BRANCH  31  32
HETATM   32  O6  UNL     1     -10.377  46.411 -26.247  1.00  0.00    -0.398 OA
HETATM   33  H48 UNL     1     -10.051  45.926 -27.036  1.00  0.00     0.209 HD
ENDBRANCH  31  32
ENDBRANCH  27  31
BRANCH  28  34
HETATM   34  O7  UNL     1     -12.565  42.837 -24.785  1.00  0.00    -0.390 OA
HETATM   35  H50 UNL     1     -12.769  42.075 -24.197  1.00  0.00     0.210 HD
ENDBRANCH  28  34
BRANCH  29  36
HETATM   36  O8  UNL     1     -10.931  40.925 -23.566  1.00  0.00    -0.390 OA
HETATM   37  H52 UNL     1     -10.324  40.161 -23.528  1.00  0.00     0.210 HD
ENDBRANCH  29  36
BRANCH  30  38
HETATM   38  O9  UNL     1      -8.100  41.106 -24.795  1.00  0.00    -0.388 OA
HETATM   39  H54 UNL     1      -8.094  41.272 -25.755  1.00  0.00     0.210 HD
ENDBRANCH  30  38
ENDBRANCH  24  25
ENDBRANCH  20  24
BRANCH   1  40
HETATM   40  O1  UNL     1      -6.822  49.582 -19.800  1.00  0.00    -0.365 OA
HETATM   41  C1  UNL     1      -7.753  49.073 -18.856  1.00  0.00     0.204 C 
ENDBRANCH   1  40
BRANCH  12  42
HETATM   42  C13 UNL     1      -0.305  51.303 -22.003  1.00  0.00    -0.010 C 
HETATM   43  C14 UNL     1       0.357  51.978 -20.783  1.00  0.00     0.010 C 
BRANCH  42  44
HETATM   44  C15 UNL     1      -0.995  52.388 -22.863  1.00  0.00     0.031 C 
BRANCH  44  45
HETATM   45  C16 UNL     1      -0.413  52.682 -24.215  1.00  0.00    -0.027 C 
HETATM   46  C17 UNL     1       0.218  51.774 -24.978  1.00  0.00     0.006 C 
BRANCH  46  47
HETATM   47  C18 UNL     1       0.820  51.990 -26.345  1.00  0.00     0.068 C 
HETATM   48  C19 UNL     1       0.020  51.414 -27.518  1.00  0.00     0.050 C 
HETATM   49  C20 UNL     1       2.248  51.448 -26.376  1.00  0.00     0.050 C 
BRANCH  47  50
HETATM   50  O3  UNL     1       0.896  53.404 -26.530  1.00  0.00    -0.387 OA
HETATM   51  H30 UNL     1      -0.010  53.750 -26.432  1.00  0.00     0.211 HD
ENDBRANCH  47  50
ENDBRANCH  46  47
ENDBRANCH  44  45
ENDBRANCH  42  44
ENDBRANCH  12  42
TORSDOF 13
ENDMDL
MODEL 2
REMARK minimizedAffinity -8.59734154
REMARK CNNscore 0.503974319
REMARK CNNaffinity 7.16248655
REMARK  13 active torsions:
REMARK  status: ('A' for Active; 'I' for Inactive)
REMARK    1  A    between atoms: O1_2  and  C2_3 
REMARK    2  A    between atoms: C12_14  and  C13_15 
REMARK    3  A    between atoms: C13_15  and  C15_17 
REMARK    4  A    between atoms: C15_17  and  C16_18 
REMARK    5  A    between atoms: C17_19  and  C18_20 
REMARK    6  A    between atoms: C18_20  and  O3_23 
REMARK    7  A    between atoms: C28_31  and  O4_32 
REMARK    8  A    between atoms: O4_32  and  C29_33 
REMARK    9  A    between atoms: C30_35  and  C31_36 
REMARK   10  A    between atoms: C31_36  and  O6_37 
REMARK   11  A    between atoms: C32_38  and  O7_39 
REMARK   12  A    between atoms: C33_40  and  O8_41 
REMARK   13  A    between atoms: C34_42  and  O9_43 
ROOT
HETATM    1  C2  UNL     1      -3.270  47.794 -21.144  1.00  0.00     0.270 C 
HETATM    2  O2  UNL     1      -2.570  49.032 -21.408  1.00  0.00    -0.344 OA
HETATM    3  C3  UNL     1      -3.513  49.984 -21.962  1.00  0.00     0.095 C 
HETATM    4  C4  UNL     1      -4.089  50.663 -20.728  1.00  0.00     0.008 C 
HETATM    5  C5  UNL     1      -5.051  50.103 -19.985  1.00  0.00    -0.021 C 
HETATM    6  C6  UNL     1      -5.552  48.712 -20.274  1.00  0.00     0.030 C 
HETATM    7  C7  UNL     1      -4.784  48.023 -21.496  1.00  0.00     0.024 C 
HETATM    8  C8  UNL     1      -5.440  46.654 -21.865  1.00  0.00     0.016 C 
HETATM    9  C9  UNL     1      -6.977  46.578 -21.854  1.00  0.00     0.011 C 
HETATM   10  C10 UNL     1      -7.547  47.123 -20.539  1.00  0.00    -0.032 C 
HETATM   11  C11 UNL     1      -7.032  46.211 -19.384  1.00  0.00     0.016 C 
HETATM   12  C12 UNL     1      -9.093  47.263 -20.455  1.00  0.00    -0.002 C 
HETATM   13  C21 UNL     1      -9.291  48.323 -19.335  1.00  0.00     0.006 C 
HETATM   14  C22 UNL     1      -7.926  49.039 -19.155  1.00  0.00     0.011 C 
HETATM   15  C23 UNL     1      -7.107  48.633 -20.400  1.00  0.00    -0.029 C 
HETATM   16  C24 UNL     1      -7.609  49.569 -21.552  1.00  0.00     0.016 C 
HETATM   17  C25 UNL     1      -4.545  49.049 -22.647  1.00  0.00     0.039 C 
HETATM   18  C26 UNL     1      -4.005  48.411 -23.955  1.00  0.00     0.011 C 
HETATM   19  C27 UNL     1      -2.678  48.968 -24.447  1.00  0.00     0.033 C 
HETATM   20  C28 UNL     1      -2.692  50.484 -24.396  1.00  0.00     0.136 C 
HETATM   21  C35 UNL     1      -2.799  51.019 -22.925  1.00  0.00     0.014 C 
HETATM   22  C36 UNL     1      -3.591  52.354 -23.041  1.00  0.00     0.021 C 
HETATM   23  C37 UNL     1      -1.399  51.373 -22.359  1.00  0.00     0.021 C 
ENDROOT
BRANCH  20  24
HETATM   24  O4  UNL     1      -1.546  51.060 -25.042  1.00  0.00    -0.352 OA
BRANCH  24  25
HETATM   25  C29 UNL     1      -1.347  50.647 -26.392  1.00  0.00     0.292 C 
HETATM   26  O5  UNL     1       0.035  50.698 -26.749  1.00  0.00    -0.348 OA
HETATM   27  C30 UNL     1       0.640  51.999 -26.661  1.00  0.00     0.179 C 
HETATM   28  C32 UNL     1      -0.345  53.163 -26.870  1.00  0.00     0.180 C 
HETATM   29  C33 UNL     1      -1.395  52.728 -27.883  1.00  0.00     0.183 C 
HETATM   30  C34 UNL     1      -2.192  51.531 -27.345  1.00  0.00     0.204 C 
BRANCH  27  31
HETATM   31  C31 UNL     1       1.428  52.183 -25.357  1.00  0.00     0.198 C 
BRANCH  31  32
HETATM   32  O6  UNL     1       1.133  53.420 -24.711  1.00  0.00    -0.398 OA
HETATM   33  H48 UNL     1       0.242  53.710 -25.000  1.00  0.00     0.209 HD
ENDBRANCH  31  32
ENDBRANCH  27  31
BRANCH  28  34
HETATM   34  O7  UNL     1       0.356  54.322 -27.337  1.00  0.00    -0.390 OA
HETATM   35  H50 UNL     1      -0.351  54.919 -27.670  1.00  0.00     0.210 HD
ENDBRANCH  28  34
BRANCH  29  36
HETATM   36  O8  UNL     1      -2.267  53.833 -28.167  1.00  0.00    -0.390 OA
HETATM   37  H52 UNL     1      -2.972  53.481 -28.745  1.00  0.00     0.210 HD
ENDBRANCH  29  36
BRANCH  30  38
HETATM   38  O9  UNL     1      -2.657  50.783 -28.489  1.00  0.00    -0.388 OA
HETATM   39  H54 UNL     1      -1.887  50.323 -28.870  1.00  0.00     0.210 HD
ENDBRANCH  30  38
ENDBRANCH  24  25
ENDBRANCH  20  24
BRANCH   1  40
HETATM   40  O1  UNL     1      -3.097  47.334 -19.811  1.00  0.00    -0.365 OA
HETATM   41  C1  UNL     1      -2.003  47.970 -19.167  1.00  0.00     0.204 C 
ENDBRANCH   1  40
BRANCH  12  42
HETATM   42  C13 UNL     1     -10.037  46.025 -20.461  1.00  0.00    -0.010 C 
HETATM   43  C14 UNL     1     -10.552  45.793 -21.898  1.00  0.00     0.010 C 
BRANCH  42  44
HETATM   44  C15 UNL     1     -11.223  45.899 -19.476  1.00  0.00     0.031 C 
BRANCH  44  45
HETATM   45  C16 UNL     1     -11.400  44.592 -18.759  1.00  0.00    -0.027 C 
HETATM   46  C17 UNL     1     -12.439  43.762 -18.950  1.00  0.00     0.006 C 
BRANCH  46  47
HETATM   47  C18 UNL     1     -12.682  42.433 -18.277  1.00  0.00     0.068 C 
HETATM   48  C19 UNL     1     -12.420  42.399 -16.768  1.00  0.00     0.050 C 
HETATM   49  C20 UNL     1     -11.867  41.342 -18.970  1.00  0.00     0.050 C 
BRANCH  47  50
HETATM   50  O3  UNL     1     -14.063  42.128 -18.479  1.00  0.00    -0.387 OA
HETATM   51  H30 UNL     1     -14.573  42.867 -18.102  1.00  0.00     0.211 HD
ENDBRANCH  47  50
ENDBRANCH  46  47
ENDBRANCH  44  45
ENDBRANCH  42  44
ENDBRANCH  12  42
TORSDOF 13
ENDMDL
MODEL 3
REMARK minimizedAffinity -10.0026073
REMARK CNNscore 0.436431885
REMARK CNNaffinity 7.42069435
REMARK  13 active torsions:
REMARK  status: ('A' for Active; 'I' for Inactive)
REMARK    1  A    between atoms: O1_2  and  C2_3 
REMARK    2  A    between atoms: C12_14  and  C13_15 
REMARK    3  A    between atoms: C13_15  and  C15_17 
REMARK    4  A    between atoms: C15_17  and  C16_18 
REMARK    5  A    between atoms: C17_19  and  C18_20 
REMARK    6  A    between atoms: C18_20  and  O3_23 
REMARK    7  A    between atoms: C28_31  and  O4_32 
REMARK    8  A    between atoms: O4_32  and  C29_33 
REMARK    9  A    between atoms: C30_35  and  C31_36 
REMARK   10  A    between atoms: C31_36  and  O6_37 
REMARK   11  A    between atoms: C32_38  and  O7_39 
REMARK   12  A    between atoms: C33_40  and  O8_41 
REMARK   13  A    between atoms: C34_42  and  O9_43 
ROOT
HETATM    1  C2  UNL     1      -3.205  47.876 -21.110  1.00  0.00     0.270 C 
HETATM    2  O2  UNL     1      -2.512  49.111 -21.403  1.00  0.00    -0.344 OA
HETATM    3  C3  UNL     1      -3.464  50.048 -21.968  1.00  0.00     0.095 C 
HETATM    4  C4  UNL     1      -4.031  50.750 -20.743  1.00  0.00     0.008 C 
HETATM    5  C5  UNL     1      -4.985  50.200 -19.981  1.00  0.00    -0.021 C 
HETATM    6  C6  UNL     1      -5.484  48.802 -20.239  1.00  0.00     0.030 C 
HETATM    7  C7  UNL     1      -4.723  48.092 -21.453  1.00  0.00     0.024 C 
HETATM    8  C8  UNL     1      -5.377  46.714 -21.790  1.00  0.00     0.016 C 
HETATM    9  C9  UNL     1      -6.913  46.633 -21.765  1.00  0.00     0.011 C 
HETATM   10  C10 UNL     1      -7.474  47.201 -20.456  1.00  0.00    -0.032 C 
HETATM   11  C11 UNL     1      -6.946  46.315 -19.288  1.00  0.00     0.016 C 
HETATM   12  C12 UNL     1      -9.020  47.337 -20.362  1.00  0.00    -0.002 C 
HETATM   13  C21 UNL     1      -9.213  48.419 -19.261  1.00  0.00     0.006 C 
HETATM   14  C22 UNL     1      -7.849  49.143 -19.106  1.00  0.00     0.011 C 
HETATM   15  C23 UNL     1      -7.039  48.715 -20.350  1.00  0.00    -0.029 C 
HETATM   16  C24 UNL     1      -7.554  49.627 -21.516  1.00  0.00     0.016 C 
HETATM   17  C25 UNL     1      -4.497  49.096 -22.626  1.00  0.00     0.039 C 
HETATM   18  C26 UNL     1      -3.966  48.435 -23.925  1.00  0.00     0.011 C 
HETATM   19  C27 UNL     1      -2.644  48.987 -24.439  1.00  0.00     0.033 C 
HETATM   20  C28 UNL     1      -2.664  50.504 -24.418  1.00  0.00     0.136 C 
HETATM   21  C35 UNL     1      -2.761  51.067 -22.957  1.00  0.00     0.014 C 
HETATM   22  C36 UNL     1      -3.559  52.396 -23.093  1.00  0.00     0.021 C 
HETATM   23  C37 UNL     1      -1.358  51.437 -22.410  1.00  0.00     0.021 C 
ENDROOT
BRANCH  20  24
HETATM   24  O4  UNL     1      -1.525  51.070 -25.085  1.00  0.00    -0.352 OA
BRANCH  24  25
HETATM   25  C29 UNL     1      -1.355  50.657 -26.439  1.00  0.00     0.292 C 
HETATM   26  O5  UNL     1       0.022  50.684 -26.816  1.00  0.00    -0.348 OA
HETATM   27  C30 UNL     1       0.651  51.975 -26.736  1.00  0.00     0.179 C 
HETATM   28  C32 UNL     1      -0.316  53.156 -26.927  1.00  0.00     0.180 C 
HETATM   29  C33 UNL     1      -1.389  52.742 -27.924  1.00  0.00     0.183 C 
HETATM   30  C34 UNL     1      -2.198  51.558 -27.377  1.00  0.00     0.204 C 
BRANCH  27  31
HETATM   31  C31 UNL     1       1.463  52.142 -25.443  1.00  0.00     0.198 C 
BRANCH  31  32
HETATM   32  O6  UNL     1       1.117  53.327 -24.732  1.00  0.00    -0.398 OA
HETATM   33  H48 UNL     1       0.203  53.580 -24.984  1.00  0.00     0.209 HD
ENDBRANCH  31  32
ENDBRANCH  27  31
BRANCH  28  34
HETATM   34  O7  UNL     1       0.399  54.304 -27.403  1.00  0.00    -0.390 OA
HETATM   35  H50 UNL     1      -0.303  54.914 -27.723  1.00  0.00     0.210 HD
ENDBRANCH  28  34
BRANCH  29  36
HETATM   36  O8  UNL     1      -2.246  53.863 -28.193  1.00  0.00    -0.390 OA
HETATM   37  H52 UNL     1      -2.965  53.525 -28.760  1.00  0.00     0.210 HD
ENDBRANCH  29  36
BRANCH  30  38
HETATM   38  O9  UNL     1      -2.694  50.821 -28.515  1.00  0.00    -0.388 OA
HETATM   39  H54 UNL     1      -1.939  50.348 -28.909  1.00  0.00     0.210 HD
ENDBRANCH  30  38
ENDBRANCH  24  25
ENDBRANCH  20  24
BRANCH   1  40
HETATM   40  O1  UNL     1      -3.020  47.442 -19.769  1.00  0.00    -0.365 OA
HETATM   41  C1  UNL     1      -1.913  48.083 -19.152  1.00  0.00     0.204 C 
ENDBRANCH   1  40
BRANCH  12  42
HETATM   42  C13 UNL     1      -9.959  46.096 -20.335  1.00  0.00    -0.010 C 
HETATM   43  C14 UNL     1     -10.571  45.900 -21.739  1.00  0.00     0.010 C 
BRANCH  42  44
HETATM   44  C15 UNL     1     -11.076  45.940 -19.276  1.00  0.00     0.031 C 
BRANCH  44  45
HETATM   45  C16 UNL     1     -12.422  46.525 -19.588  1.00  0.00    -0.027 C 
HETATM   46  C17 UNL     1     -12.848  47.717 -19.137  1.00  0.00     0.006 C 
BRANCH  46  47
HETATM   47  C18 UNL     1     -14.178  48.375 -19.412  1.00  0.00     0.068 C 
HETATM   48  C19 UNL     1     -15.001  48.747 -18.175  1.00  0.00     0.050 C 
HETATM   49  C20 UNL     1     -15.011  47.495 -20.344  1.00  0.00     0.050 C 
BRANCH  47  50
HETATM   50  O3  UNL     1     -13.889  49.585 -20.114  1.00  0.00    -0.387 OA
HETATM   51  H30 UNL     1     -13.295  50.106 -19.544  1.00  0.00     0.211 HD
ENDBRANCH  47  50
ENDBRANCH  46  47
ENDBRANCH  44  45
ENDBRANCH  42  44
ENDBRANCH  12  42
TORSDOF 13
ENDMDL
MODEL 4
REMARK minimizedAffinity -7.94521046
REMARK CNNscore 0.420632422
REMARK CNNaffinity 7.11760473
REMARK  13 active torsions:
REMARK  status: ('A' for Active; 'I' for Inactive)
REMARK    1  A    between atoms: O1_2  and  C2_3 
REMARK    2  A    between atoms: C12_14  and  C13_15 
REMARK    3  A    between atoms: C13_15  and  C15_17 
REMARK    4  A    between atoms: C15_17  and  C16_18 
REMARK    5  A    between atoms: C17_19  and  C18_20 
REMARK    6  A    between atoms: C18_20  and  O3_23 
REMARK    7  A    between atoms: C28_31  and  O4_32 
REMARK    8  A    between atoms: O4_32  and  C29_33 
REMARK    9  A    between atoms: C30_35  and  C31_36 
REMARK   10  A    between atoms: C31_36  and  O6_37 
REMARK   11  A    between atoms: C32_38  and  O7_39 
REMARK   12  A    between atoms: C33_40  and  O8_41 
REMARK   13  A    between atoms: C34_42  and  O9_43 
ROOT
HETATM    1  C2  UNL     1      -6.400  47.849 -20.893  1.00  0.00     0.270 C 
HETATM    2  O2  UNL     1      -6.845  46.986 -19.821  1.00  0.00    -0.344 OA
HETATM    3  C3  UNL     1      -5.687  46.575 -19.052  1.00  0.00     0.095 C 
HETATM    4  C4  UNL     1      -5.552  47.673 -18.007  1.00  0.00     0.008 C 
HETATM    5  C5  UNL     1      -4.983  48.854 -18.280  1.00  0.00    -0.021 C 
HETATM    6  C6  UNL     1      -4.531  49.202 -19.674  1.00  0.00     0.030 C 
HETATM    7  C7  UNL     1      -4.849  48.043 -20.731  1.00  0.00     0.024 C 
HETATM    8  C8  UNL     1      -4.222  48.373 -22.123  1.00  0.00     0.016 C 
HETATM    9  C9  UNL     1      -2.810  48.985 -22.138  1.00  0.00     0.011 C 
HETATM   10  C10 UNL     1      -2.722  50.192 -21.197  1.00  0.00    -0.032 C 
HETATM   11  C11 UNL     1      -3.703  51.281 -21.729  1.00  0.00     0.016 C 
HETATM   12  C12 UNL     1      -1.310  50.808 -20.984  1.00  0.00    -0.002 C 
HETATM   13  C21 UNL     1      -1.451  51.551 -19.626  1.00  0.00     0.006 C 
HETATM   14  C22 UNL     1      -2.720  50.982 -18.937  1.00  0.00     0.011 C 
HETATM   15  C23 UNL     1      -3.052  49.701 -19.734  1.00  0.00    -0.029 C 
HETATM   16  C24 UNL     1      -2.083  48.602 -19.178  1.00  0.00     0.016 C 
HETATM   17  C25 UNL     1      -4.558  46.640 -20.115  1.00  0.00     0.039 C 
HETATM   18  C26 UNL     1      -4.629  45.477 -21.141  1.00  0.00     0.011 C 
HETATM   19  C27 UNL     1      -5.629  44.380 -20.808  1.00  0.00     0.033 C 
HETATM   20  C28 UNL     1      -5.506  43.981 -19.349  1.00  0.00     0.136 C 
HETATM   21  C35 UNL     1      -5.904  45.154 -18.386  1.00  0.00     0.014 C 
HETATM   22  C36 UNL     1      -5.015  44.955 -17.125  1.00  0.00     0.021 C 
HETATM   23  C37 UNL     1      -7.378  45.017 -17.925  1.00  0.00     0.021 C 
ENDROOT
BRANCH  20  24
HETATM   24  O4  UNL     1      -6.279  42.811 -19.040  1.00  0.00    -0.352 OA
BRANCH  24  25
HETATM   25  C29 UNL     1      -5.913  41.639 -19.766  1.00  0.00     0.292 C 
HETATM   26  O5  UNL     1      -7.035  40.776 -19.951  1.00  0.00    -0.348 OA
HETATM   27  C30 UNL     1      -7.639  40.293 -18.739  1.00  0.00     0.179 C 
HETATM   28  C32 UNL     1      -6.667  40.196 -17.550  1.00  0.00     0.180 C 
HETATM   29  C33 UNL     1      -5.294  39.812 -18.083  1.00  0.00     0.183 C 
HETATM   30  C34 UNL     1      -4.767  40.898 -19.031  1.00  0.00     0.204 C 
BRANCH  27  31
HETATM   31  C31 UNL     1      -8.888  41.100 -18.355  1.00  0.00     0.198 C 
BRANCH  31  32
HETATM   32  O6  UNL     1      -9.495  41.733 -19.479  1.00  0.00    -0.398 OA
HETATM   33  H48 UNL     1      -9.245  41.232 -20.284  1.00  0.00     0.209 HD
ENDBRANCH  31  32
ENDBRANCH  27  31
BRANCH  28  34
HETATM   34  O7  UNL     1      -7.136  39.220 -16.611  1.00  0.00    -0.390 OA
HETATM   35  H50 UNL     1      -6.361  39.048 -16.030  1.00  0.00     0.210 HD
ENDBRANCH  28  34
BRANCH  29  36
HETATM   36  O8  UNL     1      -4.394  39.620 -16.980  1.00  0.00    -0.390 OA
HETATM   37  H52 UNL     1      -3.513  39.468 -17.372  1.00  0.00     0.210 HD
ENDBRANCH  29  36
BRANCH  30  38
HETATM   38  O9  UNL     1      -3.872  40.251 -19.961  1.00  0.00    -0.388 OA
HETATM   39  H54 UNL     1      -4.418  39.730 -20.578  1.00  0.00     0.210 HD
ENDBRANCH  30  38
ENDBRANCH  24  25
ENDBRANCH  20  24
BRANCH   1  40
HETATM   40  O1  UNL     1      -7.091  49.090 -20.929  1.00  0.00    -0.365 OA
HETATM   41  C1  UNL     1      -7.579  49.388 -22.229  1.00  0.00     0.204 C 
ENDBRANCH   1  40
BRANCH  12  42
HETATM   42  C13 UNL     1      -0.540  51.526 -22.131  1.00  0.00    -0.010 C 
HETATM   43  C14 UNL     1       0.473  52.513 -21.512  1.00  0.00     0.010 C 
BRANCH  42  44
HETATM   44  C15 UNL     1      -1.278  52.228 -23.295  1.00  0.00     0.031 C 
BRANCH  44  45
HETATM   45  C16 UNL     1      -0.480  52.582 -24.516  1.00  0.00    -0.027 C 
HETATM   46  C17 UNL     1       0.146  51.682 -25.294  1.00  0.00     0.006 C 
BRANCH  46  47
HETATM   47  C18 UNL     1       0.957  51.958 -26.536  1.00  0.00     0.068 C 
HETATM   48  C19 UNL     1       0.351  51.449 -27.848  1.00  0.00     0.050 C 
HETATM   49  C20 UNL     1       2.371  51.403 -26.369  1.00  0.00     0.050 C 
BRANCH  47  50
HETATM   50  O3  UNL     1       1.066  53.378 -26.637  1.00  0.00    -0.387 OA
HETATM   51  H30 UNL     1       0.158  53.730 -26.666  1.00  0.00     0.211 HD
ENDBRANCH  47  50
ENDBRANCH  46  47
ENDBRANCH  44  45
ENDBRANCH  42  44
ENDBRANCH  12  42
TORSDOF 13
ENDMDL
MODEL 5
REMARK minimizedAffinity -9.25425243
REMARK CNNscore 0.411961675
REMARK CNNaffinity 7.22525787
REMARK  13 active torsions:
REMARK  status: ('A' for Active; 'I' for Inactive)
REMARK    1  A    between atoms: O1_2  and  C2_3 
REMARK    2  A    between atoms: C12_14  and  C13_15 
REMARK    3  A    between atoms: C13_15  and  C15_17 
REMARK    4  A    between atoms: C15_17  and  C16_18 
REMARK    5  A    between atoms: C17_19  and  C18_20 
REMARK    6  A    between atoms: C18_20  and  O3_23 
REMARK    7  A    between atoms: C28_31  and  O4_32 
REMARK    8  A    between atoms: O4_32  and  C29_33 
REMARK    9  A    between atoms: C30_35  and  C31_36 
REMARK   10  A    between atoms: C31_36  and  O6_37 
REMARK   11  A    between atoms: C32_38  and  O7_39 
REMARK   12  A    between atoms: C33_40  and  O8_41 
REMARK   13  A    between atoms: C34_42  and  O9_43 
ROOT
HETATM    1  C2  UNL     1      -3.333  47.665 -21.323  1.00  0.00     0.270 C 
HETATM    2  O2  UNL     1      -2.540  48.851 -21.565  1.00  0.00    -0.344 OA
HETATM    3  C3  UNL     1      -3.416  49.896 -22.058  1.00  0.00     0.095 C 
HETATM    4  C4  UNL     1      -3.901  50.575 -20.785  1.00  0.00     0.008 C 
HETATM    5  C5  UNL     1      -4.886  50.068 -20.034  1.00  0.00    -0.021 C 
HETATM    6  C6  UNL     1      -5.508  48.734 -20.356  1.00  0.00     0.030 C 
HETATM    7  C7  UNL     1      -4.832  48.030 -21.623  1.00  0.00     0.024 C 
HETATM    8  C8  UNL     1      -5.608  46.733 -22.019  1.00  0.00     0.016 C 
HETATM    9  C9  UNL     1      -7.146  46.783 -21.966  1.00  0.00     0.011 C 
HETATM   10  C10 UNL     1      -7.634  47.324 -20.617  1.00  0.00    -0.032 C 
HETATM   11  C11 UNL     1      -7.166  46.332 -19.510  1.00  0.00     0.016 C 
HETATM   12  C12 UNL     1      -9.160  47.587 -20.484  1.00  0.00    -0.002 C 
HETATM   13  C21 UNL     1      -9.241  48.618 -19.322  1.00  0.00     0.006 C 
HETATM   14  C22 UNL     1      -7.816  49.213 -19.157  1.00  0.00     0.011 C 
HETATM   15  C23 UNL     1      -7.067  48.787 -20.439  1.00  0.00    -0.029 C 
HETATM   16  C24 UNL     1      -7.520  49.803 -21.543  1.00  0.00     0.016 C 
HETATM   17  C25 UNL     1      -4.539  49.074 -22.744  1.00  0.00     0.039 C 
HETATM   18  C26 UNL     1      -4.089  48.443 -24.088  1.00  0.00     0.011 C 
HETATM   19  C27 UNL     1      -2.733  48.908 -24.599  1.00  0.00     0.033 C 
HETATM   20  C28 UNL     1      -2.620  50.417 -24.496  1.00  0.00     0.136 C 
HETATM   21  C35 UNL     1      -2.644  50.904 -23.005  1.00  0.00     0.014 C 
HETATM   22  C36 UNL     1      -3.326  52.303 -23.052  1.00  0.00     0.021 C 
HETATM   23  C37 UNL     1      -1.206  51.122 -22.468  1.00  0.00     0.021 C 
ENDROOT
BRANCH  20  24
HETATM   24  O4  UNL     1      -1.448  50.920 -25.155  1.00  0.00    -0.352 OA
BRANCH  24  25
HETATM   25  C29 UNL     1      -1.331  50.561 -26.530  1.00  0.00     0.292 C 
HETATM   26  O5  UNL     1       0.029  50.609 -26.962  1.00  0.00    -0.348 OA
HETATM   27  C30 UNL     1       0.659  51.897 -26.855  1.00  0.00     0.179 C 
HETATM   28  C32 UNL     1      -0.318  53.082 -26.960  1.00  0.00     0.180 C 
HETATM   29  C33 UNL     1      -1.429  52.703 -27.929  1.00  0.00     0.183 C 
HETATM   30  C34 UNL     1      -2.214  51.496 -27.397  1.00  0.00     0.204 C 
BRANCH  27  31
HETATM   31  C31 UNL     1       1.521  52.016 -25.591  1.00  0.00     0.198 C 
BRANCH  31  32
HETATM   32  O6  UNL     1       1.181  53.155 -24.803  1.00  0.00    -0.398 OA
HETATM   33  H48 UNL     1       0.252  53.398 -25.004  1.00  0.00     0.209 HD
ENDBRANCH  31  32
ENDBRANCH  27  31
BRANCH  28  34
HETATM   34  O7  UNL     1       0.374  54.250 -27.418  1.00  0.00    -0.390 OA
HETATM   35  H50 UNL     1      -0.341  54.869 -27.686  1.00  0.00     0.210 HD
ENDBRANCH  28  34
BRANCH  29  36
HETATM   36  O8  UNL     1      -2.299  53.831 -28.118  1.00  0.00    -0.390 OA
HETATM   37  H52 UNL     1      -3.040  53.513 -28.669  1.00  0.00     0.210 HD
ENDBRANCH  29  36
BRANCH  30  38
HETATM   38  O9  UNL     1      -2.754  50.802 -28.543  1.00  0.00    -0.388 OA
HETATM   39  H54 UNL     1      -2.013  50.349 -28.985  1.00  0.00     0.210 HD
ENDBRANCH  30  38
ENDBRANCH  24  25
ENDBRANCH  20  24
BRANCH   1  40
HETATM   40  O1  UNL     1      -3.165  47.144 -20.012  1.00  0.00    -0.365 OA
HETATM   41  C1  UNL     1      -2.024  47.690 -19.366  1.00  0.00     0.204 C 
ENDBRANCH   1  40
BRANCH  12  42
HETATM   42  C13 UNL     1     -10.203  46.431 -20.504  1.00  0.00    -0.010 C 
HETATM   43  C14 UNL     1     -10.950  46.454 -21.855  1.00  0.00     0.010 C 
BRANCH  42  44
HETATM   44  C15 UNL     1     -11.232  46.240 -19.365  1.00  0.00     0.031 C 
BRANCH  44  45
HETATM   45  C16 UNL     1     -10.731  45.712 -18.053  1.00  0.00    -0.027 C 
HETATM   46  C17 UNL     1     -10.459  46.481 -16.985  1.00  0.00     0.006 C 
BRANCH  46  47
HETATM   47  C18 UNL     1      -9.963  46.025 -15.634  1.00  0.00     0.068 C 
HETATM   48  C19 UNL     1      -8.594  45.337 -15.631  1.00  0.00     0.050 C 
HETATM   49  C20 UNL     1     -11.001  45.118 -14.977  1.00  0.00     0.050 C 
BRANCH  47  50
HETATM   50  O3  UNL     1      -9.853  47.201 -14.830  1.00  0.00    -0.387 OA
HETATM   51  H30 UNL     1      -9.248  47.805 -15.296  1.00  0.00     0.211 HD
ENDBRANCH  47  50
ENDBRANCH  46  47
ENDBRANCH  44  45
ENDBRANCH  42  44
ENDBRANCH  12  42
TORSDOF 13
ENDMDL
MODEL 6
REMARK minimizedAffinity -9.97155285
REMARK CNNscore 0.376953483
REMARK CNNaffinity 7.26639891
REMARK  13 active torsions:
REMARK  status: ('A' for Active; 'I' for Inactive)
REMARK    1  A    between atoms: O1_2  and  C2_3 
REMARK    2  A    between atoms: C12_14  and  C13_15 
REMARK    3  A    between atoms: C13_15  and  C15_17 
REMARK    4  A    between atoms: C15_17  and  C16_18 
REMARK    5  A    between atoms: C17_19  and  C18_20 
REMARK    6  A    between atoms: C18_20  and  O3_23 
REMARK    7  A    between atoms: C28_31  and  O4_32 
REMARK    8  A    between atoms: O4_32  and  C29_33 
REMARK    9  A    between atoms: C30_35  and  C31_36 
REMARK   10  A    between atoms: C31_36  and  O6_37 
REMARK   11  A    between atoms: C32_38  and  O7_39 
REMARK   12  A    between atoms: C33_40  and  O8_41 
REMARK   13  A    between atoms: C34_42  and  O9_43 
ROOT
HETATM    1  C2  UNL     1      -6.855  49.576 -20.731  1.00  0.00     0.270 C 
HETATM    2  O2  UNL     1      -7.704  48.517 -21.233  1.00  0.00    -0.344 OA
HETATM    3  C3  UNL     1      -6.995  47.824 -22.291  1.00  0.00     0.095 C 
HETATM    4  C4  UNL     1      -6.223  46.745 -21.546  1.00  0.00     0.008 C 
HETATM    5  C5  UNL     1      -5.075  46.998 -20.908  1.00  0.00    -0.021 C 
HETATM    6  C6  UNL     1      -4.528  48.398 -20.806  1.00  0.00     0.030 C 
HETATM    7  C7  UNL     1      -5.484  49.483 -21.491  1.00  0.00     0.024 C 
HETATM    8  C8  UNL     1      -4.806  50.890 -21.506  1.00  0.00     0.016 C 
HETATM    9  C9  UNL     1      -3.305  50.951 -21.838  1.00  0.00     0.011 C 
HETATM   10  C10 UNL     1      -2.508  49.969 -20.971  1.00  0.00    -0.032 C 
HETATM   11  C11 UNL     1      -2.671  50.408 -19.484  1.00  0.00     0.016 C 
HETATM   12  C12 UNL     1      -1.001  49.802 -21.313  1.00  0.00    -0.002 C 
HETATM   13  C21 UNL     1      -0.654  48.410 -20.713  1.00  0.00     0.006 C 
HETATM   14  C22 UNL     1      -2.004  47.683 -20.471  1.00  0.00     0.011 C 
HETATM   15  C23 UNL     1      -3.039  48.512 -21.264  1.00  0.00    -0.029 C 
HETATM   16  C24 UNL     1      -2.891  48.048 -22.754  1.00  0.00     0.016 C 
HETATM   17  C25 UNL     1      -6.062  48.938 -22.834  1.00  0.00     0.039 C 
HETATM   18  C26 UNL     1      -6.819  50.005 -23.669  1.00  0.00     0.011 C 
HETATM   19  C27 UNL     1      -8.267  49.666 -23.992  1.00  0.00     0.033 C 
HETATM   20  C28 UNL     1      -8.377  48.232 -24.475  1.00  0.00     0.136 C 
HETATM   21  C35 UNL     1      -7.994  47.205 -23.353  1.00  0.00     0.014 C 
HETATM   22  C36 UNL     1      -7.371  45.998 -24.112  1.00  0.00     0.021 C 
HETATM   23  C37 UNL     1      -9.260  46.677 -22.629  1.00  0.00     0.021 C 
ENDROOT
BRANCH  20  24
HETATM   24  O4  UNL     1      -9.685  47.931 -24.988  1.00  0.00    -0.352 OA
BRANCH  24  25
HETATM   25  C29 UNL     1     -10.060  48.671 -26.148  1.00  0.00     0.292 C 
HETATM   26  O5  UNL     1     -11.465  48.578 -26.385  1.00  0.00    -0.348 OA
HETATM   27  C30 UNL     1     -11.959  47.247 -26.612  1.00  0.00     0.179 C 
HETATM   28  C32 UNL     1     -10.920  46.288 -27.219  1.00  0.00     0.180 C 
HETATM   29  C33 UNL     1     -10.023  47.084 -28.157  1.00  0.00     0.183 C 
HETATM   30  C34 UNL     1      -9.263  48.166 -27.378  1.00  0.00     0.204 C 
BRANCH  27  31
HETATM   31  C31 UNL     1     -12.584  46.639 -25.348  1.00  0.00     0.198 C 
BRANCH  31  32
HETATM   32  O6  UNL     1     -13.663  47.423 -24.843  1.00  0.00    -0.398 OA
HETATM   33  H48 UNL     1     -14.033  47.949 -25.585  1.00  0.00     0.209 HD
ENDBRANCH  31  32
ENDBRANCH  27  31
BRANCH  28  34
HETATM   34  O7  UNL     1     -11.581  45.233 -27.929  1.00  0.00    -0.390 OA
HETATM   35  H50 UNL     1     -10.873  44.823 -28.474  1.00  0.00     0.210 HD
ENDBRANCH  28  34
BRANCH  29  36
HETATM   36  O8  UNL     1      -9.108  46.191 -28.811  1.00  0.00    -0.390 OA
HETATM   37  H52 UNL     1      -8.499  46.754 -29.326  1.00  0.00     0.210 HD
ENDBRANCH  29  36
BRANCH  30  38
HETATM   38  O9  UNL     1      -8.982  49.238 -28.304  1.00  0.00    -0.388 OA
HETATM   39  H54 UNL     1      -9.821  49.703 -28.475  1.00  0.00     0.210 HD
ENDBRANCH  30  38
ENDBRANCH  24  25
ENDBRANCH  20  24
BRANCH   1  40
HETATM   40  O1  UNL     1      -6.686  49.528 -19.321  1.00  0.00    -0.365 OA
HETATM   41  C1  UNL     1      -7.736  48.814 -18.684  1.00  0.00     0.204 C 
ENDBRANCH   1  40
BRANCH  12  42
HETATM   42  C13 UNL     1       0.024  50.956 -21.113  1.00  0.00    -0.010 C 
HETATM   43  C14 UNL     1      -0.050  51.446 -19.651  1.00  0.00     0.010 C 
BRANCH  42  44
HETATM   44  C15 UNL     1       0.063  52.186 -22.052  1.00  0.00     0.031 C 
BRANCH  44  45
HETATM   45  C16 UNL     1      -0.042  51.941 -23.528  1.00  0.00    -0.027 C 
HETATM   46  C17 UNL     1       0.886  52.319 -24.424  1.00  0.00     0.006 C 
BRANCH  46  47
HETATM   47  C18 UNL     1       0.855  52.102 -25.917  1.00  0.00     0.068 C 
HETATM   48  C19 UNL     1      -0.293  51.230 -26.435  1.00  0.00     0.050 C 
HETATM   49  C20 UNL     1       2.193  51.532 -26.387  1.00  0.00     0.050 C 
BRANCH  47  50
HETATM   50  O3  UNL     1       0.711  53.395 -26.507  1.00  0.00    -0.387 OA
HETATM   51  H30 UNL     1      -0.105  53.782 -26.142  1.00  0.00     0.211 HD
ENDBRANCH  47  50
ENDBRANCH  46  47
ENDBRANCH  44  45
ENDBRANCH  42  44
ENDBRANCH  12  42
TORSDOF 13
ENDMDL
MODEL 7
REMARK minimizedAffinity -9.3755312
REMARK CNNscore 0.309042484
REMARK CNNaffinity 7.0150733
REMARK  13 active torsions:
REMARK  status: ('A' for Active; 'I' for Inactive)
REMARK    1  A    between atoms: O1_2  and  C2_3 
REMARK    2  A    between atoms: C12_14  and  C13_15 
REMARK    3  A    between atoms: C13_15  and  C15_17 
REMARK    4  A    between atoms: C15_17  and  C16_18 
REMARK    5  A    between atoms: C17_19  and  C18_20 
REMARK    6  A    between atoms: C18_20  and  O3_23 
REMARK    7  A    between atoms: C28_31  and  O4_32 
REMARK    8  A    between atoms: O4_32  and  C29_33 
REMARK    9  A    between atoms: C30_35  and  C31_36 
REMARK   10  A    between atoms: C31_36  and  O6_37 
REMARK   11  A    between atoms: C32_38  and  O7_39 
REMARK   12  A    between atoms: C33_40  and  O8_41 
REMARK   13  A    between atoms: C34_42  and  O9_43 
ROOT
HETATM    1  C2  UNL     1      -3.453  47.715 -21.283  1.00  0.00     0.270 C 
HETATM    2  O2  UNL     1      -2.738  48.954 -21.495  1.00  0.00    -0.344 OA
HETATM    3  C3  UNL     1      -3.666  49.933 -22.028  1.00  0.00     0.095 C 
HETATM    4  C4  UNL     1      -4.251  50.576 -20.779  1.00  0.00     0.008 C 
HETATM    5  C5  UNL     1      -5.228  49.999 -20.069  1.00  0.00    -0.021 C 
HETATM    6  C6  UNL     1      -5.739  48.624 -20.412  1.00  0.00     0.030 C 
HETATM    7  C7  UNL     1      -4.960  47.970 -21.647  1.00  0.00     0.024 C 
HETATM    8  C8  UNL     1      -5.624  46.621 -22.071  1.00  0.00     0.016 C 
HETATM    9  C9  UNL     1      -7.162  46.560 -22.083  1.00  0.00     0.011 C 
HETATM   10  C10 UNL     1      -7.744  47.065 -20.758  1.00  0.00    -0.032 C 
HETATM   11  C11 UNL     1      -7.253  46.109 -19.628  1.00  0.00     0.016 C 
HETATM   12  C12 UNL     1      -9.290  47.217 -20.689  1.00  0.00    -0.002 C 
HETATM   13  C21 UNL     1      -9.493  48.240 -19.536  1.00  0.00     0.006 C 
HETATM   14  C22 UNL     1      -8.124  48.935 -19.313  1.00  0.00     0.011 C 
HETATM   15  C23 UNL     1      -7.292  48.564 -20.561  1.00  0.00    -0.029 C 
HETATM   16  C24 UNL     1      -7.770  49.545 -21.686  1.00  0.00     0.016 C 
HETATM   17  C25 UNL     1      -4.696  49.032 -22.758  1.00  0.00     0.039 C 
HETATM   18  C26 UNL     1      -4.145  48.435 -24.080  1.00  0.00     0.011 C 
HETATM   19  C27 UNL     1      -2.806  48.996 -24.535  1.00  0.00     0.033 C 
HETATM   20  C28 UNL     1      -2.807  50.509 -24.432  1.00  0.00     0.136 C 
HETATM   21  C35 UNL     1      -2.929  50.994 -22.945  1.00  0.00     0.014 C 
HETATM   22  C36 UNL     1      -3.707  52.340 -23.026  1.00  0.00     0.021 C 
HETATM   23  C37 UNL     1      -1.534  51.315 -22.349  1.00  0.00     0.021 C 
ENDROOT
BRANCH  20  24
HETATM   24  O4  UNL     1      -1.647  51.095 -25.043  1.00  0.00    -0.352 OA
BRANCH  24  25
HETATM   25  C29 UNL     1      -1.403  50.683 -26.386  1.00  0.00     0.292 C 
HETATM   26  O5  UNL     1      -0.009  50.724 -26.692  1.00  0.00    -0.348 OA
HETATM   27  C30 UNL     1       0.603  52.021 -26.580  1.00  0.00     0.179 C 
HETATM   28  C32 UNL     1      -0.364  53.192 -26.822  1.00  0.00     0.180 C 
HETATM   29  C33 UNL     1      -1.380  52.768 -27.873  1.00  0.00     0.183 C 
HETATM   30  C34 UNL     1      -2.205  51.576 -27.367  1.00  0.00     0.204 C 
BRANCH  27  31
HETATM   31  C31 UNL     1       1.346  52.196 -25.247  1.00  0.00     0.198 C 
BRANCH  31  32
HETATM   32  O6  UNL     1       1.006  53.415 -24.590  1.00  0.00    -0.398 OA
HETATM   33  H48 UNL     1       0.119  53.694 -24.903  1.00  0.00     0.209 HD
ENDBRANCH  31  32
ENDBRANCH  27  31
BRANCH  28  34
HETATM   34  O7  UNL     1       0.363  54.347 -27.260  1.00  0.00    -0.390 OA
HETATM   35  H50 UNL     1      -0.327  54.950 -27.617  1.00  0.00     0.210 HD
ENDBRANCH  28  34
BRANCH  29  36
HETATM   36  O8  UNL     1      -2.233  53.880 -28.186  1.00  0.00    -0.390 OA
HETATM   37  H52 UNL     1      -2.919  53.536 -28.790  1.00  0.00     0.210 HD
ENDBRANCH  29  36
BRANCH  30  38
HETATM   38  O9  UNL     1      -2.634  50.834 -28.529  1.00  0.00    -0.388 OA
HETATM   39  H54 UNL     1      -1.855  50.369 -28.883  1.00  0.00     0.210 HD
ENDBRANCH  30  38
ENDBRANCH  24  25
ENDBRANCH  20  24
BRANCH   1  40
HETATM   40  O1  UNL     1      -3.303  47.207 -19.964  1.00  0.00    -0.365 OA
HETATM   41  C1  UNL     1      -2.232  47.834 -19.273  1.00  0.00     0.204 C 
ENDBRANCH   1  40
BRANCH  12  42
HETATM   42  C13 UNL     1     -10.244  45.989 -20.749  1.00  0.00    -0.010 C 
HETATM   43  C14 UNL     1      -9.454  44.720 -20.366  1.00  0.00     0.010 C 
BRANCH  42  44
HETATM   44  C15 UNL     1     -11.106  45.685 -21.998  1.00  0.00     0.031 C 
BRANCH  44  45
HETATM   45  C16 UNL     1     -11.009  46.630 -23.160  1.00  0.00    -0.027 C 
HETATM   46  C17 UNL     1     -10.122  46.505 -24.162  1.00  0.00     0.006 C 
BRANCH  46  47
HETATM   47  C18 UNL     1      -9.970  47.405 -25.363  1.00  0.00     0.068 C 
HETATM   48  C19 UNL     1      -9.687  46.694 -26.691  1.00  0.00     0.050 C 
HETATM   49  C20 UNL     1      -8.889  48.452 -25.096  1.00  0.00     0.050 C 
BRANCH  47  50
HETATM   50  O3  UNL     1     -11.210  48.098 -25.505  1.00  0.00    -0.387 OA
HETATM   51  H30 UNL     1     -11.903  47.420 -25.598  1.00  0.00     0.211 HD
ENDBRANCH  47  50
ENDBRANCH  46  47
ENDBRANCH  44  45
ENDBRANCH  42  44
ENDBRANCH  12  42
TORSDOF 13
ENDMDL
MODEL 8
REMARK minimizedAffinity -8.96547413
REMARK CNNscore 0.300483108
REMARK CNNaffinity 6.85618448
REMARK  13 active torsions:
REMARK  status: ('A' for Active; 'I' for Inactive)
REMARK    1  A    between atoms: O1_2  and  C2_3 
REMARK    2  A    between atoms: C12_14  and  C13_15 
REMARK    3  A    between atoms: C13_15  and  C15_17 
REMARK    4  A    between atoms: C15_17  and  C16_18 
REMARK    5  A    between atoms: C17_19  and  C18_20 
REMARK    6  A    between atoms: C18_20  and  O3_23 
REMARK    7  A    between atoms: C28_31  and  O4_32 
REMARK    8  A    between atoms: O4_32  and  C29_33 
REMARK    9  A    between atoms: C30_35  and  C31_36 
REMARK   10  A    between atoms: C31_36  and  O6_37 
REMARK   11  A    between atoms: C32_38  and  O7_39 
REMARK   12  A    between atoms: C33_40  and  O8_41 
REMARK   13  A    between atoms: C34_42  and  O9_43 
ROOT
HETATM    1  C2  UNL     1      -3.397  47.580 -21.402  1.00  0.00     0.270 C 
HETATM    2  O2  UNL     1      -2.601  48.773 -21.591  1.00  0.00    -0.344 OA
HETATM    3  C3  UNL     1      -3.470  49.835 -22.061  1.00  0.00     0.095 C 
HETATM    4  C4  UNL     1      -3.973  50.470 -20.774  1.00  0.00     0.008 C 
HETATM    5  C5  UNL     1      -4.969  49.939 -20.055  1.00  0.00    -0.021 C 
HETATM    6  C6  UNL     1      -5.586  48.617 -20.430  1.00  0.00     0.030 C 
HETATM    7  C7  UNL     1      -4.891  47.955 -21.710  1.00  0.00     0.024 C 
HETATM    8  C8  UNL     1      -5.662  46.673 -22.161  1.00  0.00     0.016 C 
HETATM    9  C9  UNL     1      -7.200  46.722 -22.129  1.00  0.00     0.011 C 
HETATM   10  C10 UNL     1      -7.708  47.218 -20.770  1.00  0.00    -0.032 C 
HETATM   11  C11 UNL     1      -7.256  46.188 -19.690  1.00  0.00     0.016 C 
HETATM   12  C12 UNL     1      -9.236  47.477 -20.650  1.00  0.00    -0.002 C 
HETATM   13  C21 UNL     1      -9.333  48.468 -19.456  1.00  0.00     0.006 C 
HETATM   14  C22 UNL     1      -7.911  49.056 -19.250  1.00  0.00     0.011 C 
HETATM   15  C23 UNL     1      -7.144  48.673 -20.535  1.00  0.00    -0.029 C 
HETATM   16  C24 UNL     1      -7.580  49.726 -21.610  1.00  0.00     0.016 C 
HETATM   17  C25 UNL     1      -4.582  49.037 -22.791  1.00  0.00     0.039 C 
HETATM   18  C26 UNL     1      -4.112  48.451 -24.149  1.00  0.00     0.011 C 
HETATM   19  C27 UNL     1      -2.749  48.932 -24.625  1.00  0.00     0.033 C 
HETATM   20  C28 UNL     1      -2.638  50.437 -24.469  1.00  0.00     0.136 C 
HETATM   21  C35 UNL     1      -2.684  50.874 -22.963  1.00  0.00     0.014 C 
HETATM   22  C36 UNL     1      -3.365  52.273 -22.973  1.00  0.00     0.021 C 
HETATM   23  C37 UNL     1      -1.253  51.073 -22.399  1.00  0.00     0.021 C 
ENDROOT
BRANCH  20  24
HETATM   24  O4  UNL     1      -1.456  50.961 -25.094  1.00  0.00    -0.352 OA
BRANCH  24  25
HETATM   25  C29 UNL     1      -1.288  50.598 -26.462  1.00  0.00     0.292 C 
HETATM   26  O5  UNL     1       0.083  50.677 -26.852  1.00  0.00    -0.348 OA
HETATM   27  C30 UNL     1       0.676  51.982 -26.735  1.00  0.00     0.179 C 
HETATM   28  C32 UNL     1      -0.326  53.140 -26.878  1.00  0.00     0.180 C 
HETATM   29  C33 UNL     1      -1.397  52.728 -27.878  1.00  0.00     0.183 C 
HETATM   30  C34 UNL     1      -2.167  51.504 -27.362  1.00  0.00     0.204 C 
BRANCH  27  31
HETATM   31  C31 UNL     1       1.496  52.129 -25.445  1.00  0.00     0.198 C 
BRANCH  31  32
HETATM   32  O6  UNL     1       1.148  53.299 -24.709  1.00  0.00    -0.398 OA
HETATM   33  H48 UNL     1       0.230  53.550 -24.950  1.00  0.00     0.209 HD
ENDBRANCH  31  32
ENDBRANCH  27  31
BRANCH  28  34
HETATM   34  O7  UNL     1       0.351  54.323 -27.322  1.00  0.00    -0.390 OA
HETATM   35  H50 UNL     1      -0.372  54.922 -27.616  1.00  0.00     0.210 HD
ENDBRANCH  28  34
BRANCH  29  36
HETATM   36  O8  UNL     1      -2.288  53.832 -28.101  1.00  0.00    -0.390 OA
HETATM   37  H52 UNL     1      -3.004  53.492 -28.672  1.00  0.00     0.210 HD
ENDBRANCH  29  36
BRANCH  30  38
HETATM   38  O9  UNL     1      -2.654  50.790 -28.519  1.00  0.00    -0.388 OA
HETATM   39  H54 UNL     1      -1.889  50.353 -28.935  1.00  0.00     0.210 HD
ENDBRANCH  30  38
ENDBRANCH  24  25
ENDBRANCH  20  24
BRANCH   1  40
HETATM   40  O1  UNL     1      -3.248  47.015 -20.106  1.00  0.00    -0.365 OA
HETATM   41  C1  UNL     1      -3.510  45.619 -20.104  1.00  0.00     0.204 C 
ENDBRANCH   1  40
BRANCH  12  42
HETATM   42  C13 UNL     1     -10.278  46.323 -20.724  1.00  0.00    -0.010 C 
HETATM   43  C14 UNL     1      -9.697  45.076 -20.023  1.00  0.00     0.010 C 
BRANCH  42  44
HETATM   44  C15 UNL     1     -10.923  45.890 -22.063  1.00  0.00     0.031 C 
BRANCH  44  45
HETATM   45  C16 UNL     1     -10.013  45.654 -23.232  1.00  0.00    -0.027 C 
HETATM   46  C17 UNL     1      -9.702  44.437 -23.712  1.00  0.00     0.006 C 
BRANCH  46  47
HETATM   47  C18 UNL     1      -8.806  44.120 -24.884  1.00  0.00     0.068 C 
HETATM   48  C19 UNL     1      -8.297  45.330 -25.674  1.00  0.00     0.050 C 
HETATM   49  C20 UNL     1      -9.507  43.143 -25.826  1.00  0.00     0.050 C 
BRANCH  47  50
HETATM   50  O3  UNL     1      -7.665  43.450 -24.346  1.00  0.00    -0.387 OA
HETATM   51  H30 UNL     1      -7.269  44.051 -23.690  1.00  0.00     0.211 HD
ENDBRANCH  47  50
ENDBRANCH  46  47
ENDBRANCH  44  45
ENDBRANCH  42  44
ENDBRANCH  12  42
TORSDOF 13
ENDMDL
MODEL 9
REMARK minimizedAffinity -8.87612915
REMARK CNNscore 0.289480418
REMARK CNNaffinity 6.76522589
REMARK  13 active torsions:
REMARK  status: ('A' for Active; 'I' for Inactive)
REMARK    1  A    between atoms: O1_2  and  C2_3 
REMARK    2  A    between atoms: C12_14  and  C13_15 
REMARK    3  A    between atoms: C13_15  and  C15_17 
REMARK    4  A    between atoms: C15_17  and  C16_18 
REMARK    5  A    between atoms: C17_19  and  C18_20 
REMARK    6  A    between atoms: C18_20  and  O3_23 
REMARK    7  A    between atoms: C28_31  and  O4_32 
REMARK    8  A    between atoms: O4_32  and  C29_33 
REMARK    9  A    between atoms: C30_35  and  C31_36 
REMARK   10  A    between atoms: C31_36  and  O6_37 
REMARK   11  A    between atoms: C32_38  and  O7_39 
REMARK   12  A    between atoms: C33_40  and  O8_41 
REMARK   13  A    between atoms: C34_42  and  O9_43 
ROOT
HETATM    1  C2  UNL     1      -3.439  48.052 -20.901  1.00  0.00     0.270 C 
HETATM    2  O2  UNL     1      -2.944  49.379 -21.199  1.00  0.00    -0.344 OA
HETATM    3  C3  UNL     1      -3.978  50.105 -21.911  1.00  0.00     0.095 C 
HETATM    4  C4  UNL     1      -4.791  50.743 -20.794  1.00  0.00     0.008 C 
HETATM    5  C5  UNL     1      -5.711  50.063 -20.101  1.00  0.00    -0.021 C 
HETATM    6  C6  UNL     1      -5.926  48.588 -20.321  1.00  0.00     0.030 C 
HETATM    7  C7  UNL     1      -4.924  47.977 -21.408  1.00  0.00     0.024 C 
HETATM    8  C8  UNL     1      -5.286  46.490 -21.724  1.00  0.00     0.016 C 
HETATM    9  C9  UNL     1      -6.778  46.135 -21.848  1.00  0.00     0.011 C 
HETATM   10  C10 UNL     1      -7.570  46.647 -20.640  1.00  0.00    -0.032 C 
HETATM   11  C11 UNL     1      -7.026  45.919 -19.373  1.00  0.00     0.016 C 
HETATM   12  C12 UNL     1      -9.117  46.506 -20.710  1.00  0.00    -0.002 C 
HETATM   13  C21 UNL     1      -9.615  47.579 -19.702  1.00  0.00     0.006 C 
HETATM   14  C22 UNL     1      -8.424  48.543 -19.455  1.00  0.00     0.011 C 
HETATM   15  C23 UNL     1      -7.421  48.217 -20.583  1.00  0.00    -0.029 C 
HETATM   16  C24 UNL     1      -7.956  48.972 -21.848  1.00  0.00     0.016 C 
HETATM   17  C25 UNL     1      -4.751  48.955 -22.611  1.00  0.00     0.039 C 
HETATM   18  C26 UNL     1      -3.973  48.347 -23.808  1.00  0.00     0.011 C 
HETATM   19  C27 UNL     1      -2.720  49.106 -24.219  1.00  0.00     0.033 C 
HETATM   20  C28 UNL     1      -3.007  50.594 -24.292  1.00  0.00     0.136 C 
HETATM   21  C35 UNL     1      -3.361  51.191 -22.885  1.00  0.00     0.014 C 
HETATM   22  C36 UNL     1      -4.359  52.348 -23.181  1.00  0.00     0.021 C 
HETATM   23  C37 UNL     1      -2.112  51.831 -22.224  1.00  0.00     0.021 C 
ENDROOT
BRANCH  20  24
HETATM   24  O4  UNL     1      -1.919  51.328 -24.875  1.00  0.00    -0.352 OA
BRANCH  24  25
HETATM   25  C29 UNL     1      -1.477  50.845 -26.141  1.00  0.00     0.292 C 
HETATM   26  O5  UNL     1      -0.055  50.902 -26.247  1.00  0.00    -0.348 OA
HETATM   27  C30 UNL     1       0.514  52.218 -26.129  1.00  0.00     0.179 C 
HETATM   28  C32 UNL     1      -0.428  53.349 -26.578  1.00  0.00     0.180 C 
HETATM   29  C33 UNL     1      -1.275  52.838 -27.735  1.00  0.00     0.183 C 
HETATM   30  C34 UNL     1      -2.145  51.658 -27.280  1.00  0.00     0.204 C 
BRANCH  27  31
HETATM   31  C31 UNL     1       1.054  52.489 -24.718  1.00  0.00     0.198 C 
BRANCH  31  32
HETATM   32  O6  UNL     1       1.097  53.880 -24.409  1.00  0.00    -0.398 OA
HETATM   33  H48 UNL     1       0.437  54.339 -24.972  1.00  0.00     0.209 HD
ENDBRANCH  31  32
ENDBRANCH  27  31
BRANCH  28  34
HETATM   34  O7  UNL     1       0.336  54.493 -26.979  1.00  0.00    -0.390 OA
HETATM   35  H50 UNL     1      -0.305  55.057 -27.467  1.00  0.00     0.210 HD
ENDBRANCH  28  34
BRANCH  29  36
HETATM   36  O8  UNL     1      -2.092  53.909 -28.235  1.00  0.00    -0.390 OA
HETATM   37  H52 UNL     1      -2.678  53.512 -28.907  1.00  0.00     0.210 HD
ENDBRANCH  29  36
BRANCH  30  38
HETATM   38  O9  UNL     1      -2.391  50.838 -28.443  1.00  0.00    -0.388 OA
HETATM   39  H54 UNL     1      -1.561  50.373 -28.653  1.00  0.00     0.210 HD
ENDBRANCH  30  38
ENDBRANCH  24  25
ENDBRANCH  20  24
BRANCH   1  40
HETATM   40  O1  UNL     1      -3.329  47.716 -19.525  1.00  0.00    -0.365 OA
HETATM   41  C1  UNL     1      -2.365  48.517 -18.859  1.00  0.00     0.204 C 
ENDBRANCH   1  40
BRANCH  12  42
HETATM   42  C13 UNL     1      -9.821  45.118 -20.702  1.00  0.00    -0.010 C 
HETATM   43  C14 UNL     1     -10.145  44.728 -19.244  1.00  0.00     0.010 C 
BRANCH  42  44
HETATM   44  C15 UNL     1      -9.217  43.891 -21.427  1.00  0.00     0.031 C 
BRANCH  44  45
HETATM   45  C16 UNL     1      -8.498  42.872 -20.592  1.00  0.00    -0.027 C 
HETATM   46  C17 UNL     1      -7.519  42.075 -21.054  1.00  0.00     0.006 C 
BRANCH  46  47
HETATM   47  C18 UNL     1      -6.746  41.036 -20.279  1.00  0.00     0.068 C 
HETATM   48  C19 UNL     1      -6.828  39.607 -20.825  1.00  0.00     0.050 C 
HETATM   49  C20 UNL     1      -7.173  41.057 -18.812  1.00  0.00     0.050 C 
BRANCH  47  50
HETATM   50  O3  UNL     1      -5.376  41.436 -20.331  1.00  0.00    -0.387 OA
HETATM   51  H30 UNL     1      -5.134  41.495 -21.272  1.00  0.00     0.211 HD
ENDBRANCH  47  50
ENDBRANCH  46  47
ENDBRANCH  44  45
ENDBRANCH  42  44
ENDBRANCH  12  42
TORSDOF 13
ENDMDL
