MODEL 1
REMARK minimizedAffinity -10.0003433
REMARK  6 active torsions:
REMARK  status: ('A' for Active; 'I' for Inactive)
REMARK    1  A    between atoms: C2_2  and  C3_3 
REMARK       I    between atoms: C3_3  and  N1_5 
REMARK    2  A    between atoms: C7_9  and  N2_10 
REMARK    3  A    between atoms: C8_13  and  C9_14 
REMARK    4  A    between atoms: C12_17  and  O2_18 
REMARK    5  A    between atoms: O2_18  and  C13_19 
REMARK    6  A    between atoms: C22_28  and  N4_29 
ROOT
HETATM    1  N2  UNL     1      -0.441  51.538 -23.451  1.00  0.00    -0.269 N 
HETATM    2  N3  UNL     1      -0.612  50.823 -22.319  1.00  0.00    -0.295 N 
ATOM      3  H3  UNL     1      -1.037  49.901 -22.221  1.00  0.00     0.187 HD
HETATM    4  C8  UNL     1      -0.096  51.600 -21.350  1.00  0.00     0.075 A 
HETATM    5  C21 UNL     1       0.486  52.784 -21.892  1.00  0.00     0.076 A 
HETATM    6  C22 UNL     1       1.200  53.904 -21.447  1.00  0.00     0.095 A 
HETATM    7  N5  UNL     1       1.578  54.833 -22.351  1.00  0.00    -0.342 N 
ATOM      8  H5  UNL     1       2.096  55.661 -22.059  1.00  0.00     0.167 HD
HETATM    9  C23 UNL     1       1.257  54.643 -23.644  1.00  0.00     0.183 A 
HETATM   10  N6  UNL     1       0.599  53.607 -24.187  1.00  0.00    -0.337 N 
ATOM     11  H6  UNL     1       0.398  53.512 -25.183  1.00  0.00     0.168 HD
HETATM   12  C24 UNL     1       0.237  52.710 -23.253  1.00  0.00     0.139 A 
ENDROOT
BRANCH   4  13
HETATM   13  C9  UNL     1      -0.160  51.173 -19.955  1.00  0.00    -0.007 A 
HETATM   14  C10 UNL     1       0.238  52.033 -18.923  1.00  0.00     0.016 A 
HETATM   15  C11 UNL     1       0.184  51.610 -17.591  1.00  0.00     0.038 A 
HETATM   16  C12 UNL     1      -0.290  50.336 -17.284  1.00  0.00     0.076 A 
HETATM   17  C19 UNL     1      -0.684  49.468 -18.304  1.00  0.00     0.038 A 
HETATM   18  C20 UNL     1      -0.631  49.892 -19.635  1.00  0.00     0.016 A 
BRANCH  16  19
HETATM   19  O2  UNL     1      -0.275  49.969 -15.958  1.00  0.00    -0.311 OA
BRANCH  19  20
HETATM   20  C13 UNL     1      -1.022  50.722 -15.081  1.00  0.00     0.076 A 
HETATM   21  C14 UNL     1      -0.462  51.401 -13.996  1.00  0.00     0.037 A 
HETATM   22  C15 UNL     1      -1.287  52.114 -13.124  1.00  0.00     0.003 A 
HETATM   23  C16 UNL     1      -2.667  52.135 -13.327  1.00  0.00     0.000 A 
HETATM   24  C17 UNL     1      -3.226  51.438 -14.399  1.00  0.00     0.003 A 
HETATM   25  C18 UNL     1      -2.404  50.724 -15.271  1.00  0.00     0.037 A 
ENDBRANCH  19  20
ENDBRANCH  16  19
ENDBRANCH   4  13
BRANCH   1  26
HETATM   26  C7  UNL     1      -0.910  50.988 -24.715  1.00  0.00     0.128 C 
HETATM   27  C6  UNL     1      -0.228  51.660 -25.922  1.00  0.00     0.030 C 
HETATM   28  C5  UNL     1      -0.756  51.104 -27.249  1.00  0.00     0.022 C 
HETATM   29  C4  UNL     1      -2.285  51.157 -27.309  1.00  0.00     0.126 C 
HETATM   30  N1  UNL     1      -2.850  50.465 -26.149  1.00  0.00    -0.347 N 
HETATM   31  C3  UNL     1      -3.274  49.144 -26.154  1.00  0.00     0.242 C 
HETATM   32  C25 UNL     1      -2.438  51.039 -24.862  1.00  0.00     0.153 C 
HETATM   33  O1  UNL     1      -3.314  48.449 -25.142  1.00  0.00    -0.268 OA
BRANCH  31  34
HETATM   34  C2  UNL     1      -3.715  48.586 -27.460  1.00  0.00     0.064 C 
HETATM   35  C1  UNL     1      -4.958  48.108 -27.605  1.00  0.00     0.017 C 
ENDBRANCH  31  34
ENDBRANCH   1  26
BRANCH   6  36
HETATM   36  N4  UNL     1       1.586  54.132 -20.133  1.00  0.00    -0.288 NA
HETATM   37  H20 UNL     1       1.767  53.298 -19.589  1.00  0.00     0.125 HD
HETATM   38  H21 UNL     1       2.306  54.844 -20.096  1.00  0.00     0.125 HD
ENDBRANCH   6  36
TORSDOF 6
ENDMDL
MODEL 2
REMARK minimizedAffinity -9.93706036
REMARK  6 active torsions:
REMARK  status: ('A' for Active; 'I' for Inactive)
REMARK    1  A    between atoms: C2_2  and  C3_3 
REMARK       I    between atoms: C3_3  and  N1_5 
REMARK    2  A    between atoms: C7_9  and  N2_10 
REMARK    3  A    between atoms: C8_13  and  C9_14 
REMARK    4  A    between atoms: C12_17  and  O2_18 
REMARK    5  A    between atoms: O2_18  and  C13_19 
REMARK    6  A    between atoms: C22_28  and  N4_29 
ROOT
HETATM    1  N2  UNL     1      -0.407  51.668 -23.617  1.00  0.00    -0.269 N 
HETATM    2  N3  UNL     1      -0.572  50.984 -22.465  1.00  0.00    -0.295 N 
ATOM      3  H3  UNL     1      -1.000  50.067 -22.338  1.00  0.00     0.187 HD
HETATM    4  C8  UNL     1      -0.044  51.784 -21.521  1.00  0.00     0.075 A 
HETATM    5  C21 UNL     1       0.539  52.951 -22.099  1.00  0.00     0.076 A 
HETATM    6  C22 UNL     1       1.261  54.079 -21.689  1.00  0.00     0.095 A 
HETATM    7  N5  UNL     1       1.635  54.981 -22.621  1.00  0.00    -0.342 N 
ATOM      8  H5  UNL     1       2.160  55.815 -22.356  1.00  0.00     0.167 HD
HETATM    9  C23 UNL     1       1.304  54.758 -23.906  1.00  0.00     0.183 A 
HETATM   10  N6  UNL     1       0.636  53.711 -24.416  1.00  0.00    -0.337 N 
ATOM     11  H6  UNL     1       0.427  53.591 -25.407  1.00  0.00     0.168 HD
HETATM   12  C24 UNL     1       0.278  52.841 -23.455  1.00  0.00     0.139 A 
ENDROOT
BRANCH   4  13
HETATM   13  C9  UNL     1      -0.099  51.394 -20.114  1.00  0.00    -0.007 A 
HETATM   14  C10 UNL     1      -0.488  50.100 -19.744  1.00  0.00     0.016 A 
HETATM   15  C11 UNL     1      -0.548  49.741 -18.394  1.00  0.00     0.038 A 
HETATM   16  C12 UNL     1      -0.195  50.664 -17.411  1.00  0.00     0.076 A 
HETATM   17  C19 UNL     1       0.189  51.957 -17.768  1.00  0.00     0.038 A 
HETATM   18  C20 UNL     1       0.250  52.316 -19.118  1.00  0.00     0.016 A 
BRANCH  16  19
HETATM   19  O2  UNL     1      -0.318  50.257 -16.102  1.00  0.00    -0.311 OA
BRANCH  19  20
HETATM   20  C13 UNL     1       0.838  50.115 -15.368  1.00  0.00     0.076 A 
HETATM   21  C14 UNL     1       1.158  48.944 -14.677  1.00  0.00     0.037 A 
HETATM   22  C15 UNL     1       2.330  48.885 -13.920  1.00  0.00     0.003 A 
HETATM   23  C16 UNL     1       3.168  49.998 -13.843  1.00  0.00     0.000 A 
HETATM   24  C17 UNL     1       2.835  51.173 -14.516  1.00  0.00     0.003 A 
HETATM   25  C18 UNL     1       1.664  51.234 -15.273  1.00  0.00     0.037 A 
ENDBRANCH  19  20
ENDBRANCH  16  19
ENDBRANCH   4  13
BRANCH   1  26
HETATM   26  C7  UNL     1      -0.889  51.086 -24.861  1.00  0.00     0.128 C 
HETATM   27  C6  UNL     1      -0.273  51.777 -26.094  1.00  0.00     0.030 C 
HETATM   28  C5  UNL     1      -0.816  51.187 -27.400  1.00  0.00     0.022 C 
HETATM   29  C4  UNL     1      -2.347  51.173 -27.414  1.00  0.00     0.126 C 
HETATM   30  N1  UNL     1      -2.846  50.467 -26.232  1.00  0.00    -0.347 N 
HETATM   31  C3  UNL     1      -3.212  49.128 -26.215  1.00  0.00     0.242 C 
HETATM   32  C25 UNL     1      -2.422  51.070 -24.962  1.00  0.00     0.153 C 
HETATM   33  O1  UNL     1      -3.191  48.442 -25.197  1.00  0.00    -0.268 OA
BRANCH  31  34
HETATM   34  C2  UNL     1      -3.667  48.540 -27.502  1.00  0.00     0.064 C 
HETATM   35  C1  UNL     1      -4.933  48.128 -27.646  1.00  0.00     0.017 C 
ENDBRANCH  31  34
ENDBRANCH   1  26
BRANCH   6  36
HETATM   36  N4  UNL     1       1.659  54.340 -20.385  1.00  0.00    -0.288 NA
HETATM   37  H20 UNL     1       1.841  53.520 -19.821  1.00  0.00     0.125 HD
HETATM   38  H21 UNL     1       2.382  55.049 -20.373  1.00  0.00     0.125 HD
ENDBRANCH   6  36
TORSDOF 6
ENDMDL
MODEL 3
REMARK minimizedAffinity -9.86346531
REMARK  6 active torsions:
REMARK  status: ('A' for Active; 'I' for Inactive)
REMARK    1  A    between atoms: C2_2  and  C3_3 
REMARK       I    between atoms: C3_3  and  N1_5 
REMARK    2  A    between atoms: C7_9  and  N2_10 
REMARK    3  A    between atoms: C8_13  and  C9_14 
REMARK    4  A    between atoms: C12_17  and  O2_18 
REMARK    5  A    between atoms: O2_18  and  C13_19 
REMARK    6  A    between atoms: C22_28  and  N4_29 
ROOT
HETATM    1  N2  UNL     1      -0.347  51.674 -23.570  1.00  0.00    -0.269 N 
HETATM    2  N3  UNL     1      -0.542  51.010 -22.412  1.00  0.00    -0.295 N 
ATOM      3  H3  UNL     1      -0.982  50.099 -22.281  1.00  0.00     0.187 HD
HETATM    4  C8  UNL     1      -0.026  51.819 -21.470  1.00  0.00     0.075 A 
HETATM    5  C21 UNL     1       0.580  52.971 -22.052  1.00  0.00     0.076 A 
HETATM    6  C22 UNL     1       1.304  54.099 -21.645  1.00  0.00     0.095 A 
HETATM    7  N5  UNL     1       1.707  54.983 -22.582  1.00  0.00    -0.342 N 
ATOM      8  H5  UNL     1       2.233  55.816 -22.318  1.00  0.00     0.167 HD
HETATM    9  C23 UNL     1       1.399  54.744 -23.870  1.00  0.00     0.183 A 
HETATM   10  N6  UNL     1       0.732  53.696 -24.378  1.00  0.00    -0.337 N 
ATOM     11  H6  UNL     1       0.543  53.562 -25.371  1.00  0.00     0.168 HD
HETATM   12  C24 UNL     1       0.347  52.844 -23.412  1.00  0.00     0.139 A 
ENDROOT
BRANCH   4  13
HETATM   13  C9  UNL     1      -0.113  51.451 -20.059  1.00  0.00    -0.007 A 
HETATM   14  C10 UNL     1       0.001  52.423 -19.056  1.00  0.00     0.016 A 
HETATM   15  C11 UNL     1      -0.072  52.059 -17.708  1.00  0.00     0.038 A 
HETATM   16  C12 UNL     1      -0.284  50.726 -17.357  1.00  0.00     0.076 A 
HETATM   17  C19 UNL     1      -0.395  49.749 -18.347  1.00  0.00     0.038 A 
HETATM   18  C20 UNL     1      -0.323  50.114 -19.695  1.00  0.00     0.016 A 
BRANCH  16  19
HETATM   19  O2  UNL     1      -0.303  50.432 -16.014  1.00  0.00    -0.311 OA
BRANCH  19  20
HETATM   20  C13 UNL     1       0.900  50.439 -15.343  1.00  0.00     0.076 A 
HETATM   21  C14 UNL     1       1.798  51.507 -15.408  1.00  0.00     0.037 A 
HETATM   22  C15 UNL     1       3.017  51.428 -14.732  1.00  0.00     0.003 A 
HETATM   23  C16 UNL     1       3.343  50.280 -14.010  1.00  0.00     0.000 A 
HETATM   24  C17 UNL     1       2.454  49.205 -13.966  1.00  0.00     0.003 A 
HETATM   25  C18 UNL     1       1.235  49.282 -14.640  1.00  0.00     0.037 A 
ENDBRANCH  19  20
ENDBRANCH  16  19
ENDBRANCH   4  13
BRANCH   1  26
HETATM   26  C7  UNL     1      -0.808  51.079 -24.816  1.00  0.00     0.128 C 
HETATM   27  C6  UNL     1      -0.160  51.745 -26.045  1.00  0.00     0.030 C 
HETATM   28  C5  UNL     1      -0.681  51.139 -27.353  1.00  0.00     0.022 C 
HETATM   29  C4  UNL     1      -2.212  51.140 -27.400  1.00  0.00     0.126 C 
HETATM   30  N1  UNL     1      -2.743  50.458 -26.218  1.00  0.00    -0.347 N 
HETATM   31  C3  UNL     1      -3.122  49.123 -26.189  1.00  0.00     0.242 C 
HETATM   32  C25 UNL     1      -2.339  51.076 -24.949  1.00  0.00     0.153 C 
HETATM   33  O1  UNL     1      -3.129  48.452 -25.160  1.00  0.00    -0.268 OA
BRANCH  31  34
HETATM   34  C2  UNL     1      -3.556  48.520 -27.476  1.00  0.00     0.064 C 
HETATM   35  C1  UNL     1      -4.841  48.198 -27.672  1.00  0.00     0.017 C 
ENDBRANCH  31  34
ENDBRANCH   1  26
BRANCH   6  36
HETATM   36  N4  UNL     1       1.677  54.376 -20.337  1.00  0.00    -0.288 NA
HETATM   37  H20 UNL     1       1.840  53.562 -19.757  1.00  0.00     0.125 HD
HETATM   38  H21 UNL     1       2.407  55.078 -20.320  1.00  0.00     0.125 HD
ENDBRANCH   6  36
TORSDOF 6
ENDMDL
MODEL 4
REMARK minimizedAffinity -9.86261177
REMARK  6 active torsions:
REMARK  status: ('A' for Active; 'I' for Inactive)
REMARK    1  A    between atoms: C2_2  and  C3_3 
REMARK       I    between atoms: C3_3  and  N1_5 
REMARK    2  A    between atoms: C7_9  and  N2_10 
REMARK    3  A    between atoms: C8_13  and  C9_14 
REMARK    4  A    between atoms: C12_17  and  O2_18 
REMARK    5  A    between atoms: O2_18  and  C13_19 
REMARK    6  A    between atoms: C22_28  and  N4_29 
ROOT
HETATM    1  N2  UNL     1      -0.570  51.223 -22.511  1.00  0.00    -0.269 N 
HETATM    2  N3  UNL     1      -1.395  50.464 -23.263  1.00  0.00    -0.295 N 
ATOM      3  H3  UNL     1      -1.926  49.643 -22.973  1.00  0.00     0.187 HD
HETATM    4  C8  UNL     1      -1.358  51.034 -24.481  1.00  0.00     0.075 A 
HETATM    5  C21 UNL     1      -0.566  52.221 -24.473  1.00  0.00     0.076 A 
HETATM    6  C22 UNL     1      -0.202  53.248 -25.352  1.00  0.00     0.095 A 
HETATM    7  N5  UNL     1       0.610  54.228 -24.902  1.00  0.00    -0.342 N 
ATOM      8  H5  UNL     1       0.897  54.989 -25.518  1.00  0.00     0.167 HD
HETATM    9  C23 UNL     1       1.033  54.180 -23.625  1.00  0.00     0.183 A 
HETATM   10  N6  UNL     1       0.736  53.263 -22.692  1.00  0.00    -0.337 N 
ATOM     11  H6  UNL     1       1.078  53.290 -21.731  1.00  0.00     0.168 HD
HETATM   12  C24 UNL     1      -0.069  52.305 -23.183  1.00  0.00     0.139 A 
ENDROOT
BRANCH   4  13
HETATM   13  C9  UNL     1      -2.096  50.439 -25.592  1.00  0.00    -0.007 A 
HETATM   14  C10 UNL     1      -2.634  51.241 -26.607  1.00  0.00     0.016 A 
HETATM   15  C11 UNL     1      -3.348  50.662 -27.661  1.00  0.00     0.038 A 
HETATM   16  C12 UNL     1      -3.506  49.279 -27.718  1.00  0.00     0.076 A 
HETATM   17  C19 UNL     1      -2.979  48.470 -26.709  1.00  0.00     0.038 A 
HETATM   18  C20 UNL     1      -2.264  49.049 -25.657  1.00  0.00     0.016 A 
BRANCH  16  19
HETATM   19  O2  UNL     1      -4.256  48.780 -28.758  1.00  0.00    -0.311 OA
BRANCH  19  20
HETATM   20  C13 UNL     1      -5.365  48.028 -28.440  1.00  0.00     0.076 A 
HETATM   21  C14 UNL     1      -5.958  48.048 -27.176  1.00  0.00     0.037 A 
HETATM   22  C15 UNL     1      -7.059  47.229 -26.915  1.00  0.00     0.003 A 
HETATM   23  C16 UNL     1      -7.551  46.383 -27.908  1.00  0.00     0.000 A 
HETATM   24  C17 UNL     1      -6.942  46.348 -29.163  1.00  0.00     0.003 A 
HETATM   25  C18 UNL     1      -5.843  47.166 -29.427  1.00  0.00     0.037 A 
ENDBRANCH  19  20
ENDBRANCH  16  19
ENDBRANCH   4  13
BRANCH   1  26
HETATM   26  C7  UNL     1      -0.361  50.871 -21.114  1.00  0.00     0.128 C 
HETATM   27  C6  UNL     1      -0.944  49.485 -20.778  1.00  0.00     0.030 C 
HETATM   28  C5  UNL     1      -0.755  49.139 -19.297  1.00  0.00     0.022 C 
HETATM   29  C4  UNL     1      -1.283  50.255 -18.390  1.00  0.00     0.126 C 
HETATM   30  N1  UNL     1      -0.653  51.526 -18.751  1.00  0.00    -0.347 N 
HETATM   31  C3  UNL     1       0.462  52.056 -18.117  1.00  0.00     0.242 C 
HETATM   32  C25 UNL     1      -0.899  51.932 -20.141  1.00  0.00     0.153 C 
HETATM   33  O1  UNL     1       1.237  52.835 -18.666  1.00  0.00    -0.268 OA
BRANCH  31  34
HETATM   34  C2  UNL     1       0.681  51.658 -16.702  1.00  0.00     0.064 C 
HETATM   35  C1  UNL     1       1.869  51.864 -16.118  1.00  0.00     0.017 C 
ENDBRANCH  31  34
ENDBRANCH   1  26
BRANCH   6  36
HETATM   36  N4  UNL     1      -0.636  53.364 -26.666  1.00  0.00    -0.288 NA
HETATM   37  H20 UNL     1      -1.559  52.990 -26.846  1.00  0.00     0.125 HD
HETATM   38  H21 UNL     1      -0.470  54.302 -27.010  1.00  0.00     0.125 HD
ENDBRANCH   6  36
TORSDOF 6
ENDMDL
MODEL 5
REMARK minimizedAffinity -9.79604912
REMARK  6 active torsions:
REMARK  status: ('A' for Active; 'I' for Inactive)
REMARK    1  A    between atoms: C2_2  and  C3_3 
REMARK       I    between atoms: C3_3  and  N1_5 
REMARK    2  A    between atoms: C7_9  and  N2_10 
REMARK    3  A    between atoms: C8_13  and  C9_14 
REMARK    4  A    between atoms: C12_17  and  O2_18 
REMARK    5  A    between atoms: O2_18  and  C13_19 
REMARK    6  A    between atoms: C22_28  and  N4_29 
ROOT
HETATM    1  N2  UNL     1      -2.092  51.566 -24.569  1.00  0.00    -0.269 N 
HETATM    2  N3  UNL     1      -1.769  51.404 -23.269  1.00  0.00    -0.295 N 
ATOM      3  H3  UNL     1      -2.156  50.730 -22.608  1.00  0.00     0.187 HD
HETATM    4  C8  UNL     1      -0.820  52.330 -23.041  1.00  0.00     0.075 A 
HETATM    5  C21 UNL     1      -0.480  53.028 -24.238  1.00  0.00     0.076 A 
HETATM    6  C22 UNL     1       0.424  54.010 -24.662  1.00  0.00     0.095 A 
HETATM    7  N5  UNL     1       0.401  54.395 -25.955  1.00  0.00    -0.342 N 
ATOM      8  H5  UNL     1       1.043  55.110 -26.297  1.00  0.00     0.167 HD
HETATM    9  C23 UNL     1      -0.487  53.818 -26.786  1.00  0.00     0.183 A 
HETATM   10  N6  UNL     1      -1.382  52.860 -26.499  1.00  0.00    -0.337 N 
ATOM     11  H6  UNL     1      -2.022  52.449 -27.180  1.00  0.00     0.168 HD
HETATM   12  C24 UNL     1      -1.329  52.509 -25.202  1.00  0.00     0.139 A 
ENDROOT
BRANCH   4  13
HETATM   13  C9  UNL     1      -0.263  52.496 -21.701  1.00  0.00    -0.007 A 
HETATM   14  C10 UNL     1       1.106  52.728 -21.517  1.00  0.00     0.016 A 
HETATM   15  C11 UNL     1       1.631  52.873 -20.230  1.00  0.00     0.038 A 
HETATM   16  C12 UNL     1       0.787  52.812 -19.122  1.00  0.00     0.076 A 
HETATM   17  C19 UNL     1      -0.578  52.576 -19.293  1.00  0.00     0.038 A 
HETATM   18  C20 UNL     1      -1.103  52.432 -20.580  1.00  0.00     0.016 A 
BRANCH  16  19
HETATM   19  O2  UNL     1       1.375  52.920 -17.884  1.00  0.00    -0.311 OA
BRANCH  19  20
HETATM   20  C13 UNL     1       1.231  51.862 -17.015  1.00  0.00     0.076 A 
HETATM   21  C14 UNL     1       0.464  50.734 -17.314  1.00  0.00     0.037 A 
HETATM   22  C15 UNL     1       0.331  49.716 -16.368  1.00  0.00     0.003 A 
HETATM   23  C16 UNL     1       0.948  49.835 -15.122  1.00  0.00     0.000 A 
HETATM   24  C17 UNL     1       1.695  50.973 -14.818  1.00  0.00     0.003 A 
HETATM   25  C18 UNL     1       1.830  51.991 -15.761  1.00  0.00     0.037 A 
ENDBRANCH  19  20
ENDBRANCH  16  19
ENDBRANCH   4  13
BRANCH   1  26
HETATM   26  C7  UNL     1      -3.120  50.718 -25.155  1.00  0.00     0.128 C 
HETATM   27  C6  UNL     1      -4.098  50.183 -24.090  1.00  0.00     0.030 C 
HETATM   28  C5  UNL     1      -5.152  49.259 -24.709  1.00  0.00     0.022 C 
HETATM   29  C4  UNL     1      -4.505  48.153 -25.547  1.00  0.00     0.126 C 
HETATM   30  N1  UNL     1      -3.624  48.747 -26.554  1.00  0.00    -0.347 N 
HETATM   31  C3  UNL     1      -3.995  49.003 -27.867  1.00  0.00     0.242 C 
HETATM   32  C25 UNL     1      -2.542  49.561 -25.985  1.00  0.00     0.153 C 
HETATM   33  O1  UNL     1      -3.464  49.870 -28.556  1.00  0.00    -0.268 OA
BRANCH  31  34
HETATM   34  C2  UNL     1      -5.072  48.152 -28.438  1.00  0.00     0.064 C 
HETATM   35  C1  UNL     1      -5.357  48.210 -29.746  1.00  0.00     0.017 C 
ENDBRANCH  31  34
ENDBRANCH   1  26
BRANCH   6  36
HETATM   36  N4  UNL     1       1.381  54.612 -23.858  1.00  0.00    -0.288 NA
HETATM   37  H20 UNL     1       1.741  54.030 -23.112  1.00  0.00     0.125 HD
HETATM   38  H21 UNL     1       2.080  55.074 -24.428  1.00  0.00     0.125 HD
ENDBRANCH   6  36
TORSDOF 6
ENDMDL
MODEL 6
REMARK minimizedAffinity -9.60686588
REMARK  6 active torsions:
REMARK  status: ('A' for Active; 'I' for Inactive)
REMARK    1  A    between atoms: C2_2  and  C3_3 
REMARK       I    between atoms: C3_3  and  N1_5 
REMARK    2  A    between atoms: C7_9  and  N2_10 
REMARK    3  A    between atoms: C8_13  and  C9_14 
REMARK    4  A    between atoms: C12_17  and  O2_18 
REMARK    5  A    between atoms: O2_18  and  C13_19 
REMARK    6  A    between atoms: C22_28  and  N4_29 
ROOT
HETATM    1  N2  UNL     1      -1.466  50.501 -23.605  1.00  0.00    -0.269 N 
HETATM    2  N3  UNL     1      -2.527  49.722 -23.906  1.00  0.00    -0.295 N 
ATOM      3  H3  UNL     1      -3.072  49.137 -23.272  1.00  0.00     0.187 HD
HETATM    4  C8  UNL     1      -2.702  49.890 -25.229  1.00  0.00     0.075 A 
HETATM    5  C21 UNL     1      -1.792  50.855 -25.753  1.00  0.00     0.076 A 
HETATM    6  C22 UNL     1      -1.518  51.490 -26.971  1.00  0.00     0.095 A 
HETATM    7  N5  UNL     1      -0.512  52.389 -27.021  1.00  0.00    -0.342 N 
ATOM      8  H5  UNL     1      -0.284  52.867 -27.893  1.00  0.00     0.167 HD
HETATM    9  C23 UNL     1       0.183  52.643 -25.897  1.00  0.00     0.183 A 
HETATM   10  N6  UNL     1       0.000  52.115 -24.676  1.00  0.00    -0.337 N 
ATOM     11  H6  UNL     1       0.554  52.360 -23.855  1.00  0.00     0.168 HD
HETATM   12  C24 UNL     1      -1.006  51.223 -24.673  1.00  0.00     0.139 A 
ENDROOT
BRANCH   4  13
HETATM   13  C9  UNL     1      -3.740  49.141 -25.932  1.00  0.00    -0.007 A 
HETATM   14  C10 UNL     1      -3.593  48.810 -27.286  1.00  0.00     0.016 A 
HETATM   15  C11 UNL     1      -4.598  48.103 -27.953  1.00  0.00     0.038 A 
HETATM   16  C12 UNL     1      -5.743  47.704 -27.265  1.00  0.00     0.076 A 
HETATM   17  C19 UNL     1      -5.903  48.033 -25.918  1.00  0.00     0.038 A 
HETATM   18  C20 UNL     1      -4.897  48.739 -25.251  1.00  0.00     0.016 A 
BRANCH  16  19
HETATM   19  O2  UNL     1      -6.710  47.050 -27.992  1.00  0.00    -0.311 OA
BRANCH  19  20
HETATM   20  C13 UNL     1      -7.223  47.695 -29.095  1.00  0.00     0.076 A 
HETATM   21  C14 UNL     1      -8.321  48.556 -29.027  1.00  0.00     0.037 A 
HETATM   22  C15 UNL     1      -8.812  49.146 -30.193  1.00  0.00     0.003 A 
HETATM   23  C16 UNL     1      -8.218  48.863 -31.423  1.00  0.00     0.000 A 
HETATM   24  C17 UNL     1      -7.136  47.984 -31.491  1.00  0.00     0.003 A 
HETATM   25  C18 UNL     1      -6.643  47.394 -30.327  1.00  0.00     0.037 A 
ENDBRANCH  19  20
ENDBRANCH  16  19
ENDBRANCH   4  13
BRANCH   1  26
HETATM   26  C7  UNL     1      -0.986  50.545 -22.232  1.00  0.00     0.128 C 
HETATM   27  C6  UNL     1      -1.252  49.222 -21.488  1.00  0.00     0.030 C 
HETATM   28  C5  UNL     1      -0.781  49.290 -20.031  1.00  0.00     0.022 C 
HETATM   29  C4  UNL     1      -1.356  50.515 -19.314  1.00  0.00     0.126 C 
HETATM   30  N1  UNL     1      -1.027  51.728 -20.065  1.00  0.00    -0.347 N 
HETATM   31  C3  UNL     1       0.058  52.549 -19.791  1.00  0.00     0.242 C 
HETATM   32  C25 UNL     1      -1.551  51.732 -21.436  1.00  0.00     0.153 C 
HETATM   33  O1  UNL     1       0.587  53.264 -20.638  1.00  0.00    -0.268 OA
BRANCH  31  34
HETATM   34  C2  UNL     1       0.558  52.555 -18.391  1.00  0.00     0.064 C 
HETATM   35  C1  UNL     1       0.479  51.448 -17.641  1.00  0.00     0.017 C 
ENDBRANCH  31  34
ENDBRANCH   1  26
BRANCH   6  36
HETATM   36  N4  UNL     1      -2.224  51.292 -28.149  1.00  0.00    -0.288 NA
HETATM   37  H20 UNL     1      -3.202  51.060 -28.028  1.00  0.00     0.125 HD
HETATM   38  H21 UNL     1      -2.030  52.038 -28.807  1.00  0.00     0.125 HD
ENDBRANCH   6  36
TORSDOF 6
ENDMDL
MODEL 7
REMARK minimizedAffinity -9.50472641
REMARK  6 active torsions:
REMARK  status: ('A' for Active; 'I' for Inactive)
REMARK    1  A    between atoms: C2_2  and  C3_3 
REMARK       I    between atoms: C3_3  and  N1_5 
REMARK    2  A    between atoms: C7_9  and  N2_10 
REMARK    3  A    between atoms: C8_13  and  C9_14 
REMARK    4  A    between atoms: C12_17  and  O2_18 
REMARK    5  A    between atoms: O2_18  and  C13_19 
REMARK    6  A    between atoms: C22_28  and  N4_29 
ROOT
HETATM    1  N2  UNL     1      -1.938  50.311 -24.259  1.00  0.00    -0.269 N 
HETATM    2  N3  UNL     1      -3.067  49.570 -24.267  1.00  0.00    -0.295 N 
ATOM      3  H3  UNL     1      -3.526  49.124 -23.473  1.00  0.00     0.187 HD
HETATM    4  C8  UNL     1      -3.449  49.554 -25.556  1.00  0.00     0.075 A 
HETATM    5  C21 UNL     1      -2.596  50.368 -26.359  1.00  0.00     0.076 A 
HETATM    6  C22 UNL     1      -2.497  50.796 -27.689  1.00  0.00     0.095 A 
HETATM    7  N5  UNL     1      -1.474  51.607 -28.033  1.00  0.00    -0.342 N 
ATOM      8  H5  UNL     1      -1.372  51.935 -28.994  1.00  0.00     0.167 HD
HETATM    9  C23 UNL     1      -0.593  51.975 -27.084  1.00  0.00     0.183 A 
HETATM   10  N6  UNL     1      -0.598  51.646 -25.783  1.00  0.00    -0.337 N 
ATOM     11  H6  UNL     1       0.093  51.970 -25.106  1.00  0.00     0.168 HD
HETATM   12  C24 UNL     1      -1.628  50.835 -25.485  1.00  0.00     0.139 A 
ENDROOT
BRANCH   4  13
HETATM   13  C9  UNL     1      -4.621  48.784 -25.965  1.00  0.00    -0.007 A 
HETATM   14  C10 UNL     1      -5.639  48.487 -25.049  1.00  0.00     0.016 A 
HETATM   15  C11 UNL     1      -6.751  47.739 -25.447  1.00  0.00     0.038 A 
HETATM   16  C12 UNL     1      -6.862  47.305 -26.767  1.00  0.00     0.076 A 
HETATM   17  C19 UNL     1      -5.852  47.590 -27.686  1.00  0.00     0.038 A 
HETATM   18  C20 UNL     1      -4.740  48.339 -27.289  1.00  0.00     0.016 A 
BRANCH  16  19
HETATM   19  O2  UNL     1      -7.960  46.538 -27.079  1.00  0.00    -0.311 OA
BRANCH  19  20
HETATM   20  C13 UNL     1      -7.984  45.934 -28.316  1.00  0.00     0.076 A 
HETATM   21  C14 UNL     1      -7.412  44.684 -28.561  1.00  0.00     0.037 A 
HETATM   22  C15 UNL     1      -7.440  44.149 -29.851  1.00  0.00     0.003 A 
HETATM   23  C16 UNL     1      -8.023  44.871 -30.893  1.00  0.00     0.000 A 
HETATM   24  C17 UNL     1      -8.574  46.129 -30.650  1.00  0.00     0.003 A 
HETATM   25  C18 UNL     1      -8.547  46.665 -29.362  1.00  0.00     0.037 A 
ENDBRANCH  19  20
ENDBRANCH  16  19
ENDBRANCH   4  13
BRANCH   1  26
HETATM   26  C7  UNL     1      -1.238  50.523 -23.001  1.00  0.00     0.128 C 
HETATM   27  C6  UNL     1      -1.430  49.340 -22.031  1.00  0.00     0.030 C 
HETATM   28  C5  UNL     1      -0.724  49.589 -20.693  1.00  0.00     0.022 C 
HETATM   29  C4  UNL     1      -1.126  50.939 -20.091  1.00  0.00     0.126 C 
HETATM   30  N1  UNL     1      -0.877  52.007 -21.061  1.00  0.00    -0.347 N 
HETATM   31  C3  UNL     1       0.269  52.789 -21.089  1.00  0.00     0.242 C 
HETATM   32  C25 UNL     1      -1.618  51.846 -22.318  1.00  0.00     0.153 C 
HETATM   33  O1  UNL     1       0.680  53.338 -22.108  1.00  0.00    -0.268 OA
BRANCH  31  34
HETATM   34  C2  UNL     1       0.992  52.966 -19.802  1.00  0.00     0.064 C 
HETATM   35  C1  UNL     1       0.319  52.970 -18.644  1.00  0.00     0.017 C 
ENDBRANCH  31  34
ENDBRANCH   1  26
BRANCH   6  36
HETATM   36  N4  UNL     1      -3.395  50.476 -28.698  1.00  0.00    -0.288 NA
HETATM   37  H20 UNL     1      -4.349  50.333 -28.392  1.00  0.00     0.125 HD
HETATM   38  H21 UNL     1      -3.278  51.103 -29.485  1.00  0.00     0.125 HD
ENDBRANCH   6  36
TORSDOF 6
ENDMDL
MODEL 8
REMARK minimizedAffinity -9.14035892
REMARK  6 active torsions:
REMARK  status: ('A' for Active; 'I' for Inactive)
REMARK    1  A    between atoms: C2_2  and  C3_3 
REMARK       I    between atoms: C3_3  and  N1_5 
REMARK    2  A    between atoms: C7_9  and  N2_10 
REMARK    3  A    between atoms: C8_13  and  C9_14 
REMARK    4  A    between atoms: C12_17  and  O2_18 
REMARK    5  A    between atoms: O2_18  and  C13_19 
REMARK    6  A    between atoms: C22_28  and  N4_29 
ROOT
HETATM    1  N2  UNL     1      -3.359  49.047 -23.291  1.00  0.00    -0.269 N 
HETATM    2  N3  UNL     1      -3.380  48.915 -24.635  1.00  0.00    -0.295 N 
ATOM      3  H3  UNL     1      -2.628  49.115 -25.294  1.00  0.00     0.187 HD
HETATM    4  C8  UNL     1      -4.617  48.461 -24.907  1.00  0.00     0.075 A 
HETATM    5  C21 UNL     1      -5.356  48.222 -23.711  1.00  0.00     0.076 A 
HETATM    6  C22 UNL     1      -6.605  47.717 -23.330  1.00  0.00     0.095 A 
HETATM    7  N5  UNL     1      -6.909  47.666 -22.016  1.00  0.00    -0.342 N 
ATOM      8  H5  UNL     1      -7.812  47.307 -21.704  1.00  0.00     0.167 HD
HETATM    9  C23 UNL     1      -5.998  48.098 -21.125  1.00  0.00     0.183 A 
HETATM   10  N6  UNL     1      -4.769  48.580 -21.369  1.00  0.00    -0.337 N 
ATOM     11  H6  UNL     1      -4.115  48.879 -20.646  1.00  0.00     0.168 HD
HETATM   12  C24 UNL     1      -4.510  48.618 -22.688  1.00  0.00     0.139 A 
ENDROOT
BRANCH   4  13
HETATM   13  C9  UNL     1      -5.034  48.255 -26.292  1.00  0.00    -0.007 A 
HETATM   14  C10 UNL     1      -4.184  48.593 -27.354  1.00  0.00     0.016 A 
HETATM   15  C11 UNL     1      -4.597  48.402 -28.676  1.00  0.00     0.038 A 
HETATM   16  C12 UNL     1      -5.849  47.850 -28.942  1.00  0.00     0.076 A 
HETATM   17  C19 UNL     1      -6.706  47.515 -27.892  1.00  0.00     0.038 A 
HETATM   18  C20 UNL     1      -6.292  47.704 -26.571  1.00  0.00     0.016 A 
BRANCH  16  19
HETATM   19  O2  UNL     1      -6.209  47.730 -30.265  1.00  0.00    -0.311 OA
BRANCH  19  20
HETATM   20  C13 UNL     1      -5.913  46.545 -30.900  1.00  0.00     0.076 A 
HETATM   21  C14 UNL     1      -6.651  45.375 -30.706  1.00  0.00     0.037 A 
HETATM   22  C15 UNL     1      -6.269  44.199 -31.355  1.00  0.00     0.003 A 
HETATM   23  C16 UNL     1      -5.144  44.190 -32.180  1.00  0.00     0.000 A 
HETATM   24  C17 UNL     1      -4.396  45.355 -32.354  1.00  0.00     0.003 A 
HETATM   25  C18 UNL     1      -4.776  46.531 -31.708  1.00  0.00     0.037 A 
ENDBRANCH  19  20
ENDBRANCH  16  19
ENDBRANCH   4  13
BRANCH   1  26
HETATM   26  C7  UNL     1      -2.151  49.541 -22.647  1.00  0.00     0.128 C 
HETATM   27  C6  UNL     1      -1.648  48.578 -21.554  1.00  0.00     0.030 C 
HETATM   28  C5  UNL     1      -0.400  49.124 -20.853  1.00  0.00     0.022 C 
HETATM   29  C4  UNL     1      -0.622  50.553 -20.348  1.00  0.00     0.126 C 
HETATM   30  N1  UNL     1      -1.059  51.406 -21.454  1.00  0.00    -0.347 N 
HETATM   31  C3  UNL     1      -0.213  52.209 -22.207  1.00  0.00     0.242 C 
HETATM   32  C25 UNL     1      -2.309  50.961 -22.083  1.00  0.00     0.153 C 
HETATM   33  O1  UNL     1      -0.466  52.551 -23.359  1.00  0.00    -0.268 OA
BRANCH  31  34
HETATM   34  C2  UNL     1       1.034  52.675 -21.546  1.00  0.00     0.064 C 
HETATM   35  C1  UNL     1       1.112  53.917 -21.051  1.00  0.00     0.017 C 
ENDBRANCH  31  34
ENDBRANCH   1  26
BRANCH   6  36
HETATM   36  N4  UNL     1      -7.567  47.227 -24.203  1.00  0.00    -0.288 NA
HETATM   37  H20 UNL     1      -7.202  46.803 -25.046  1.00  0.00     0.125 HD
HETATM   38  H21 UNL     1      -8.254  46.679 -23.699  1.00  0.00     0.125 HD
ENDBRANCH   6  36
TORSDOF 6
ENDMDL
MODEL 9
REMARK minimizedAffinity -8.99882507
REMARK  6 active torsions:
REMARK  status: ('A' for Active; 'I' for Inactive)
REMARK    1  A    between atoms: C2_2  and  C3_3 
REMARK       I    between atoms: C3_3  and  N1_5 
REMARK    2  A    between atoms: C7_9  and  N2_10 
REMARK    3  A    between atoms: C8_13  and  C9_14 
REMARK    4  A    between atoms: C12_17  and  O2_18 
REMARK    5  A    between atoms: O2_18  and  C13_19 
REMARK    6  A    between atoms: C22_28  and  N4_29 
ROOT
HETATM    1  N2  UNL     1      -1.234  51.436 -23.358  1.00  0.00    -0.269 N 
HETATM    2  N3  UNL     1      -1.165  50.986 -22.087  1.00  0.00    -0.295 N 
ATOM      3  H3  UNL     1      -1.639  50.178 -21.684  1.00  0.00     0.187 HD
HETATM    4  C8  UNL     1      -0.330  51.843 -21.473  1.00  0.00     0.075 A 
HETATM    5  C21 UNL     1       0.202  52.796 -22.391  1.00  0.00     0.076 A 
HETATM    6  C22 UNL     1       1.120  53.854 -22.396  1.00  0.00     0.095 A 
HETATM    7  N5  UNL     1       1.332  54.522 -23.549  1.00  0.00    -0.342 N 
ATOM      8  H5  UNL     1       1.991  55.300 -23.587  1.00  0.00     0.167 HD
HETATM    9  C23 UNL     1       0.656  54.142 -24.650  1.00  0.00     0.183 A 
HETATM   10  N6  UNL     1      -0.227  53.138 -24.770  1.00  0.00    -0.337 N 
ATOM     11  H6  UNL     1      -0.697  52.888 -25.639  1.00  0.00     0.168 HD
HETATM   12  C24 UNL     1      -0.411  52.503 -23.598  1.00  0.00     0.139 A 
ENDROOT
BRANCH   4  13
HETATM   13  C9  UNL     1      -0.057  51.705 -20.044  1.00  0.00    -0.007 A 
HETATM   14  C10 UNL     1       0.442  52.783 -19.302  1.00  0.00     0.016 A 
HETATM   15  C11 UNL     1       0.711  52.637 -17.938  1.00  0.00     0.038 A 
HETATM   16  C12 UNL     1       0.459  51.421 -17.305  1.00  0.00     0.076 A 
HETATM   17  C19 UNL     1      -0.034  50.338 -18.035  1.00  0.00     0.038 A 
HETATM   18  C20 UNL     1      -0.303  50.485 -19.399  1.00  0.00     0.016 A 
BRANCH  16  19
HETATM   19  O2  UNL     1       0.786  51.334 -15.971  1.00  0.00    -0.311 OA
BRANCH  19  20
HETATM   20  C13 UNL     1       0.014  50.514 -15.178  1.00  0.00     0.076 A 
HETATM   21  C14 UNL     1       0.431  49.246 -14.767  1.00  0.00     0.037 A 
HETATM   22  C15 UNL     1      -0.422  48.454 -13.995  1.00  0.00     0.003 A 
HETATM   23  C16 UNL     1      -1.690  48.922 -13.651  1.00  0.00     0.000 A 
HETATM   24  C17 UNL     1      -2.112  50.180 -14.083  1.00  0.00     0.003 A 
HETATM   25  C18 UNL     1      -1.262  50.973 -14.853  1.00  0.00     0.037 A 
ENDBRANCH  19  20
ENDBRANCH  16  19
ENDBRANCH   4  13
BRANCH   1  26
HETATM   26  C7  UNL     1      -2.080  50.736 -24.313  1.00  0.00     0.128 C 
HETATM   27  C6  UNL     1      -2.698  49.461 -23.705  1.00  0.00     0.030 C 
HETATM   28  C5  UNL     1      -3.555  48.708 -24.728  1.00  0.00     0.022 C 
HETATM   29  C4  UNL     1      -2.781  48.448 -26.024  1.00  0.00     0.126 C 
HETATM   30  N1  UNL     1      -2.263  49.712 -26.552  1.00  0.00    -0.347 N 
HETATM   31  C3  UNL     1      -2.893  50.471 -27.527  1.00  0.00     0.242 C 
HETATM   32  C25 UNL     1      -1.358  50.409 -25.629  1.00  0.00     0.153 C 
HETATM   33  O1  UNL     1      -2.728  51.683 -27.642  1.00  0.00    -0.268 OA
BRANCH  31  34
HETATM   34  C2  UNL     1      -3.783  49.746 -28.471  1.00  0.00     0.064 C 
HETATM   35  C1  UNL     1      -4.419  48.634 -28.080  1.00  0.00     0.017 C 
ENDBRANCH  31  34
ENDBRANCH   1  26
BRANCH   6  36
HETATM   36  N4  UNL     1       1.867  54.265 -21.301  1.00  0.00    -0.288 NA
HETATM   37  H20 UNL     1       2.103  53.532 -20.644  1.00  0.00     0.125 HD
HETATM   38  H21 UNL     1       2.639  54.849 -21.600  1.00  0.00     0.125 HD
ENDBRANCH   6  36
TORSDOF 6
ENDMDL
