MODEL 1
REMARK minimizedAffinity -10.8230515
REMARK CNNscore 0.544154048
REMARK CNNaffinity 7.22310781
REMARK  12 active torsions:
REMARK  status: ('A' for Active; 'I' for Inactive)
REMARK    1  A    between atoms: C2_2  and  C3_3 
REMARK    2  A    between atoms: C4_4  and  C18_19 
REMARK    3  A    between atoms: C19_20  and  O1_21 
REMARK    4  A    between atoms: N2_22  and  C20_23 
REMARK    5  A    between atoms: C20_23  and  C21_24 
REMARK    6  A    between atoms: C21_24  and  O3_26 
REMARK    7  A    between atoms: O3_26  and  C22_27 
REMARK    8  A    between atoms: C25_30  and  C26_31 
REMARK    9  A    between atoms: C32_38  and  C33_39 
REMARK   10  A    between atoms: C39_47  and  O7_48 
REMARK   11  A    between atoms: C43_52  and  O8_53 
REMARK   12  A    between atoms: C45_55  and  O9_56 
ROOT
HETATM    1  C22 UNL     1      -8.548  48.190 -23.103  1.00  0.00     0.135 C 
HETATM    2  C23 UNL     1      -7.599  48.997 -23.985  1.00  0.00     0.034 C 
HETATM    3  C24 UNL     1      -6.555  49.806 -23.208  1.00  0.00     0.022 C 
HETATM    4  C25 UNL     1      -6.137  49.191 -21.841  1.00  0.00     0.048 C 
HETATM    5  C27 UNL     1      -4.621  49.508 -21.533  1.00  0.00     0.011 C 
HETATM    6  C28 UNL     1      -4.242  51.005 -21.606  1.00  0.00     0.007 C 
HETATM    7  C29 UNL     1      -3.558  51.546 -20.353  1.00  0.00     0.013 C 
HETATM    8  C30 UNL     1      -2.352  50.711 -19.857  1.00  0.00    -0.005 C 
HETATM    9  C31 UNL     1      -2.010  51.225 -18.439  1.00  0.00     0.019 C 
HETATM   10  C32 UNL     1      -1.124  50.847 -20.831  1.00  0.00     0.028 C 
HETATM   11  C37 UNL     1      -0.452  49.476 -20.769  1.00  0.00     0.013 C 
HETATM   12  C38 UNL     1      -1.645  48.535 -20.829  1.00  0.00     0.040 C 
HETATM   13  C39 UNL     1      -2.674  49.166 -19.867  1.00  0.00     0.070 C 
HETATM   14  C40 UNL     1      -4.149  48.834 -20.218  1.00  0.00     0.026 C 
HETATM   15  C41 UNL     1      -4.397  47.313 -20.258  1.00  0.00     0.011 C 
HETATM   16  C42 UNL     1      -5.851  46.969 -20.571  1.00  0.00     0.039 C 
HETATM   17  C43 UNL     1      -6.345  47.645 -21.864  1.00  0.00     0.074 C 
HETATM   18  C44 UNL     1      -7.791  47.212 -22.187  1.00  0.00     0.071 C 
ENDROOT
BRANCH   1  19
HETATM   19  O3  UNL     1      -9.421  47.459 -23.999  1.00  0.00    -0.315 OA
BRANCH  19  20
HETATM   20  C21 UNL     1      -8.823  46.659 -24.931  1.00  0.00     0.285 C 
HETATM   21  O2  UNL     1      -7.716  46.155 -24.823  1.00  0.00    -0.263 OA
BRANCH  20  22
HETATM   22  C20 UNL     1      -9.707  46.589 -26.178  1.00  0.00     0.352 C 
BRANCH  22  23
HETATM   23  N2  UNL     1      -9.042  46.747 -27.594  1.00  0.00    -0.021 N 
HETATM   24  C6  UNL     1     -10.145  46.895 -28.707  1.00  0.00     0.214 C 
HETATM   25  C5  UNL     1      -9.451  47.496 -29.946  1.00  0.00     0.041 C 
HETATM   26  C7  UNL     1     -10.787  45.523 -29.085  1.00  0.00     0.109 C 
HETATM   27  C4  UNL     1      -7.959  47.129 -29.916  1.00  0.00     0.004 C 
HETATM   28  C3  UNL     1      -7.333  48.098 -28.880  1.00  0.00     0.047 C 
HETATM   29  C45 UNL     1      -8.134  47.981 -27.548  1.00  0.00     0.329 C 
HETATM   30  N1  UNL     1     -11.856  45.037 -28.167  1.00  0.00    -0.279 NA
HETATM   31  C15 UNL     1      -9.759  44.353 -29.135  1.00  0.00     0.035 C 
HETATM   32  C8  UNL     1     -13.157  45.711 -28.235  1.00  0.00     0.117 C 
HETATM   33  C9  UNL     1     -11.908  43.648 -28.543  1.00  0.00     0.018 A 
HETATM   34  C10 UNL     1     -12.942  42.753 -28.333  1.00  0.00     0.024 A 
HETATM   35  C14 UNL     1     -10.715  43.215 -29.162  1.00  0.00    -0.024 A 
HETATM   36  C11 UNL     1     -12.786  41.435 -28.774  1.00  0.00     0.002 A 
HETATM   37  C12 UNL     1     -11.600  41.021 -29.404  1.00  0.00     0.001 A 
HETATM   38  C13 UNL     1     -10.546  41.914 -29.599  1.00  0.00     0.010 A 
HETATM   39  C16 UNL     1      -8.914  44.249 -27.865  1.00  0.00     0.053 C 
HETATM   40  C19 UNL     1      -8.653  44.585 -30.163  1.00  0.00     0.139 C 
HETATM   41  C17 UNL     1      -8.141  45.541 -27.947  1.00  0.00     0.203 C 
HETATM   42  C18 UNL     1      -7.766  45.663 -29.457  1.00  0.00     0.051 C 
BRANCH  28  43
HETATM   43  C2  UNL     1      -5.821  47.869 -28.701  1.00  0.00     0.005 C 
HETATM   44  C1  UNL     1      -5.386  47.957 -27.244  1.00  0.00     0.005 C 
ENDBRANCH  28  43
BRANCH  29  45
HETATM   45  O9  UNL     1      -8.862  49.161 -27.316  1.00  0.00    -0.369 OA
HETATM   46  H59 UNL     1      -8.248  49.917 -27.355  1.00  0.00     0.212 HD
ENDBRANCH  29  45
BRANCH  40  47
HETATM   47  O1  UNL     1      -9.115  45.006 -31.425  1.00  0.00    -0.394 OA
HETATM   48  H24 UNL     1      -9.553  44.247 -31.860  1.00  0.00     0.210 HD
ENDBRANCH  40  47
ENDBRANCH  22  23
ENDBRANCH  20  22
ENDBRANCH  19  20
ENDBRANCH   1  19
BRANCH  17  49
HETATM   49  O8  UNL     1      -5.538  47.132 -22.949  1.00  0.00    -0.389 OA
HETATM   50  H55 UNL     1      -5.401  46.179 -22.816  1.00  0.00     0.210 HD
ENDBRANCH  17  49
BRANCH   4  51
HETATM   51  C26 UNL     1      -6.998  49.868 -20.765  1.00  0.00     0.244 C 
HETATM   52  O4  UNL     1      -7.405  49.321 -19.744  1.00  0.00    -0.306 OA
ENDBRANCH   4  51
BRANCH  13  53
HETATM   53  O7  UNL     1      -2.386  48.586 -18.586  1.00  0.00    -0.389 OA
HETATM   54  H49 UNL     1      -3.075  48.858 -17.955  1.00  0.00     0.210 HD
ENDBRANCH  13  53
BRANCH  10  55
HETATM   55  C33 UNL     1      -0.186  52.002 -20.644  1.00  0.00    -0.045 A 
HETATM   56  C34 UNL     1       0.246  52.829 -21.597  1.00  0.00     0.087 A 
HETATM   57  C35 UNL     1       1.158  53.781 -20.967  1.00  0.00     0.283 A 
HETATM   58  O5  UNL     1       1.726  54.688 -21.547  1.00  0.00    -0.260 OA
HETATM   59  O6  UNL     1       1.263  53.489 -19.644  1.00  0.00    -0.314 OA
HETATM   60  C36 UNL     1       0.451  52.351 -19.350  1.00  0.00     0.213 A 
ENDBRANCH  10  55
TORSDOF 12
ENDMDL
MODEL 2
REMARK minimizedAffinity -9.92054749
REMARK CNNscore 0.521582663
REMARK CNNaffinity 8.53723812
REMARK  12 active torsions:
REMARK  status: ('A' for Active; 'I' for Inactive)
REMARK    1  A    between atoms: C2_2  and  C3_3 
REMARK    2  A    between atoms: C4_4  and  C18_19 
REMARK    3  A    between atoms: C19_20  and  O1_21 
REMARK    4  A    between atoms: N2_22  and  C20_23 
REMARK    5  A    between atoms: C20_23  and  C21_24 
REMARK    6  A    between atoms: C21_24  and  O3_26 
REMARK    7  A    between atoms: O3_26  and  C22_27 
REMARK    8  A    between atoms: C25_30  and  C26_31 
REMARK    9  A    between atoms: C32_38  and  C33_39 
REMARK   10  A    between atoms: C39_47  and  O7_48 
REMARK   11  A    between atoms: C43_52  and  O8_53 
REMARK   12  A    between atoms: C45_55  and  O9_56 
ROOT
HETATM    1  C22 UNL     1       1.993  50.527 -13.082  1.00  0.00     0.135 C 
HETATM    2  C23 UNL     1       1.938  49.212 -13.854  1.00  0.00     0.034 C 
HETATM    3  C24 UNL     1       0.862  49.168 -14.945  1.00  0.00     0.022 C 
HETATM    4  C25 UNL     1       0.521  50.548 -15.580  1.00  0.00     0.048 C 
HETATM    5  C27 UNL     1       0.139  50.376 -17.103  1.00  0.00     0.011 C 
HETATM    6  C28 UNL     1      -0.979  49.346 -17.380  1.00  0.00     0.007 C 
HETATM    7  C29 UNL     1      -2.150  49.888 -18.195  1.00  0.00     0.013 C 
HETATM    8  C30 UNL     1      -1.753  50.613 -19.505  1.00  0.00    -0.005 C 
HETATM    9  C31 UNL     1      -3.018  51.349 -20.005  1.00  0.00     0.019 C 
HETATM   10  C32 UNL     1      -1.213  49.598 -20.578  1.00  0.00     0.028 C 
HETATM   11  C37 UNL     1      -0.147  50.393 -21.331  1.00  0.00     0.013 C 
HETATM   12  C38 UNL     1       0.585  51.094 -20.198  1.00  0.00     0.040 C 
HETATM   13  C39 UNL     1      -0.543  51.600 -19.275  1.00  0.00     0.070 C 
HETATM   14  C40 UNL     1      -0.122  51.742 -17.787  1.00  0.00     0.026 C 
HETATM   15  C41 UNL     1       1.090  52.681 -17.626  1.00  0.00     0.011 C 
HETATM   16  C42 UNL     1       1.499  52.857 -16.165  1.00  0.00     0.039 C 
HETATM   17  C43 UNL     1       1.743  51.509 -15.462  1.00  0.00     0.074 C 
HETATM   18  C44 UNL     1       2.228  51.730 -14.013  1.00  0.00     0.071 C 
ENDROOT
BRANCH   1  19
HETATM   19  O3  UNL     1       3.087  50.406 -12.140  1.00  0.00    -0.315 OA
BRANCH  19  20
HETATM   20  C21 UNL     1       2.949  51.053 -10.945  1.00  0.00     0.285 C 
HETATM   21  O2  UNL     1       3.062  50.537  -9.845  1.00  0.00    -0.263 OA
BRANCH  20  22
HETATM   22  C20 UNL     1       2.517  52.499 -11.202  1.00  0.00     0.352 C 
BRANCH  22  23
HETATM   23  N2  UNL     1       2.341  53.471  -9.978  1.00  0.00    -0.021 N 
HETATM   24  C6  UNL     1       1.580  52.748  -8.805  1.00  0.00     0.214 C 
HETATM   25  C5  UNL     1       1.854  53.565  -7.526  1.00  0.00     0.041 C 
HETATM   26  C7  UNL     1       0.042  52.677  -9.058  1.00  0.00     0.109 C 
HETATM   27  C4  UNL     1       2.152  55.022  -7.912  1.00  0.00     0.004 C 
HETATM   28  C3  UNL     1       3.616  55.004  -8.422  1.00  0.00     0.047 C 
HETATM   29  C45 UNL     1       3.738  53.922  -9.536  1.00  0.00     0.329 C 
HETATM   30  N1  UNL     1      -0.414  51.579  -9.957  1.00  0.00    -0.279 NA
HETATM   31  C15 UNL     1      -0.539  53.971  -9.703  1.00  0.00     0.035 C 
HETATM   32  C8  UNL     1      -0.399  50.216  -9.414  1.00  0.00     0.117 C 
HETATM   33  C9  UNL     1      -1.733  52.049 -10.293  1.00  0.00     0.018 A 
HETATM   34  C10 UNL     1      -2.796  51.309 -10.778  1.00  0.00     0.024 A 
HETATM   35  C14 UNL     1      -1.867  53.443 -10.110  1.00  0.00    -0.024 A 
HETATM   36  C11 UNL     1      -4.000  51.967 -11.048  1.00  0.00     0.002 A 
HETATM   37  C12 UNL     1      -4.127  53.352 -10.846  1.00  0.00     0.001 A 
HETATM   38  C13 UNL     1      -3.051  54.106 -10.377  1.00  0.00     0.010 A 
HETATM   39  C16 UNL     1       0.219  54.400 -10.960  1.00  0.00     0.053 C 
HETATM   40  C19 UNL     1      -0.323  55.210  -8.836  1.00  0.00     0.139 C 
HETATM   41  C17 UNL     1       1.559  54.748 -10.363  1.00  0.00     0.203 C 
HETATM   42  C18 UNL     1       1.202  55.494  -9.039  1.00  0.00     0.051 C 
BRANCH  28  43
HETATM   43  C2  UNL     1       4.096  56.397  -8.874  1.00  0.00     0.005 C 
HETATM   44  C1  UNL     1       3.949  57.447  -7.780  1.00  0.00     0.005 C 
ENDBRANCH  28  43
BRANCH  29  45
HETATM   45  O9  UNL     1       4.518  52.844  -9.080  1.00  0.00    -0.369 OA
HETATM   46  H59 UNL     1       5.369  53.193  -8.758  1.00  0.00     0.212 HD
ENDBRANCH  29  45
BRANCH  40  47
HETATM   47  O1  UNL     1      -0.665  55.033  -7.481  1.00  0.00    -0.394 OA
HETATM   48  H24 UNL     1      -1.640  54.984  -7.415  1.00  0.00     0.210 HD
ENDBRANCH  40  47
ENDBRANCH  22  23
ENDBRANCH  20  22
ENDBRANCH  19  20
ENDBRANCH   1  19
BRANCH  17  49
HETATM   49  O8  UNL     1       2.846  50.866 -16.142  1.00  0.00    -0.389 OA
HETATM   50  H55 UNL     1       3.519  51.535 -16.351  1.00  0.00     0.210 HD
ENDBRANCH  17  49
BRANCH   4  51
HETATM   51  C26 UNL     1      -0.708  51.091 -14.835  1.00  0.00     0.244 C 
HETATM   52  O4  UNL     1      -1.686  50.423 -14.514  1.00  0.00    -0.306 OA
ENDBRANCH   4  51
BRANCH  13  53
HETATM   53  O7  UNL     1      -0.864  52.909 -19.767  1.00  0.00    -0.389 OA
HETATM   54  H49 UNL     1      -1.493  53.331 -19.156  1.00  0.00     0.210 HD
ENDBRANCH  13  53
BRANCH  10  55
HETATM   55  C33 UNL     1      -2.202  48.900 -21.464  1.00  0.00    -0.045 A 
HETATM   56  C34 UNL     1      -2.446  49.179 -22.745  1.00  0.00     0.087 A 
HETATM   57  C35 UNL     1      -3.498  48.271 -23.196  1.00  0.00     0.283 A 
HETATM   58  O5  UNL     1      -3.956  48.242 -24.324  1.00  0.00    -0.260 OA
HETATM   59  O6  UNL     1      -3.873  47.475 -22.160  1.00  0.00    -0.314 OA
HETATM   60  C36 UNL     1      -3.110  47.820 -21.004  1.00  0.00     0.213 A 
ENDBRANCH  10  55
TORSDOF 12
ENDMDL
MODEL 3
REMARK minimizedAffinity -9.35544872
REMARK CNNscore 0.507783532
REMARK CNNaffinity 7.27837372
REMARK  12 active torsions:
REMARK  status: ('A' for Active; 'I' for Inactive)
REMARK    1  A    between atoms: C2_2  and  C3_3 
REMARK    2  A    between atoms: C4_4  and  C18_19 
REMARK    3  A    between atoms: C19_20  and  O1_21 
REMARK    4  A    between atoms: N2_22  and  C20_23 
REMARK    5  A    between atoms: C20_23  and  C21_24 
REMARK    6  A    between atoms: C21_24  and  O3_26 
REMARK    7  A    between atoms: O3_26  and  C22_27 
REMARK    8  A    between atoms: C25_30  and  C26_31 
REMARK    9  A    between atoms: C32_38  and  C33_39 
REMARK   10  A    between atoms: C39_47  and  O7_48 
REMARK   11  A    between atoms: C43_52  and  O8_53 
REMARK   12  A    between atoms: C45_55  and  O9_56 
ROOT
HETATM    1  C22 UNL     1      -8.624  47.327 -23.200  1.00  0.00     0.135 C 
HETATM    2  C23 UNL     1      -7.544  48.194 -23.843  1.00  0.00     0.034 C 
HETATM    3  C24 UNL     1      -7.144  47.754 -25.255  1.00  0.00     0.022 C 
HETATM    4  C25 UNL     1      -8.274  47.054 -26.065  1.00  0.00     0.048 C 
HETATM    5  C27 UNL     1      -8.139  47.388 -27.603  1.00  0.00     0.011 C 
HETATM    6  C28 UNL     1      -6.751  47.088 -28.214  1.00  0.00     0.007 C 
HETATM    7  C29 UNL     1      -6.784  46.191 -29.449  1.00  0.00     0.013 C 
HETATM    8  C30 UNL     1      -7.771  46.641 -30.555  1.00  0.00    -0.005 C 
HETATM    9  C31 UNL     1      -7.890  45.461 -31.548  1.00  0.00     0.019 C 
HETATM   10  C32 UNL     1      -7.270  47.949 -31.269  1.00  0.00     0.028 C 
HETATM   11  C37 UNL     1      -8.558  48.696 -31.612  1.00  0.00     0.013 C 
HETATM   12  C38 UNL     1      -9.369  48.531 -30.337  1.00  0.00     0.040 C 
HETATM   13  C39 UNL     1      -9.170  47.051 -29.950  1.00  0.00     0.070 C 
HETATM   14  C40 UNL     1      -9.301  46.776 -28.427  1.00  0.00     0.026 C 
HETATM   15  C41 UNL     1     -10.667  47.236 -27.881  1.00  0.00     0.011 C 
HETATM   16  C42 UNL     1     -10.826  46.945 -26.391  1.00  0.00     0.039 C 
HETATM   17  C43 UNL     1      -9.669  47.527 -25.557  1.00  0.00     0.074 C 
HETATM   18  C44 UNL     1      -9.905  47.279 -24.051  1.00  0.00     0.071 C 
ENDROOT
BRANCH   1  19
HETATM   19  O3  UNL     1      -8.907  47.914 -21.906  1.00  0.00    -0.315 OA
BRANCH  19  20
HETATM   20  C21 UNL     1      -7.920  48.669 -21.340  1.00  0.00     0.285 C 
HETATM   21  O2  UNL     1      -7.396  49.646 -21.852  1.00  0.00    -0.263 OA
BRANCH  20  22
HETATM   22  C20 UNL     1      -7.493  48.032 -20.015  1.00  0.00     0.352 C 
BRANCH  22  23
HETATM   23  N2  UNL     1      -7.053  46.522 -20.002  1.00  0.00    -0.021 N 
HETATM   24  C6  UNL     1      -6.138  46.225 -18.757  1.00  0.00     0.214 C 
HETATM   25  C5  UNL     1      -6.138  44.697 -18.556  1.00  0.00     0.041 C 
HETATM   26  C7  UNL     1      -4.674  46.722 -18.972  1.00  0.00     0.109 C 
HETATM   27  C4  UNL     1      -6.422  44.012 -19.902  1.00  0.00     0.004 C 
HETATM   28  C3  UNL     1      -7.951  44.160 -20.107  1.00  0.00     0.047 C 
HETATM   29  C45 UNL     1      -8.325  45.666 -19.970  1.00  0.00     0.329 C 
HETATM   30  N1  UNL     1      -4.443  48.174 -18.728  1.00  0.00    -0.279 NA
HETATM   31  C15 UNL     1      -4.147  46.485 -20.420  1.00  0.00     0.035 C 
HETATM   32  C8  UNL     1      -4.434  48.628 -17.333  1.00  0.00     0.117 C 
HETATM   33  C9  UNL     1      -3.180  48.352 -19.397  1.00  0.00     0.018 A 
HETATM   34  C10 UNL     1      -2.260  49.368 -19.211  1.00  0.00     0.024 A 
HETATM   35  C14 UNL     1      -2.942  47.352 -20.365  1.00  0.00    -0.024 A 
HETATM   36  C11 UNL     1      -1.089  49.358 -19.975  1.00  0.00     0.002 A 
HETATM   37  C12 UNL     1      -0.855  48.347 -20.924  1.00  0.00     0.001 A 
HETATM   38  C13 UNL     1      -1.789  47.332 -21.130  1.00  0.00     0.010 A 
HETATM   39  C16 UNL     1      -5.091  47.031 -21.492  1.00  0.00     0.053 C 
HETATM   40  C19 UNL     1      -4.141  45.008 -20.809  1.00  0.00     0.139 C 
HETATM   41  C17 UNL     1      -6.285  46.133 -21.286  1.00  0.00     0.203 C 
HETATM   42  C18 UNL     1      -5.660  44.722 -21.048  1.00  0.00     0.051 C 
BRANCH  28  43
HETATM   43  C2  UNL     1      -8.428  43.534 -21.432  1.00  0.00     0.005 C 
HETATM   44  C1  UNL     1      -7.928  42.107 -21.615  1.00  0.00     0.005 C 
ENDBRANCH  28  43
BRANCH  29  45
HETATM   45  O9  UNL     1      -9.068  45.875 -18.795  1.00  0.00    -0.369 OA
HETATM   46  H59 UNL     1      -9.830  45.266 -18.799  1.00  0.00     0.212 HD
ENDBRANCH  29  45
BRANCH  40  47
HETATM   47  O1  UNL     1      -3.576  44.157 -19.839  1.00  0.00    -0.394 OA
HETATM   48  H24 UNL     1      -2.609  44.303 -19.830  1.00  0.00     0.210 HD
ENDBRANCH  40  47
ENDBRANCH  22  23
ENDBRANCH  20  22
ENDBRANCH  19  20
ENDBRANCH   1  19
BRANCH  17  49
HETATM   49  O8  UNL     1      -9.707  48.964 -25.720  1.00  0.00    -0.389 OA
HETATM   50  H55 UNL     1     -10.633  49.258 -25.702  1.00  0.00     0.210 HD
ENDBRANCH  17  49
BRANCH   4  51
HETATM   51  C26 UNL     1      -8.082  45.541 -25.883  1.00  0.00     0.244 C 
HETATM   52  O4  UNL     1      -8.990  44.733 -25.712  1.00  0.00    -0.306 OA
ENDBRANCH   4  51
BRANCH  13  53
HETATM   53  O7  UNL     1     -10.229  46.349 -30.616  1.00  0.00    -0.389 OA
HETATM   54  H49 UNL     1     -10.227  45.422 -30.321  1.00  0.00     0.210 HD
ENDBRANCH  13  53
BRANCH  10  55
HETATM   55  C33 UNL     1      -6.311  47.817 -32.415  1.00  0.00    -0.045 A 
HETATM   56  C34 UNL     1      -4.981  47.760 -32.326  1.00  0.00     0.087 A 
HETATM   57  C35 UNL     1      -4.458  47.659 -33.687  1.00  0.00     0.283 A 
HETATM   58  O5  UNL     1      -3.278  47.574 -33.974  1.00  0.00    -0.260 OA
HETATM   59  O6  UNL     1      -5.495  47.674 -34.565  1.00  0.00    -0.314 OA
HETATM   60  C36 UNL     1      -6.720  47.792 -33.841  1.00  0.00     0.213 A 
ENDBRANCH  10  55
TORSDOF 12
ENDMDL
MODEL 4
REMARK minimizedAffinity -11.6485806
REMARK CNNscore 0.486694902
REMARK CNNaffinity 7.72938108
REMARK  12 active torsions:
REMARK  status: ('A' for Active; 'I' for Inactive)
REMARK    1  A    between atoms: C2_2  and  C3_3 
REMARK    2  A    between atoms: C4_4  and  C18_19 
REMARK    3  A    between atoms: C19_20  and  O1_21 
REMARK    4  A    between atoms: N2_22  and  C20_23 
REMARK    5  A    between atoms: C20_23  and  C21_24 
REMARK    6  A    between atoms: C21_24  and  O3_26 
REMARK    7  A    between atoms: O3_26  and  C22_27 
REMARK    8  A    between atoms: C25_30  and  C26_31 
REMARK    9  A    between atoms: C32_38  and  C33_39 
REMARK   10  A    between atoms: C39_47  and  O7_48 
REMARK   11  A    between atoms: C43_52  and  O8_53 
REMARK   12  A    between atoms: C45_55  and  O9_56 
ROOT
HETATM    1  C22 UNL     1      -0.627  50.177 -17.854  1.00  0.00     0.135 C 
HETATM    2  C23 UNL     1      -0.742  48.914 -18.704  1.00  0.00     0.034 C 
HETATM    3  C24 UNL     1      -1.565  49.092 -19.984  1.00  0.00     0.022 C 
HETATM    4  C25 UNL     1      -1.536  50.528 -20.585  1.00  0.00     0.048 C 
HETATM    5  C27 UNL     1      -1.623  50.470 -22.160  1.00  0.00     0.011 C 
HETATM    6  C28 UNL     1      -2.817  49.661 -22.716  1.00  0.00     0.007 C 
HETATM    7  C29 UNL     1      -3.691  50.424 -23.708  1.00  0.00     0.013 C 
HETATM    8  C30 UNL     1      -2.920  51.106 -24.865  1.00  0.00    -0.005 C 
HETATM    9  C31 UNL     1      -3.917  52.067 -25.555  1.00  0.00     0.019 C 
HETATM   10  C32 UNL     1      -2.350  50.043 -25.875  1.00  0.00     0.028 C 
HETATM   11  C37 UNL     1      -1.036  50.660 -26.353  1.00  0.00     0.013 C 
HETATM   12  C38 UNL     1      -0.444  51.189 -25.057  1.00  0.00     0.040 C 
HETATM   13  C39 UNL     1      -1.636  51.858 -24.341  1.00  0.00     0.070 C 
HETATM   14  C40 UNL     1      -1.509  51.881 -22.794  1.00  0.00     0.026 C 
HETATM   15  C41 UNL     1      -0.216  52.587 -22.339  1.00  0.00     0.011 C 
HETATM   16  C42 UNL     1      -0.090  52.646 -20.819  1.00  0.00     0.039 C 
HETATM   17  C43 UNL     1      -0.221  51.256 -20.168  1.00  0.00     0.074 C 
HETATM   18  C44 UNL     1      -0.012  51.346 -18.642  1.00  0.00     0.071 C 
ENDROOT
BRANCH   1  19
HETATM   19  O3  UNL     1       0.216  49.837 -16.725  1.00  0.00    -0.315 OA
BRANCH  19  20
HETATM   20  C21 UNL     1       0.380  50.795 -15.765  1.00  0.00     0.285 C 
HETATM   21  O2  UNL     1       1.033  51.819 -15.893  1.00  0.00    -0.263 OA
BRANCH  20  22
HETATM   22  C20 UNL     1      -0.286  50.329 -14.469  1.00  0.00     0.352 C 
BRANCH  22  23
HETATM   23  N2  UNL     1       0.599  50.135 -13.183  1.00  0.00    -0.021 N 
HETATM   24  C6  UNL     1      -0.249  49.500 -12.020  1.00  0.00     0.214 C 
HETATM   25  C5  UNL     1       0.753  48.925 -10.999  1.00  0.00     0.041 C 
HETATM   26  C7  UNL     1      -1.163  50.552 -11.317  1.00  0.00     0.109 C 
HETATM   27  C4  UNL     1       2.076  49.699 -11.100  1.00  0.00     0.004 C 
HETATM   28  C3  UNL     1       2.772  49.131 -12.364  1.00  0.00     0.047 C 
HETATM   29  C45 UNL     1       1.781  49.234 -13.562  1.00  0.00     0.329 C 
HETATM   30  N1  UNL     1      -2.445  50.859 -12.011  1.00  0.00    -0.279 NA
HETATM   31  C15 UNL     1      -0.480  51.941 -11.135  1.00  0.00     0.035 C 
HETATM   32  C8  UNL     1      -3.501  49.843 -11.953  1.00  0.00     0.117 C 
HETATM   33  C9  UNL     1      -2.801  52.095 -11.364  1.00  0.00     0.018 A 
HETATM   34  C10 UNL     1      -4.052  52.681 -11.290  1.00  0.00     0.024 A 
HETATM   35  C14 UNL     1      -1.684  52.740 -10.790  1.00  0.00    -0.024 A 
HETATM   36  C11 UNL     1      -4.181  53.899 -10.613  1.00  0.00     0.002 A 
HETATM   37  C12 UNL     1      -3.064  54.523 -10.032  1.00  0.00     0.001 A 
HETATM   38  C13 UNL     1      -1.797  53.946 -10.121  1.00  0.00     0.010 A 
HETATM   39  C16 UNL     1       0.111  52.487 -12.435  1.00  0.00     0.053 C 
HETATM   40  C19 UNL     1       0.788  51.866 -10.286  1.00  0.00     0.139 C 
HETATM   41  C17 UNL     1       1.197  51.472 -12.687  1.00  0.00     0.203 C 
HETATM   42  C18 UNL     1       1.810  51.215 -11.275  1.00  0.00     0.051 C 
BRANCH  28  43
HETATM   43  C2  UNL     1       4.129  49.807 -12.639  1.00  0.00     0.005 C 
HETATM   44  C1  UNL     1       4.302  50.190 -14.104  1.00  0.00     0.005 C 
ENDBRANCH  28  43
BRANCH  29  45
HETATM   45  O9  UNL     1       1.358  47.951 -13.952  1.00  0.00    -0.369 OA
HETATM   46  H59 UNL     1       2.147  47.405 -14.123  1.00  0.00     0.212 HD
ENDBRANCH  29  45
BRANCH  40  47
HETATM   47  O1  UNL     1       0.643  51.129  -9.094  1.00  0.00    -0.394 OA
HETATM   48  H24 UNL     1       0.092  51.651  -8.476  1.00  0.00     0.210 HD
ENDBRANCH  40  47
ENDBRANCH  22  23
ENDBRANCH  20  22
ENDBRANCH  19  20
ENDBRANCH   1  19
BRANCH  17  49
HETATM   49  O8  UNL     1       0.874  50.450 -20.660  1.00  0.00    -0.389 OA
HETATM   50  H55 UNL     1       1.678  50.996 -20.690  1.00  0.00     0.210 HD
ENDBRANCH  17  49
BRANCH   4  51
HETATM   51  C26 UNL     1      -2.783  51.256 -20.061  1.00  0.00     0.244 C 
HETATM   52  O4  UNL     1      -2.880  51.775 -18.952  1.00  0.00    -0.306 OA
ENDBRANCH   4  51
BRANCH  13  53
HETATM   53  O7  UNL     1      -1.628  53.217 -24.802  1.00  0.00    -0.389 OA
HETATM   54  H49 UNL     1      -2.289  53.724 -24.300  1.00  0.00     0.210 HD
ENDBRANCH  13  53
BRANCH  10  55
HETATM   55  C33 UNL     1      -3.240  49.556 -26.980  1.00  0.00    -0.045 A 
HETATM   56  C34 UNL     1      -4.041  48.491 -26.934  1.00  0.00     0.087 A 
HETATM   57  C35 UNL     1      -4.695  48.381 -28.236  1.00  0.00     0.283 A 
HETATM   58  O5  UNL     1      -5.506  47.524 -28.538  1.00  0.00    -0.260 OA
HETATM   59  O6  UNL     1      -4.253  49.383 -29.042  1.00  0.00    -0.314 OA
HETATM   60  C36 UNL     1      -3.304  50.174 -28.327  1.00  0.00     0.213 A 
ENDBRANCH  10  55
TORSDOF 12
ENDMDL
MODEL 5
REMARK minimizedAffinity -10.9828491
REMARK CNNscore 0.427272111
REMARK CNNaffinity 6.81598091
REMARK  12 active torsions:
REMARK  status: ('A' for Active; 'I' for Inactive)
REMARK    1  A    between atoms: C2_2  and  C3_3 
REMARK    2  A    between atoms: C4_4  and  C18_19 
REMARK    3  A    between atoms: C19_20  and  O1_21 
REMARK    4  A    between atoms: N2_22  and  C20_23 
REMARK    5  A    between atoms: C20_23  and  C21_24 
REMARK    6  A    between atoms: C21_24  and  O3_26 
REMARK    7  A    between atoms: O3_26  and  C22_27 
REMARK    8  A    between atoms: C25_30  and  C26_31 
REMARK    9  A    between atoms: C32_38  and  C33_39 
REMARK   10  A    between atoms: C39_47  and  O7_48 
REMARK   11  A    between atoms: C43_52  and  O8_53 
REMARK   12  A    between atoms: C45_55  and  O9_56 
ROOT
HETATM    1  C22 UNL     1     -11.061  45.535 -28.341  1.00  0.00     0.135 C 
HETATM    2  C23 UNL     1     -10.994  45.136 -26.870  1.00  0.00     0.034 C 
HETATM    3  C24 UNL     1     -12.174  45.636 -26.030  1.00  0.00     0.022 C 
HETATM    4  C25 UNL     1     -13.510  45.799 -26.812  1.00  0.00     0.048 C 
HETATM    5  C27 UNL     1     -14.742  45.479 -25.877  1.00  0.00     0.011 C 
HETATM    6  C28 UNL     1     -14.775  46.273 -24.552  1.00  0.00     0.007 C 
HETATM    7  C29 UNL     1     -16.076  47.030 -24.301  1.00  0.00     0.013 C 
HETATM    8  C30 UNL     1     -17.364  46.182 -24.450  1.00  0.00    -0.005 C 
HETATM    9  C31 UNL     1     -18.549  47.175 -24.475  1.00  0.00     0.019 C 
HETATM   10  C32 UNL     1     -17.503  45.146 -23.275  1.00  0.00     0.028 C 
HETATM   11  C37 UNL     1     -18.175  43.938 -23.928  1.00  0.00     0.013 C 
HETATM   12  C38 UNL     1     -17.417  43.826 -25.241  1.00  0.00     0.040 C 
HETATM   13  C39 UNL     1     -17.316  45.281 -25.745  1.00  0.00     0.070 C 
HETATM   14  C40 UNL     1     -16.083  45.548 -26.651  1.00  0.00     0.026 C 
HETATM   15  C41 UNL     1     -16.063  44.612 -27.876  1.00  0.00     0.011 C 
HETATM   16  C42 UNL     1     -14.874  44.882 -28.795  1.00  0.00     0.039 C 
HETATM   17  C43 UNL     1     -13.532  44.838 -28.040  1.00  0.00     0.074 C 
HETATM   18  C44 UNL     1     -12.352  45.038 -29.014  1.00  0.00     0.071 C 
ENDROOT
BRANCH   1  19
HETATM   19  O3  UNL     1      -9.904  44.941 -28.981  1.00  0.00    -0.315 OA
BRANCH  19  20
HETATM   20  C21 UNL     1     -10.102  43.764 -29.646  1.00  0.00     0.285 C 
HETATM   21  O2  UNL     1     -10.302  42.681 -29.120  1.00  0.00    -0.263 OA
BRANCH  20  22
HETATM   22  C20 UNL     1      -9.916  43.996 -31.148  1.00  0.00     0.352 C 
BRANCH  22  23
HETATM   23  N2  UNL     1      -9.232  45.325 -31.636  1.00  0.00    -0.021 N 
HETATM   24  C6  UNL     1      -8.913  45.247 -33.175  1.00  0.00     0.214 C 
HETATM   25  C5  UNL     1      -8.692  46.694 -33.659  1.00  0.00     0.041 C 
HETATM   26  C7  UNL     1      -7.635  44.399 -33.468  1.00  0.00     0.109 C 
HETATM   27  C4  UNL     1      -8.216  47.554 -32.478  1.00  0.00     0.004 C 
HETATM   28  C3  UNL     1      -9.497  47.840 -31.654  1.00  0.00     0.047 C 
HETATM   29  C45 UNL     1     -10.189  46.482 -31.328  1.00  0.00     0.329 C 
HETATM   30  N1  UNL     1      -7.832  42.922 -33.489  1.00  0.00    -0.279 NA
HETATM   31  C15 UNL     1      -6.494  44.622 -32.430  1.00  0.00     0.035 C 
HETATM   32  C8  UNL     1      -8.524  42.353 -34.650  1.00  0.00     0.117 C 
HETATM   33  C9  UNL     1      -6.468  42.477 -33.359  1.00  0.00     0.018 A 
HETATM   34  C10 UNL     1      -5.947  41.239 -33.692  1.00  0.00     0.024 A 
HETATM   35  C14 UNL     1      -5.635  43.463 -32.788  1.00  0.00    -0.024 A 
HETATM   36  C11 UNL     1      -4.585  41.008 -33.477  1.00  0.00     0.002 A 
HETATM   37  C12 UNL     1      -3.762  42.004 -32.923  1.00  0.00     0.001 A 
HETATM   38  C13 UNL     1      -4.287  43.246 -32.567  1.00  0.00     0.010 A 
HETATM   39  C16 UNL     1      -6.964  44.452 -30.985  1.00  0.00     0.053 C 
HETATM   40  C19 UNL     1      -6.021  46.074 -32.378  1.00  0.00     0.139 C 
HETATM   41  C17 UNL     1      -7.920  45.613 -30.872  1.00  0.00     0.203 C 
HETATM   42  C18 UNL     1      -7.191  46.777 -31.615  1.00  0.00     0.051 C 
BRANCH  28  43
HETATM   43  C2  UNL     1      -9.212  48.692 -30.403  1.00  0.00     0.005 C 
HETATM   44  C1  UNL     1      -8.673  50.074 -30.750  1.00  0.00     0.005 C 
ENDBRANCH  28  43
BRANCH  29  45
HETATM   45  O9  UNL     1     -11.395  46.370 -32.040  1.00  0.00    -0.369 OA
HETATM   46  H59 UNL     1     -11.939  47.158 -31.854  1.00  0.00     0.212 HD
ENDBRANCH  29  45
BRANCH  40  47
HETATM   47  O1  UNL     1      -5.777  46.647 -33.642  1.00  0.00    -0.394 OA
HETATM   48  H24 UNL     1      -4.962  46.248 -34.008  1.00  0.00     0.210 HD
ENDBRANCH  40  47
ENDBRANCH  22  23
ENDBRANCH  20  22
ENDBRANCH  19  20
ENDBRANCH   1  19
BRANCH  17  49
HETATM   49  O8  UNL     1     -13.379  43.497 -27.521  1.00  0.00    -0.389 OA
HETATM   50  H55 UNL     1     -13.680  42.863 -28.194  1.00  0.00     0.210 HD
ENDBRANCH  17  49
BRANCH   4  51
HETATM   51  C26 UNL     1     -13.600  47.272 -27.238  1.00  0.00     0.244 C 
HETATM   52  O4  UNL     1     -12.875  48.170 -26.821  1.00  0.00    -0.306 OA
ENDBRANCH   4  51
BRANCH  13  53
HETATM   53  O7  UNL     1     -18.495  45.481 -26.538  1.00  0.00    -0.389 OA
HETATM   54  H49 UNL     1     -18.435  46.345 -26.979  1.00  0.00     0.210 HD
ENDBRANCH  13  53
BRANCH  10  55
HETATM   55  C33 UNL     1     -18.150  45.595 -21.998  1.00  0.00    -0.045 A 
HETATM   56  C34 UNL     1     -17.672  46.509 -21.153  1.00  0.00     0.087 A 
HETATM   57  C35 UNL     1     -18.613  46.606 -20.039  1.00  0.00     0.283 A 
HETATM   58  O5  UNL     1     -18.493  47.359 -19.090  1.00  0.00    -0.260 OA
HETATM   59  O6  UNL     1     -19.632  45.729 -20.239  1.00  0.00    -0.314 OA
HETATM   60  C36 UNL     1     -19.409  45.023 -21.460  1.00  0.00     0.213 A 
ENDBRANCH  10  55
TORSDOF 12
ENDMDL
MODEL 6
REMARK minimizedAffinity -9.51744556
REMARK CNNscore 0.394617587
REMARK CNNaffinity 7.23276711
REMARK  12 active torsions:
REMARK  status: ('A' for Active; 'I' for Inactive)
REMARK    1  A    between atoms: C2_2  and  C3_3 
REMARK    2  A    between atoms: C4_4  and  C18_19 
REMARK    3  A    between atoms: C19_20  and  O1_21 
REMARK    4  A    between atoms: N2_22  and  C20_23 
REMARK    5  A    between atoms: C20_23  and  C21_24 
REMARK    6  A    between atoms: C21_24  and  O3_26 
REMARK    7  A    between atoms: O3_26  and  C22_27 
REMARK    8  A    between atoms: C25_30  and  C26_31 
REMARK    9  A    between atoms: C32_38  and  C33_39 
REMARK   10  A    between atoms: C39_47  and  O7_48 
REMARK   11  A    between atoms: C43_52  and  O8_53 
REMARK   12  A    between atoms: C45_55  and  O9_56 
ROOT
HETATM    1  C22 UNL     1      -7.268  48.090 -24.980  1.00  0.00     0.135 C 
HETATM    2  C23 UNL     1      -6.362  48.011 -26.206  1.00  0.00     0.034 C 
HETATM    3  C24 UNL     1      -6.821  46.999 -27.262  1.00  0.00     0.022 C 
HETATM    4  C25 UNL     1      -8.359  46.767 -27.319  1.00  0.00     0.048 C 
HETATM    5  C27 UNL     1      -8.819  46.465 -28.799  1.00  0.00     0.011 C 
HETATM    6  C28 UNL     1      -8.057  45.313 -29.494  1.00  0.00     0.007 C 
HETATM    7  C29 UNL     1      -8.954  44.221 -30.071  1.00  0.00     0.013 C 
HETATM    8  C30 UNL     1     -10.101  44.730 -30.979  1.00  0.00    -0.005 C 
HETATM    9  C31 UNL     1     -11.060  43.536 -31.193  1.00  0.00     0.019 C 
HETATM   10  C32 UNL     1      -9.546  45.278 -32.345  1.00  0.00     0.028 C 
HETATM   11  C37 UNL     1     -10.494  46.426 -32.692  1.00  0.00     0.013 C 
HETATM   12  C38 UNL     1     -10.648  47.126 -31.351  1.00  0.00     0.040 C 
HETATM   13  C39 UNL     1     -10.834  45.974 -30.342  1.00  0.00     0.070 C 
HETATM   14  C40 UNL     1     -10.358  46.315 -28.903  1.00  0.00     0.026 C 
HETATM   15  C41 UNL     1     -11.073  47.563 -28.348  1.00  0.00     0.011 C 
HETATM   16  C42 UNL     1     -10.640  47.895 -26.922  1.00  0.00     0.039 C 
HETATM   17  C43 UNL     1      -9.111  48.028 -26.794  1.00  0.00     0.074 C 
HETATM   18  C44 UNL     1      -8.718  48.439 -25.358  1.00  0.00     0.071 C 
ENDROOT
BRANCH   1  19
HETATM   19  O3  UNL     1      -6.714  49.119 -24.124  1.00  0.00    -0.315 OA
BRANCH  19  20
HETATM   20  C21 UNL     1      -6.571  48.813 -22.801  1.00  0.00     0.285 C 
HETATM   21  O2  UNL     1      -7.230  49.288 -21.890  1.00  0.00    -0.263 OA
BRANCH  20  22
HETATM   22  C20 UNL     1      -5.378  47.868 -22.629  1.00  0.00     0.352 C 
BRANCH  22  23
HETATM   23  N2  UNL     1      -5.007  47.365 -21.186  1.00  0.00    -0.021 N 
HETATM   24  C6  UNL     1      -5.061  48.553 -20.156  1.00  0.00     0.214 C 
HETATM   25  C5  UNL     1      -5.150  47.923 -18.752  1.00  0.00     0.041 C 
HETATM   26  C7  UNL     1      -3.795  49.462 -20.240  1.00  0.00     0.109 C 
HETATM   27  C4  UNL     1      -4.516  46.524 -18.786  1.00  0.00     0.004 C 
HETATM   28  C3  UNL     1      -5.586  45.620 -19.449  1.00  0.00     0.047 C 
HETATM   29  C45 UNL     1      -6.000  46.259 -20.808  1.00  0.00     0.329 C 
HETATM   30  N1  UNL     1      -3.802  50.478 -21.330  1.00  0.00    -0.279 NA
HETATM   31  C15 UNL     1      -2.475  48.664 -20.463  1.00  0.00     0.035 C 
HETATM   32  C8  UNL     1      -4.676  51.643 -21.158  1.00  0.00     0.117 C 
HETATM   33  C9  UNL     1      -2.403  50.813 -21.381  1.00  0.00     0.018 A 
HETATM   34  C10 UNL     1      -1.824  51.952 -21.913  1.00  0.00     0.024 A 
HETATM   35  C14 UNL     1      -1.588  49.797 -20.835  1.00  0.00    -0.024 A 
HETATM   36  C11 UNL     1      -0.432  52.079 -21.866  1.00  0.00     0.002 A 
HETATM   37  C12 UNL     1       0.366  51.068 -21.305  1.00  0.00     0.001 A 
HETATM   38  C13 UNL     1      -0.210  49.909 -20.786  1.00  0.00     0.010 A 
HETATM   39  C16 UNL     1      -2.557  47.701 -21.648  1.00  0.00     0.053 C 
HETATM   40  C19 UNL     1      -2.192  47.669 -19.340  1.00  0.00     0.139 C 
HETATM   41  C17 UNL     1      -3.596  46.734 -21.141  1.00  0.00     0.203 C 
HETATM   42  C18 UNL     1      -3.223  46.531 -19.638  1.00  0.00     0.051 C 
BRANCH  28  43
HETATM   43  C2  UNL     1      -5.117  44.158 -19.583  1.00  0.00     0.005 C 
HETATM   44  C1  UNL     1      -4.940  43.477 -18.232  1.00  0.00     0.005 C 
ENDBRANCH  28  43
BRANCH  29  45
HETATM   45  O9  UNL     1      -7.318  46.741 -20.735  1.00  0.00    -0.369 OA
HETATM   46  H59 UNL     1      -7.897  46.015 -20.435  1.00  0.00     0.212 HD
ENDBRANCH  29  45
BRANCH  40  47
HETATM   47  O1  UNL     1      -2.335  48.203 -18.045  1.00  0.00    -0.394 OA
HETATM   48  H24 UNL     1      -1.589  48.815 -17.881  1.00  0.00     0.210 HD
ENDBRANCH  40  47
ENDBRANCH  22  23
ENDBRANCH  20  22
ENDBRANCH  19  20
ENDBRANCH   1  19
BRANCH  17  49
HETATM   49  O8  UNL     1      -8.707  49.133 -27.634  1.00  0.00    -0.389 OA
HETATM   50  H55 UNL     1      -9.356  49.851 -27.542  1.00  0.00     0.210 HD
ENDBRANCH  17  49
BRANCH   4  51
HETATM   51  C26 UNL     1      -8.655  45.527 -26.462  1.00  0.00     0.244 C 
HETATM   52  O4  UNL     1      -7.985  44.499 -26.459  1.00  0.00    -0.306 OA
ENDBRANCH   4  51
BRANCH  13  53
HETATM   53  O7  UNL     1     -12.250  45.749 -30.294  1.00  0.00    -0.389 OA
HETATM   54  H49 UNL     1     -12.444  45.109 -29.588  1.00  0.00     0.210 HD
ENDBRANCH  13  53
BRANCH  10  55
HETATM   55  C33 UNL     1      -9.318  44.307 -33.465  1.00  0.00    -0.045 A 
HETATM   56  C34 UNL     1      -8.231  43.555 -33.646  1.00  0.00     0.087 A 
HETATM   57  C35 UNL     1      -8.433  42.787 -34.873  1.00  0.00     0.283 A 
HETATM   58  O5  UNL     1      -7.639  41.984 -35.329  1.00  0.00    -0.260 OA
HETATM   59  O6  UNL     1      -9.639  43.111 -35.409  1.00  0.00    -0.314 OA
HETATM   60  C36 UNL     1     -10.268  44.093 -34.584  1.00  0.00     0.213 A 
ENDBRANCH  10  55
TORSDOF 12
ENDMDL
MODEL 7
REMARK minimizedAffinity -10.3518353
REMARK CNNscore 0.330086857
REMARK CNNaffinity 6.65778923
REMARK  12 active torsions:
REMARK  status: ('A' for Active; 'I' for Inactive)
REMARK    1  A    between atoms: C2_2  and  C3_3 
REMARK    2  A    between atoms: C4_4  and  C18_19 
REMARK    3  A    between atoms: C19_20  and  O1_21 
REMARK    4  A    between atoms: N2_22  and  C20_23 
REMARK    5  A    between atoms: C20_23  and  C21_24 
REMARK    6  A    between atoms: C21_24  and  O3_26 
REMARK    7  A    between atoms: O3_26  and  C22_27 
REMARK    8  A    between atoms: C25_30  and  C26_31 
REMARK    9  A    between atoms: C32_38  and  C33_39 
REMARK   10  A    between atoms: C39_47  and  O7_48 
REMARK   11  A    between atoms: C43_52  and  O8_53 
REMARK   12  A    between atoms: C45_55  and  O9_56 
ROOT
HETATM    1  C22 UNL     1     -11.424  45.318 -27.730  1.00  0.00     0.135 C 
HETATM    2  C23 UNL     1     -11.496  44.600 -26.385  1.00  0.00     0.034 C 
HETATM    3  C24 UNL     1     -12.688  45.015 -25.515  1.00  0.00     0.022 C 
HETATM    4  C25 UNL     1     -13.946  45.475 -26.308  1.00  0.00     0.048 C 
HETATM    5  C27 UNL     1     -15.264  45.077 -25.533  1.00  0.00     0.011 C 
HETATM    6  C28 UNL     1     -15.325  45.560 -24.066  1.00  0.00     0.007 C 
HETATM    7  C29 UNL     1     -16.574  46.365 -23.717  1.00  0.00     0.013 C 
HETATM    8  C30 UNL     1     -17.913  45.699 -24.119  1.00  0.00    -0.005 C 
HETATM    9  C31 UNL     1     -19.007  46.783 -23.980  1.00  0.00     0.019 C 
HETATM   10  C32 UNL     1     -18.221  44.448 -23.217  1.00  0.00     0.028 C 
HETATM   11  C37 UNL     1     -18.942  43.484 -24.159  1.00  0.00     0.013 C 
HETATM   12  C38 UNL     1     -18.105  43.592 -25.423  1.00  0.00     0.040 C 
HETATM   13  C39 UNL     1     -17.848  45.105 -25.580  1.00  0.00     0.070 C 
HETATM   14  C40 UNL     1     -16.536  45.445 -26.338  1.00  0.00     0.026 C 
HETATM   15  C41 UNL     1     -16.506  44.803 -27.740  1.00  0.00     0.011 C 
HETATM   16  C42 UNL     1     -15.237  45.152 -28.512  1.00  0.00     0.039 C 
HETATM   17  C43 UNL     1     -13.960  44.814 -27.720  1.00  0.00     0.074 C 
HETATM   18  C44 UNL     1     -12.701  45.109 -28.563  1.00  0.00     0.071 C 
ENDROOT
BRANCH   1  19
HETATM   19  O3  UNL     1     -10.279  44.771 -28.428  1.00  0.00    -0.315 OA
BRANCH  19  20
HETATM   20  C21 UNL     1      -9.128  45.505 -28.400  1.00  0.00     0.285 C 
HETATM   21  O2  UNL     1      -8.374  45.601 -27.445  1.00  0.00    -0.263 OA
BRANCH  20  22
HETATM   22  C20 UNL     1      -8.993  46.281 -29.713  1.00  0.00     0.352 C 
BRANCH  22  23
HETATM   23  N2  UNL     1      -7.572  46.790 -30.156  1.00  0.00    -0.021 N 
HETATM   24  C6  UNL     1      -7.599  47.262 -31.656  1.00  0.00     0.214 C 
HETATM   25  C5  UNL     1      -6.357  48.151 -31.867  1.00  0.00     0.041 C 
HETATM   26  C7  UNL     1      -7.555  46.061 -32.652  1.00  0.00     0.109 C 
HETATM   27  C4  UNL     1      -5.269  47.744 -30.861  1.00  0.00     0.004 C 
HETATM   28  C3  UNL     1      -5.713  48.382 -29.519  1.00  0.00     0.047 C 
HETATM   29  C45 UNL     1      -7.176  47.939 -29.221  1.00  0.00     0.329 C 
HETATM   30  N1  UNL     1      -8.858  45.381 -32.900  1.00  0.00    -0.279 NA
HETATM   31  C15 UNL     1      -6.602  44.916 -32.197  1.00  0.00     0.035 C 
HETATM   32  C8  UNL     1      -9.837  46.087 -33.732  1.00  0.00     0.117 C 
HETATM   33  C9  UNL     1      -8.399  44.144 -33.477  1.00  0.00     0.018 A 
HETATM   34  C10 UNL     1      -9.119  43.258 -34.260  1.00  0.00     0.024 A 
HETATM   35  C14 UNL     1      -7.061  43.856 -33.132  1.00  0.00    -0.024 A 
HETATM   36  C11 UNL     1      -8.480  42.101 -34.717  1.00  0.00     0.002 A 
HETATM   37  C12 UNL     1      -7.142  41.833 -34.381  1.00  0.00     0.001 A 
HETATM   38  C13 UNL     1      -6.419  42.713 -33.576  1.00  0.00     0.010 A 
HETATM   39  C16 UNL     1      -6.872  44.451 -30.765  1.00  0.00     0.053 C 
HETATM   40  C19 UNL     1      -5.154  45.379 -32.049  1.00  0.00     0.139 C 
HETATM   41  C17 UNL     1      -6.492  45.694 -30.001  1.00  0.00     0.203 C 
HETATM   42  C18 UNL     1      -5.203  46.203 -30.720  1.00  0.00     0.051 C 
BRANCH  28  43
HETATM   43  C2  UNL     1      -4.737  48.067 -28.369  1.00  0.00     0.005 C 
HETATM   44  C1  UNL     1      -3.838  49.249 -28.028  1.00  0.00     0.005 C 
ENDBRANCH  28  43
BRANCH  29  45
HETATM   45  O9  UNL     1      -8.047  49.036 -29.340  1.00  0.00    -0.369 OA
HETATM   46  H59 UNL     1      -7.718  49.756 -28.771  1.00  0.00     0.212 HD
ENDBRANCH  29  45
BRANCH  40  47
HETATM   47  O1  UNL     1      -4.675  46.135 -33.137  1.00  0.00    -0.394 OA
HETATM   48  H24 UNL     1      -4.552  45.533 -33.899  1.00  0.00     0.210 HD
ENDBRANCH  40  47
ENDBRANCH  22  23
ENDBRANCH  20  22
ENDBRANCH  19  20
ENDBRANCH   1  19
BRANCH  17  49
HETATM   49  O8  UNL     1     -13.956  43.383 -27.510  1.00  0.00    -0.389 OA
HETATM   50  H55 UNL     1     -14.260  42.945 -28.322  1.00  0.00     0.210 HD
ENDBRANCH  17  49
BRANCH   4  51
HETATM   51  C26 UNL     1     -13.883  47.007 -26.394  1.00  0.00     0.244 C 
HETATM   52  O4  UNL     1     -13.027  47.707 -25.862  1.00  0.00    -0.306 OA
ENDBRANCH   4  51
BRANCH  13  53
HETATM   53  O7  UNL     1     -18.947  45.587 -26.366  1.00  0.00    -0.389 OA
HETATM   54  H49 UNL     1     -18.785  46.518 -26.598  1.00  0.00     0.210 HD
ENDBRANCH  13  53
BRANCH  10  55
HETATM   55  C33 UNL     1     -18.918  44.666 -21.906  1.00  0.00    -0.045 A 
HETATM   56  C34 UNL     1     -18.664  45.641 -21.032  1.00  0.00     0.087 A 
HETATM   57  C35 UNL     1     -19.559  45.447 -19.893  1.00  0.00     0.283 A 
HETATM   58  O5  UNL     1     -19.605  46.170 -18.914  1.00  0.00    -0.260 OA
HETATM   59  O6  UNL     1     -20.323  44.344 -20.108  1.00  0.00    -0.314 OA
HETATM   60  C36 UNL     1     -19.967  43.767 -21.365  1.00  0.00     0.213 A 
ENDBRANCH  10  55
TORSDOF 12
ENDMDL
MODEL 8
REMARK minimizedAffinity -9.3850832
REMARK CNNscore 0.322629899
REMARK CNNaffinity 6.30674696
REMARK  12 active torsions:
REMARK  status: ('A' for Active; 'I' for Inactive)
REMARK    1  A    between atoms: C2_2  and  C3_3 
REMARK    2  A    between atoms: C4_4  and  C18_19 
REMARK    3  A    between atoms: C19_20  and  O1_21 
REMARK    4  A    between atoms: N2_22  and  C20_23 
REMARK    5  A    between atoms: C20_23  and  C21_24 
REMARK    6  A    between atoms: C21_24  and  O3_26 
REMARK    7  A    between atoms: O3_26  and  C22_27 
REMARK    8  A    between atoms: C25_30  and  C26_31 
REMARK    9  A    between atoms: C32_38  and  C33_39 
REMARK   10  A    between atoms: C39_47  and  O7_48 
REMARK   11  A    between atoms: C43_52  and  O8_53 
REMARK   12  A    between atoms: C45_55  and  O9_56 
ROOT
HETATM    1  C22 UNL     1      -9.229  47.292 -20.534  1.00  0.00     0.135 C 
HETATM    2  C23 UNL     1      -8.892  48.545 -19.729  1.00  0.00     0.034 C 
HETATM    3  C24 UNL     1      -7.390  48.799 -19.562  1.00  0.00     0.022 C 
HETATM    4  C25 UNL     1      -6.505  48.267 -20.727  1.00  0.00     0.048 C 
HETATM    5  C27 UNL     1      -5.256  49.208 -20.946  1.00  0.00     0.011 C 
HETATM    6  C28 UNL     1      -4.409  49.468 -19.679  1.00  0.00     0.007 C 
HETATM    7  C29 UNL     1      -2.923  49.155 -19.837  1.00  0.00     0.013 C 
HETATM    8  C30 UNL     1      -2.249  49.797 -21.075  1.00  0.00    -0.005 C 
HETATM    9  C31 UNL     1      -0.869  49.117 -21.230  1.00  0.00     0.019 C 
HETATM   10  C32 UNL     1      -2.109  51.355 -20.905  1.00  0.00     0.028 C 
HETATM   11  C37 UNL     1      -2.283  51.896 -22.324  1.00  0.00     0.013 C 
HETATM   12  C38 UNL     1      -3.454  51.072 -22.836  1.00  0.00     0.040 C 
HETATM   13  C39 UNL     1      -3.140  49.636 -22.368  1.00  0.00     0.070 C 
HETATM   14  C40 UNL     1      -4.400  48.753 -22.156  1.00  0.00     0.026 C 
HETATM   15  C41 UNL     1      -5.256  48.667 -23.435  1.00  0.00     0.011 C 
HETATM   16  C42 UNL     1      -6.483  47.778 -23.255  1.00  0.00     0.039 C 
HETATM   17  C43 UNL     1      -7.336  48.201 -22.044  1.00  0.00     0.074 C 
HETATM   18  C44 UNL     1      -8.606  47.328 -21.940  1.00  0.00     0.071 C 
ENDROOT
BRANCH   1  19
HETATM   19  O3  UNL     1     -10.674  47.241 -20.630  1.00  0.00    -0.315 OA
BRANCH  19  20
HETATM   20  C21 UNL     1     -11.211  46.190 -21.316  1.00  0.00     0.285 C 
HETATM   21  O2  UNL     1     -10.786  45.045 -21.302  1.00  0.00    -0.263 OA
BRANCH  20  22
HETATM   22  C20 UNL     1     -12.359  46.694 -22.194  1.00  0.00     0.352 C 
BRANCH  22  23
HETATM   23  N2  UNL     1     -13.822  46.198 -21.896  1.00  0.00    -0.021 N 
HETATM   24  C6  UNL     1     -13.988  44.689 -22.312  1.00  0.00     0.214 C 
HETATM   25  C5  UNL     1     -15.241  44.161 -21.586  1.00  0.00     0.041 C 
HETATM   26  C7  UNL     1     -14.171  44.522 -23.854  1.00  0.00     0.109 C 
HETATM   27  C4  UNL     1     -16.190  45.334 -21.298  1.00  0.00     0.004 C 
HETATM   28  C3  UNL     1     -15.570  46.055 -20.073  1.00  0.00     0.047 C 
HETATM   29  C45 UNL     1     -14.083  46.389 -20.397  1.00  0.00     0.329 C 
HETATM   30  N1  UNL     1     -12.917  44.550 -24.658  1.00  0.00    -0.279 NA
HETATM   31  C15 UNL     1     -15.065  45.626 -24.494  1.00  0.00     0.035 C 
HETATM   32  C8  UNL     1     -12.050  43.368 -24.592  1.00  0.00     0.117 C 
HETATM   33  C9  UNL     1     -13.457  44.793 -25.971  1.00  0.00     0.018 A 
HETATM   34  C10 UNL     1     -12.853  44.550 -27.192  1.00  0.00     0.024 A 
HETATM   35  C14 UNL     1     -14.740  45.378 -25.922  1.00  0.00    -0.024 A 
HETATM   36  C11 UNL     1     -13.554  44.868 -28.360  1.00  0.00     0.002 A 
HETATM   37  C12 UNL     1     -14.839  45.435 -28.298  1.00  0.00     0.001 A 
HETATM   38  C13 UNL     1     -15.443  45.701 -27.069  1.00  0.00     0.010 A 
HETATM   39  C16 UNL     1     -14.613  47.041 -24.130  1.00  0.00     0.053 C 
HETATM   40  C19 UNL     1     -16.478  45.649 -23.913  1.00  0.00     0.139 C 
HETATM   41  C17 UNL     1     -14.880  47.038 -22.646  1.00  0.00     0.203 C 
HETATM   42  C18 UNL     1     -16.248  46.299 -22.509  1.00  0.00     0.051 C 
BRANCH  28  43
HETATM   43  C2  UNL     1     -16.389  47.285 -19.640  1.00  0.00     0.005 C 
HETATM   44  C1  UNL     1     -17.876  46.979 -19.511  1.00  0.00     0.005 C 
ENDBRANCH  28  43
BRANCH  29  45
HETATM   45  O9  UNL     1     -13.227  45.600 -19.610  1.00  0.00    -0.369 OA
HETATM   46  H59 UNL     1     -13.474  45.715 -18.674  1.00  0.00     0.212 HD
ENDBRANCH  29  45
BRANCH  40  47
HETATM   47  O1  UNL     1     -17.089  44.382 -23.830  1.00  0.00    -0.394 OA
HETATM   48  H24 UNL     1     -17.315  44.091 -24.736  1.00  0.00     0.210 HD
ENDBRANCH  40  47
ENDBRANCH  22  23
ENDBRANCH  20  22
ENDBRANCH  19  20
ENDBRANCH   1  19
BRANCH  17  49
HETATM   49  O8  UNL     1      -7.812  49.541 -22.304  1.00  0.00    -0.389 OA
HETATM   50  H55 UNL     1      -8.069  49.607 -23.239  1.00  0.00     0.210 HD
ENDBRANCH  17  49
BRANCH   4  51
HETATM   51  C26 UNL     1      -5.994  46.882 -20.302  1.00  0.00     0.244 C 
HETATM   52  O4  UNL     1      -5.108  46.254 -20.874  1.00  0.00    -0.306 OA
ENDBRANCH   4  51
BRANCH  13  53
HETATM   53  O7  UNL     1      -2.374  49.058 -23.435  1.00  0.00    -0.389 OA
HETATM   54  H49 UNL     1      -2.240  48.112 -23.251  1.00  0.00     0.210 HD
ENDBRANCH  13  53
BRANCH  10  55
HETATM   55  C33 UNL     1      -0.908  51.891 -20.183  1.00  0.00    -0.045 A 
HETATM   56  C34 UNL     1      -0.696  51.848 -18.867  1.00  0.00     0.087 A 
HETATM   57  C35 UNL     1       0.581  52.509 -18.611  1.00  0.00     0.283 A 
HETATM   58  O5  UNL     1       1.090  52.637 -17.512  1.00  0.00    -0.260 OA
HETATM   59  O6  UNL     1       1.100  52.948 -19.788  1.00  0.00    -0.314 OA
HETATM   60  C36 UNL     1       0.204  52.614 -20.848  1.00  0.00     0.213 A 
ENDBRANCH  10  55
TORSDOF 12
ENDMDL
MODEL 9
REMARK minimizedAffinity -11.1042948
REMARK CNNscore 0.304465413
REMARK CNNaffinity 7.20244455
REMARK  12 active torsions:
REMARK  status: ('A' for Active; 'I' for Inactive)
REMARK    1  A    between atoms: C2_2  and  C3_3 
REMARK    2  A    between atoms: C4_4  and  C18_19 
REMARK    3  A    between atoms: C19_20  and  O1_21 
REMARK    4  A    between atoms: N2_22  and  C20_23 
REMARK    5  A    between atoms: C20_23  and  C21_24 
REMARK    6  A    between atoms: C21_24  and  O3_26 
REMARK    7  A    between atoms: O3_26  and  C22_27 
REMARK    8  A    between atoms: C25_30  and  C26_31 
REMARK    9  A    between atoms: C32_38  and  C33_39 
REMARK   10  A    between atoms: C39_47  and  O7_48 
REMARK   11  A    between atoms: C43_52  and  O8_53 
REMARK   12  A    between atoms: C45_55  and  O9_56 
ROOT
HETATM    1  C22 UNL     1      -1.316  49.180 -15.984  1.00  0.00     0.135 C 
HETATM    2  C23 UNL     1      -0.435  50.161 -16.754  1.00  0.00     0.034 C 
HETATM    3  C24 UNL     1      -0.516  50.016 -18.277  1.00  0.00     0.022 C 
HETATM    4  C25 UNL     1      -1.881  49.491 -18.811  1.00  0.00     0.048 C 
HETATM    5  C27 UNL     1      -2.205  50.128 -20.219  1.00  0.00     0.011 C 
HETATM    6  C28 UNL     1      -1.093  49.961 -21.280  1.00  0.00     0.007 C 
HETATM    7  C29 UNL     1      -1.559  49.332 -22.590  1.00  0.00     0.013 C 
HETATM    8  C30 UNL     1      -2.809  49.992 -23.223  1.00  0.00    -0.005 C 
HETATM    9  C31 UNL     1      -3.299  49.037 -24.336  1.00  0.00     0.019 C 
HETATM   10  C32 UNL     1      -2.473  51.419 -23.793  1.00  0.00     0.028 C 
HETATM   11  C37 UNL     1      -3.756  52.217 -23.564  1.00  0.00     0.013 C 
HETATM   12  C38 UNL     1      -4.145  51.797 -22.156  1.00  0.00     0.040 C 
HETATM   13  C39 UNL     1      -3.926  50.270 -22.143  1.00  0.00     0.070 C 
HETATM   14  C40 UNL     1      -3.599  49.692 -20.739  1.00  0.00     0.026 C 
HETATM   15  C41 UNL     1      -4.701  50.031 -19.714  1.00  0.00     0.011 C 
HETATM   16  C42 UNL     1      -4.411  49.444 -18.335  1.00  0.00     0.039 C 
HETATM   17  C43 UNL     1      -3.021  49.849 -17.810  1.00  0.00     0.074 C 
HETATM   18  C44 UNL     1      -2.797  49.302 -16.383  1.00  0.00     0.071 C 
ENDROOT
BRANCH   1  19
HETATM   19  O3  UNL     1      -1.150  49.494 -14.579  1.00  0.00    -0.315 OA
BRANCH  19  20
HETATM   20  C21 UNL     1      -0.314  50.527 -14.270  1.00  0.00     0.285 C 
HETATM   21  O2  UNL     1       0.904  50.502 -14.361  1.00  0.00    -0.263 OA
BRANCH  20  22
HETATM   22  C20 UNL     1      -1.131  51.681 -13.684  1.00  0.00     0.352 C 
BRANCH  22  23
HETATM   23  N2  UNL     1      -0.919  52.077 -12.177  1.00  0.00    -0.021 N 
HETATM   24  C6  UNL     1      -0.696  50.793 -11.295  1.00  0.00     0.214 C 
HETATM   25  C5  UNL     1      -0.050  51.264  -9.977  1.00  0.00     0.041 C 
HETATM   26  C7  UNL     1      -2.035  50.054 -10.984  1.00  0.00     0.109 C 
HETATM   27  C4  UNL     1      -0.448  52.724  -9.713  1.00  0.00     0.004 C 
HETATM   28  C3  UNL     1       0.458  53.558 -10.657  1.00  0.00     0.047 C 
HETATM   29  C45 UNL     1       0.293  53.013 -12.107  1.00  0.00     0.329 C 
HETATM   30  N1  UNL     1      -2.543  49.159 -12.062  1.00  0.00    -0.279 NA
HETATM   31  C15 UNL     1      -3.222  51.021 -10.693  1.00  0.00     0.035 C 
HETATM   32  C8  UNL     1      -1.841  47.887 -12.266  1.00  0.00     0.117 C 
HETATM   33  C9  UNL     1      -3.911  48.999 -11.643  1.00  0.00     0.018 A 
HETATM   34  C10 UNL     1      -4.794  47.996 -12.001  1.00  0.00     0.024 A 
HETATM   35  C14 UNL     1      -4.338  50.045 -10.795  1.00  0.00    -0.024 A 
HETATM   36  C11 UNL     1      -6.092  48.031 -11.483  1.00  0.00     0.002 A 
HETATM   37  C12 UNL     1      -6.500  49.068 -10.626  1.00  0.00     0.001 A 
HETATM   38  C13 UNL     1      -5.620  50.093 -10.277  1.00  0.00     0.010 A 
HETATM   39  C16 UNL     1      -3.403  52.082 -11.779  1.00  0.00     0.053 C 
HETATM   40  C19 UNL     1      -2.963  51.925  -9.489  1.00  0.00     0.139 C 
HETATM   41  C17 UNL     1      -2.125  52.863 -11.612  1.00  0.00     0.203 C 
HETATM   42  C18 UNL     1      -1.938  52.957 -10.065  1.00  0.00     0.051 C 
BRANCH  28  43
HETATM   43  C2  UNL     1       0.190  55.070 -10.542  1.00  0.00     0.005 C 
HETATM   44  C1  UNL     1      -1.192  55.376  -9.977  1.00  0.00     0.005 C 
ENDBRANCH  28  43
BRANCH  29  45
HETATM   45  O9  UNL     1       1.474  52.374 -12.521  1.00  0.00    -0.369 OA
HETATM   46  H59 UNL     1       2.219  52.992 -12.402  1.00  0.00     0.212 HD
ENDBRANCH  29  45
BRANCH  40  47
HETATM   47  O1  UNL     1      -2.473  51.250  -8.354  1.00  0.00    -0.394 OA
HETATM   48  H24 UNL     1      -3.201  50.718  -7.975  1.00  0.00     0.210 HD
ENDBRANCH  40  47
ENDBRANCH  22  23
ENDBRANCH  20  22
ENDBRANCH  19  20
ENDBRANCH   1  19
BRANCH  17  49
HETATM   49  O8  UNL     1      -3.019  51.289 -17.674  1.00  0.00    -0.389 OA
HETATM   50  H55 UNL     1      -3.875  51.571 -17.310  1.00  0.00     0.210 HD
ENDBRANCH  17  49
BRANCH   4  51
HETATM   51  C26 UNL     1      -1.735  47.973 -18.993  1.00  0.00     0.244 C 
HETATM   52  O4  UNL     1      -2.565  47.247 -19.532  1.00  0.00    -0.306 OA
ENDBRANCH   4  51
BRANCH  13  53
HETATM   53  O7  UNL     1      -5.180  49.713 -22.565  1.00  0.00    -0.389 OA
HETATM   54  H49 UNL     1      -5.144  48.746 -22.470  1.00  0.00     0.210 HD
ENDBRANCH  13  53
BRANCH  10  55
HETATM   55  C33 UNL     1      -1.923  51.522 -25.185  1.00  0.00    -0.045 A 
HETATM   56  C34 UNL     1      -0.718  51.116 -25.587  1.00  0.00     0.087 A 
HETATM   57  C35 UNL     1      -0.602  51.438 -27.008  1.00  0.00     0.283 A 
HETATM   58  O5  UNL     1       0.369  51.191 -27.700  1.00  0.00    -0.260 OA
HETATM   59  O6  UNL     1      -1.743  52.049 -27.421  1.00  0.00    -0.314 OA
HETATM   60  C36 UNL     1      -2.639  52.163 -26.315  1.00  0.00     0.213 A 
ENDBRANCH  10  55
TORSDOF 12
ENDMDL
