MODEL 1
REMARK minimizedAffinity -7.10782766
REMARK CNNscore 0.5267905
REMARK CNNaffinity 6.35440111
REMARK  15 active torsions:
REMARK  status: ('A' for Active; 'I' for Inactive)
REMARK    1  A    between atoms: C4_5  and  O2_6 
REMARK    2  A    between atoms: C7_10  and  O4_11 
REMARK    3  A    between atoms: O4_11  and  C8_12 
REMARK    4  A    between atoms: C8_12  and  C9_14 
REMARK    5  A    between atoms: C9_14  and  C11_16 
REMARK    6  A    between atoms: C11_16  and  O6_17 
REMARK    7  A    between atoms: C11_16  and  C12_18 
REMARK    8  A    between atoms: C14_20  and  C15_21 
REMARK    9  A    between atoms: C15_21  and  C16_22 
REMARK   10  A    between atoms: C15_21  and  C17_24 
REMARK   11  A    between atoms: C16_22  and  O7_23 
REMARK   12  A    between atoms: C17_24  and  C18_25 
REMARK   13  A    between atoms: C18_25  and  C19_26 
REMARK   14  A    between atoms: C19_26  and  C20_27 
REMARK   15  A    between atoms: C20_27  and  C21_28 
ROOT
HETATM    1  O4  UNL     1      -0.861  51.710 -19.167  1.00  0.00    -0.312 OA
ENDROOT
BRANCH   1   2
HETATM    2  C7  UNL     1      -0.297  50.773 -20.099  1.00  0.00     0.170 C 
HETATM    3  C6  UNL     1      -1.393  49.835 -20.568  1.00  0.00     0.127 A 
HETATM    4  C5  UNL     1      -1.633  48.530 -19.829  1.00  0.00     0.223 A 
HETATM    5  O3  UNL     1      -0.853  48.584 -21.036  1.00  0.00    -0.360 OA
HETATM    6  C27 UNL     1      -2.495  50.409 -21.466  1.00  0.00    -0.003 C 
HETATM    7  C4  UNL     1      -2.916  47.760 -19.940  1.00  0.00     0.199 C 
HETATM    8  O1  UNL     1      -2.642  46.438 -20.413  1.00  0.00    -0.348 OA
HETATM    9  C30 UNL     1      -3.963  48.364 -20.893  1.00  0.00     0.082 C 
HETATM   10  C3  UNL     1      -3.845  45.937 -21.007  1.00  0.00     0.205 C 
HETATM   11  C2  UNL     1      -4.616  47.130 -21.457  1.00  0.00    -0.056 C 
HETATM   12  C1  UNL     1      -5.700  47.102 -22.246  1.00  0.00     0.017 C 
HETATM   13  C29 UNL     1      -3.372  49.242 -22.012  1.00  0.00     0.027 C 
HETATM   14  C25 UNL     1      -1.808  51.159 -22.661  1.00  0.00    -0.007 C 
HETATM   15  C28 UNL     1      -3.408  51.351 -20.647  1.00  0.00     0.019 C 
HETATM   16  C24 UNL     1      -0.736  52.164 -22.182  1.00  0.00     0.007 C 
HETATM   17  C26 UNL     1      -2.784  51.870 -23.604  1.00  0.00     0.011 C 
HETATM   18  C23 UNL     1       0.319  51.490 -21.306  1.00  0.00     0.036 C 
BRANCH   7  19
HETATM   19  O2  UNL     1      -3.484  47.635 -18.638  1.00  0.00    -0.363 OA
HETATM   20  H5  UNL     1      -2.866  47.051 -18.168  1.00  0.00     0.213 HD
ENDBRANCH   7  19
ENDBRANCH   1   2
BRANCH   1  21
HETATM   21  C8  UNL     1      -0.965  51.285 -17.876  1.00  0.00     0.266 C 
HETATM   22  O5  UNL     1      -2.018  51.123 -17.278  1.00  0.00    -0.265 OA
BRANCH  21  23
HETATM   23  C9  UNL     1       0.408  50.995 -17.309  1.00  0.00     0.114 C 
HETATM   24  C10 UNL     1       0.377  49.662 -16.560  1.00  0.00     0.023 C 
BRANCH  23  25
HETATM   25  C11 UNL     1       0.928  52.193 -16.489  1.00  0.00     0.159 C 
BRANCH  25  26
HETATM   26  O6  UNL     1       2.040  52.778 -17.182  1.00  0.00    -0.390 OA
HETATM   27  H13 UNL     1       2.656  52.061 -17.408  1.00  0.00     0.210 HD
ENDBRANCH  25  26
BRANCH  25  28
HETATM   28  C12 UNL     1       1.325  51.903 -15.044  1.00  0.00    -0.058 C 
HETATM   29  C13 UNL     1       0.187  51.881 -14.054  1.00  0.00     0.046 C 
HETATM   30  C14 UNL     1       2.600  51.680 -14.653  1.00  0.00    -0.015 C 
BRANCH  30  31
HETATM   31  C15 UNL     1       3.074  51.311 -13.254  1.00  0.00     0.032 C 
BRANCH  31  32
HETATM   32  C16 UNL     1       2.926  49.797 -13.012  1.00  0.00     0.172 C 
BRANCH  32  33
HETATM   33  O7  UNL     1       4.049  49.066 -13.495  1.00  0.00    -0.400 OA
HETATM   34  H21 UNL     1       4.729  49.102 -12.801  1.00  0.00     0.209 HD
ENDBRANCH  32  33
ENDBRANCH  31  32
BRANCH  31  35
HETATM   35  C17 UNL     1       2.297  52.169 -12.234  1.00  0.00     0.010 C 
BRANCH  35  36
HETATM   36  C18 UNL     1       2.895  52.235 -10.822  1.00  0.00     0.001 C 
BRANCH  36  37
HETATM   37  C19 UNL     1       3.770  53.471 -10.564  1.00  0.00     0.000 C 
BRANCH  37  38
HETATM   38  C20 UNL     1       3.000  54.791 -10.680  1.00  0.00    -0.000 C 
BRANCH  38  39
HETATM   39  C21 UNL     1       3.928  55.990 -10.475  1.00  0.00    -0.005 C 
HETATM   40  C22 UNL     1       3.588  56.743  -9.198  1.00  0.00     0.005 C 
ENDBRANCH  38  39
ENDBRANCH  37  38
ENDBRANCH  36  37
ENDBRANCH  35  36
ENDBRANCH  31  35
ENDBRANCH  30  31
ENDBRANCH  25  28
ENDBRANCH  23  25
ENDBRANCH  21  23
ENDBRANCH   1  21
TORSDOF 15
ENDMDL
MODEL 2
REMARK minimizedAffinity -8.76762486
REMARK CNNscore 0.509144425
REMARK CNNaffinity 6.98303223
REMARK  15 active torsions:
REMARK  status: ('A' for Active; 'I' for Inactive)
REMARK    1  A    between atoms: C4_5  and  O2_6 
REMARK    2  A    between atoms: C7_10  and  O4_11 
REMARK    3  A    between atoms: O4_11  and  C8_12 
REMARK    4  A    between atoms: C8_12  and  C9_14 
REMARK    5  A    between atoms: C9_14  and  C11_16 
REMARK    6  A    between atoms: C11_16  and  O6_17 
REMARK    7  A    between atoms: C11_16  and  C12_18 
REMARK    8  A    between atoms: C14_20  and  C15_21 
REMARK    9  A    between atoms: C15_21  and  C16_22 
REMARK   10  A    between atoms: C15_21  and  C17_24 
REMARK   11  A    between atoms: C16_22  and  O7_23 
REMARK   12  A    between atoms: C17_24  and  C18_25 
REMARK   13  A    between atoms: C18_25  and  C19_26 
REMARK   14  A    between atoms: C19_26  and  C20_27 
REMARK   15  A    between atoms: C20_27  and  C21_28 
ROOT
HETATM    1  O4  UNL     1      -4.007  49.806 -20.192  1.00  0.00    -0.312 OA
ENDROOT
BRANCH   1   2
HETATM    2  C7  UNL     1      -4.943  50.505 -21.029  1.00  0.00     0.170 C 
HETATM    3  C6  UNL     1      -4.660  50.151 -22.477  1.00  0.00     0.127 A 
HETATM    4  C5  UNL     1      -3.713  51.016 -23.291  1.00  0.00     0.223 A 
HETATM    5  O3  UNL     1      -5.140  51.171 -23.374  1.00  0.00    -0.360 OA
HETATM    6  C27 UNL     1      -4.968  48.724 -22.941  1.00  0.00    -0.003 C 
HETATM    7  C4  UNL     1      -3.055  50.533 -24.550  1.00  0.00     0.199 C 
HETATM    8  O1  UNL     1      -3.397  51.404 -25.632  1.00  0.00    -0.348 OA
HETATM    9  C30 UNL     1      -3.442  49.110 -24.988  1.00  0.00     0.082 C 
HETATM   10  C3  UNL     1      -3.233  50.663 -26.847  1.00  0.00     0.205 C 
HETATM   11  C2  UNL     1      -3.416  49.229 -26.489  1.00  0.00    -0.056 C 
HETATM   12  C1  UNL     1      -3.549  48.221 -27.363  1.00  0.00     0.017 C 
HETATM   13  C29 UNL     1      -4.824  48.645 -24.491  1.00  0.00     0.027 C 
HETATM   14  C25 UNL     1      -6.443  48.384 -22.528  1.00  0.00    -0.007 C 
HETATM   15  C28 UNL     1      -3.957  47.734 -22.317  1.00  0.00     0.019 C 
HETATM   16  C24 UNL     1      -6.716  48.682 -21.037  1.00  0.00     0.007 C 
HETATM   17  C26 UNL     1      -6.873  46.948 -22.844  1.00  0.00     0.011 C 
HETATM   18  C23 UNL     1      -6.389  50.132 -20.681  1.00  0.00     0.036 C 
BRANCH   7  19
HETATM   19  O2  UNL     1      -1.641  50.603 -24.380  1.00  0.00    -0.363 OA
HETATM   20  H5  UNL     1      -1.458  51.557 -24.335  1.00  0.00     0.213 HD
ENDBRANCH   7  19
ENDBRANCH   1   2
BRANCH   1  21
HETATM   21  C8  UNL     1      -3.046  50.568 -19.599  1.00  0.00     0.266 C 
HETATM   22  O5  UNL     1      -3.244  51.649 -19.065  1.00  0.00    -0.265 OA
BRANCH  21  23
HETATM   23  C9  UNL     1      -1.710  49.859 -19.652  1.00  0.00     0.114 C 
HETATM   24  C10 UNL     1      -1.855  48.455 -19.063  1.00  0.00     0.023 C 
BRANCH  23  25
HETATM   25  C11 UNL     1      -0.604  50.723 -19.014  1.00  0.00     0.159 C 
BRANCH  25  26
HETATM   26  O6  UNL     1      -1.099  51.273 -17.784  1.00  0.00    -0.390 OA
HETATM   27  H13 UNL     1      -1.962  51.678 -17.969  1.00  0.00     0.210 HD
ENDBRANCH  25  26
BRANCH  25  28
HETATM   28  C12 UNL     1      -0.036  51.844 -19.881  1.00  0.00    -0.058 C 
HETATM   29  C13 UNL     1      -0.154  53.232 -19.300  1.00  0.00     0.046 C 
HETATM   30  C14 UNL     1       0.535  51.634 -21.088  1.00  0.00    -0.015 C 
BRANCH  30  31
HETATM   31  C15 UNL     1       1.192  52.678 -21.981  1.00  0.00     0.032 C 
BRANCH  31  32
HETATM   32  C16 UNL     1       1.718  53.858 -21.141  1.00  0.00     0.172 C 
BRANCH  32  33
HETATM   33  O7  UNL     1       1.959  55.015 -21.936  1.00  0.00    -0.400 OA
HETATM   34  H21 UNL     1       1.106  55.473 -22.032  1.00  0.00     0.209 HD
ENDBRANCH  32  33
ENDBRANCH  31  32
BRANCH  31  35
HETATM   35  C17 UNL     1       0.174  53.106 -23.060  1.00  0.00     0.010 C 
BRANCH  35  36
HETATM   36  C18 UNL     1       0.770  53.554 -24.402  1.00  0.00     0.001 C 
BRANCH  36  37
HETATM   37  C19 UNL     1       0.469  52.607 -25.573  1.00  0.00     0.000 C 
BRANCH  37  38
HETATM   38  C20 UNL     1       1.657  51.714 -25.950  1.00  0.00    -0.000 C 
BRANCH  38  39
HETATM   39  C21 UNL     1       1.974  51.819 -27.442  1.00  0.00    -0.005 C 
HETATM   40  C22 UNL     1       0.711  51.740 -28.286  1.00  0.00     0.005 C 
ENDBRANCH  38  39
ENDBRANCH  37  38
ENDBRANCH  36  37
ENDBRANCH  35  36
ENDBRANCH  31  35
ENDBRANCH  30  31
ENDBRANCH  25  28
ENDBRANCH  23  25
ENDBRANCH  21  23
ENDBRANCH   1  21
TORSDOF 15
ENDMDL
MODEL 3
REMARK minimizedAffinity -8.34243298
REMARK CNNscore 0.483849227
REMARK CNNaffinity 6.5971694
REMARK  15 active torsions:
REMARK  status: ('A' for Active; 'I' for Inactive)
REMARK    1  A    between atoms: C4_5  and  O2_6 
REMARK    2  A    between atoms: C7_10  and  O4_11 
REMARK    3  A    between atoms: O4_11  and  C8_12 
REMARK    4  A    between atoms: C8_12  and  C9_14 
REMARK    5  A    between atoms: C9_14  and  C11_16 
REMARK    6  A    between atoms: C11_16  and  O6_17 
REMARK    7  A    between atoms: C11_16  and  C12_18 
REMARK    8  A    between atoms: C14_20  and  C15_21 
REMARK    9  A    between atoms: C15_21  and  C16_22 
REMARK   10  A    between atoms: C15_21  and  C17_24 
REMARK   11  A    between atoms: C16_22  and  O7_23 
REMARK   12  A    between atoms: C17_24  and  C18_25 
REMARK   13  A    between atoms: C18_25  and  C19_26 
REMARK   14  A    between atoms: C19_26  and  C20_27 
REMARK   15  A    between atoms: C20_27  and  C21_28 
ROOT
HETATM    1  O4  UNL     1      -3.591  50.509 -22.173  1.00  0.00    -0.312 OA
ENDROOT
BRANCH   1   2
HETATM    2  C7  UNL     1      -4.122  51.335 -23.222  1.00  0.00     0.170 C 
HETATM    3  C6  UNL     1      -3.053  51.522 -24.282  1.00  0.00     0.127 A 
HETATM    4  C5  UNL     1      -2.113  52.711 -24.202  1.00  0.00     0.223 A 
HETATM    5  O3  UNL     1      -3.274  52.721 -25.050  1.00  0.00    -0.360 OA
HETATM    6  C27 UNL     1      -2.664  50.306 -25.131  1.00  0.00    -0.003 C 
HETATM    7  C4  UNL     1      -0.800  52.757 -24.927  1.00  0.00     0.199 C 
HETATM    8  O1  UNL     1      -0.772  53.895 -25.794  1.00  0.00    -0.348 OA
HETATM    9  C30 UNL     1      -0.489  51.528 -25.798  1.00  0.00     0.082 C 
HETATM   10  C3  UNL     1       0.190  53.627 -26.821  1.00  0.00     0.205 C 
HETATM   11  C2  UNL     1       0.264  52.145 -26.947  1.00  0.00    -0.056 C 
HETATM   12  C1  UNL     1       0.886  51.479 -27.931  1.00  0.00     0.017 C 
HETATM   13  C29 UNL     1      -1.734  50.768 -26.294  1.00  0.00     0.027 C 
HETATM   14  C25 UNL     1      -3.977  49.681 -25.719  1.00  0.00    -0.007 C 
HETATM   15  C28 UNL     1      -1.881  49.288 -24.269  1.00  0.00     0.019 C 
HETATM   16  C24 UNL     1      -5.044  49.429 -24.630  1.00  0.00     0.007 C 
HETATM   17  C26 UNL     1      -3.760  48.394 -26.522  1.00  0.00     0.011 C 
HETATM   18  C23 UNL     1      -5.369  50.703 -23.852  1.00  0.00     0.036 C 
BRANCH   7  19
HETATM   19  O2  UNL     1       0.242  52.928 -23.969  1.00  0.00    -0.363 OA
HETATM   20  H5  UNL     1       0.098  53.827 -23.625  1.00  0.00     0.213 HD
ENDBRANCH   7  19
ENDBRANCH   1   2
BRANCH   1  21
HETATM   21  C8  UNL     1      -3.913  50.872 -20.900  1.00  0.00     0.266 C 
HETATM   22  O5  UNL     1      -4.718  51.743 -20.606  1.00  0.00    -0.265 OA
BRANCH  21  23
HETATM   23  C9  UNL     1      -3.168  50.009 -19.904  1.00  0.00     0.114 C 
HETATM   24  C10 UNL     1      -3.311  50.608 -18.505  1.00  0.00     0.023 C 
BRANCH  23  25
HETATM   25  C11 UNL     1      -1.718  49.765 -20.365  1.00  0.00     0.159 C 
BRANCH  25  26
HETATM   26  O6  UNL     1      -1.198  48.624 -19.667  1.00  0.00    -0.390 OA
HETATM   27  H13 UNL     1      -1.373  48.754 -18.720  1.00  0.00     0.210 HD
ENDBRANCH  25  26
BRANCH  25  28
HETATM   28  C12 UNL     1      -0.753  50.938 -20.214  1.00  0.00    -0.058 C 
HETATM   29  C13 UNL     1       0.437  50.919 -21.141  1.00  0.00     0.046 C 
HETATM   30  C14 UNL     1      -0.929  51.936 -19.318  1.00  0.00    -0.015 C 
BRANCH  30  31
HETATM   31  C15 UNL     1      -0.062  53.176 -19.151  1.00  0.00     0.032 C 
BRANCH  31  32
HETATM   32  C16 UNL     1       0.216  53.832 -20.517  1.00  0.00     0.172 C 
BRANCH  32  33
HETATM   33  O7  UNL     1       1.553  54.310 -20.618  1.00  0.00    -0.400 OA
HETATM   34  H21 UNL     1       2.105  53.553 -20.878  1.00  0.00     0.209 HD
ENDBRANCH  32  33
ENDBRANCH  31  32
BRANCH  31  35
HETATM   35  C17 UNL     1       1.223  52.775 -18.396  1.00  0.00     0.010 C 
BRANCH  35  36
HETATM   36  C18 UNL     1       1.021  51.897 -17.153  1.00  0.00     0.001 C 
BRANCH  36  37
HETATM   37  C19 UNL     1       1.847  52.332 -15.933  1.00  0.00     0.000 C 
BRANCH  37  38
HETATM   38  C20 UNL     1       3.307  52.650 -16.273  1.00  0.00    -0.000 C 
BRANCH  38  39
HETATM   39  C21 UNL     1       4.265  51.776 -15.463  1.00  0.00    -0.005 C 
HETATM   40  C22 UNL     1       3.544  51.065 -14.329  1.00  0.00     0.005 C 
ENDBRANCH  38  39
ENDBRANCH  37  38
ENDBRANCH  36  37
ENDBRANCH  35  36
ENDBRANCH  31  35
ENDBRANCH  30  31
ENDBRANCH  25  28
ENDBRANCH  23  25
ENDBRANCH  21  23
ENDBRANCH   1  21
TORSDOF 15
ENDMDL
MODEL 4
REMARK minimizedAffinity -7.89663839
REMARK CNNscore 0.33405593
REMARK CNNaffinity 7.01894999
REMARK  15 active torsions:
REMARK  status: ('A' for Active; 'I' for Inactive)
REMARK    1  A    between atoms: C4_5  and  O2_6 
REMARK    2  A    between atoms: C7_10  and  O4_11 
REMARK    3  A    between atoms: O4_11  and  C8_12 
REMARK    4  A    between atoms: C8_12  and  C9_14 
REMARK    5  A    between atoms: C9_14  and  C11_16 
REMARK    6  A    between atoms: C11_16  and  O6_17 
REMARK    7  A    between atoms: C11_16  and  C12_18 
REMARK    8  A    between atoms: C14_20  and  C15_21 
REMARK    9  A    between atoms: C15_21  and  C16_22 
REMARK   10  A    between atoms: C15_21  and  C17_24 
REMARK   11  A    between atoms: C16_22  and  O7_23 
REMARK   12  A    between atoms: C17_24  and  C18_25 
REMARK   13  A    between atoms: C18_25  and  C19_26 
REMARK   14  A    between atoms: C19_26  and  C20_27 
REMARK   15  A    between atoms: C20_27  and  C21_28 
ROOT
HETATM    1  O4  UNL     1      -3.626  49.331 -20.410  1.00  0.00    -0.312 OA
ENDROOT
BRANCH   1   2
HETATM    2  C7  UNL     1      -3.742  48.023 -20.991  1.00  0.00     0.170 C 
HETATM    3  C6  UNL     1      -4.951  48.002 -21.908  1.00  0.00     0.127 A 
HETATM    4  C5  UNL     1      -6.301  47.574 -21.362  1.00  0.00     0.223 A 
HETATM    5  O3  UNL     1      -5.456  46.665 -22.087  1.00  0.00    -0.360 OA
HETATM    6  C27 UNL     1      -4.883  48.818 -23.204  1.00  0.00    -0.003 C 
HETATM    7  C4  UNL     1      -7.595  47.914 -22.043  1.00  0.00     0.199 C 
HETATM    8  O1  UNL     1      -8.306  46.710 -22.347  1.00  0.00    -0.348 OA
HETATM    9  C30 UNL     1      -7.457  48.692 -23.363  1.00  0.00     0.082 C 
HETATM   10  C3  UNL     1      -9.206  47.003 -23.421  1.00  0.00     0.205 C 
HETATM   11  C2  UNL     1      -8.607  48.146 -24.166  1.00  0.00    -0.056 C 
HETATM   12  C1  UNL     1      -9.021  48.597 -25.359  1.00  0.00     0.017 C 
HETATM   13  C29 UNL     1      -6.118  48.475 -24.091  1.00  0.00     0.027 C 
HETATM   14  C25 UNL     1      -3.563  48.426 -23.957  1.00  0.00    -0.007 C 
HETATM   15  C28 UNL     1      -4.931  50.330 -22.882  1.00  0.00     0.019 C 
HETATM   16  C24 UNL     1      -2.321  48.509 -23.043  1.00  0.00     0.007 C 
HETATM   17  C26 UNL     1      -3.305  49.229 -25.237  1.00  0.00     0.011 C 
HETATM   18  C23 UNL     1      -2.485  47.654 -21.788  1.00  0.00     0.036 C 
BRANCH   7  19
HETATM   19  O2  UNL     1      -8.401  48.665 -21.137  1.00  0.00    -0.363 OA
HETATM   20  H5  UNL     1      -8.628  48.026 -20.441  1.00  0.00     0.213 HD
ENDBRANCH   7  19
ENDBRANCH   1   2
BRANCH   1  21
HETATM   21  C8  UNL     1      -3.595  49.383 -19.048  1.00  0.00     0.266 C 
HETATM   22  O5  UNL     1      -4.571  49.261 -18.323  1.00  0.00    -0.265 OA
BRANCH  21  23
HETATM   23  C9  UNL     1      -2.172  49.564 -18.564  1.00  0.00     0.114 C 
HETATM   24  C10 UNL     1      -1.882  48.555 -17.452  1.00  0.00     0.023 C 
BRANCH  23  25
HETATM   25  C11 UNL     1      -1.899  51.036 -18.198  1.00  0.00     0.159 C 
BRANCH  25  26
HETATM   26  O6  UNL     1      -3.018  51.831 -18.616  1.00  0.00    -0.390 OA
HETATM   27  H13 UNL     1      -3.210  51.606 -19.541  1.00  0.00     0.210 HD
ENDBRANCH  25  26
BRANCH  25  28
HETATM   28  C12 UNL     1      -0.610  51.642 -18.748  1.00  0.00    -0.058 C 
HETATM   29  C13 UNL     1       0.506  51.804 -17.747  1.00  0.00     0.046 C 
HETATM   30  C14 UNL     1      -0.457  52.018 -20.038  1.00  0.00    -0.015 C 
BRANCH  30  31
HETATM   31  C15 UNL     1       0.810  52.559 -20.686  1.00  0.00     0.032 C 
BRANCH  31  32
HETATM   32  C16 UNL     1       0.929  54.078 -20.463  1.00  0.00     0.172 C 
BRANCH  32  33
HETATM   33  O7  UNL     1       1.778  54.696 -21.425  1.00  0.00    -0.400 OA
HETATM   34  H21 UNL     1       1.235  54.862 -22.215  1.00  0.00     0.209 HD
ENDBRANCH  32  33
ENDBRANCH  31  32
BRANCH  31  35
HETATM   35  C17 UNL     1       0.802  52.162 -22.178  1.00  0.00     0.010 C 
BRANCH  35  36
HETATM   36  C18 UNL     1      -0.569  52.187 -22.869  1.00  0.00     0.001 C 
BRANCH  36  37
HETATM   37  C19 UNL     1      -0.580  51.564 -24.272  1.00  0.00     0.000 C 
BRANCH  37  38
HETATM   38  C20 UNL     1       0.268  52.342 -25.285  1.00  0.00    -0.000 C 
BRANCH  38  39
HETATM   39  C21 UNL     1       1.056  51.392 -26.188  1.00  0.00    -0.005 C 
HETATM   40  C22 UNL     1       0.607  51.502 -27.638  1.00  0.00     0.005 C 
ENDBRANCH  38  39
ENDBRANCH  37  38
ENDBRANCH  36  37
ENDBRANCH  35  36
ENDBRANCH  31  35
ENDBRANCH  30  31
ENDBRANCH  25  28
ENDBRANCH  23  25
ENDBRANCH  21  23
ENDBRANCH   1  21
TORSDOF 15
ENDMDL
MODEL 5
REMARK minimizedAffinity -7.77614546
REMARK CNNscore 0.30878821
REMARK CNNaffinity 5.97236252
REMARK  15 active torsions:
REMARK  status: ('A' for Active; 'I' for Inactive)
REMARK    1  A    between atoms: C4_5  and  O2_6 
REMARK    2  A    between atoms: C7_10  and  O4_11 
REMARK    3  A    between atoms: O4_11  and  C8_12 
REMARK    4  A    between atoms: C8_12  and  C9_14 
REMARK    5  A    between atoms: C9_14  and  C11_16 
REMARK    6  A    between atoms: C11_16  and  O6_17 
REMARK    7  A    between atoms: C11_16  and  C12_18 
REMARK    8  A    between atoms: C14_20  and  C15_21 
REMARK    9  A    between atoms: C15_21  and  C16_22 
REMARK   10  A    between atoms: C15_21  and  C17_24 
REMARK   11  A    between atoms: C16_22  and  O7_23 
REMARK   12  A    between atoms: C17_24  and  C18_25 
REMARK   13  A    between atoms: C18_25  and  C19_26 
REMARK   14  A    between atoms: C19_26  and  C20_27 
REMARK   15  A    between atoms: C20_27  and  C21_28 
ROOT
HETATM    1  O4  UNL     1       4.194  67.070 -38.113  1.00  0.00    -0.312 OA
ENDROOT
BRANCH   1   2
HETATM    2  C7  UNL     1       4.246  67.571 -39.459  1.00  0.00     0.170 C 
HETATM    3  C6  UNL     1       2.855  68.017 -39.867  1.00  0.00     0.127 A 
HETATM    4  C5  UNL     1       1.925  67.039 -40.563  1.00  0.00     0.223 A 
HETATM    5  O3  UNL     1       2.694  68.006 -41.299  1.00  0.00    -0.360 OA
HETATM    6  C27 UNL     1       2.272  69.262 -39.188  1.00  0.00    -0.003 C 
HETATM    7  C4  UNL     1       0.439  67.237 -40.623  1.00  0.00     0.199 C 
HETATM    8  O1  UNL     1       0.015  67.273 -41.989  1.00  0.00    -0.348 OA
HETATM    9  C30 UNL     1      -0.078  68.528 -39.965  1.00  0.00     0.082 C 
HETATM   10  C3  UNL     1      -1.232  67.975 -42.033  1.00  0.00     0.205 C 
HETATM   11  C2  UNL     1      -1.240  68.886 -40.854  1.00  0.00    -0.056 C 
HETATM   12  C1  UNL     1      -2.127  69.867 -40.636  1.00  0.00     0.017 C 
HETATM   13  C29 UNL     1       0.953  69.671 -39.911  1.00  0.00     0.027 C 
HETATM   14  C25 UNL     1       3.324  70.420 -39.309  1.00  0.00    -0.007 C 
HETATM   15  C28 UNL     1       1.932  68.950 -37.712  1.00  0.00     0.019 C 
HETATM   16  C24 UNL     1       4.728  69.987 -38.833  1.00  0.00     0.007 C 
HETATM   17  C26 UNL     1       2.923  71.715 -38.594  1.00  0.00     0.011 C 
HETATM   18  C23 UNL     1       5.221  68.748 -39.578  1.00  0.00     0.036 C 
BRANCH   7  19
HETATM   19  O2  UNL     1      -0.194  66.114 -40.012  1.00  0.00    -0.363 OA
HETATM   20  H5  UNL     1      -0.000  65.379 -40.619  1.00  0.00     0.213 HD
ENDBRANCH   7  19
ENDBRANCH   1   2
BRANCH   1  21
HETATM   21  C8  UNL     1       5.334  66.491 -37.643  1.00  0.00     0.266 C 
HETATM   22  O5  UNL     1       5.883  65.523 -38.145  1.00  0.00    -0.265 OA
BRANCH  21  23
HETATM   23  C9  UNL     1       5.848  67.251 -36.439  1.00  0.00     0.114 C 
HETATM   24  C10 UNL     1       7.256  66.763 -36.093  1.00  0.00     0.023 C 
BRANCH  23  25
HETATM   25  C11 UNL     1       4.835  67.196 -35.279  1.00  0.00     0.159 C 
BRANCH  25  26
HETATM   26  O6  UNL     1       5.455  67.727 -34.099  1.00  0.00    -0.390 OA
HETATM   27  H13 UNL     1       6.313  67.284 -33.993  1.00  0.00     0.210 HD
ENDBRANCH  25  26
BRANCH  25  28
HETATM   28  C12 UNL     1       4.235  65.828 -34.968  1.00  0.00    -0.058 C 
HETATM   29  C13 UNL     1       2.853  65.587 -35.522  1.00  0.00     0.046 C 
HETATM   30  C14 UNL     1       4.877  64.881 -34.246  1.00  0.00    -0.015 C 
BRANCH  30  31
HETATM   31  C15 UNL     1       4.389  63.470 -33.953  1.00  0.00     0.032 C 
BRANCH  31  32
HETATM   32  C16 UNL     1       4.164  63.276 -32.441  1.00  0.00     0.172 C 
BRANCH  32  33
HETATM   33  O7  UNL     1       3.080  62.393 -32.170  1.00  0.00    -0.400 OA
HETATM   34  H21 UNL     1       3.432  61.488 -32.226  1.00  0.00     0.209 HD
ENDBRANCH  32  33
ENDBRANCH  31  32
BRANCH  31  35
HETATM   35  C17 UNL     1       5.401  62.470 -34.550  1.00  0.00     0.010 C 
BRANCH  35  36
HETATM   36  C18 UNL     1       6.860  62.946 -34.604  1.00  0.00     0.001 C 
BRANCH  36  37
HETATM   37  C19 UNL     1       7.864  61.979 -33.960  1.00  0.00     0.000 C 
BRANCH  37  38
HETATM   38  C20 UNL     1       8.133  60.732 -34.809  1.00  0.00    -0.000 C 
BRANCH  38  39
HETATM   39  C21 UNL     1       6.870  59.881 -34.954  1.00  0.00    -0.005 C 
HETATM   40  C22 UNL     1       7.185  58.517 -35.550  1.00  0.00     0.005 C 
ENDBRANCH  38  39
ENDBRANCH  37  38
ENDBRANCH  36  37
ENDBRANCH  35  36
ENDBRANCH  31  35
ENDBRANCH  30  31
ENDBRANCH  25  28
ENDBRANCH  23  25
ENDBRANCH  21  23
ENDBRANCH   1  21
TORSDOF 15
ENDMDL
MODEL 6
REMARK minimizedAffinity -7.91534567
REMARK CNNscore 0.288566113
REMARK CNNaffinity 6.62290621
REMARK  15 active torsions:
REMARK  status: ('A' for Active; 'I' for Inactive)
REMARK    1  A    between atoms: C4_5  and  O2_6 
REMARK    2  A    between atoms: C7_10  and  O4_11 
REMARK    3  A    between atoms: O4_11  and  C8_12 
REMARK    4  A    between atoms: C8_12  and  C9_14 
REMARK    5  A    between atoms: C9_14  and  C11_16 
REMARK    6  A    between atoms: C11_16  and  O6_17 
REMARK    7  A    between atoms: C11_16  and  C12_18 
REMARK    8  A    between atoms: C14_20  and  C15_21 
REMARK    9  A    between atoms: C15_21  and  C16_22 
REMARK   10  A    between atoms: C15_21  and  C17_24 
REMARK   11  A    between atoms: C16_22  and  O7_23 
REMARK   12  A    between atoms: C17_24  and  C18_25 
REMARK   13  A    between atoms: C18_25  and  C19_26 
REMARK   14  A    between atoms: C19_26  and  C20_27 
REMARK   15  A    between atoms: C20_27  and  C21_28 
ROOT
HETATM    1  O4  UNL     1      -3.602  50.379 -22.432  1.00  0.00    -0.312 OA
ENDROOT
BRANCH   1   2
HETATM    2  C7  UNL     1      -4.139  51.202 -23.480  1.00  0.00     0.170 C 
HETATM    3  C6  UNL     1      -3.064  51.419 -24.528  1.00  0.00     0.127 A 
HETATM    4  C5  UNL     1      -2.150  52.627 -24.429  1.00  0.00     0.223 A 
HETATM    5  O3  UNL     1      -3.303  52.618 -25.289  1.00  0.00    -0.360 OA
HETATM    6  C27 UNL     1      -2.641  50.218 -25.381  1.00  0.00    -0.003 C 
HETATM    7  C4  UNL     1      -0.832  52.706 -25.141  1.00  0.00     0.199 C 
HETATM    8  O1  UNL     1      -0.819  53.851 -25.999  1.00  0.00    -0.348 OA
HETATM    9  C30 UNL     1      -0.486  51.490 -26.018  1.00  0.00     0.082 C 
HETATM   10  C3  UNL     1       0.159  53.611 -27.018  1.00  0.00     0.205 C 
HETATM   11  C2  UNL     1       0.265  52.131 -27.155  1.00  0.00    -0.056 C 
HETATM   12  C1  UNL     1       0.911  51.487 -28.137  1.00  0.00     0.017 C 
HETATM   13  C29 UNL     1      -1.709  50.709 -26.531  1.00  0.00     0.027 C 
HETATM   14  C25 UNL     1      -3.935  49.570 -25.988  1.00  0.00    -0.007 C 
HETATM   15  C28 UNL     1      -1.845  49.210 -24.520  1.00  0.00     0.019 C 
HETATM   16  C24 UNL     1      -5.007  49.287 -24.911  1.00  0.00     0.007 C 
HETATM   17  C26 UNL     1      -3.682  48.294 -26.798  1.00  0.00     0.011 C 
HETATM   18  C23 UNL     1      -5.366  50.549 -24.127  1.00  0.00     0.036 C 
BRANCH   7  19
HETATM   19  O2  UNL     1       0.197  52.892 -24.171  1.00  0.00    -0.363 OA
HETATM   20  H5  UNL     1       0.031  53.784 -23.822  1.00  0.00     0.213 HD
ENDBRANCH   7  19
ENDBRANCH   1   2
BRANCH   1  21
HETATM   21  C8  UNL     1      -4.206  50.485 -21.215  1.00  0.00     0.266 C 
HETATM   22  O5  UNL     1      -4.028  51.400 -20.426  1.00  0.00    -0.265 OA
BRANCH  21  23
HETATM   23  C9  UNL     1      -5.165  49.333 -21.005  1.00  0.00     0.114 C 
HETATM   24  C10 UNL     1      -6.098  49.655 -19.836  1.00  0.00     0.023 C 
BRANCH  23  25
HETATM   25  C11 UNL     1      -4.403  47.998 -20.884  1.00  0.00     0.159 C 
BRANCH  25  26
HETATM   26  O6  UNL     1      -5.149  47.117 -20.032  1.00  0.00    -0.390 OA
HETATM   27  H13 UNL     1      -5.369  47.607 -19.222  1.00  0.00     0.210 HD
ENDBRANCH  25  26
BRANCH  25  28
HETATM   28  C12 UNL     1      -2.961  48.083 -20.391  1.00  0.00    -0.058 C 
HETATM   29  C13 UNL     1      -1.933  47.438 -21.287  1.00  0.00     0.046 C 
HETATM   30  C14 UNL     1      -2.605  48.687 -19.234  1.00  0.00    -0.015 C 
BRANCH  30  31
HETATM   31  C15 UNL     1      -1.191  48.884 -18.705  1.00  0.00     0.032 C 
BRANCH  31  32
HETATM   32  C16 UNL     1      -1.157  48.718 -17.174  1.00  0.00     0.172 C 
BRANCH  32  33
HETATM   33  O7  UNL     1       0.102  49.092 -16.624  1.00  0.00    -0.400 OA
HETATM   34  H21 UNL     1       0.086  50.058 -16.511  1.00  0.00     0.209 HD
ENDBRANCH  32  33
ENDBRANCH  31  32
BRANCH  31  35
HETATM   35  C17 UNL     1      -0.680  50.261 -19.179  1.00  0.00     0.010 C 
BRANCH  35  36
HETATM   36  C18 UNL     1      -0.188  50.327 -20.632  1.00  0.00     0.001 C 
BRANCH  36  37
HETATM   37  C19 UNL     1       0.431  51.675 -21.027  1.00  0.00     0.000 C 
BRANCH  37  38
HETATM   38  C20 UNL     1       0.654  52.612 -19.835  1.00  0.00    -0.000 C 
BRANCH  38  39
HETATM   39  C21 UNL     1       0.655  54.076 -20.276  1.00  0.00    -0.005 C 
HETATM   40  C22 UNL     1       1.631  54.311 -21.420  1.00  0.00     0.005 C 
ENDBRANCH  38  39
ENDBRANCH  37  38
ENDBRANCH  36  37
ENDBRANCH  35  36
ENDBRANCH  31  35
ENDBRANCH  30  31
ENDBRANCH  25  28
ENDBRANCH  23  25
ENDBRANCH  21  23
ENDBRANCH   1  21
TORSDOF 15
ENDMDL
MODEL 7
REMARK minimizedAffinity -8.50082111
REMARK CNNscore 0.285605788
REMARK CNNaffinity 6.76552773
REMARK  15 active torsions:
REMARK  status: ('A' for Active; 'I' for Inactive)
REMARK    1  A    between atoms: C4_5  and  O2_6 
REMARK    2  A    between atoms: C7_10  and  O4_11 
REMARK    3  A    between atoms: O4_11  and  C8_12 
REMARK    4  A    between atoms: C8_12  and  C9_14 
REMARK    5  A    between atoms: C9_14  and  C11_16 
REMARK    6  A    between atoms: C11_16  and  O6_17 
REMARK    7  A    between atoms: C11_16  and  C12_18 
REMARK    8  A    between atoms: C14_20  and  C15_21 
REMARK    9  A    between atoms: C15_21  and  C16_22 
REMARK   10  A    between atoms: C15_21  and  C17_24 
REMARK   11  A    between atoms: C16_22  and  O7_23 
REMARK   12  A    between atoms: C17_24  and  C18_25 
REMARK   13  A    between atoms: C18_25  and  C19_26 
REMARK   14  A    between atoms: C19_26  and  C20_27 
REMARK   15  A    between atoms: C20_27  and  C21_28 
ROOT
HETATM    1  O4  UNL     1      -3.306  49.016 -20.766  1.00  0.00    -0.312 OA
ENDROOT
BRANCH   1   2
HETATM    2  C7  UNL     1      -3.583  50.291 -20.163  1.00  0.00     0.170 C 
HETATM    3  C6  UNL     1      -2.458  50.629 -19.203  1.00  0.00     0.127 A 
HETATM    4  C5  UNL     1      -2.569  50.228 -17.743  1.00  0.00     0.223 A 
HETATM    5  O3  UNL     1      -2.890  51.557 -18.189  1.00  0.00    -0.360 OA
HETATM    6  C27 UNL     1      -1.082  50.955 -19.795  1.00  0.00    -0.003 C 
HETATM    7  C4  UNL     1      -1.378  50.137 -16.834  1.00  0.00     0.199 C 
HETATM    8  O1  UNL     1      -1.564  51.006 -15.713  1.00  0.00    -0.348 OA
HETATM    9  C30 UNL     1      -0.034  50.522 -17.476  1.00  0.00     0.082 C 
HETATM   10  C3  UNL     1      -0.267  51.309 -15.186  1.00  0.00     0.205 C 
HETATM   11  C2  UNL     1       0.688  51.164 -16.320  1.00  0.00    -0.056 C 
HETATM   12  C1  UNL     1       1.970  51.556 -16.311  1.00  0.00     0.017 C 
HETATM   13  C29 UNL     1      -0.152  51.492 -18.665  1.00  0.00     0.027 C 
HETATM   14  C25 UNL     1      -1.273  52.059 -20.894  1.00  0.00    -0.007 C 
HETATM   15  C28 UNL     1      -0.438  49.674 -20.376  1.00  0.00     0.019 C 
HETATM   16  C24 UNL     1      -2.374  51.686 -21.912  1.00  0.00     0.007 C 
HETATM   17  C26 UNL     1       0.009  52.429 -21.647  1.00  0.00     0.011 C 
HETATM   18  C23 UNL     1      -3.706  51.393 -21.222  1.00  0.00     0.036 C 
BRANCH   7  19
HETATM   19  O2  UNL     1      -1.293  48.806 -16.330  1.00  0.00    -0.363 OA
HETATM   20  H5  UNL     1      -2.072  48.724 -15.754  1.00  0.00     0.213 HD
ENDBRANCH   7  19
ENDBRANCH   1   2
BRANCH   1  21
HETATM   21  C8  UNL     1      -4.344  48.423 -21.419  1.00  0.00     0.266 C 
HETATM   22  O5  UNL     1      -5.434  48.182 -20.923  1.00  0.00    -0.265 OA
BRANCH  21  23
HETATM   23  C9  UNL     1      -3.969  48.152 -22.860  1.00  0.00     0.114 C 
HETATM   24  C10 UNL     1      -2.457  48.309 -23.030  1.00  0.00     0.023 C 
BRANCH  23  25
HETATM   25  C11 UNL     1      -4.825  49.000 -23.821  1.00  0.00     0.159 C 
BRANCH  25  26
HETATM   26  O6  UNL     1      -6.006  48.259 -24.162  1.00  0.00    -0.390 OA
HETATM   27  H13 UNL     1      -5.726  47.372 -24.443  1.00  0.00     0.210 HD
ENDBRANCH  25  26
BRANCH  25  28
HETATM   28  C12 UNL     1      -4.139  49.479 -25.097  1.00  0.00    -0.058 C 
HETATM   29  C13 UNL     1      -3.855  48.407 -26.120  1.00  0.00     0.046 C 
HETATM   30  C14 UNL     1      -3.797  50.769 -25.318  1.00  0.00    -0.015 C 
BRANCH  30  31
HETATM   31  C15 UNL     1      -3.181  51.345 -26.585  1.00  0.00     0.032 C 
BRANCH  31  32
HETATM   32  C16 UNL     1      -2.962  50.239 -27.634  1.00  0.00     0.172 C 
BRANCH  32  33
HETATM   33  O7  UNL     1      -3.474  50.604 -28.912  1.00  0.00    -0.400 OA
HETATM   34  H21 UNL     1      -2.789  51.142 -29.347  1.00  0.00     0.209 HD
ENDBRANCH  32  33
ENDBRANCH  31  32
BRANCH  31  35
HETATM   35  C17 UNL     1      -1.882  52.086 -26.203  1.00  0.00     0.010 C 
BRANCH  35  36
HETATM   36  C18 UNL     1      -0.958  51.352 -25.221  1.00  0.00     0.001 C 
BRANCH  36  37
HETATM   37  C19 UNL     1       0.323  50.795 -25.856  1.00  0.00     0.000 C 
BRANCH  37  38
HETATM   38  C20 UNL     1       1.449  51.830 -25.957  1.00  0.00    -0.000 C 
BRANCH  38  39
HETATM   39  C21 UNL     1       2.111  51.794 -27.335  1.00  0.00    -0.005 C 
HETATM   40  C22 UNL     1       1.078  51.879 -28.449  1.00  0.00     0.005 C 
ENDBRANCH  38  39
ENDBRANCH  37  38
ENDBRANCH  36  37
ENDBRANCH  35  36
ENDBRANCH  31  35
ENDBRANCH  30  31
ENDBRANCH  25  28
ENDBRANCH  23  25
ENDBRANCH  21  23
ENDBRANCH   1  21
TORSDOF 15
ENDMDL
MODEL 8
REMARK minimizedAffinity -7.0180707
REMARK CNNscore 0.273890257
REMARK CNNaffinity 5.95536852
REMARK  15 active torsions:
REMARK  status: ('A' for Active; 'I' for Inactive)
REMARK    1  A    between atoms: C4_5  and  O2_6 
REMARK    2  A    between atoms: C7_10  and  O4_11 
REMARK    3  A    between atoms: O4_11  and  C8_12 
REMARK    4  A    between atoms: C8_12  and  C9_14 
REMARK    5  A    between atoms: C9_14  and  C11_16 
REMARK    6  A    between atoms: C11_16  and  O6_17 
REMARK    7  A    between atoms: C11_16  and  C12_18 
REMARK    8  A    between atoms: C14_20  and  C15_21 
REMARK    9  A    between atoms: C15_21  and  C16_22 
REMARK   10  A    between atoms: C15_21  and  C17_24 
REMARK   11  A    between atoms: C16_22  and  O7_23 
REMARK   12  A    between atoms: C17_24  and  C18_25 
REMARK   13  A    between atoms: C18_25  and  C19_26 
REMARK   14  A    between atoms: C19_26  and  C20_27 
REMARK   15  A    between atoms: C20_27  and  C21_28 
ROOT
HETATM    1  O4  UNL     1      -2.907  50.273 -15.683  1.00  0.00    -0.312 OA
ENDROOT
BRANCH   1   2
HETATM    2  C7  UNL     1      -2.065  49.416 -14.895  1.00  0.00     0.170 C 
HETATM    3  C6  UNL     1      -1.270  50.272 -13.928  1.00  0.00     0.127 A 
HETATM    4  C5  UNL     1       0.102  50.785 -14.329  1.00  0.00     0.223 A 
HETATM    5  O3  UNL     1      -0.058  49.613 -13.512  1.00  0.00    -0.360 OA
HETATM    6  C27 UNL     1      -2.027  50.954 -12.783  1.00  0.00    -0.003 C 
HETATM    7  C4  UNL     1       0.765  51.945 -13.647  1.00  0.00     0.199 C 
HETATM    8  O1  UNL     1       2.029  51.532 -13.119  1.00  0.00    -0.348 OA
HETATM    9  C30 UNL     1      -0.025  52.556 -12.476  1.00  0.00     0.082 C 
HETATM   10  C3  UNL     1       2.368  52.436 -12.061  1.00  0.00     0.205 C 
HETATM   11  C2  UNL     1       1.079  52.969 -11.539  1.00  0.00    -0.056 C 
HETATM   12  C1  UNL     1       0.932  53.683 -10.414  1.00  0.00     0.017 C 
HETATM   13  C29 UNL     1      -1.001  51.582 -11.791  1.00  0.00     0.027 C 
HETATM   14  C25 UNL     1      -2.880  49.864 -12.044  1.00  0.00    -0.007 C 
HETATM   15  C28 UNL     1      -2.912  52.094 -13.339  1.00  0.00     0.019 C 
HETATM   16  C24 UNL     1      -3.741  49.034 -13.022  1.00  0.00     0.007 C 
HETATM   17  C26 UNL     1      -3.771  50.411 -10.924  1.00  0.00     0.011 C 
HETATM   18  C23 UNL     1      -2.891  48.387 -14.115  1.00  0.00     0.036 C 
BRANCH   7  19
HETATM   19  O2  UNL     1       1.021  52.957 -14.618  1.00  0.00    -0.363 OA
HETATM   20  H5  UNL     1       1.701  52.564 -15.191  1.00  0.00     0.213 HD
ENDBRANCH   7  19
ENDBRANCH   1   2
BRANCH   1  21
HETATM   21  C8  UNL     1      -2.503  50.499 -16.965  1.00  0.00     0.266 C 
HETATM   22  O5  UNL     1      -2.820  51.470 -17.635  1.00  0.00    -0.265 OA
BRANCH  21  23
HETATM   23  C9  UNL     1      -1.567  49.400 -17.420  1.00  0.00     0.114 C 
HETATM   24  C10 UNL     1      -0.135  49.936 -17.460  1.00  0.00     0.023 C 
BRANCH  23  25
HETATM   25  C11 UNL     1      -2.063  48.764 -18.734  1.00  0.00     0.159 C 
BRANCH  25  26
HETATM   26  O6  UNL     1      -2.052  47.336 -18.588  1.00  0.00    -0.390 OA
HETATM   27  H13 UNL     1      -1.179  47.082 -18.244  1.00  0.00     0.210 HD
ENDBRANCH  25  26
BRANCH  25  28
HETATM   28  C12 UNL     1      -1.307  49.152 -20.002  1.00  0.00    -0.058 C 
HETATM   29  C13 UNL     1      -0.876  48.000 -20.874  1.00  0.00     0.046 C 
HETATM   30  C14 UNL     1      -1.030  50.432 -20.340  1.00  0.00    -0.015 C 
BRANCH  30  31
HETATM   31  C15 UNL     1      -0.351  50.912 -21.615  1.00  0.00     0.032 C 
BRANCH  31  32
HETATM   32  C16 UNL     1       0.721  51.971 -21.295  1.00  0.00     0.172 C 
BRANCH  32  33
HETATM   33  O7  UNL     1       0.253  52.942 -20.365  1.00  0.00    -0.400 OA
HETATM   34  H21 UNL     1       0.372  52.564 -19.477  1.00  0.00     0.209 HD
ENDBRANCH  32  33
ENDBRANCH  31  32
BRANCH  31  35
HETATM   35  C17 UNL     1      -1.439  51.423 -22.584  1.00  0.00     0.010 C 
BRANCH  35  36
HETATM   36  C18 UNL     1      -1.490  50.735 -23.956  1.00  0.00     0.001 C 
BRANCH  36  37
HETATM   37  C19 UNL     1      -1.147  51.656 -25.135  1.00  0.00     0.000 C 
BRANCH  37  38
HETATM   38  C20 UNL     1       0.300  52.160 -25.109  1.00  0.00    -0.000 C 
BRANCH  38  39
HETATM   39  C21 UNL     1       0.998  51.905 -26.446  1.00  0.00    -0.005 C 
HETATM   40  C22 UNL     1       2.331  51.199 -26.252  1.00  0.00     0.005 C 
ENDBRANCH  38  39
ENDBRANCH  37  38
ENDBRANCH  36  37
ENDBRANCH  35  36
ENDBRANCH  31  35
ENDBRANCH  30  31
ENDBRANCH  25  28
ENDBRANCH  23  25
ENDBRANCH  21  23
ENDBRANCH   1  21
TORSDOF 15
ENDMDL
MODEL 9
REMARK minimizedAffinity -7.83194017
REMARK CNNscore 0.250742227
REMARK CNNaffinity 5.93264198
REMARK  15 active torsions:
REMARK  status: ('A' for Active; 'I' for Inactive)
REMARK    1  A    between atoms: C4_5  and  O2_6 
REMARK    2  A    between atoms: C7_10  and  O4_11 
REMARK    3  A    between atoms: O4_11  and  C8_12 
REMARK    4  A    between atoms: C8_12  and  C9_14 
REMARK    5  A    between atoms: C9_14  and  C11_16 
REMARK    6  A    between atoms: C11_16  and  O6_17 
REMARK    7  A    between atoms: C11_16  and  C12_18 
REMARK    8  A    between atoms: C14_20  and  C15_21 
REMARK    9  A    between atoms: C15_21  and  C16_22 
REMARK   10  A    between atoms: C15_21  and  C17_24 
REMARK   11  A    between atoms: C16_22  and  O7_23 
REMARK   12  A    between atoms: C17_24  and  C18_25 
REMARK   13  A    between atoms: C18_25  and  C19_26 
REMARK   14  A    between atoms: C19_26  and  C20_27 
REMARK   15  A    between atoms: C20_27  and  C21_28 
ROOT
HETATM    1  O4  UNL     1      -4.130  49.300 -20.248  1.00  0.00    -0.312 OA
ENDROOT
BRANCH   1   2
HETATM    2  C7  UNL     1      -2.882  48.721 -20.661  1.00  0.00     0.170 C 
HETATM    3  C6  UNL     1      -1.864  49.832 -20.834  1.00  0.00     0.127 A 
HETATM    4  C5  UNL     1      -1.690  50.487 -22.193  1.00  0.00     0.223 A 
HETATM    5  O3  UNL     1      -0.809  49.446 -21.736  1.00  0.00    -0.360 OA
HETATM    6  C27 UNL     1      -1.370  50.556 -19.577  1.00  0.00    -0.003 C 
HETATM    7  C4  UNL     1      -1.043  51.830 -22.368  1.00  0.00     0.199 C 
HETATM    8  O1  UNL     1       0.080  51.710 -23.246  1.00  0.00    -0.348 OA
HETATM    9  C30 UNL     1      -0.526  52.483 -21.074  1.00  0.00     0.082 C 
HETATM   10  C3  UNL     1       0.956  52.809 -22.974  1.00  0.00     0.205 C 
HETATM   11  C2  UNL     1       0.701  53.206 -21.561  1.00  0.00    -0.056 C 
HETATM   12  C1  UNL     1       1.453  54.055 -20.845  1.00  0.00     0.017 C 
HETATM   13  C29 UNL     1      -0.176  51.485 -19.955  1.00  0.00     0.027 C 
HETATM   14  C25 UNL     1      -0.892  49.473 -18.546  1.00  0.00    -0.007 C 
HETATM   15  C28 UNL     1      -2.498  51.440 -18.996  1.00  0.00     0.019 C 
HETATM   16  C24 UNL     1      -1.954  48.374 -18.318  1.00  0.00     0.007 C 
HETATM   17  C26 UNL     1      -0.451  50.040 -17.193  1.00  0.00     0.011 C 
HETATM   18  C23 UNL     1      -2.369  47.708 -19.629  1.00  0.00     0.036 C 
BRANCH   7  19
HETATM   19  O2  UNL     1      -1.979  52.706 -22.994  1.00  0.00    -0.363 OA
HETATM   20  H5  UNL     1      -2.077  52.341 -23.890  1.00  0.00     0.213 HD
ENDBRANCH   7  19
ENDBRANCH   1   2
BRANCH   1  21
HETATM   21  C8  UNL     1      -5.183  49.124 -21.094  1.00  0.00     0.266 C 
HETATM   22  O5  UNL     1      -6.256  48.632 -20.779  1.00  0.00    -0.265 OA
BRANCH  21  23
HETATM   23  C9  UNL     1      -4.850  49.672 -22.465  1.00  0.00     0.114 C 
HETATM   24  C10 UNL     1      -5.462  51.065 -22.619  1.00  0.00     0.023 C 
BRANCH  23  25
HETATM   25  C11 UNL     1      -5.234  48.665 -23.567  1.00  0.00     0.159 C 
BRANCH  25  26
HETATM   26  O6  UNL     1      -5.303  47.353 -22.990  1.00  0.00    -0.390 OA
HETATM   27  H13 UNL     1      -4.484  47.208 -22.488  1.00  0.00     0.210 HD
ENDBRANCH  25  26
BRANCH  25  28
HETATM   28  C12 UNL     1      -4.332  48.632 -24.799  1.00  0.00    -0.058 C 
HETATM   29  C13 UNL     1      -2.857  48.489 -24.515  1.00  0.00     0.046 C 
HETATM   30  C14 UNL     1      -4.798  48.725 -26.065  1.00  0.00    -0.015 C 
BRANCH  30  31
HETATM   31  C15 UNL     1      -3.983  48.626 -27.347  1.00  0.00     0.032 C 
BRANCH  31  32
HETATM   32  C16 UNL     1      -3.425  50.006 -27.743  1.00  0.00     0.172 C 
BRANCH  32  33
HETATM   33  O7  UNL     1      -3.652  50.300 -29.118  1.00  0.00    -0.400 OA
HETATM   34  H21 UNL     1      -4.555  50.655 -29.185  1.00  0.00     0.209 HD
ENDBRANCH  32  33
ENDBRANCH  31  32
BRANCH  31  35
HETATM   35  C17 UNL     1      -4.869  47.992 -28.440  1.00  0.00     0.010 C 
BRANCH  35  36
HETATM   36  C18 UNL     1      -6.247  47.496 -27.979  1.00  0.00     0.001 C 
BRANCH  36  37
HETATM   37  C19 UNL     1      -7.076  46.823 -29.082  1.00  0.00     0.000 C 
BRANCH  37  38
HETATM   38  C20 UNL     1      -8.414  46.268 -28.581  1.00  0.00    -0.000 C 
BRANCH  38  39
HETATM   39  C21 UNL     1      -8.255  45.593 -27.218  1.00  0.00    -0.005 C 
HETATM   40  C22 UNL     1      -7.987  44.102 -27.365  1.00  0.00     0.005 C 
ENDBRANCH  38  39
ENDBRANCH  37  38
ENDBRANCH  36  37
ENDBRANCH  35  36
ENDBRANCH  31  35
ENDBRANCH  30  31
ENDBRANCH  25  28
ENDBRANCH  23  25
ENDBRANCH  21  23
ENDBRANCH   1  21
TORSDOF 15
ENDMDL
