MODEL 1
REMARK minimizedAffinity -8.57792091
REMARK CNNscore 0.403173149
REMARK CNNaffinity 6.28515005
REMARK  5 active torsions:
REMARK  status: ('A' for Active; 'I' for Inactive)
REMARK    1  A    between atoms: C2_2  and  C3_3 
REMARK    2  A    between atoms: C6_6  and  C7_7 
REMARK    3  A    between atoms: C7_7  and  O1_8 
REMARK    4  A    between atoms: C7_7  and  C8_9 
REMARK    5  A    between atoms: C26_32  and  O6_33 
ROOT
HETATM    1  C3  UNL     1      -4.137  48.896 -21.195  1.00  0.00     0.008 C 
HETATM    2  C4  UNL     1      -4.711  49.065 -22.588  1.00  0.00    -0.023 C 
HETATM    3  C5  UNL     1      -4.379  48.379 -23.695  1.00  0.00     0.005 C 
HETATM    4  C6  UNL     1      -5.087  48.562 -25.017  1.00  0.00     0.187 C 
HETATM    5  O2  UNL     1      -6.145  47.569 -25.050  1.00  0.00    -0.308 OA
HETATM    6  C12 UNL     1      -7.392  48.027 -24.707  1.00  0.00     0.276 C 
HETATM    7  O3  UNL     1      -7.649  49.187 -24.407  1.00  0.00    -0.264 OA
HETATM    8  C13 UNL     1      -8.468  46.921 -24.896  1.00  0.00     0.095 C 
HETATM    9  C14 UNL     1      -9.775  47.323 -24.172  1.00  0.00     0.036 C 
HETATM   10  C15 UNL     1      -8.777  47.052 -26.375  1.00  0.00     0.003 C 
HETATM   11  C16 UNL     1      -8.873  46.167 -27.366  1.00  0.00     0.072 C 
HETATM   12  C17 UNL     1      -8.731  44.713 -27.344  1.00  0.00     0.245 C 
HETATM   13  O4  UNL     1      -8.950  44.090 -28.381  1.00  0.00    -0.268 OA
HETATM   14  N1  UNL     1      -8.355  44.049 -26.236  1.00  0.00    -0.320 N 
HETATM   15  C18 UNL     1      -7.992  44.368 -24.952  1.00  0.00     0.098 C 
HETATM   16  C19 UNL     1      -7.990  45.569 -24.352  1.00  0.00     0.045 C 
HETATM   17  C20 UNL     1      -7.494  45.647 -22.922  1.00  0.00     0.194 C 
HETATM   18  O5  UNL     1      -7.485  46.719 -22.331  1.00  0.00    -0.287 OA
HETATM   19  C21 UNL     1      -7.056  44.442 -22.192  1.00  0.00     0.046 A 
HETATM   20  C22 UNL     1      -7.193  43.207 -22.806  1.00  0.00     0.032 A 
HETATM   21  C23 UNL     1      -6.928  42.016 -22.109  1.00  0.00     0.026 A 
HETATM   22  C24 UNL     1      -6.541  42.044 -20.766  1.00  0.00    -0.027 A 
HETATM   23  C25 UNL     1      -6.300  40.766 -20.015  1.00  0.00     0.051 C 
HETATM   24  C26 UNL     1      -6.378  43.286 -20.151  1.00  0.00     0.086 A 
HETATM   25  C27 UNL     1      -6.581  44.482 -20.866  1.00  0.00     0.059 A 
HETATM   26  C28 UNL     1      -6.178  45.723 -20.164  1.00  0.00     0.163 C 
HETATM   27  O7  UNL     1      -6.644  45.924 -19.044  1.00  0.00    -0.292 OA
HETATM   28  C29 UNL     1      -5.021  46.513 -20.748  1.00  0.00     0.084 C 
HETATM   29  C30 UNL     1      -5.077  47.993 -20.363  1.00  0.00     0.016 C 
HETATM   30  C31 UNL     1      -7.601  43.123 -24.208  1.00  0.00     0.210 C 
HETATM   31  O8  UNL     1      -7.628  42.035 -24.782  1.00  0.00    -0.285 OA
HETATM   32  H24 UNL     1      -8.299  43.046 -26.436  1.00  0.00     0.169 HD
ENDROOT
BRANCH   4  33
HETATM   33  C7  UNL     1      -4.169  48.304 -26.249  1.00  0.00     0.174 C 
BRANCH  33  34
HETATM   34  O1  UNL     1      -4.844  48.755 -27.426  1.00  0.00    -0.389 OA
HETATM   35  H11 UNL     1      -5.667  48.239 -27.483  1.00  0.00     0.210 HD
ENDBRANCH  33  34
BRANCH  33  36
HETATM   36  C8  UNL     1      -2.806  48.948 -26.116  1.00  0.00     0.009 C 
HETATM   37  C9  UNL     1      -2.281  50.041 -26.710  1.00  0.00    -0.089 C 
HETATM   38  C10 UNL     1      -0.887  50.502 -26.373  1.00  0.00     0.042 C 
HETATM   39  C11 UNL     1      -2.990  50.885 -27.733  1.00  0.00     0.042 C 
ENDBRANCH  33  36
ENDBRANCH   4  33
BRANCH   1  40
HETATM   40  C2  UNL     1      -2.657  48.456 -21.176  1.00  0.00     0.004 C 
HETATM   41  C1  UNL     1      -2.353  47.338 -22.166  1.00  0.00     0.006 C 
ENDBRANCH   1  40
BRANCH  24  42
HETATM   42  O6  UNL     1      -6.008  43.288 -18.829  1.00  0.00    -0.359 OA
HETATM   43  H29 UNL     1      -6.217  44.167 -18.442  1.00  0.00     0.217 HD
ENDBRANCH  24  42
TORSDOF 5
ENDMDL
MODEL 2
REMARK minimizedAffinity -7.74914646
REMARK CNNscore 0.398574173
REMARK CNNaffinity 6.13216591
REMARK  5 active torsions:
REMARK  status: ('A' for Active; 'I' for Inactive)
REMARK    1  A    between atoms: C2_2  and  C3_3 
REMARK    2  A    between atoms: C6_6  and  C7_7 
REMARK    3  A    between atoms: C7_7  and  O1_8 
REMARK    4  A    between atoms: C7_7  and  C8_9 
REMARK    5  A    between atoms: C26_32  and  O6_33 
ROOT
HETATM    1  C3  UNL     1       0.534  50.472 -10.821  1.00  0.00     0.008 C 
HETATM    2  C4  UNL     1       0.391  51.901 -10.336  1.00  0.00    -0.023 C 
HETATM    3  C5  UNL     1       0.513  52.351  -9.075  1.00  0.00     0.005 C 
HETATM    4  C6  UNL     1       0.448  53.817  -8.717  1.00  0.00     0.187 C 
HETATM    5  O2  UNL     1       1.818  54.297  -8.728  1.00  0.00    -0.308 OA
HETATM    6  C12 UNL     1       2.203  54.945  -9.874  1.00  0.00     0.276 C 
HETATM    7  O3  UNL     1       1.474  55.148 -10.838  1.00  0.00    -0.264 OA
HETATM    8  C13 UNL     1       3.638  55.526  -9.735  1.00  0.00     0.095 C 
HETATM    9  C14 UNL     1       4.189  55.919 -11.127  1.00  0.00     0.036 C 
HETATM   10  C15 UNL     1       3.362  56.840  -9.031  1.00  0.00     0.003 C 
HETATM   11  C16 UNL     1       3.904  57.434  -7.967  1.00  0.00     0.072 C 
HETATM   12  C17 UNL     1       5.006  57.003  -7.112  1.00  0.00     0.245 C 
HETATM   13  O4  UNL     1       5.392  57.767  -6.228  1.00  0.00    -0.268 OA
HETATM   14  N1  UNL     1       5.591  55.799  -7.252  1.00  0.00    -0.320 N 
HETATM   15  C18 UNL     1       5.430  54.694  -8.048  1.00  0.00     0.098 C 
HETATM   16  C19 UNL     1       4.595  54.519  -9.086  1.00  0.00     0.045 C 
HETATM   17  C20 UNL     1       4.589  53.168  -9.771  1.00  0.00     0.194 C 
HETATM   18  O5  UNL     1       3.853  52.966 -10.727  1.00  0.00    -0.287 OA
HETATM   19  C21 UNL     1       5.491  52.081  -9.341  1.00  0.00     0.046 A 
HETATM   20  C22 UNL     1       6.423  52.346  -8.350  1.00  0.00     0.032 A 
HETATM   21  C23 UNL     1       7.401  51.398  -8.001  1.00  0.00     0.026 A 
HETATM   22  C24 UNL     1       7.474  50.170  -8.663  1.00  0.00    -0.027 A 
HETATM   23  C25 UNL     1       8.547  49.178  -8.315  1.00  0.00     0.051 C 
HETATM   24  C26 UNL     1       6.522  49.889  -9.645  1.00  0.00     0.086 A 
HETATM   25  C27 UNL     1       5.503  50.811  -9.951  1.00  0.00     0.059 A 
HETATM   26  C28 UNL     1       4.441  50.314 -10.857  1.00  0.00     0.163 C 
HETATM   27  O7  UNL     1       4.788  49.834 -11.935  1.00  0.00    -0.292 OA
HETATM   28  C29 UNL     1       3.042  50.179 -10.286  1.00  0.00     0.084 C 
HETATM   29  C30 UNL     1       1.964  50.261 -11.370  1.00  0.00     0.016 C 
HETATM   30  C31 UNL     1       6.393  53.619  -7.631  1.00  0.00     0.210 C 
HETATM   31  O8  UNL     1       7.155  53.816  -6.686  1.00  0.00    -0.285 OA
HETATM   32  H24 UNL     1       6.326  55.687  -6.546  1.00  0.00     0.169 HD
ENDROOT
BRANCH   4  33
HETATM   33  C7  UNL     1      -0.123  54.077  -7.290  1.00  0.00     0.174 C 
BRANCH  33  34
HETATM   34  O1  UNL     1      -0.203  52.831  -6.593  1.00  0.00    -0.389 OA
HETATM   35  H11 UNL     1      -0.797  52.265  -7.115  1.00  0.00     0.210 HD
ENDBRANCH  33  34
BRANCH  33  36
HETATM   36  C8  UNL     1       0.682  55.093  -6.508  1.00  0.00     0.009 C 
HETATM   37  C9  UNL     1       0.669  56.443  -6.533  1.00  0.00    -0.089 C 
HETATM   38  C10 UNL     1       1.559  57.236  -5.611  1.00  0.00     0.042 C 
HETATM   39  C11 UNL     1      -0.191  57.275  -7.443  1.00  0.00     0.042 C 
ENDBRANCH  33  36
ENDBRANCH   4  33
BRANCH   1  40
HETATM   40  C2  UNL     1       0.090  49.413  -9.789  1.00  0.00     0.004 C 
HETATM   41  C1  UNL     1       1.236  48.535  -9.302  1.00  0.00     0.006 C 
ENDBRANCH   1  40
BRANCH  24  42
HETATM   42  O6  UNL     1       6.622  48.681 -10.288  1.00  0.00    -0.359 OA
HETATM   43  H29 UNL     1       6.113  48.726 -11.129  1.00  0.00     0.217 HD
ENDBRANCH  24  42
TORSDOF 5
ENDMDL
MODEL 3
REMARK minimizedAffinity -7.53629971
REMARK CNNscore 0.369783491
REMARK CNNaffinity 6.02737808
REMARK  5 active torsions:
REMARK  status: ('A' for Active; 'I' for Inactive)
REMARK    1  A    between atoms: C2_2  and  C3_3 
REMARK    2  A    between atoms: C6_6  and  C7_7 
REMARK    3  A    between atoms: C7_7  and  O1_8 
REMARK    4  A    between atoms: C7_7  and  C8_9 
REMARK    5  A    between atoms: C26_32  and  O6_33 
ROOT
HETATM    1  C3  UNL     1       7.394  56.606  -5.687  1.00  0.00     0.008 C 
HETATM    2  C4  UNL     1       7.232  55.682  -6.879  1.00  0.00    -0.023 C 
HETATM    3  C5  UNL     1       6.701  54.448  -6.888  1.00  0.00     0.005 C 
HETATM    4  C6  UNL     1       6.499  53.651  -8.155  1.00  0.00     0.187 C 
HETATM    5  O2  UNL     1       5.147  53.938  -8.602  1.00  0.00    -0.308 OA
HETATM    6  C12 UNL     1       5.044  54.886  -9.587  1.00  0.00     0.276 C 
HETATM    7  O3  UNL     1       5.996  55.463 -10.102  1.00  0.00    -0.264 OA
HETATM    8  C13 UNL     1       3.576  55.026 -10.080  1.00  0.00     0.095 C 
HETATM    9  C14 UNL     1       3.415  56.326 -10.904  1.00  0.00     0.036 C 
HETATM   10  C15 UNL     1       3.490  53.901 -11.092  1.00  0.00     0.003 C 
HETATM   11  C16 UNL     1       2.601  52.929 -11.299  1.00  0.00     0.072 C 
HETATM   12  C17 UNL     1       1.351  52.636 -10.602  1.00  0.00     0.245 C 
HETATM   13  O4  UNL     1       0.644  51.726 -11.030  1.00  0.00    -0.268 OA
HETATM   14  N1  UNL     1       0.967  53.317  -9.507  1.00  0.00    -0.320 N 
HETATM   15  C18 UNL     1       1.473  54.326  -8.725  1.00  0.00     0.098 C 
HETATM   16  C19 UNL     1       2.587  55.053  -8.908  1.00  0.00     0.045 C 
HETATM   17  C20 UNL     1       2.940  56.085  -7.857  1.00  0.00     0.194 C 
HETATM   18  O5  UNL     1       3.940  56.779  -7.986  1.00  0.00    -0.287 OA
HETATM   19  C21 UNL     1       2.076  56.316  -6.683  1.00  0.00     0.046 A 
HETATM   20  C22 UNL     1       0.873  55.633  -6.599  1.00  0.00     0.032 A 
HETATM   21  C23 UNL     1      -0.055  55.917  -5.582  1.00  0.00     0.026 A 
HETATM   22  C24 UNL     1       0.203  56.916  -4.639  1.00  0.00    -0.027 A 
HETATM   23  C25 UNL     1      -0.811  57.244  -3.580  1.00  0.00     0.051 C 
HETATM   24  C26 UNL     1       1.423  57.589  -4.704  1.00  0.00     0.086 A 
HETATM   25  C27 UNL     1       2.381  57.262  -5.684  1.00  0.00     0.059 A 
HETATM   26  C28 UNL     1       3.708  57.901  -5.520  1.00  0.00     0.163 C 
HETATM   27  O7  UNL     1       3.744  59.126  -5.418  1.00  0.00    -0.292 OA
HETATM   28  C29 UNL     1       4.886  56.995  -5.216  1.00  0.00     0.084 C 
HETATM   29  C30 UNL     1       6.217  57.609  -5.658  1.00  0.00     0.016 C 
HETATM   30  C31 UNL     1       0.554  54.583  -7.566  1.00  0.00     0.210 C 
HETATM   31  O8  UNL     1      -0.467  53.910  -7.435  1.00  0.00    -0.285 OA
HETATM   32  H24 UNL     1       0.076  52.946  -9.163  1.00  0.00     0.169 HD
ENDROOT
BRANCH   4  33
HETATM   33  C7  UNL     1       6.598  52.111  -7.937  1.00  0.00     0.174 C 
BRANCH  33  34
HETATM   34  O1  UNL     1       6.523  51.841  -6.535  1.00  0.00    -0.389 OA
HETATM   35  H11 UNL     1       7.274  52.306  -6.127  1.00  0.00     0.210 HD
ENDBRANCH  33  34
BRANCH  33  36
HETATM   36  C8  UNL     1       5.546  51.337  -8.702  1.00  0.00     0.009 C 
HETATM   37  C9  UNL     1       5.654  50.505  -9.761  1.00  0.00    -0.089 C 
HETATM   38  C10 UNL     1       4.436  49.818 -10.323  1.00  0.00     0.042 C 
HETATM   39  C11 UNL     1       6.939  50.184 -10.472  1.00  0.00     0.042 C 
ENDBRANCH  33  36
ENDBRANCH   4  33
BRANCH   1  40
HETATM   40  C2  UNL     1       7.631  55.869  -4.352  1.00  0.00     0.004 C 
HETATM   41  C1  UNL     1       9.083  55.452  -4.150  1.00  0.00     0.006 C 
ENDBRANCH   1  40
BRANCH  24  42
HETATM   42  O6  UNL     1       1.648  58.573  -3.774  1.00  0.00    -0.359 OA
HETATM   43  H29 UNL     1       2.371  59.157  -4.096  1.00  0.00     0.217 HD
ENDBRANCH  24  42
TORSDOF 5
ENDMDL
MODEL 4
REMARK minimizedAffinity -10.9600916
REMARK CNNscore 0.348313868
REMARK CNNaffinity 7.15900803
REMARK  5 active torsions:
REMARK  status: ('A' for Active; 'I' for Inactive)
REMARK    1  A    between atoms: C2_2  and  C3_3 
REMARK    2  A    between atoms: C6_6  and  C7_7 
REMARK    3  A    between atoms: C7_7  and  O1_8 
REMARK    4  A    between atoms: C7_7  and  C8_9 
REMARK    5  A    between atoms: C26_32  and  O6_33 
ROOT
HETATM    1  C3  UNL     1       0.717  52.500 -25.576  1.00  0.00     0.008 C 
HETATM    2  C4  UNL     1      -0.652  51.915 -25.867  1.00  0.00    -0.023 C 
HETATM    3  C5  UNL     1      -1.063  50.654 -25.648  1.00  0.00     0.005 C 
HETATM    4  C6  UNL     1      -2.484  50.202 -25.885  1.00  0.00     0.187 C 
HETATM    5  O2  UNL     1      -3.174  50.355 -24.616  1.00  0.00    -0.308 OA
HETATM    6  C12 UNL     1      -3.921  51.498 -24.489  1.00  0.00     0.276 C 
HETATM    7  O3  UNL     1      -4.046  52.350 -25.363  1.00  0.00    -0.264 OA
HETATM    8  C13 UNL     1      -4.715  51.505 -23.153  1.00  0.00     0.095 C 
HETATM    9  C14 UNL     1      -5.246  52.928 -22.858  1.00  0.00     0.036 C 
HETATM   10  C15 UNL     1      -5.939  50.693 -23.527  1.00  0.00     0.003 C 
HETATM   11  C16 UNL     1      -6.567  49.671 -22.944  1.00  0.00     0.072 C 
HETATM   12  C17 UNL     1      -6.280  48.988 -21.686  1.00  0.00     0.245 C 
HETATM   13  O4  UNL     1      -7.058  48.115 -21.306  1.00  0.00    -0.268 OA
HETATM   14  N1  UNL     1      -5.190  49.273 -20.950  1.00  0.00    -0.320 N 
HETATM   15  C18 UNL     1      -4.106  50.109 -21.048  1.00  0.00     0.098 C 
HETATM   16  C19 UNL     1      -3.845  51.043 -21.977  1.00  0.00     0.045 C 
HETATM   17  C20 UNL     1      -2.538  51.803 -21.871  1.00  0.00     0.194 C 
HETATM   18  O5  UNL     1      -2.262  52.670 -22.688  1.00  0.00    -0.287 OA
HETATM   19  C21 UNL     1      -1.591  51.556 -20.766  1.00  0.00     0.046 A 
HETATM   20  C22 UNL     1      -1.958  50.675 -19.761  1.00  0.00     0.032 A 
HETATM   21  C23 UNL     1      -1.163  50.510 -18.614  1.00  0.00     0.026 A 
HETATM   22  C24 UNL     1       0.011  51.249 -18.445  1.00  0.00    -0.027 A 
HETATM   23  C25 UNL     1       0.834  51.099 -17.198  1.00  0.00     0.051 C 
HETATM   24  C26 UNL     1       0.397  52.120 -19.466  1.00  0.00     0.086 A 
HETATM   25  C27 UNL     1      -0.365  52.240 -20.644  1.00  0.00     0.059 A 
HETATM   26  C28 UNL     1       0.256  53.034 -21.729  1.00  0.00     0.163 C 
HETATM   27  O7  UNL     1       0.631  54.174 -21.461  1.00  0.00    -0.292 OA
HETATM   28  C29 UNL     1       0.633  52.302 -23.004  1.00  0.00     0.084 C 
HETATM   29  C30 UNL     1       0.677  53.236 -24.216  1.00  0.00     0.016 C 
HETATM   30  C31 UNL     1      -3.180  49.882 -19.887  1.00  0.00     0.210 C 
HETATM   31  O8  UNL     1      -3.456  49.030 -19.044  1.00  0.00    -0.285 OA
HETATM   32  H24 UNL     1      -5.166  48.673 -20.120  1.00  0.00     0.169 HD
ENDROOT
BRANCH   4  33
HETATM   33  C7  UNL     1      -2.593  48.702 -26.293  1.00  0.00     0.174 C 
BRANCH  33  34
HETATM   34  O1  UNL     1      -2.996  47.943 -25.150  1.00  0.00    -0.389 OA
HETATM   35  H11 UNL     1      -2.307  48.078 -24.476  1.00  0.00     0.210 HD
ENDBRANCH  33  34
BRANCH  33  36
HETATM   36  C8  UNL     1      -3.529  48.474 -27.461  1.00  0.00     0.009 C 
HETATM   37  C9  UNL     1      -4.854  48.220 -27.497  1.00  0.00    -0.089 C 
HETATM   38  C10 UNL     1      -5.570  48.066 -28.814  1.00  0.00     0.042 C 
HETATM   39  C11 UNL     1      -5.732  48.065 -26.286  1.00  0.00     0.042 C 
ENDBRANCH  33  36
ENDBRANCH   4  33
BRANCH   1  40
HETATM   40  C2  UNL     1       1.873  51.488 -25.714  1.00  0.00     0.004 C 
HETATM   41  C1  UNL     1       2.623  51.614 -27.035  1.00  0.00     0.006 C 
ENDBRANCH   1  40
BRANCH  24  42
HETATM   42  O6  UNL     1       1.547  52.843 -19.272  1.00  0.00    -0.359 OA
HETATM   43  H29 UNL     1       1.549  53.609 -19.889  1.00  0.00     0.217 HD
ENDBRANCH  24  42
TORSDOF 5
ENDMDL
MODEL 5
REMARK minimizedAffinity -6.19692612
REMARK CNNscore 0.31746006
REMARK CNNaffinity 6.06751966
REMARK  5 active torsions:
REMARK  status: ('A' for Active; 'I' for Inactive)
REMARK    1  A    between atoms: C2_2  and  C3_3 
REMARK    2  A    between atoms: C6_6  and  C7_7 
REMARK    3  A    between atoms: C7_7  and  O1_8 
REMARK    4  A    between atoms: C7_7  and  C8_9 
REMARK    5  A    between atoms: C26_32  and  O6_33 
ROOT
HETATM    1  C3  UNL     1       7.383  53.114  -5.692  1.00  0.00     0.008 C 
HETATM    2  C4  UNL     1       6.443  52.677  -6.799  1.00  0.00    -0.023 C 
HETATM    3  C5  UNL     1       5.178  52.242  -6.671  1.00  0.00     0.005 C 
HETATM    4  C6  UNL     1       4.296  51.925  -7.855  1.00  0.00     0.187 C 
HETATM    5  O2  UNL     1       3.558  53.140  -8.147  1.00  0.00    -0.308 OA
HETATM    6  C12 UNL     1       4.066  53.906  -9.165  1.00  0.00     0.276 C 
HETATM    7  O3  UNL     1       5.058  53.616  -9.826  1.00  0.00    -0.264 OA
HETATM    8  C13 UNL     1       3.137  55.111  -9.480  1.00  0.00     0.095 C 
HETATM    9  C14 UNL     1       3.888  56.147 -10.352  1.00  0.00     0.036 C 
HETATM   10  C15 UNL     1       2.121  54.474 -10.407  1.00  0.00     0.003 C 
HETATM   11  C16 UNL     1       0.788  54.490 -10.446  1.00  0.00     0.072 C 
HETATM   12  C17 UNL     1      -0.167  55.181  -9.584  1.00  0.00     0.245 C 
HETATM   13  O4  UNL     1      -1.362  55.115  -9.868  1.00  0.00    -0.268 OA
HETATM   14  N1  UNL     1       0.220  55.863  -8.491  1.00  0.00    -0.320 N 
HETATM   15  C18 UNL     1       1.398  56.124  -7.838  1.00  0.00     0.098 C 
HETATM   16  C19 UNL     1       2.650  55.798  -8.198  1.00  0.00     0.045 C 
HETATM   17  C20 UNL     1       3.779  56.174  -7.260  1.00  0.00     0.194 C 
HETATM   18  O5  UNL     1       4.936  55.907  -7.552  1.00  0.00    -0.287 OA
HETATM   19  C21 UNL     1       3.525  56.905  -6.003  1.00  0.00     0.046 A 
HETATM   20  C22 UNL     1       2.235  57.332  -5.733  1.00  0.00     0.032 A 
HETATM   21  C23 UNL     1       1.959  58.155  -4.627  1.00  0.00     0.026 A 
HETATM   22  C24 UNL     1       2.985  58.584  -3.782  1.00  0.00    -0.027 A 
HETATM   23  C25 UNL     1       2.691  59.497  -2.626  1.00  0.00     0.051 C 
HETATM   24  C26 UNL     1       4.283  58.137  -4.036  1.00  0.00     0.086 A 
HETATM   25  C27 UNL     1       4.552  57.261  -5.106  1.00  0.00     0.059 A 
HETATM   26  C28 UNL     1       5.922  56.700  -5.144  1.00  0.00     0.163 C 
HETATM   27  O7  UNL     1       6.864  57.489  -5.119  1.00  0.00    -0.292 OA
HETATM   28  C29 UNL     1       6.071  55.204  -4.937  1.00  0.00     0.084 C 
HETATM   29  C30 UNL     1       7.349  54.656  -5.575  1.00  0.00     0.016 C 
HETATM   30  C31 UNL     1       1.125  56.915  -6.590  1.00  0.00     0.210 C 
HETATM   31  O8  UNL     1      -0.031  57.212  -6.296  1.00  0.00    -0.285 OA
HETATM   32  H24 UNL     1      -0.601  56.255  -8.019  1.00  0.00     0.169 HD
ENDROOT
BRANCH   4  33
HETATM   33  C7  UNL     1       3.251  50.807  -7.563  1.00  0.00     0.174 C 
BRANCH  33  34
HETATM   34  O1  UNL     1       2.938  50.825  -6.168  1.00  0.00    -0.389 OA
HETATM   35  H11 UNL     1       3.775  50.660  -5.699  1.00  0.00     0.210 HD
ENDBRANCH  33  34
BRANCH  33  36
HETATM   36  C8  UNL     1       2.001  50.930  -8.407  1.00  0.00     0.009 C 
HETATM   37  C9  UNL     1       1.763  50.595  -9.693  1.00  0.00    -0.089 C 
HETATM   38  C10 UNL     1       0.397  50.790 -10.297  1.00  0.00     0.042 C 
HETATM   39  C11 UNL     1       2.787  50.018 -10.632  1.00  0.00     0.042 C 
ENDBRANCH  33  36
ENDBRANCH   4  33
BRANCH   1  40
HETATM   40  C2  UNL     1       7.163  52.373  -4.356  1.00  0.00     0.004 C 
HETATM   41  C1  UNL     1       7.962  52.969  -3.203  1.00  0.00     0.006 C 
ENDBRANCH   1  40
BRANCH  24  42
HETATM   42  O6  UNL     1       5.275  58.582  -3.199  1.00  0.00    -0.359 OA
HETATM   43  H29 UNL     1       6.145  58.455  -3.642  1.00  0.00     0.217 HD
ENDBRANCH  24  42
TORSDOF 5
ENDMDL
MODEL 6
REMARK minimizedAffinity -7.8394208
REMARK CNNscore 0.244376212
REMARK CNNaffinity 5.47189951
REMARK  5 active torsions:
REMARK  status: ('A' for Active; 'I' for Inactive)
REMARK    1  A    between atoms: C2_2  and  C3_3 
REMARK    2  A    between atoms: C6_6  and  C7_7 
REMARK    3  A    between atoms: C7_7  and  O1_8 
REMARK    4  A    between atoms: C7_7  and  C8_9 
REMARK    5  A    between atoms: C26_32  and  O6_33 
ROOT
HETATM    1  C3  UNL     1     -10.722  45.204 -30.470  1.00  0.00     0.008 C 
HETATM    2  C4  UNL     1      -9.549  45.287 -29.513  1.00  0.00    -0.023 C 
HETATM    3  C5  UNL     1      -9.179  46.342 -28.766  1.00  0.00     0.005 C 
HETATM    4  C6  UNL     1      -8.047  46.283 -27.768  1.00  0.00     0.187 C 
HETATM    5  O2  UNL     1      -8.649  45.941 -26.493  1.00  0.00    -0.308 OA
HETATM    6  C12 UNL     1      -8.572  44.617 -26.143  1.00  0.00     0.276 C 
HETATM    7  O3  UNL     1      -8.025  43.750 -26.815  1.00  0.00    -0.264 OA
HETATM    8  C13 UNL     1      -9.131  44.381 -24.712  1.00  0.00     0.095 C 
HETATM    9  C14 UNL     1      -9.376  42.870 -24.481  1.00  0.00     0.036 C 
HETATM   10  C15 UNL     1      -7.926  44.723 -23.858  1.00  0.00     0.003 C 
HETATM   11  C16 UNL     1      -7.763  45.489 -22.780  1.00  0.00     0.072 C 
HETATM   12  C17 UNL     1      -8.742  46.263 -22.021  1.00  0.00     0.245 C 
HETATM   13  O4  UNL     1      -8.368  46.834 -20.998  1.00  0.00    -0.268 OA
HETATM   14  N1  UNL     1     -10.022  46.381 -22.419  1.00  0.00    -0.320 N 
HETATM   15  C18 UNL     1     -10.786  45.956 -23.476  1.00  0.00     0.098 C 
HETATM   16  C19 UNL     1     -10.445  45.140 -24.486  1.00  0.00     0.045 C 
HETATM   17  C20 UNL     1     -11.480  44.867 -25.558  1.00  0.00     0.194 C 
HETATM   18  O5  UNL     1     -11.217  44.121 -26.492  1.00  0.00    -0.287 OA
HETATM   19  C21 UNL     1     -12.835  45.447 -25.487  1.00  0.00     0.046 A 
HETATM   20  C22 UNL     1     -13.185  46.180 -24.364  1.00  0.00     0.032 A 
HETATM   21  C23 UNL     1     -14.501  46.635 -24.174  1.00  0.00     0.026 A 
HETATM   22  C24 UNL     1     -15.501  46.338 -25.104  1.00  0.00    -0.027 A 
HETATM   23  C25 UNL     1     -16.915  46.790 -24.875  1.00  0.00     0.051 C 
HETATM   24  C26 UNL     1     -15.149  45.621 -26.249  1.00  0.00     0.086 A 
HETATM   25  C27 UNL     1     -13.817  45.220 -26.472  1.00  0.00     0.059 A 
HETATM   26  C28 UNL     1     -13.536  44.651 -27.811  1.00  0.00     0.163 C 
HETATM   27  O7  UNL     1     -14.232  43.712 -28.190  1.00  0.00    -0.292 OA
HETATM   28  C29 UNL     1     -12.607  45.432 -28.721  1.00  0.00     0.084 C 
HETATM   29  C30 UNL     1     -11.918  44.535 -29.753  1.00  0.00     0.016 C 
HETATM   30  C31 UNL     1     -12.176  46.513 -23.358  1.00  0.00     0.210 C 
HETATM   31  O8  UNL     1     -12.462  47.245 -22.412  1.00  0.00    -0.285 OA
HETATM   32  H24 UNL     1     -10.535  46.977 -21.761  1.00  0.00     0.169 HD
ENDROOT
BRANCH   4  33
HETATM   33  C7  UNL     1      -7.316  47.647 -27.585  1.00  0.00     0.174 C 
BRANCH  33  34
HETATM   34  O1  UNL     1      -8.226  48.702 -27.908  1.00  0.00    -0.389 OA
HETATM   35  H11 UNL     1      -8.488  48.562 -28.835  1.00  0.00     0.210 HD
ENDBRANCH  33  34
BRANCH  33  36
HETATM   36  C8  UNL     1      -6.738  47.827 -26.198  1.00  0.00     0.009 C 
HETATM   37  C9  UNL     1      -5.494  48.160 -25.792  1.00  0.00    -0.089 C 
HETATM   38  C10 UNL     1      -5.180  48.312 -24.327  1.00  0.00     0.042 C 
HETATM   39  C11 UNL     1      -4.330  48.405 -26.711  1.00  0.00     0.042 C 
ENDBRANCH  33  36
ENDBRANCH   4  33
BRANCH   1  40
HETATM   40  C2  UNL     1     -11.065  46.542 -31.158  1.00  0.00     0.004 C 
HETATM   41  C1  UNL     1     -10.475  47.751 -30.442  1.00  0.00     0.006 C 
ENDBRANCH   1  40
BRANCH  24  42
HETATM   42  O6  UNL     1     -16.150  45.332 -27.141  1.00  0.00    -0.359 OA
HETATM   43  H29 UNL     1     -15.855  44.595 -27.722  1.00  0.00     0.217 HD
ENDBRANCH  24  42
TORSDOF 5
ENDMDL
MODEL 7
REMARK minimizedAffinity -7.34350729
REMARK CNNscore 0.227996394
REMARK CNNaffinity 5.28767824
REMARK  5 active torsions:
REMARK  status: ('A' for Active; 'I' for Inactive)
REMARK    1  A    between atoms: C2_2  and  C3_3 
REMARK    2  A    between atoms: C6_6  and  C7_7 
REMARK    3  A    between atoms: C7_7  and  O1_8 
REMARK    4  A    between atoms: C7_7  and  C8_9 
REMARK    5  A    between atoms: C26_32  and  O6_33 
ROOT
HETATM    1  C3  UNL     1     -16.616  47.101 -23.608  1.00  0.00     0.008 C 
HETATM    2  C4  UNL     1     -15.157  47.255 -23.991  1.00  0.00    -0.023 C 
HETATM    3  C5  UNL     1     -14.163  46.372 -23.789  1.00  0.00     0.005 C 
HETATM    4  C6  UNL     1     -12.759  46.587 -24.301  1.00  0.00     0.187 C 
HETATM    5  O2  UNL     1     -12.698  45.942 -25.599  1.00  0.00    -0.308 OA
HETATM    6  C12 UNL     1     -12.852  46.776 -26.677  1.00  0.00     0.276 C 
HETATM    7  O3  UNL     1     -13.011  47.990 -26.602  1.00  0.00    -0.264 OA
HETATM    8  C13 UNL     1     -12.646  46.011 -28.014  1.00  0.00     0.095 C 
HETATM    9  C14 UNL     1     -13.176  46.856 -29.197  1.00  0.00     0.036 C 
HETATM   10  C15 UNL     1     -11.136  46.042 -28.149  1.00  0.00     0.003 C 
HETATM   11  C16 UNL     1     -10.227  45.107 -28.423  1.00  0.00     0.072 C 
HETATM   12  C17 UNL     1     -10.401  43.688 -28.721  1.00  0.00     0.245 C 
HETATM   13  O4  UNL     1      -9.408  43.031 -29.030  1.00  0.00    -0.268 OA
HETATM   14  N1  UNL     1     -11.602  43.085 -28.651  1.00  0.00    -0.320 N 
HETATM   15  C18 UNL     1     -12.884  43.442 -28.316  1.00  0.00     0.098 C 
HETATM   16  C19 UNL     1     -13.365  44.656 -28.006  1.00  0.00     0.045 C 
HETATM   17  C20 UNL     1     -14.828  44.764 -27.628  1.00  0.00     0.194 C 
HETATM   18  O5  UNL     1     -15.314  45.852 -27.348  1.00  0.00    -0.287 OA
HETATM   19  C21 UNL     1     -15.713  43.583 -27.628  1.00  0.00     0.046 A 
HETATM   20  C22 UNL     1     -15.205  42.373 -28.075  1.00  0.00     0.032 A 
HETATM   21  C23 UNL     1     -16.036  41.250 -28.234  1.00  0.00     0.026 A 
HETATM   22  C24 UNL     1     -17.406  41.332 -27.967  1.00  0.00    -0.027 A 
HETATM   23  C25 UNL     1     -18.296  40.141 -28.179  1.00  0.00     0.051 C 
HETATM   24  C26 UNL     1     -17.917  42.540 -27.493  1.00  0.00     0.086 A 
HETATM   25  C27 UNL     1     -17.075  43.648 -27.272  1.00  0.00     0.059 A 
HETATM   26  C28 UNL     1     -17.700  44.798 -26.577  1.00  0.00     0.163 C 
HETATM   27  O7  UNL     1     -18.735  45.259 -27.052  1.00  0.00    -0.292 OA
HETATM   28  C29 UNL     1     -17.179  45.144 -25.195  1.00  0.00     0.084 C 
HETATM   29  C30 UNL     1     -17.416  46.614 -24.839  1.00  0.00     0.016 C 
HETATM   30  C31 UNL     1     -13.780  42.238 -28.374  1.00  0.00     0.210 C 
HETATM   31  O8  UNL     1     -13.311  41.142 -28.676  1.00  0.00    -0.285 OA
HETATM   32  H24 UNL     1     -11.504  42.091 -28.880  1.00  0.00     0.169 HD
ENDROOT
BRANCH   4  33
HETATM   33  C7  UNL     1     -11.669  45.927 -23.404  1.00  0.00     0.174 C 
BRANCH  33  34
HETATM   34  O1  UNL     1     -12.252  44.818 -22.715  1.00  0.00    -0.389 OA
HETATM   35  H11 UNL     1     -12.979  45.181 -22.180  1.00  0.00     0.210 HD
ENDBRANCH  33  34
BRANCH  33  36
HETATM   36  C8  UNL     1     -10.439  45.507 -24.180  1.00  0.00     0.009 C 
HETATM   37  C9  UNL     1      -9.424  46.234 -24.693  1.00  0.00    -0.089 C 
HETATM   38  C10 UNL     1      -8.280  45.558 -25.404  1.00  0.00     0.042 C 
HETATM   39  C11 UNL     1      -9.320  47.732 -24.621  1.00  0.00     0.042 C 
ENDBRANCH  33  36
ENDBRANCH   4  33
BRANCH   1  40
HETATM   40  C2  UNL     1     -16.844  46.262 -22.333  1.00  0.00     0.004 C 
HETATM   41  C1  UNL     1     -18.283  46.314 -21.833  1.00  0.00     0.006 C 
ENDBRANCH   1  40
BRANCH  24  42
HETATM   42  O6  UNL     1     -19.267  42.598 -27.249  1.00  0.00    -0.359 OA
HETATM   43  H29 UNL     1     -19.544  43.542 -27.217  1.00  0.00     0.217 HD
ENDBRANCH  24  42
TORSDOF 5
ENDMDL
MODEL 8
REMARK minimizedAffinity -7.27618837
REMARK CNNscore 0.216799572
REMARK CNNaffinity 5.54991531
REMARK  5 active torsions:
REMARK  status: ('A' for Active; 'I' for Inactive)
REMARK    1  A    between atoms: C2_2  and  C3_3 
REMARK    2  A    between atoms: C6_6  and  C7_7 
REMARK    3  A    between atoms: C7_7  and  O1_8 
REMARK    4  A    between atoms: C7_7  and  C8_9 
REMARK    5  A    between atoms: C26_32  and  O6_33 
ROOT
HETATM    1  C3  UNL     1      -4.012  52.709 -11.439  1.00  0.00     0.008 C 
HETATM    2  C4  UNL     1      -3.001  52.333 -12.505  1.00  0.00    -0.023 C 
HETATM    3  C5  UNL     1      -1.663  52.295 -12.382  1.00  0.00     0.005 C 
HETATM    4  C6  UNL     1      -0.752  51.809 -13.485  1.00  0.00     0.187 C 
HETATM    5  O2  UNL     1      -0.539  50.394 -13.239  1.00  0.00    -0.308 OA
HETATM    6  C12 UNL     1      -1.323  49.546 -13.979  1.00  0.00     0.276 C 
HETATM    7  O3  UNL     1      -2.143  49.907 -14.816  1.00  0.00    -0.264 OA
HETATM    8  C13 UNL     1      -0.931  48.062 -13.735  1.00  0.00     0.095 C 
HETATM    9  C14 UNL     1      -2.037  47.124 -14.274  1.00  0.00     0.036 C 
HETATM   10  C15 UNL     1       0.232  47.896 -14.694  1.00  0.00     0.003 C 
HETATM   11  C16 UNL     1       1.456  47.385 -14.560  1.00  0.00     0.072 C 
HETATM   12  C17 UNL     1       2.095  46.769 -13.400  1.00  0.00     0.245 C 
HETATM   13  O4  UNL     1       3.218  46.287 -13.540  1.00  0.00    -0.268 OA
HETATM   14  N1  UNL     1       1.500  46.730 -12.194  1.00  0.00    -0.320 N 
HETATM   15  C18 UNL     1       0.325  47.174 -11.641  1.00  0.00     0.098 C 
HETATM   16  C19 UNL     1      -0.715  47.773 -12.244  1.00  0.00     0.045 C 
HETATM   17  C20 UNL     1      -1.881  48.207 -11.380  1.00  0.00     0.194 C 
HETATM   18  O5  UNL     1      -2.856  48.746 -11.887  1.00  0.00    -0.287 OA
HETATM   19  C21 UNL     1      -1.900  47.955  -9.926  1.00  0.00     0.046 A 
HETATM   20  C22 UNL     1      -0.864  47.223  -9.366  1.00  0.00     0.032 A 
HETATM   21  C23 UNL     1      -0.899  46.830  -8.018  1.00  0.00     0.026 A 
HETATM   22  C24 UNL     1      -1.994  47.146  -7.209  1.00  0.00    -0.027 A 
HETATM   23  C25 UNL     1      -2.045  46.687  -5.780  1.00  0.00     0.051 C 
HETATM   24  C26 UNL     1      -3.028  47.904  -7.761  1.00  0.00     0.086 A 
HETATM   25  C27 UNL     1      -2.965  48.354  -9.095  1.00  0.00     0.059 A 
HETATM   26  C28 UNL     1      -4.018  49.316  -9.495  1.00  0.00     0.163 C 
HETATM   27  O7  UNL     1      -5.189  48.990  -9.311  1.00  0.00    -0.292 OA
HETATM   28  C29 UNL     1      -3.580  50.726  -9.845  1.00  0.00     0.084 C 
HETATM   29  C30 UNL     1      -4.566  51.421 -10.786  1.00  0.00     0.016 C 
HETATM   30  C31 UNL     1       0.302  46.862 -10.172  1.00  0.00     0.210 C 
HETATM   31  O8  UNL     1       1.264  46.299  -9.653  1.00  0.00    -0.285 OA
HETATM   32  H24 UNL     1       2.119  46.272 -11.517  1.00  0.00     0.169 HD
ENDROOT
BRANCH   4  33
HETATM   33  C7  UNL     1       0.647  52.496 -13.476  1.00  0.00     0.174 C 
BRANCH  33  34
HETATM   34  O1  UNL     1       0.687  53.441 -12.404  1.00  0.00    -0.389 OA
HETATM   35  H11 UNL     1      -0.023  54.083 -12.580  1.00  0.00     0.210 HD
ENDBRANCH  33  34
BRANCH  33  36
HETATM   36  C8  UNL     1       1.790  51.509 -13.379  1.00  0.00     0.009 C 
HETATM   37  C9  UNL     1       2.850  51.299 -14.189  1.00  0.00    -0.089 C 
HETATM   38  C10 UNL     1       3.885  50.260 -13.844  1.00  0.00     0.042 C 
HETATM   39  C11 UNL     1       3.109  52.039 -15.472  1.00  0.00     0.042 C 
ENDBRANCH  33  36
ENDBRANCH   4  33
BRANCH   1  40
HETATM   40  C2  UNL     1      -3.498  53.759 -10.431  1.00  0.00     0.004 C 
HETATM   41  C1  UNL     1      -2.471  53.197  -9.455  1.00  0.00     0.006 C 
ENDBRANCH   1  40
BRANCH  24  42
HETATM   42  O6  UNL     1      -4.097  48.193  -6.951  1.00  0.00    -0.359 OA
HETATM   43  H29 UNL     1      -4.861  48.451  -7.513  1.00  0.00     0.217 HD
ENDBRANCH  24  42
TORSDOF 5
ENDMDL
MODEL 9
REMARK minimizedAffinity -7.03668499
REMARK CNNscore 0.2052131
REMARK CNNaffinity 4.97935343
REMARK  5 active torsions:
REMARK  status: ('A' for Active; 'I' for Inactive)
REMARK    1  A    between atoms: C2_2  and  C3_3 
REMARK    2  A    between atoms: C6_6  and  C7_7 
REMARK    3  A    between atoms: C7_7  and  O1_8 
REMARK    4  A    between atoms: C7_7  and  C8_9 
REMARK    5  A    between atoms: C26_32  and  O6_33 
ROOT
HETATM    1  C3  UNL     1      -9.973  45.356 -21.896  1.00  0.00     0.008 C 
HETATM    2  C4  UNL     1     -10.113  45.004 -23.364  1.00  0.00    -0.023 C 
HETATM    3  C5  UNL     1     -10.821  43.992 -23.896  1.00  0.00     0.005 C 
HETATM    4  C6  UNL     1     -10.971  43.791 -25.385  1.00  0.00     0.187 C 
HETATM    5  O2  UNL     1     -12.191  44.480 -25.765  1.00  0.00    -0.308 OA
HETATM    6  C12 UNL     1     -12.017  45.732 -26.297  1.00  0.00     0.276 C 
HETATM    7  O3  UNL     1     -10.928  46.266 -26.479  1.00  0.00    -0.264 OA
HETATM    8  C13 UNL     1     -13.367  46.329 -26.784  1.00  0.00     0.095 C 
HETATM    9  C14 UNL     1     -13.216  47.849 -27.033  1.00  0.00     0.036 C 
HETATM   10  C15 UNL     1     -13.488  45.710 -28.163  1.00  0.00     0.003 C 
HETATM   11  C16 UNL     1     -14.479  45.081 -28.794  1.00  0.00     0.072 C 
HETATM   12  C17 UNL     1     -15.841  44.792 -28.351  1.00  0.00     0.245 C 
HETATM   13  O4  UNL     1     -16.615  44.267 -29.149  1.00  0.00    -0.268 OA
HETATM   14  N1  UNL     1     -16.259  45.067 -27.102  1.00  0.00    -0.320 N 
HETATM   15  C18 UNL     1     -15.714  45.586 -25.955  1.00  0.00     0.098 C 
HETATM   16  C19 UNL     1     -14.487  46.098 -25.763  1.00  0.00     0.045 C 
HETATM   17  C20 UNL     1     -14.124  46.566 -24.368  1.00  0.00     0.194 C 
HETATM   18  O5  UNL     1     -13.022  47.050 -24.148  1.00  0.00    -0.287 OA
HETATM   19  C21 UNL     1     -15.092  46.497 -23.256  1.00  0.00     0.046 A 
HETATM   20  C22 UNL     1     -16.385  46.079 -23.526  1.00  0.00     0.032 A 
HETATM   21  C23 UNL     1     -17.386  46.128 -22.540  1.00  0.00     0.026 A 
HETATM   22  C24 UNL     1     -17.107  46.625 -21.264  1.00  0.00    -0.027 A 
HETATM   23  C25 UNL     1     -18.191  46.715 -20.228  1.00  0.00     0.051 C 
HETATM   24  C26 UNL     1     -15.801  47.024 -20.979  1.00  0.00     0.086 A 
HETATM   25  C27 UNL     1     -14.782  46.915 -21.946  1.00  0.00     0.059 A 
HETATM   26  C28 UNL     1     -13.407  47.175 -21.459  1.00  0.00     0.163 C 
HETATM   27  O7  UNL     1     -13.198  48.238 -20.877  1.00  0.00    -0.292 OA
HETATM   28  C29 UNL     1     -12.432  46.013 -21.466  1.00  0.00     0.084 C 
HETATM   29  C30 UNL     1     -10.976  46.480 -21.544  1.00  0.00     0.016 C 
HETATM   30  C31 UNL     1     -16.729  45.556 -24.848  1.00  0.00     0.210 C 
HETATM   31  O8  UNL     1     -17.849  45.094 -25.060  1.00  0.00    -0.285 OA
HETATM   32  H24 UNL     1     -17.234  44.773 -26.991  1.00  0.00     0.169 HD
ENDROOT
BRANCH   4  33
HETATM   33  C7  UNL     1     -11.138  42.295 -25.791  1.00  0.00     0.174 C 
BRANCH  33  34
HETATM   34  O1  UNL     1     -10.901  41.479 -24.641  1.00  0.00    -0.389 OA
HETATM   35  H11 UNL     1      -9.990  41.670 -24.355  1.00  0.00     0.210 HD
ENDBRANCH  33  34
BRANCH  33  36
HETATM   36  C8  UNL     1     -12.488  41.997 -26.406  1.00  0.00     0.009 C 
HETATM   37  C9  UNL     1     -12.863  41.858 -27.696  1.00  0.00    -0.089 C 
HETATM   38  C10 UNL     1     -14.288  41.519 -28.048  1.00  0.00     0.042 C 
HETATM   39  C11 UNL     1     -11.947  42.022 -28.877  1.00  0.00     0.042 C 
ENDBRANCH  33  36
ENDBRANCH   4  33
BRANCH   1  40
HETATM   40  C2  UNL     1     -10.031  44.138 -20.951  1.00  0.00     0.004 C 
HETATM   41  C1  UNL     1      -8.652  43.617 -20.561  1.00  0.00     0.006 C 
ENDBRANCH   1  40
BRANCH  24  42
HETATM   42  O6  UNL     1     -15.555  47.518 -19.723  1.00  0.00    -0.359 OA
HETATM   43  H29 UNL     1     -14.714  48.029 -19.741  1.00  0.00     0.217 HD
ENDBRANCH  24  42
TORSDOF 5
ENDMDL
