MODEL 1
REMARK minimizedAffinity -9.35953522
REMARK CNNscore 0.637317717
REMARK CNNaffinity 6.43529701
REMARK  14 active torsions:
REMARK  status: ('A' for Active; 'I' for Inactive)
REMARK    1  A    between atoms: C12_13  and  O2_14 
REMARK    2  A    between atoms: C19_21  and  O3_22 
REMARK    3  A    between atoms: C19_21  and  C20_23 
REMARK    4  A    between atoms: C20_23  and  C21_25 
REMARK    5  A    between atoms: C21_25  and  O5_26 
REMARK    6  A    between atoms: O5_26  and  C22_27 
REMARK    7  A    between atoms: C22_27  and  C23_29 
REMARK    8  A    between atoms: C23_29  and  C24_30 
REMARK    9  A    between atoms: C24_30  and  C25_31 
REMARK       I    between atoms: C25_31  and  N1_33 
REMARK   10  A    between atoms: N1_33  and  C26_34 
REMARK   11  A    between atoms: C26_34  and  C27_35 
REMARK   12  A    between atoms: C27_35  and  C28_36 
REMARK   13  A    between atoms: C31_39  and  O8_40 
REMARK   14  A    between atoms: C32_41  and  O9_42 
ROOT
HETATM    1  C1  UNL     1      -0.397  49.724 -21.223  1.00  0.00     0.025 C 
HETATM    2  C2  UNL     1      -0.983  51.138 -21.418  1.00  0.00     0.004 A 
HETATM    3  C3  UNL     1      -0.059  51.864 -22.396  1.00  0.00    -0.009 A 
HETATM    4  C4  UNL     1       0.706  52.927 -22.115  1.00  0.00     0.052 A 
HETATM    5  C5  UNL     1       0.706  53.527 -20.772  1.00  0.00     0.172 A 
HETATM    6  O1  UNL     1       1.426  54.479 -20.496  1.00  0.00    -0.289 OA
HETATM    7  C6  UNL     1      -0.214  52.946 -19.779  1.00  0.00     0.058 A 
HETATM    8  C7  UNL     1      -0.991  51.880 -20.055  1.00  0.00    -0.064 A 
HETATM    9  C8  UNL     1      -1.984  51.417 -19.017  1.00  0.00     0.036 C 
HETATM   10  C9  UNL     1      -3.401  51.419 -19.586  1.00  0.00     0.010 C 
HETATM   11  C10 UNL     1      -3.448  50.544 -20.836  1.00  0.00    -0.002 C 
HETATM   12  C11 UNL     1      -2.472  51.084 -21.937  1.00  0.00     0.035 C 
HETATM   13  C12 UNL     1      -2.819  50.478 -23.348  1.00  0.00     0.124 C 
HETATM   14  C13 UNL     1      -3.706  49.214 -23.384  1.00  0.00     0.045 C 
HETATM   15  C14 UNL     1      -4.882  49.156 -22.382  1.00  0.00     0.001 C 
HETATM   16  C15 UNL     1      -4.769  47.812 -21.599  1.00  0.00     0.019 C 
HETATM   17  C16 UNL     1      -4.824  50.413 -21.475  1.00  0.00     0.002 C 
HETATM   18  C17 UNL     1      -6.090  50.316 -20.647  1.00  0.00     0.009 C 
HETATM   19  C18 UNL     1      -7.129  49.812 -21.669  1.00  0.00     0.047 C 
HETATM   20  C19 UNL     1      -6.336  49.312 -22.925  1.00  0.00     0.128 C 
ENDROOT
BRANCH  20  21
HETATM   21  O3  UNL     1      -6.355  50.342 -23.918  1.00  0.00    -0.381 OA
HETATM   22  H25 UNL     1      -7.281  50.623 -24.041  1.00  0.00     0.211 HD
ENDBRANCH  20  21
BRANCH  20  23
HETATM   23  C20 UNL     1      -6.962  48.033 -23.537  1.00  0.00     0.185 C 
HETATM   24  O4  UNL     1      -7.259  47.060 -22.839  1.00  0.00    -0.292 OA
BRANCH  23  25
HETATM   25  C21 UNL     1      -7.207  48.038 -25.043  1.00  0.00     0.260 C 
BRANCH  25  26
HETATM   26  O5  UNL     1      -8.499  47.497 -25.332  1.00  0.00    -0.314 OA
BRANCH  26  27
HETATM   27  C22 UNL     1      -8.798  47.455 -26.657  1.00  0.00     0.259 C 
HETATM   28  O6  UNL     1      -8.142  47.997 -27.537  1.00  0.00    -0.265 OA
BRANCH  27  29
HETATM   29  C23 UNL     1     -10.062  46.674 -26.896  1.00  0.00     0.120 C 
BRANCH  29  30
HETATM   30  C24 UNL     1     -10.939  46.662 -25.653  1.00  0.00     0.112 C 
BRANCH  30  31
HETATM   31  C25 UNL     1     -12.319  47.214 -25.931  1.00  0.00     0.218 C 
HETATM   32  O7  UNL     1     -12.526  48.250 -26.552  1.00  0.00    -0.274 OA
HETATM   33  N1  UNL     1     -13.324  46.422 -25.419  1.00  0.00    -0.361 N 
HETATM   34  H32 UNL     1     -13.088  45.566 -24.934  1.00  0.00     0.162 HD
BRANCH  33  35
HETATM   35  C26 UNL     1     -14.725  46.762 -25.581  1.00  0.00     0.127 C 
BRANCH  35  36
HETATM   36  C27 UNL     1     -15.340  47.304 -24.288  1.00  0.00     0.058 C 
BRANCH  36  37
HETATM   37  C28 UNL     1     -16.653  46.631 -23.974  1.00  0.00    -0.054 A 
HETATM   38  C29 UNL     1     -16.744  45.708 -22.918  1.00  0.00     0.010 A 
HETATM   39  C30 UNL     1     -17.963  45.102 -22.607  1.00  0.00     0.040 A 
HETATM   40  C31 UNL     1     -19.088  45.424 -23.352  1.00  0.00     0.098 A 
HETATM   41  C32 UNL     1     -19.013  46.337 -24.399  1.00  0.00     0.099 A 
HETATM   42  C33 UNL     1     -17.804  46.946 -24.716  1.00  0.00     0.046 A 
BRANCH  40  43
HETATM   43  O8  UNL     1     -20.281  44.833 -23.047  1.00  0.00    -0.358 OA
HETATM   44  H39 UNL     1     -20.907  45.200 -23.701  1.00  0.00     0.217 HD
ENDBRANCH  40  43
BRANCH  41  45
HETATM   45  O9  UNL     1     -20.161  46.608 -25.090  1.00  0.00    -0.358 OA
HETATM   46  H40 UNL     1     -19.948  47.252 -25.787  1.00  0.00     0.217 HD
ENDBRANCH  41  45
ENDBRANCH  36  37
ENDBRANCH  35  36
ENDBRANCH  33  35
ENDBRANCH  30  31
ENDBRANCH  29  30
ENDBRANCH  27  29
ENDBRANCH  26  27
ENDBRANCH  25  26
ENDBRANCH  23  25
ENDBRANCH  20  23
BRANCH  13  47
HETATM   47  O2  UNL     1      -1.673  50.204 -24.145  1.00  0.00    -0.395 OA
HETATM   48  H14 UNL     1      -1.980  50.007 -25.048  1.00  0.00     0.210 HD
ENDBRANCH  13  47
TORSDOF 14
ENDMDL
MODEL 2
REMARK minimizedAffinity -8.25189209
REMARK CNNscore 0.518907368
REMARK CNNaffinity 5.6656189
REMARK  14 active torsions:
REMARK  status: ('A' for Active; 'I' for Inactive)
REMARK    1  A    between atoms: C12_13  and  O2_14 
REMARK    2  A    between atoms: C19_21  and  O3_22 
REMARK    3  A    between atoms: C19_21  and  C20_23 
REMARK    4  A    between atoms: C20_23  and  C21_25 
REMARK    5  A    between atoms: C21_25  and  O5_26 
REMARK    6  A    between atoms: O5_26  and  C22_27 
REMARK    7  A    between atoms: C22_27  and  C23_29 
REMARK    8  A    between atoms: C23_29  and  C24_30 
REMARK    9  A    between atoms: C24_30  and  C25_31 
REMARK       I    between atoms: C25_31  and  N1_33 
REMARK   10  A    between atoms: N1_33  and  C26_34 
REMARK   11  A    between atoms: C26_34  and  C27_35 
REMARK   12  A    between atoms: C27_35  and  C28_36 
REMARK   13  A    between atoms: C31_39  and  O8_40 
REMARK   14  A    between atoms: C32_41  and  O9_42 
ROOT
HETATM    1  C1  UNL     1     -16.094  44.346 -24.023  1.00  0.00     0.025 C 
HETATM    2  C2  UNL     1     -16.803  45.472 -24.806  1.00  0.00     0.004 A 
HETATM    3  C3  UNL     1     -17.573  46.301 -23.779  1.00  0.00    -0.009 A 
HETATM    4  C4  UNL     1     -18.906  46.410 -23.695  1.00  0.00     0.052 A 
HETATM    5  C5  UNL     1     -19.785  45.715 -24.648  1.00  0.00     0.172 A 
HETATM    6  O1  UNL     1     -21.005  45.782 -24.560  1.00  0.00    -0.289 OA
HETATM    7  C6  UNL     1     -19.132  44.952 -25.726  1.00  0.00     0.058 A 
HETATM    8  C7  UNL     1     -17.793  44.842 -25.821  1.00  0.00    -0.064 A 
HETATM    9  C8  UNL     1     -17.206  44.135 -27.019  1.00  0.00     0.036 C 
HETATM   10  C9  UNL     1     -16.246  45.054 -27.772  1.00  0.00     0.010 C 
HETATM   11  C10 UNL     1     -15.157  45.543 -26.821  1.00  0.00    -0.002 C 
HETATM   12  C11 UNL     1     -15.776  46.345 -25.625  1.00  0.00     0.035 C 
HETATM   13  C12 UNL     1     -14.679  47.207 -24.895  1.00  0.00     0.124 C 
HETATM   14  C13 UNL     1     -13.199  46.844 -25.148  1.00  0.00     0.045 C 
HETATM   15  C14 UNL     1     -12.813  46.449 -26.591  1.00  0.00     0.001 C 
HETATM   16  C15 UNL     1     -12.078  45.074 -26.523  1.00  0.00     0.019 C 
HETATM   17  C16 UNL     1     -14.097  46.427 -27.462  1.00  0.00     0.002 C 
HETATM   18  C17 UNL     1     -13.577  46.174 -28.862  1.00  0.00     0.009 C 
HETATM   19  C18 UNL     1     -12.295  47.032 -28.910  1.00  0.00     0.047 C 
HETATM   20  C19 UNL     1     -11.960  47.444 -27.436  1.00  0.00     0.128 C 
ENDROOT
BRANCH  20  21
HETATM   21  O3  UNL     1     -12.439  48.774 -27.214  1.00  0.00    -0.381 OA
HETATM   22  H25 UNL     1     -12.105  49.338 -27.936  1.00  0.00     0.211 HD
ENDBRANCH  20  21
BRANCH  20  23
HETATM   23  C20 UNL     1     -10.435  47.421 -27.158  1.00  0.00     0.185 C 
HETATM   24  O4  UNL     1      -9.670  46.702 -27.805  1.00  0.00    -0.292 OA
BRANCH  23  25
HETATM   25  C21 UNL     1      -9.921  48.343 -26.056  1.00  0.00     0.260 C 
BRANCH  25  26
HETATM   26  O5  UNL     1      -9.880  47.643 -24.810  1.00  0.00    -0.314 OA
BRANCH  26  27
HETATM   27  C22 UNL     1      -8.679  47.706 -24.178  1.00  0.00     0.259 C 
HETATM   28  O6  UNL     1      -8.069  46.738 -23.745  1.00  0.00    -0.265 OA
BRANCH  27  29
HETATM   29  C23 UNL     1      -8.210  49.131 -24.059  1.00  0.00     0.120 C 
BRANCH  29  30
HETATM   30  C24 UNL     1      -6.714  49.193 -23.791  1.00  0.00     0.112 C 
BRANCH  30  31
HETATM   31  C25 UNL     1      -6.405  49.844 -22.462  1.00  0.00     0.218 C 
HETATM   32  O7  UNL     1      -7.155  49.805 -21.494  1.00  0.00    -0.274 OA
HETATM   33  N1  UNL     1      -5.183  50.480 -22.450  1.00  0.00    -0.361 N 
HETATM   34  H32 UNL     1      -4.599  50.457 -23.277  1.00  0.00     0.162 HD
BRANCH  33  35
HETATM   35  C26 UNL     1      -4.685  51.161 -21.270  1.00  0.00     0.127 C 
BRANCH  35  36
HETATM   36  C27 UNL     1      -3.185  50.937 -21.065  1.00  0.00     0.058 C 
BRANCH  36  37
HETATM   37  C28 UNL     1      -2.372  51.603 -22.147  1.00  0.00    -0.054 A 
HETATM   38  C29 UNL     1      -3.003  52.127 -23.289  1.00  0.00     0.010 A 
HETATM   39  C30 UNL     1      -2.258  52.768 -24.281  1.00  0.00     0.040 A 
HETATM   40  C31 UNL     1      -0.884  52.885 -24.127  1.00  0.00     0.098 A 
HETATM   41  C32 UNL     1      -0.247  52.373 -23.001  1.00  0.00     0.099 A 
HETATM   42  C33 UNL     1      -0.980  51.733 -22.007  1.00  0.00     0.046 A 
BRANCH  40  43
HETATM   43  O8  UNL     1      -0.156  53.514 -25.096  1.00  0.00    -0.358 OA
HETATM   44  H39 UNL     1       0.767  53.462 -24.777  1.00  0.00     0.217 HD
ENDBRANCH  40  43
BRANCH  41  45
HETATM   45  O9  UNL     1       1.109  52.524 -22.914  1.00  0.00    -0.358 OA
HETATM   46  H40 UNL     1       1.404  52.113 -22.084  1.00  0.00     0.217 HD
ENDBRANCH  41  45
ENDBRANCH  36  37
ENDBRANCH  35  36
ENDBRANCH  33  35
ENDBRANCH  30  31
ENDBRANCH  29  30
ENDBRANCH  27  29
ENDBRANCH  26  27
ENDBRANCH  25  26
ENDBRANCH  23  25
ENDBRANCH  20  23
BRANCH  13  47
HETATM   47  O2  UNL     1     -14.856  47.274 -23.486  1.00  0.00    -0.395 OA
HETATM   48  H14 UNL     1     -14.254  47.959 -23.143  1.00  0.00     0.210 HD
ENDBRANCH  13  47
TORSDOF 14
ENDMDL
MODEL 3
REMARK minimizedAffinity -8.41772938
REMARK CNNscore 0.49286285
REMARK CNNaffinity 6.78791237
REMARK  14 active torsions:
REMARK  status: ('A' for Active; 'I' for Inactive)
REMARK    1  A    between atoms: C12_13  and  O2_14 
REMARK    2  A    between atoms: C19_21  and  O3_22 
REMARK    3  A    between atoms: C19_21  and  C20_23 
REMARK    4  A    between atoms: C20_23  and  C21_25 
REMARK    5  A    between atoms: C21_25  and  O5_26 
REMARK    6  A    between atoms: O5_26  and  C22_27 
REMARK    7  A    between atoms: C22_27  and  C23_29 
REMARK    8  A    between atoms: C23_29  and  C24_30 
REMARK    9  A    between atoms: C24_30  and  C25_31 
REMARK       I    between atoms: C25_31  and  N1_33 
REMARK   10  A    between atoms: N1_33  and  C26_34 
REMARK   11  A    between atoms: C26_34  and  C27_35 
REMARK   12  A    between atoms: C27_35  and  C28_36 
REMARK   13  A    between atoms: C31_39  and  O8_40 
REMARK   14  A    between atoms: C32_41  and  O9_42 
ROOT
HETATM    1  C1  UNL     1      -0.002  51.087 -24.495  1.00  0.00     0.025 C 
HETATM    2  C2  UNL     1      -0.540  52.112 -23.473  1.00  0.00     0.004 A 
HETATM    3  C3  UNL     1      -0.232  53.498 -24.040  1.00  0.00    -0.009 A 
HETATM    4  C4  UNL     1       0.613  54.394 -23.513  1.00  0.00     0.052 A 
HETATM    5  C5  UNL     1       1.342  54.107 -22.267  1.00  0.00     0.172 A 
HETATM    6  O1  UNL     1       2.141  54.906 -21.795  1.00  0.00    -0.289 OA
HETATM    7  C6  UNL     1       1.051  52.825 -21.602  1.00  0.00     0.058 A 
HETATM    8  C7  UNL     1       0.199  51.921 -22.122  1.00  0.00    -0.064 A 
HETATM    9  C8  UNL     1      -0.125  50.683 -21.320  1.00  0.00     0.036 C 
HETATM   10  C9  UNL     1      -1.630  50.574 -21.079  1.00  0.00     0.010 C 
HETATM   11  C10 UNL     1      -2.361  50.582 -22.419  1.00  0.00    -0.002 C 
HETATM   12  C11 UNL     1      -2.081  51.909 -23.204  1.00  0.00     0.035 C 
HETATM   13  C12 UNL     1      -3.141  52.123 -24.349  1.00  0.00     0.124 C 
HETATM   14  C13 UNL     1      -3.971  50.899 -24.792  1.00  0.00     0.045 C 
HETATM   15  C14 UNL     1      -4.452  49.939 -23.680  1.00  0.00     0.001 C 
HETATM   16  C15 UNL     1      -4.005  48.498 -24.076  1.00  0.00     0.019 C 
HETATM   17  C16 UNL     1      -3.872  50.421 -22.324  1.00  0.00     0.002 C 
HETATM   18  C17 UNL     1      -4.521  49.501 -21.309  1.00  0.00     0.009 C 
HETATM   19  C18 UNL     1      -5.963  49.368 -21.843  1.00  0.00     0.047 C 
HETATM   20  C19 UNL     1      -5.966  49.923 -23.309  1.00  0.00     0.128 C 
ENDROOT
BRANCH  20  21
HETATM   21  O3  UNL     1      -6.455  51.267 -23.287  1.00  0.00    -0.381 OA
HETATM   22  H25 UNL     1      -7.296  51.273 -22.792  1.00  0.00     0.211 HD
ENDBRANCH  20  21
BRANCH  20  23
HETATM   23  C20 UNL     1      -6.875  49.087 -24.245  1.00  0.00     0.185 C 
HETATM   24  O4  UNL     1      -8.091  49.286 -24.315  1.00  0.00    -0.292 OA
BRANCH  23  25
HETATM   25  C21 UNL     1      -6.194  48.014 -25.089  1.00  0.00     0.260 C 
BRANCH  25  26
HETATM   26  O5  UNL     1      -6.754  47.994 -26.405  1.00  0.00    -0.314 OA
BRANCH  26  27
HETATM   27  C22 UNL     1      -5.842  47.800 -27.393  1.00  0.00     0.259 C 
HETATM   28  O6  UNL     1      -4.666  48.135 -27.331  1.00  0.00    -0.265 OA
BRANCH  27  29
HETATM   29  C23 UNL     1      -6.477  47.138 -28.585  1.00  0.00     0.120 C 
BRANCH  29  30
HETATM   30  C24 UNL     1      -7.519  46.117 -28.152  1.00  0.00     0.112 C 
BRANCH  30  31
HETATM   31  C25 UNL     1      -8.635  45.984 -29.164  1.00  0.00     0.218 C 
HETATM   32  O7  UNL     1      -8.927  46.856 -29.974  1.00  0.00    -0.274 OA
HETATM   33  N1  UNL     1      -9.284  44.772 -29.087  1.00  0.00    -0.361 N 
HETATM   34  H32 UNL     1      -8.979  44.083 -28.410  1.00  0.00     0.162 HD
BRANCH  33  35
HETATM   35  C26 UNL     1     -10.381  44.431 -29.974  1.00  0.00     0.127 C 
BRANCH  35  36
HETATM   36  C27 UNL     1     -10.167  43.081 -30.662  1.00  0.00     0.058 C 
BRANCH  36  37
HETATM   37  C28 UNL     1     -10.701  43.087 -32.073  1.00  0.00    -0.054 A 
HETATM   38  C29 UNL     1     -10.595  41.938 -32.877  1.00  0.00     0.010 A 
HETATM   39  C30 UNL     1     -11.111  41.930 -34.174  1.00  0.00     0.040 A 
HETATM   40  C31 UNL     1     -11.732  43.070 -34.663  1.00  0.00     0.098 A 
HETATM   41  C32 UNL     1     -11.845  44.213 -33.878  1.00  0.00     0.099 A 
HETATM   42  C33 UNL     1     -11.336  44.231 -32.584  1.00  0.00     0.046 A 
BRANCH  40  43
HETATM   43  O8  UNL     1     -12.238  43.062 -35.932  1.00  0.00    -0.358 OA
HETATM   44  H39 UNL     1     -12.607  43.959 -36.051  1.00  0.00     0.217 HD
ENDBRANCH  40  43
BRANCH  41  45
HETATM   45  O9  UNL     1     -12.471  45.300 -34.422  1.00  0.00    -0.358 OA
HETATM   46  H40 UNL     1     -12.465  46.013 -33.761  1.00  0.00     0.217 HD
ENDBRANCH  41  45
ENDBRANCH  36  37
ENDBRANCH  35  36
ENDBRANCH  33  35
ENDBRANCH  30  31
ENDBRANCH  29  30
ENDBRANCH  27  29
ENDBRANCH  26  27
ENDBRANCH  25  26
ENDBRANCH  23  25
ENDBRANCH  20  23
BRANCH  13  47
HETATM   47  O2  UNL     1      -2.594  52.703 -25.526  1.00  0.00    -0.395 OA
HETATM   48  H14 UNL     1      -3.336  52.962 -26.102  1.00  0.00     0.210 HD
ENDBRANCH  13  47
TORSDOF 14
ENDMDL
MODEL 4
REMARK minimizedAffinity -8.15904236
REMARK CNNscore 0.469400167
REMARK CNNaffinity 7.19302797
REMARK  14 active torsions:
REMARK  status: ('A' for Active; 'I' for Inactive)
REMARK    1  A    between atoms: C12_13  and  O2_14 
REMARK    2  A    between atoms: C19_21  and  O3_22 
REMARK    3  A    between atoms: C19_21  and  C20_23 
REMARK    4  A    between atoms: C20_23  and  C21_25 
REMARK    5  A    between atoms: C21_25  and  O5_26 
REMARK    6  A    between atoms: O5_26  and  C22_27 
REMARK    7  A    between atoms: C22_27  and  C23_29 
REMARK    8  A    between atoms: C23_29  and  C24_30 
REMARK    9  A    between atoms: C24_30  and  C25_31 
REMARK       I    between atoms: C25_31  and  N1_33 
REMARK   10  A    between atoms: N1_33  and  C26_34 
REMARK   11  A    between atoms: C26_34  and  C27_35 
REMARK   12  A    between atoms: C27_35  and  C28_36 
REMARK   13  A    between atoms: C31_39  and  O8_40 
REMARK   14  A    between atoms: C32_41  and  O9_42 
ROOT
HETATM    1  C1  UNL     1       2.527  52.838  -9.134  1.00  0.00     0.025 C 
HETATM    2  C2  UNL     1       1.902  54.200  -9.504  1.00  0.00     0.004 A 
HETATM    3  C3  UNL     1       2.968  54.975 -10.280  1.00  0.00    -0.009 A 
HETATM    4  C4  UNL     1       3.576  56.098  -9.875  1.00  0.00     0.052 A 
HETATM    5  C5  UNL     1       3.235  56.723  -8.587  1.00  0.00     0.172 A 
HETATM    6  O1  UNL     1       3.808  57.731  -8.194  1.00  0.00    -0.289 OA
HETATM    7  C6  UNL     1       2.160  56.092  -7.802  1.00  0.00     0.058 A 
HETATM    8  C7  UNL     1       1.540  54.965  -8.204  1.00  0.00    -0.064 A 
HETATM    9  C8  UNL     1       0.375  54.449  -7.394  1.00  0.00     0.036 C 
HETATM   10  C9  UNL     1      -0.877  54.332  -8.262  1.00  0.00     0.010 C 
HETATM   11  C10 UNL     1      -0.583  53.432  -9.459  1.00  0.00    -0.002 C 
HETATM   12  C11 UNL     1       0.574  54.023 -10.336  1.00  0.00     0.035 C 
HETATM   13  C12 UNL     1       0.592  53.365 -11.767  1.00  0.00     0.124 C 
HETATM   14  C13 UNL     1      -0.175  52.038 -11.952  1.00  0.00     0.045 C 
HETATM   15  C14 UNL     1      -1.537  51.911 -11.233  1.00  0.00     0.001 C 
HETATM   16  C15 UNL     1      -1.507  50.594 -10.396  1.00  0.00     0.019 C 
HETATM   17  C16 UNL     1      -1.770  53.186 -10.380  1.00  0.00     0.002 C 
HETATM   18  C17 UNL     1      -3.178  53.010  -9.849  1.00  0.00     0.009 C 
HETATM   19  C18 UNL     1      -3.926  52.408 -11.057  1.00  0.00     0.047 C 
HETATM   20  C19 UNL     1      -2.841  51.945 -12.088  1.00  0.00     0.128 C 
ENDROOT
BRANCH  20  21
HETATM   21  O3  UNL     1      -2.710  52.952 -13.097  1.00  0.00    -0.381 OA
HETATM   22  H25 UNL     1      -3.603  53.159 -13.431  1.00  0.00     0.211 HD
ENDBRANCH  20  21
BRANCH  20  23
HETATM   23  C20 UNL     1      -3.225  50.610 -12.777  1.00  0.00     0.185 C 
HETATM   24  O4  UNL     1      -3.938  49.774 -12.216  1.00  0.00    -0.292 OA
BRANCH  23  25
HETATM   25  C21 UNL     1      -2.691  50.384 -14.188  1.00  0.00     0.260 C 
BRANCH  25  26
HETATM   26  O5  UNL     1      -2.352  49.007 -14.371  1.00  0.00    -0.314 OA
BRANCH  26  27
HETATM   27  C22 UNL     1      -1.892  48.710 -15.614  1.00  0.00     0.259 C 
HETATM   28  O6  UNL     1      -0.785  49.016 -16.039  1.00  0.00    -0.265 OA
BRANCH  27  29
HETATM   29  C23 UNL     1      -2.936  47.974 -16.410  1.00  0.00     0.120 C 
BRANCH  29  30
HETATM   30  C24 UNL     1      -2.566  47.928 -17.884  1.00  0.00     0.112 C 
BRANCH  30  31
HETATM   31  C25 UNL     1      -2.931  49.209 -18.600  1.00  0.00     0.218 C 
HETATM   32  O7  UNL     1      -4.082  49.599 -18.752  1.00  0.00    -0.274 OA
HETATM   33  N1  UNL     1      -1.828  49.900 -19.054  1.00  0.00    -0.361 N 
HETATM   34  H32 UNL     1      -0.901  49.535 -18.876  1.00  0.00     0.162 HD
BRANCH  33  35
HETATM   35  C26 UNL     1      -1.952  51.162 -19.759  1.00  0.00     0.127 C 
BRANCH  35  36
HETATM   36  C27 UNL     1      -0.634  51.590 -20.408  1.00  0.00     0.058 C 
BRANCH  36  37
HETATM   37  C28 UNL     1      -0.829  51.988 -21.850  1.00  0.00    -0.054 A 
HETATM   38  C29 UNL     1      -2.114  51.979 -22.421  1.00  0.00     0.010 A 
HETATM   39  C30 UNL     1      -2.304  52.371 -23.748  1.00  0.00     0.040 A 
HETATM   40  C31 UNL     1      -1.210  52.774 -24.498  1.00  0.00     0.098 A 
HETATM   41  C32 UNL     1       0.067  52.790 -23.945  1.00  0.00     0.099 A 
HETATM   42  C33 UNL     1       0.267  52.402 -22.625  1.00  0.00     0.046 A 
BRANCH  40  43
HETATM   43  O8  UNL     1      -1.395  53.159 -25.795  1.00  0.00    -0.358 OA
HETATM   44  H39 UNL     1      -0.498  53.382 -26.112  1.00  0.00     0.217 HD
ENDBRANCH  40  43
BRANCH  41  45
HETATM   45  O9  UNL     1       1.100  53.199 -24.741  1.00  0.00    -0.358 OA
HETATM   46  H40 UNL     1       1.920  53.149 -24.220  1.00  0.00     0.217 HD
ENDBRANCH  41  45
ENDBRANCH  36  37
ENDBRANCH  35  36
ENDBRANCH  33  35
ENDBRANCH  30  31
ENDBRANCH  29  30
ENDBRANCH  27  29
ENDBRANCH  26  27
ENDBRANCH  25  26
ENDBRANCH  23  25
ENDBRANCH  20  23
BRANCH  13  47
HETATM   47  O2  UNL     1       1.903  53.164 -12.281  1.00  0.00    -0.395 OA
HETATM   48  H14 UNL     1       1.819  52.926 -13.222  1.00  0.00     0.210 HD
ENDBRANCH  13  47
TORSDOF 14
ENDMDL
MODEL 5
REMARK minimizedAffinity -9.59912682
REMARK CNNscore 0.465432197
REMARK CNNaffinity 6.68393135
REMARK  14 active torsions:
REMARK  status: ('A' for Active; 'I' for Inactive)
REMARK    1  A    between atoms: C12_13  and  O2_14 
REMARK    2  A    between atoms: C19_21  and  O3_22 
REMARK    3  A    between atoms: C19_21  and  C20_23 
REMARK    4  A    between atoms: C20_23  and  C21_25 
REMARK    5  A    between atoms: C21_25  and  O5_26 
REMARK    6  A    between atoms: O5_26  and  C22_27 
REMARK    7  A    between atoms: C22_27  and  C23_29 
REMARK    8  A    between atoms: C23_29  and  C24_30 
REMARK    9  A    between atoms: C24_30  and  C25_31 
REMARK       I    between atoms: C25_31  and  N1_33 
REMARK   10  A    between atoms: N1_33  and  C26_34 
REMARK   11  A    between atoms: C26_34  and  C27_35 
REMARK   12  A    between atoms: C27_35  and  C28_36 
REMARK   13  A    between atoms: C31_39  and  O8_40 
REMARK   14  A    between atoms: C32_41  and  O9_42 
ROOT
HETATM    1  C1  UNL     1      -0.411  49.726 -21.381  1.00  0.00     0.025 C 
HETATM    2  C2  UNL     1      -0.994  51.152 -21.481  1.00  0.00     0.004 A 
HETATM    3  C3  UNL     1      -0.065  51.941 -22.404  1.00  0.00    -0.009 A 
HETATM    4  C4  UNL     1       0.701  52.981 -22.048  1.00  0.00     0.052 A 
HETATM    5  C5  UNL     1       0.696  53.488 -20.667  1.00  0.00     0.172 A 
HETATM    6  O1  UNL     1       1.416  54.417 -20.324  1.00  0.00    -0.289 OA
HETATM    7  C6  UNL     1      -0.229  52.842 -19.720  1.00  0.00     0.058 A 
HETATM    8  C7  UNL     1      -1.006  51.799 -20.071  1.00  0.00    -0.064 A 
HETATM    9  C8  UNL     1      -2.004  51.268 -19.070  1.00  0.00     0.036 C 
HETATM   10  C9  UNL     1      -3.419  51.311 -19.644  1.00  0.00     0.010 C 
HETATM   11  C10 UNL     1      -3.463  50.524 -20.951  1.00  0.00    -0.002 C 
HETATM   12  C11 UNL     1      -2.480  51.135 -22.008  1.00  0.00     0.035 C 
HETATM   13  C12 UNL     1      -2.823  50.627 -23.459  1.00  0.00     0.124 C 
HETATM   14  C13 UNL     1      -3.712  49.371 -23.585  1.00  0.00     0.045 C 
HETATM   15  C14 UNL     1      -4.892  49.247 -22.594  1.00  0.00     0.001 C 
HETATM   16  C15 UNL     1      -4.784  47.852 -21.904  1.00  0.00     0.019 C 
HETATM   17  C16 UNL     1      -4.836  50.439 -21.602  1.00  0.00     0.002 C 
HETATM   18  C17 UNL     1      -6.105  50.289 -20.788  1.00  0.00     0.009 C 
HETATM   19  C18 UNL     1      -7.141  49.857 -21.847  1.00  0.00     0.047 C 
HETATM   20  C19 UNL     1      -6.343  49.442 -23.130  1.00  0.00     0.128 C 
ENDROOT
BRANCH  20  21
HETATM   21  O3  UNL     1      -6.357  50.538 -24.050  1.00  0.00    -0.381 OA
HETATM   22  H25 UNL     1      -7.282  50.828 -24.158  1.00  0.00     0.211 HD
ENDBRANCH  20  21
BRANCH  20  23
HETATM   23  C20 UNL     1      -6.969  48.208 -23.830  1.00  0.00     0.185 C 
HETATM   24  O4  UNL     1      -7.858  47.542 -23.295  1.00  0.00    -0.292 OA
BRANCH  23  25
HETATM   25  C21 UNL     1      -6.443  47.865 -25.221  1.00  0.00     0.260 C 
BRANCH  25  26
HETATM   26  O5  UNL     1      -7.360  46.996 -25.892  1.00  0.00    -0.314 OA
BRANCH  26  27
HETATM   27  C22 UNL     1      -7.771  47.453 -27.103  1.00  0.00     0.259 C 
HETATM   28  O6  UNL     1      -8.681  48.255 -27.272  1.00  0.00    -0.265 OA
BRANCH  27  29
HETATM   29  C23 UNL     1      -6.975  46.822 -28.213  1.00  0.00     0.120 C 
BRANCH  29  30
HETATM   30  C24 UNL     1      -7.067  47.646 -29.488  1.00  0.00     0.112 C 
BRANCH  30  31
HETATM   31  C25 UNL     1      -7.960  46.994 -30.520  1.00  0.00     0.218 C 
HETATM   32  O7  UNL     1      -7.680  46.917 -31.710  1.00  0.00    -0.274 OA
HETATM   33  N1  UNL     1      -9.119  46.483 -29.977  1.00  0.00    -0.361 N 
HETATM   34  H32 UNL     1      -9.280  46.559 -28.981  1.00  0.00     0.162 HD
BRANCH  33  35
HETATM   35  C26 UNL     1     -10.111  45.805 -30.790  1.00  0.00     0.127 C 
BRANCH  35  36
HETATM   36  C27 UNL     1     -11.379  46.644 -30.970  1.00  0.00     0.058 C 
BRANCH  36  37
HETATM   37  C28 UNL     1     -12.065  46.902 -29.651  1.00  0.00    -0.054 A 
HETATM   38  C29 UNL     1     -13.167  46.122 -29.260  1.00  0.00     0.010 A 
HETATM   39  C30 UNL     1     -13.789  46.340 -28.029  1.00  0.00     0.040 A 
HETATM   40  C31 UNL     1     -13.306  47.336 -27.192  1.00  0.00     0.098 A 
HETATM   41  C32 UNL     1     -12.215  48.114 -27.567  1.00  0.00     0.099 A 
HETATM   42  C33 UNL     1     -11.588  47.905 -28.790  1.00  0.00     0.046 A 
BRANCH  40  43
HETATM   43  O8  UNL     1     -13.913  47.548 -25.988  1.00  0.00    -0.358 OA
HETATM   44  H39 UNL     1     -13.415  48.290 -25.593  1.00  0.00     0.217 HD
ENDBRANCH  40  43
BRANCH  41  45
HETATM   45  O9  UNL     1     -11.791  49.077 -26.694  1.00  0.00    -0.358 OA
HETATM   46  H40 UNL     1     -11.034  49.535 -27.096  1.00  0.00     0.217 HD
ENDBRANCH  41  45
ENDBRANCH  36  37
ENDBRANCH  35  36
ENDBRANCH  33  35
ENDBRANCH  30  31
ENDBRANCH  29  30
ENDBRANCH  27  29
ENDBRANCH  26  27
ENDBRANCH  25  26
ENDBRANCH  23  25
ENDBRANCH  20  23
BRANCH  13  47
HETATM   47  O2  UNL     1      -1.675  50.407 -24.268  1.00  0.00    -0.395 OA
HETATM   48  H14 UNL     1      -1.978  50.272 -25.184  1.00  0.00     0.210 HD
ENDBRANCH  13  47
TORSDOF 14
ENDMDL
MODEL 6
REMARK minimizedAffinity -8.72292042
REMARK CNNscore 0.418097585
REMARK CNNaffinity 6.448771
REMARK  14 active torsions:
REMARK  status: ('A' for Active; 'I' for Inactive)
REMARK    1  A    between atoms: C12_13  and  O2_14 
REMARK    2  A    between atoms: C19_21  and  O3_22 
REMARK    3  A    between atoms: C19_21  and  C20_23 
REMARK    4  A    between atoms: C20_23  and  C21_25 
REMARK    5  A    between atoms: C21_25  and  O5_26 
REMARK    6  A    between atoms: O5_26  and  C22_27 
REMARK    7  A    between atoms: C22_27  and  C23_29 
REMARK    8  A    between atoms: C23_29  and  C24_30 
REMARK    9  A    between atoms: C24_30  and  C25_31 
REMARK       I    between atoms: C25_31  and  N1_33 
REMARK   10  A    between atoms: N1_33  and  C26_34 
REMARK   11  A    between atoms: C26_34  and  C27_35 
REMARK   12  A    between atoms: C27_35  and  C28_36 
REMARK   13  A    between atoms: C31_39  and  O8_40 
REMARK   14  A    between atoms: C32_41  and  O9_42 
ROOT
HETATM    1  C1  UNL     1      -0.468  49.629 -21.156  1.00  0.00     0.025 C 
HETATM    2  C2  UNL     1      -0.987  51.076 -21.291  1.00  0.00     0.004 A 
HETATM    3  C3  UNL     1       0.039  51.833 -22.134  1.00  0.00    -0.009 A 
HETATM    4  C4  UNL     1       0.813  52.842 -21.714  1.00  0.00     0.052 A 
HETATM    5  C5  UNL     1       0.722  53.344 -20.334  1.00  0.00     0.172 A 
HETATM    6  O1  UNL     1       1.447  54.244 -19.930  1.00  0.00    -0.289 OA
HETATM    7  C6  UNL     1      -0.297  52.729 -19.465  1.00  0.00     0.058 A 
HETATM    8  C7  UNL     1      -1.083  51.718 -19.881  1.00  0.00    -0.064 A 
HETATM    9  C8  UNL     1      -2.175  51.221 -18.963  1.00  0.00     0.036 C 
HETATM   10  C9  UNL     1      -3.539  51.320 -19.643  1.00  0.00     0.010 C 
HETATM   11  C10 UNL     1      -3.511  50.540 -20.955  1.00  0.00    -0.002 C 
HETATM   12  C11 UNL     1      -2.429  51.118 -21.930  1.00  0.00     0.035 C 
HETATM   13  C12 UNL     1      -2.678  50.629 -23.406  1.00  0.00     0.124 C 
HETATM   14  C13 UNL     1      -3.601  49.408 -23.608  1.00  0.00     0.045 C 
HETATM   15  C14 UNL     1      -4.858  49.325 -22.711  1.00  0.00     0.001 C 
HETATM   16  C15 UNL     1      -4.855  47.924 -22.024  1.00  0.00     0.019 C 
HETATM   17  C16 UNL     1      -4.833  50.510 -21.710  1.00  0.00     0.002 C 
HETATM   18  C17 UNL     1      -6.165  50.404 -20.996  1.00  0.00     0.009 C 
HETATM   19  C18 UNL     1      -7.132  50.016 -22.134  1.00  0.00     0.047 C 
HETATM   20  C19 UNL     1      -6.255  49.576 -23.356  1.00  0.00     0.128 C 
ENDROOT
BRANCH  20  21
HETATM   21  O3  UNL     1      -6.157  50.675 -24.267  1.00  0.00    -0.381 OA
HETATM   22  H25 UNL     1      -7.059  51.001 -24.443  1.00  0.00     0.211 HD
ENDBRANCH  20  21
BRANCH  20  23
HETATM   23  C20 UNL     1      -6.871  48.370 -24.110  1.00  0.00     0.185 C 
HETATM   24  O4  UNL     1      -6.192  47.654 -24.851  1.00  0.00    -0.292 OA
BRANCH  23  25
HETATM   25  C21 UNL     1      -8.355  48.099 -23.882  1.00  0.00     0.260 C 
BRANCH  25  26
HETATM   26  O5  UNL     1      -8.974  47.690 -25.104  1.00  0.00    -0.314 OA
BRANCH  26  27
HETATM   27  C22 UNL     1      -9.267  48.714 -25.947  1.00  0.00     0.259 C 
HETATM   28  O6  UNL     1      -9.619  49.831 -25.590  1.00  0.00    -0.265 OA
BRANCH  27  29
HETATM   29  C23 UNL     1      -9.127  48.283 -27.382  1.00  0.00     0.120 C 
BRANCH  29  30
HETATM   30  C24 UNL     1      -8.309  47.005 -27.490  1.00  0.00     0.112 C 
BRANCH  30  31
HETATM   31  C25 UNL     1      -8.861  46.068 -28.542  1.00  0.00     0.218 C 
HETATM   32  O7  UNL     1      -8.185  45.575 -29.436  1.00  0.00    -0.274 OA
HETATM   33  N1  UNL     1     -10.207  45.820 -28.382  1.00  0.00    -0.361 N 
HETATM   34  H32 UNL     1     -10.705  46.241 -27.608  1.00  0.00     0.162 HD
BRANCH  33  35
HETATM   35  C26 UNL     1     -10.935  44.939 -29.276  1.00  0.00     0.127 C 
BRANCH  35  36
HETATM   36  C27 UNL     1     -11.600  43.781 -28.529  1.00  0.00     0.058 C 
BRANCH  36  37
HETATM   37  C28 UNL     1     -13.094  43.963 -28.440  1.00  0.00    -0.054 A 
HETATM   38  C29 UNL     1     -13.671  45.223 -28.683  1.00  0.00     0.010 A 
HETATM   39  C30 UNL     1     -15.056  45.391 -28.627  1.00  0.00     0.040 A 
HETATM   40  C31 UNL     1     -15.860  44.300 -28.332  1.00  0.00     0.098 A 
HETATM   41  C32 UNL     1     -15.302  43.048 -28.091  1.00  0.00     0.099 A 
HETATM   42  C33 UNL     1     -13.924  42.869 -28.145  1.00  0.00     0.046 A 
BRANCH  40  43
HETATM   43  O8  UNL     1     -17.215  44.464 -28.279  1.00  0.00    -0.358 OA
HETATM   44  H39 UNL     1     -17.557  43.578 -28.048  1.00  0.00     0.217 HD
ENDBRANCH  40  43
BRANCH  41  45
HETATM   45  O9  UNL     1     -16.154  42.016 -27.808  1.00  0.00    -0.358 OA
HETATM   46  H40 UNL     1     -15.619  41.218 -27.659  1.00  0.00     0.217 HD
ENDBRANCH  41  45
ENDBRANCH  36  37
ENDBRANCH  35  36
ENDBRANCH  33  35
ENDBRANCH  30  31
ENDBRANCH  29  30
ENDBRANCH  27  29
ENDBRANCH  26  27
ENDBRANCH  25  26
ENDBRANCH  23  25
ENDBRANCH  20  23
BRANCH  13  47
HETATM   47  O2  UNL     1      -1.480  50.368 -24.126  1.00  0.00    -0.395 OA
HETATM   48  H14 UNL     1      -1.717  50.248 -25.063  1.00  0.00     0.210 HD
ENDBRANCH  13  47
TORSDOF 14
ENDMDL
MODEL 7
REMARK minimizedAffinity -8.69151402
REMARK CNNscore 0.417515755
REMARK CNNaffinity 5.65831804
REMARK  14 active torsions:
REMARK  status: ('A' for Active; 'I' for Inactive)
REMARK    1  A    between atoms: C12_13  and  O2_14 
REMARK    2  A    between atoms: C19_21  and  O3_22 
REMARK    3  A    between atoms: C19_21  and  C20_23 
REMARK    4  A    between atoms: C20_23  and  C21_25 
REMARK    5  A    between atoms: C21_25  and  O5_26 
REMARK    6  A    between atoms: O5_26  and  C22_27 
REMARK    7  A    between atoms: C22_27  and  C23_29 
REMARK    8  A    between atoms: C23_29  and  C24_30 
REMARK    9  A    between atoms: C24_30  and  C25_31 
REMARK       I    between atoms: C25_31  and  N1_33 
REMARK   10  A    between atoms: N1_33  and  C26_34 
REMARK   11  A    between atoms: C26_34  and  C27_35 
REMARK   12  A    between atoms: C27_35  and  C28_36 
REMARK   13  A    between atoms: C31_39  and  O8_40 
REMARK   14  A    between atoms: C32_41  and  O9_42 
ROOT
HETATM    1  C1  UNL     1     -15.083  44.094 -24.862  1.00  0.00     0.025 C 
HETATM    2  C2  UNL     1     -15.639  45.439 -25.374  1.00  0.00     0.004 A 
HETATM    3  C3  UNL     1     -16.500  46.014 -24.250  1.00  0.00    -0.009 A 
HETATM    4  C4  UNL     1     -17.827  46.195 -24.287  1.00  0.00     0.052 A 
HETATM    5  C5  UNL     1     -18.605  45.852 -25.488  1.00  0.00     0.172 A 
HETATM    6  O1  UNL     1     -19.822  45.983 -25.521  1.00  0.00    -0.289 OA
HETATM    7  C6  UNL     1     -17.852  45.364 -26.656  1.00  0.00     0.058 A 
HETATM    8  C7  UNL     1     -16.517  45.184 -26.628  1.00  0.00    -0.064 A 
HETATM    9  C8  UNL     1     -15.811  44.786 -27.902  1.00  0.00     0.036 C 
HETATM   10  C9  UNL     1     -14.726  45.800 -28.259  1.00  0.00     0.010 C 
HETATM   11  C10 UNL     1     -13.749  45.930 -27.093  1.00  0.00    -0.002 C 
HETATM   12  C11 UNL     1     -14.481  46.422 -25.798  1.00  0.00     0.035 C 
HETATM   13  C12 UNL     1     -13.452  46.970 -24.740  1.00  0.00     0.124 C 
HETATM   14  C13 UNL     1     -11.968  46.579 -24.917  1.00  0.00     0.045 C 
HETATM   15  C14 UNL     1     -11.417  46.563 -26.362  1.00  0.00     0.001 C 
HETATM   16  C15 UNL     1     -10.754  45.170 -26.597  1.00  0.00     0.019 C 
HETATM   17  C16 UNL     1     -12.580  46.874 -27.341  1.00  0.00     0.002 C 
HETATM   18  C17 UNL     1     -11.896  46.972 -28.690  1.00  0.00     0.009 C 
HETATM   19  C18 UNL     1     -10.585  47.712 -28.354  1.00  0.00     0.047 C 
HETATM   20  C19 UNL     1     -10.423  47.683 -26.796  1.00  0.00     0.128 C 
ENDROOT
BRANCH  20  21
HETATM   21  O3  UNL     1     -10.872  48.935 -26.267  1.00  0.00    -0.381 OA
HETATM   22  H25 UNL     1     -10.426  49.647 -26.762  1.00  0.00     0.211 HD
ENDBRANCH  20  21
BRANCH  20  23
HETATM   23  C20 UNL     1      -8.949  47.473 -26.367  1.00  0.00     0.185 C 
HETATM   24  O4  UNL     1      -8.080  47.143 -27.178  1.00  0.00    -0.292 OA
BRANCH  23  25
HETATM   25  C21 UNL     1      -8.618  47.706 -24.896  1.00  0.00     0.260 C 
BRANCH  25  26
HETATM   26  O5  UNL     1      -7.869  48.915 -24.746  1.00  0.00    -0.314 OA
BRANCH  26  27
HETATM   27  C22 UNL     1      -6.573  48.724 -24.387  1.00  0.00     0.259 C 
HETATM   28  O6  UNL     1      -5.680  48.392 -25.156  1.00  0.00    -0.265 OA
BRANCH  27  29
HETATM   29  C23 UNL     1      -6.387  48.951 -22.912  1.00  0.00     0.120 C 
BRANCH  29  30
HETATM   30  C24 UNL     1      -6.183  50.428 -22.609  1.00  0.00     0.112 C 
BRANCH  30  31
HETATM   31  C25 UNL     1      -4.882  50.947 -23.179  1.00  0.00     0.218 C 
HETATM   32  O7  UNL     1      -4.773  52.023 -23.755  1.00  0.00    -0.274 OA
HETATM   33  N1  UNL     1      -3.828  50.085 -22.975  1.00  0.00    -0.361 N 
HETATM   34  H32 UNL     1      -3.979  49.220 -22.471  1.00  0.00     0.162 HD
BRANCH  33  35
HETATM   35  C26 UNL     1      -2.486  50.393 -23.433  1.00  0.00     0.127 C 
BRANCH  35  36
HETATM   36  C27 UNL     1      -1.456  50.298 -22.305  1.00  0.00     0.058 C 
BRANCH  36  37
HETATM   37  C28 UNL     1      -0.576  51.522 -22.253  1.00  0.00    -0.054 A 
HETATM   38  C29 UNL     1      -0.118  52.015 -21.019  1.00  0.00     0.010 A 
HETATM   39  C30 UNL     1       0.718  53.133 -20.967  1.00  0.00     0.040 A 
HETATM   40  C31 UNL     1       1.095  53.752 -22.150  1.00  0.00     0.098 A 
HETATM   41  C32 UNL     1       0.650  53.273 -23.378  1.00  0.00     0.099 A 
HETATM   42  C33 UNL     1      -0.182  52.161 -23.441  1.00  0.00     0.046 A 
BRANCH  40  43
HETATM   43  O8  UNL     1       1.914  54.844 -22.099  1.00  0.00    -0.358 OA
HETATM   44  H39 UNL     1       2.026  55.105 -23.034  1.00  0.00     0.217 HD
ENDBRANCH  40  43
BRANCH  41  45
HETATM   45  O9  UNL     1       1.061  53.931 -24.504  1.00  0.00    -0.358 OA
HETATM   46  H40 UNL     1       0.666  53.487 -25.273  1.00  0.00     0.217 HD
ENDBRANCH  41  45
ENDBRANCH  36  37
ENDBRANCH  35  36
ENDBRANCH  33  35
ENDBRANCH  30  31
ENDBRANCH  29  30
ENDBRANCH  27  29
ENDBRANCH  26  27
ENDBRANCH  25  26
ENDBRANCH  23  25
ENDBRANCH  20  23
BRANCH  13  47
HETATM   47  O2  UNL     1     -13.804  46.665 -23.396  1.00  0.00    -0.395 OA
HETATM   48  H14 UNL     1     -13.223  47.185 -22.812  1.00  0.00     0.210 HD
ENDBRANCH  13  47
TORSDOF 14
ENDMDL
MODEL 8
REMARK minimizedAffinity -8.86252403
REMARK CNNscore 0.391073704
REMARK CNNaffinity 6.50029707
REMARK  14 active torsions:
REMARK  status: ('A' for Active; 'I' for Inactive)
REMARK    1  A    between atoms: C12_13  and  O2_14 
REMARK    2  A    between atoms: C19_21  and  O3_22 
REMARK    3  A    between atoms: C19_21  and  C20_23 
REMARK    4  A    between atoms: C20_23  and  C21_25 
REMARK    5  A    between atoms: C21_25  and  O5_26 
REMARK    6  A    between atoms: O5_26  and  C22_27 
REMARK    7  A    between atoms: C22_27  and  C23_29 
REMARK    8  A    between atoms: C23_29  and  C24_30 
REMARK    9  A    between atoms: C24_30  and  C25_31 
REMARK       I    between atoms: C25_31  and  N1_33 
REMARK   10  A    between atoms: N1_33  and  C26_34 
REMARK   11  A    between atoms: C26_34  and  C27_35 
REMARK   12  A    between atoms: C27_35  and  C28_36 
REMARK   13  A    between atoms: C31_39  and  O8_40 
REMARK   14  A    between atoms: C32_41  and  O9_42 
ROOT
HETATM    1  C1  UNL     1      -0.401  49.647 -21.280  1.00  0.00     0.025 C 
HETATM    2  C2  UNL     1      -0.983  51.068 -21.437  1.00  0.00     0.004 A 
HETATM    3  C3  UNL     1      -0.042  51.824 -22.375  1.00  0.00    -0.009 A 
HETATM    4  C4  UNL     1       0.719  52.876 -22.046  1.00  0.00     0.052 A 
HETATM    5  C5  UNL     1       0.697  53.432 -20.684  1.00  0.00     0.172 A 
HETATM    6  O1  UNL     1       1.413  54.372 -20.364  1.00  0.00    -0.289 OA
HETATM    7  C6  UNL     1      -0.240  52.818 -19.727  1.00  0.00     0.058 A 
HETATM    8  C7  UNL     1      -1.013  51.763 -20.051  1.00  0.00    -0.064 A 
HETATM    9  C8  UNL     1      -2.024  51.268 -19.045  1.00  0.00     0.036 C 
HETATM   10  C9  UNL     1      -3.432  51.290 -19.638  1.00  0.00     0.010 C 
HETATM   11  C10 UNL     1      -3.458  50.458 -20.917  1.00  0.00    -0.002 C 
HETATM   12  C11 UNL     1      -2.462  51.032 -21.983  1.00  0.00     0.035 C 
HETATM   13  C12 UNL     1      -2.786  50.474 -23.419  1.00  0.00     0.124 C 
HETATM   14  C13 UNL     1      -3.674  49.214 -23.512  1.00  0.00     0.045 C 
HETATM   15  C14 UNL     1      -4.867  49.124 -22.533  1.00  0.00     0.001 C 
HETATM   16  C15 UNL     1      -4.768  47.754 -21.793  1.00  0.00     0.019 C 
HETATM   17  C16 UNL     1      -4.823  50.350 -21.583  1.00  0.00     0.002 C 
HETATM   18  C17 UNL     1      -6.103  50.228 -20.780  1.00  0.00     0.009 C 
HETATM   19  C18 UNL     1      -7.125  49.759 -21.837  1.00  0.00     0.047 C 
HETATM   20  C19 UNL     1      -6.311  49.300 -23.095  1.00  0.00     0.128 C 
ENDROOT
BRANCH  20  21
HETATM   21  O3  UNL     1      -6.312  50.363 -24.053  1.00  0.00    -0.381 OA
HETATM   22  H25 UNL     1      -7.236  50.649 -24.182  1.00  0.00     0.211 HD
ENDBRANCH  20  21
BRANCH  20  23
HETATM   23  C20 UNL     1      -6.928  48.042 -23.759  1.00  0.00     0.185 C 
HETATM   24  O4  UNL     1      -7.611  47.240 -23.118  1.00  0.00    -0.292 OA
BRANCH  23  25
HETATM   25  C21 UNL     1      -6.662  47.850 -25.249  1.00  0.00     0.260 C 
BRANCH  25  26
HETATM   26  O5  UNL     1      -7.842  48.144 -26.001  1.00  0.00    -0.314 OA
BRANCH  26  27
HETATM   27  C22 UNL     1      -8.310  47.098 -26.731  1.00  0.00     0.259 C 
HETATM   28  O6  UNL     1      -8.167  45.920 -26.430  1.00  0.00    -0.265 OA
BRANCH  27  29
HETATM   29  C23 UNL     1      -9.008  47.581 -27.973  1.00  0.00     0.120 C 
BRANCH  29  30
HETATM   30  C24 UNL     1      -8.040  48.310 -28.893  1.00  0.00     0.112 C 
BRANCH  30  31
HETATM   31  C25 UNL     1      -6.847  47.453 -29.252  1.00  0.00     0.218 C 
HETATM   32  O7  UNL     1      -5.739  47.583 -28.746  1.00  0.00    -0.274 OA
HETATM   33  N1  UNL     1      -7.140  46.501 -30.203  1.00  0.00    -0.361 N 
HETATM   34  H32 UNL     1      -8.082  46.430 -30.566  1.00  0.00     0.162 HD
BRANCH  33  35
HETATM   35  C26 UNL     1      -6.141  45.565 -30.684  1.00  0.00     0.127 C 
BRANCH  35  36
HETATM   36  C27 UNL     1      -6.317  45.249 -32.171  1.00  0.00     0.058 C 
BRANCH  36  37
HETATM   37  C28 UNL     1      -5.863  43.848 -32.498  1.00  0.00    -0.054 A 
HETATM   38  C29 UNL     1      -6.807  42.840 -32.763  1.00  0.00     0.010 A 
HETATM   39  C30 UNL     1      -6.392  41.547 -33.091  1.00  0.00     0.040 A 
HETATM   40  C31 UNL     1      -5.035  41.268 -33.155  1.00  0.00     0.098 A 
HETATM   41  C32 UNL     1      -4.091  42.256 -32.897  1.00  0.00     0.099 A 
HETATM   42  C33 UNL     1      -4.493  43.547 -32.570  1.00  0.00     0.046 A 
BRANCH  40  43
HETATM   43  O8  UNL     1      -4.629  40.004 -33.477  1.00  0.00    -0.358 OA
HETATM   44  H39 UNL     1      -3.653  40.049 -33.448  1.00  0.00     0.217 HD
ENDBRANCH  40  43
BRANCH  41  45
HETATM   45  O9  UNL     1      -2.770  41.911 -32.979  1.00  0.00    -0.358 OA
HETATM   46  H40 UNL     1      -2.240  42.698 -32.767  1.00  0.00     0.217 HD
ENDBRANCH  41  45
ENDBRANCH  36  37
ENDBRANCH  35  36
ENDBRANCH  33  35
ENDBRANCH  30  31
ENDBRANCH  29  30
ENDBRANCH  27  29
ENDBRANCH  26  27
ENDBRANCH  25  26
ENDBRANCH  23  25
ENDBRANCH  20  23
BRANCH  13  47
HETATM   47  O2  UNL     1      -1.628  50.225 -24.205  1.00  0.00    -0.395 OA
HETATM   48  H14 UNL     1      -1.919  50.058 -25.119  1.00  0.00     0.210 HD
ENDBRANCH  13  47
TORSDOF 14
ENDMDL
MODEL 9
REMARK minimizedAffinity -9.67952442
REMARK CNNscore 0.386589825
REMARK CNNaffinity 6.38609934
REMARK  14 active torsions:
REMARK  status: ('A' for Active; 'I' for Inactive)
REMARK    1  A    between atoms: C12_13  and  O2_14 
REMARK    2  A    between atoms: C19_21  and  O3_22 
REMARK    3  A    between atoms: C19_21  and  C20_23 
REMARK    4  A    between atoms: C20_23  and  C21_25 
REMARK    5  A    between atoms: C21_25  and  O5_26 
REMARK    6  A    between atoms: O5_26  and  C22_27 
REMARK    7  A    between atoms: C22_27  and  C23_29 
REMARK    8  A    between atoms: C23_29  and  C24_30 
REMARK    9  A    between atoms: C24_30  and  C25_31 
REMARK       I    between atoms: C25_31  and  N1_33 
REMARK   10  A    between atoms: N1_33  and  C26_34 
REMARK   11  A    between atoms: C26_34  and  C27_35 
REMARK   12  A    between atoms: C27_35  and  C28_36 
REMARK   13  A    between atoms: C31_39  and  O8_40 
REMARK   14  A    between atoms: C32_41  and  O9_42 
ROOT
HETATM    1  C1  UNL     1      -0.435  49.676 -21.311  1.00  0.00     0.025 C 
HETATM    2  C2  UNL     1      -1.041  51.086 -21.467  1.00  0.00     0.004 A 
HETATM    3  C3  UNL     1      -0.141  51.845 -22.442  1.00  0.00    -0.009 A 
HETATM    4  C4  UNL     1       0.614  52.912 -22.148  1.00  0.00     0.052 A 
HETATM    5  C5  UNL     1       0.626  53.483 -20.792  1.00  0.00     0.172 A 
HETATM    6  O1  UNL     1       1.337  54.438 -20.506  1.00  0.00    -0.289 OA
HETATM    7  C6  UNL     1      -0.273  52.868 -19.800  1.00  0.00     0.058 A 
HETATM    8  C7  UNL     1      -1.039  51.798 -20.089  1.00  0.00    -0.064 A 
HETATM    9  C8  UNL     1      -2.012  51.300 -19.047  1.00  0.00     0.036 C 
HETATM   10  C9  UNL     1      -3.437  51.295 -19.596  1.00  0.00     0.010 C 
HETATM   11  C10 UNL     1      -3.491  50.447 -20.864  1.00  0.00    -0.002 C 
HETATM   12  C11 UNL     1      -2.536  51.023 -21.966  1.00  0.00     0.035 C 
HETATM   13  C12 UNL     1      -2.896  50.443 -23.386  1.00  0.00     0.124 C 
HETATM   14  C13 UNL     1      -3.767  49.170 -23.437  1.00  0.00     0.045 C 
HETATM   15  C14 UNL     1      -4.928  49.074 -22.420  1.00  0.00     0.001 C 
HETATM   16  C15 UNL     1      -4.786  47.715 -21.669  1.00  0.00     0.019 C 
HETATM   17  C16 UNL     1      -4.874  50.312 -21.486  1.00  0.00     0.002 C 
HETATM   18  C17 UNL     1      -6.126  50.181 -20.643  1.00  0.00     0.009 C 
HETATM   19  C18 UNL     1      -7.173  49.685 -21.663  1.00  0.00     0.047 C 
HETATM   20  C19 UNL     1      -6.391  49.222 -22.940  1.00  0.00     0.128 C 
ENDROOT
BRANCH  20  21
HETATM   21  O3  UNL     1      -6.438  50.274 -23.909  1.00  0.00    -0.381 OA
HETATM   22  H25 UNL     1      -7.369  50.545 -24.014  1.00  0.00     0.211 HD
ENDBRANCH  20  21
BRANCH  20  23
HETATM   23  C20 UNL     1      -7.009  47.948 -23.570  1.00  0.00     0.185 C 
HETATM   24  O4  UNL     1      -7.462  47.036 -22.875  1.00  0.00    -0.292 OA
BRANCH  23  25
HETATM   25  C21 UNL     1      -7.045  47.882 -25.094  1.00  0.00     0.260 C 
BRANCH  25  26
HETATM   26  O5  UNL     1      -8.156  48.631 -25.593  1.00  0.00    -0.314 OA
BRANCH  26  27
HETATM   27  C22 UNL     1      -9.308  47.918 -25.689  1.00  0.00     0.259 C 
HETATM   28  O6  UNL     1     -10.058  47.678 -24.751  1.00  0.00    -0.265 OA
BRANCH  27  29
HETATM   29  C23 UNL     1      -9.526  47.438 -27.098  1.00  0.00     0.120 C 
BRANCH  29  30
HETATM   30  C24 UNL     1      -8.982  48.441 -28.105  1.00  0.00     0.112 C 
BRANCH  30  31
HETATM   31  C25 UNL     1      -9.437  48.130 -29.514  1.00  0.00     0.218 C 
HETATM   32  O7  UNL     1     -10.608  48.155 -29.872  1.00  0.00    -0.274 OA
HETATM   33  N1  UNL     1      -8.391  47.824 -30.357  1.00  0.00    -0.361 N 
HETATM   34  H32 UNL     1      -7.443  47.843 -30.005  1.00  0.00     0.162 HD
BRANCH  33  35
HETATM   35  C26 UNL     1      -8.604  47.505 -31.756  1.00  0.00     0.127 C 
BRANCH  35  36
HETATM   36  C27 UNL     1      -7.732  46.334 -32.218  1.00  0.00     0.058 C 
BRANCH  36  37
HETATM   37  C28 UNL     1      -6.392  46.807 -32.724  1.00  0.00    -0.054 A 
HETATM   38  C29 UNL     1      -5.205  46.338 -32.134  1.00  0.00     0.010 A 
HETATM   39  C30 UNL     1      -3.962  46.753 -32.616  1.00  0.00     0.040 A 
HETATM   40  C31 UNL     1      -3.909  47.633 -33.686  1.00  0.00     0.098 A 
HETATM   41  C32 UNL     1      -5.076  48.103 -34.280  1.00  0.00     0.099 A 
HETATM   42  C33 UNL     1      -6.319  47.696 -33.809  1.00  0.00     0.046 A 
BRANCH  40  43
HETATM   43  O8  UNL     1      -2.693  48.037 -34.158  1.00  0.00    -0.358 OA
HETATM   44  H39 UNL     1      -2.908  48.650 -34.889  1.00  0.00     0.217 HD
ENDBRANCH  40  43
BRANCH  41  45
HETATM   45  O9  UNL     1      -4.950  48.968 -35.332  1.00  0.00    -0.358 OA
HETATM   46  H40 UNL     1      -5.843  49.209 -35.631  1.00  0.00     0.217 HD
ENDBRANCH  41  45
ENDBRANCH  36  37
ENDBRANCH  35  36
ENDBRANCH  33  35
ENDBRANCH  30  31
ENDBRANCH  29  30
ENDBRANCH  27  29
ENDBRANCH  26  27
ENDBRANCH  25  26
ENDBRANCH  23  25
ENDBRANCH  20  23
BRANCH  13  47
HETATM   47  O2  UNL     1      -1.758  50.202 -24.204  1.00  0.00    -0.395 OA
HETATM   48  H14 UNL     1      -2.075  50.020 -25.107  1.00  0.00     0.210 HD
ENDBRANCH  13  47
TORSDOF 14
ENDMDL
