MODEL 1
REMARK minimizedAffinity -8.68351555
REMARK CNNscore 0.44570595
REMARK CNNaffinity 6.32081413
REMARK  11 active torsions:
REMARK  status: ('A' for Active; 'I' for Inactive)
REMARK    1  A    between atoms: C3_3  and  O1_4 
REMARK    2  A    between atoms: N1_14  and  O2_16 
REMARK    3  A    between atoms: O2_16  and  C13_17 
REMARK    4  A    between atoms: C13_17  and  C14_18 
REMARK       I    between atoms: C14_18  and  N2_20 
REMARK    5  A    between atoms: N2_20  and  C15_21 
REMARK    6  A    between atoms: C15_21  and  C16_22 
REMARK    7  A    between atoms: C15_21  and  C17_25 
REMARK    8  A    between atoms: C16_22  and  O5_24 
REMARK    9  A    between atoms: C17_25  and  O6_26 
REMARK   10  A    between atoms: C17_25  and  C18_27 
REMARK   11  A    between atoms: C22_31  and  N3_32 
ROOT
HETATM    1  C1  UNL     1      -2.422  51.296 -20.250  1.00  0.00     0.015 C 
HETATM    2  C2  UNL     1      -2.645  50.891 -21.359  1.00  0.00    -0.078 C 
HETATM    3  C3  UNL     1      -2.895  50.395 -22.721  1.00  0.00     0.128 C 
HETATM    4  C4  UNL     1      -3.662  51.419 -23.572  1.00  0.00     0.052 C 
HETATM    5  C5  UNL     1      -4.499  50.602 -24.565  1.00  0.00     0.010 C 
HETATM    6  C6  UNL     1      -4.227  49.116 -24.263  1.00  0.00     0.002 C 
HETATM    7  C7  UNL     1      -5.380  48.142 -24.594  1.00  0.00    -0.004 C 
HETATM    8  C8  UNL     1      -5.830  48.297 -26.053  1.00  0.00     0.010 C 
HETATM    9  C9  UNL     1      -6.879  47.259 -26.419  1.00  0.00     0.035 C 
HETATM   10  C10 UNL     1      -8.065  47.305 -25.485  1.00  0.00    -0.069 C 
HETATM   11  C11 UNL     1      -9.307  47.324 -25.999  1.00  0.00     0.030 C 
HETATM   12  C12 UNL     1     -10.516  47.200 -25.146  1.00  0.00     0.032 C 
HETATM   13  N1  UNL     1     -11.672  47.154 -25.744  1.00  0.00    -0.271 N 
ATOM     14  H1  UNL     1     -11.799  47.250 -26.752  1.00  0.00     0.194 HD
HETATM   15  C24 UNL     1     -10.320  47.047 -23.653  1.00  0.00     0.060 C 
HETATM   16  C25 UNL     1      -9.030  47.716 -23.192  1.00  0.00     0.020 C 
HETATM   17  C26 UNL     1      -7.765  47.270 -23.983  1.00  0.00    -0.016 C 
HETATM   18  C27 UNL     1      -7.418  45.811 -23.603  1.00  0.00     0.020 C 
HETATM   19  C28 UNL     1      -6.591  48.271 -23.636  1.00  0.00     0.002 C 
HETATM   20  C29 UNL     1      -6.111  48.175 -22.174  1.00  0.00     0.007 C 
HETATM   21  C30 UNL     1      -5.022  49.199 -21.852  1.00  0.00     0.014 C 
HETATM   22  C31 UNL     1      -3.781  49.109 -22.781  1.00  0.00     0.003 C 
HETATM   23  C32 UNL     1      -2.973  47.840 -22.450  1.00  0.00     0.020 C 
ENDROOT
BRANCH   3  24
HETATM   24  O1  UNL     1      -1.620  50.166 -23.328  1.00  0.00    -0.377 OA
HETATM   25  H2  UNL     1      -1.741  50.101 -24.287  1.00  0.00     0.211 HD
ENDBRANCH   3  24
BRANCH  13  26
HETATM   26  O2  UNL     1     -12.722  46.956 -24.835  1.00  0.00    -0.271 OA
BRANCH  26  27
HETATM   27  C13 UNL     1     -13.915  46.708 -25.569  1.00  0.00     0.303 C 
BRANCH  27  28
HETATM   28  C14 UNL     1     -15.120  47.057 -24.712  1.00  0.00     0.244 C 
HETATM   29  O3  UNL     1     -15.123  47.997 -23.919  1.00  0.00    -0.271 OA
HETATM   30  N2  UNL     1     -16.183  46.198 -24.857  1.00  0.00    -0.342 N 
HETATM   31  H16 UNL     1     -16.178  45.521 -25.615  1.00  0.00     0.163 HD
BRANCH  30  32
HETATM   32  C15 UNL     1     -17.430  46.347 -24.101  1.00  0.00     0.216 C 
BRANCH  32  33
HETATM   33  C16 UNL     1     -18.641  46.039 -24.979  1.00  0.00     0.166 C 
HETATM   34  O4  UNL     1     -19.599  46.777 -25.160  1.00  0.00    -0.648 OA
BRANCH  33  35
HETATM   35  O5  UNL     1     -18.602  44.828 -25.582  1.00  0.00    -0.775 OA
HETATM   36  H18 UNL     1     -19.447  44.786 -26.078  1.00  0.00     0.167 HD
ENDBRANCH  33  35
ENDBRANCH  32  33
BRANCH  32  37
HETATM   37  C17 UNL     1     -17.502  45.429 -22.857  1.00  0.00     0.184 C 
BRANCH  37  38
HETATM   38  O6  UNL     1     -16.365  44.553 -22.811  1.00  0.00    -0.388 OA
HETATM   39  H20 UNL     1     -16.463  44.015 -22.005  1.00  0.00     0.210 HD
ENDBRANCH  37  38
BRANCH  37  40
HETATM   40  C18 UNL     1     -17.617  46.195 -21.547  1.00  0.00    -0.025 A 
HETATM   41  C19 UNL     1     -18.856  46.651 -21.066  1.00  0.00     0.010 A 
HETATM   42  C20 UNL     1     -18.951  47.324 -19.845  1.00  0.00     0.003 A 
HETATM   43  C21 UNL     1     -17.809  47.546 -19.076  1.00  0.00     0.036 A 
HETATM   44  C22 UNL     1     -16.572  47.088 -19.541  1.00  0.00     0.103 A 
HETATM   45  C23 UNL     1     -16.469  46.418 -20.770  1.00  0.00     0.045 A 
BRANCH  44  46
HETATM   46  N3  UNL     1     -15.366  47.317 -18.735  1.00  0.00    -0.116 N 
HETATM   47  O7  UNL     1     -14.927  48.475 -18.669  1.00  0.00    -0.532 OA
HETATM   48  O8  UNL     1     -14.864  46.343 -18.157  1.00  0.00    -0.532 OA
ENDBRANCH  44  46
ENDBRANCH  37  40
ENDBRANCH  32  37
ENDBRANCH  30  32
ENDBRANCH  27  28
ENDBRANCH  26  27
ENDBRANCH  13  26
TORSDOF 11
ENDMDL
MODEL 2
REMARK minimizedAffinity -8.44220734
REMARK CNNscore 0.39142099
REMARK CNNaffinity 6.22380781
REMARK  11 active torsions:
REMARK  status: ('A' for Active; 'I' for Inactive)
REMARK    1  A    between atoms: C3_3  and  O1_4 
REMARK    2  A    between atoms: N1_14  and  O2_16 
REMARK    3  A    between atoms: O2_16  and  C13_17 
REMARK    4  A    between atoms: C13_17  and  C14_18 
REMARK       I    between atoms: C14_18  and  N2_20 
REMARK    5  A    between atoms: N2_20  and  C15_21 
REMARK    6  A    between atoms: C15_21  and  C16_22 
REMARK    7  A    between atoms: C15_21  and  C17_25 
REMARK    8  A    between atoms: C16_22  and  O5_24 
REMARK    9  A    between atoms: C17_25  and  O6_26 
REMARK   10  A    between atoms: C17_25  and  C18_27 
REMARK   11  A    between atoms: C22_31  and  N3_32 
ROOT
HETATM    1  C1  UNL     1      -0.091  51.871 -22.146  1.00  0.00     0.015 C 
HETATM    2  C2  UNL     1      -1.141  51.625 -22.675  1.00  0.00    -0.078 C 
HETATM    3  C3  UNL     1      -2.416  51.325 -23.343  1.00  0.00     0.128 C 
HETATM    4  C4  UNL     1      -3.478  52.399 -23.057  1.00  0.00     0.052 C 
HETATM    5  C5  UNL     1      -4.832  51.676 -23.094  1.00  0.00     0.010 C 
HETATM    6  C6  UNL     1      -4.537  50.191 -23.376  1.00  0.00     0.002 C 
HETATM    7  C7  UNL     1      -5.560  49.184 -22.802  1.00  0.00    -0.004 C 
HETATM    8  C8  UNL     1      -6.984  49.524 -23.262  1.00  0.00     0.010 C 
HETATM    9  C9  UNL     1      -7.977  48.468 -22.801  1.00  0.00     0.035 C 
HETATM   10  C10 UNL     1      -7.931  48.267 -21.305  1.00  0.00    -0.069 C 
HETATM   11  C11 UNL     1      -9.080  48.259 -20.606  1.00  0.00     0.030 C 
HETATM   12  C12 UNL     1      -9.124  47.901 -19.166  1.00  0.00     0.032 C 
HETATM   13  N1  UNL     1     -10.294  47.849 -18.596  1.00  0.00    -0.271 N 
ATOM     14  H1  UNL     1     -11.169  48.088 -19.062  1.00  0.00     0.194 HD
HETATM   15  C24 UNL     1      -7.824  47.537 -18.484  1.00  0.00     0.060 C 
HETATM   16  C25 UNL     1      -6.639  48.234 -19.141  1.00  0.00     0.020 C 
HETATM   17  C26 UNL     1      -6.553  48.027 -20.681  1.00  0.00    -0.016 C 
HETATM   18  C27 UNL     1      -6.150  46.562 -20.973  1.00  0.00     0.020 C 
HETATM   19  C28 UNL     1      -5.503  49.059 -21.259  1.00  0.00     0.002 C 
HETATM   20  C29 UNL     1      -4.055  48.780 -20.811  1.00  0.00     0.007 C 
HETATM   21  C30 UNL     1      -3.073  49.832 -21.332  1.00  0.00     0.014 C 
HETATM   22  C31 UNL     1      -3.086  49.993 -22.876  1.00  0.00     0.003 C 
HETATM   23  C32 UNL     1      -2.435  48.762 -23.535  1.00  0.00     0.020 C 
ENDROOT
BRANCH   3  24
HETATM   24  O1  UNL     1      -2.162  51.303 -24.750  1.00  0.00    -0.377 OA
HETATM   25  H2  UNL     1      -3.007  51.377 -25.219  1.00  0.00     0.211 HD
ENDBRANCH   3  24
BRANCH  13  26
HETATM   26  O2  UNL     1     -10.204  47.424 -17.262  1.00  0.00    -0.271 OA
BRANCH  26  27
HETATM   27  C13 UNL     1     -11.304  46.564 -16.987  1.00  0.00     0.303 C 
BRANCH  27  28
HETATM   28  C14 UNL     1     -12.585  47.196 -17.506  1.00  0.00     0.244 C 
HETATM   29  O3  UNL     1     -13.185  48.080 -16.897  1.00  0.00    -0.271 OA
HETATM   30  N2  UNL     1     -13.045  46.655 -18.682  1.00  0.00    -0.342 N 
HETATM   31  H16 UNL     1     -12.447  46.023 -19.207  1.00  0.00     0.163 HD
BRANCH  30  32
HETATM   32  C15 UNL     1     -14.277  47.108 -19.334  1.00  0.00     0.216 C 
BRANCH  32  33
HETATM   33  C16 UNL     1     -13.968  48.070 -20.478  1.00  0.00     0.166 C 
HETATM   34  O4  UNL     1     -13.763  47.756 -21.642  1.00  0.00    -0.648 OA
BRANCH  33  35
HETATM   35  O5  UNL     1     -13.924  49.374 -20.117  1.00  0.00    -0.775 OA
HETATM   36  H18 UNL     1     -13.698  49.841 -20.951  1.00  0.00     0.167 HD
ENDBRANCH  33  35
ENDBRANCH  32  33
BRANCH  32  37
HETATM   37  C17 UNL     1     -15.125  45.947 -19.907  1.00  0.00     0.184 C 
BRANCH  37  38
HETATM   38  O6  UNL     1     -14.644  44.684 -19.422  1.00  0.00    -0.388 OA
HETATM   39  H20 UNL     1     -15.223  44.002 -19.806  1.00  0.00     0.210 HD
ENDBRANCH  37  38
BRANCH  37  40
HETATM   40  C18 UNL     1     -16.612  46.082 -19.612  1.00  0.00    -0.025 A 
HETATM   41  C19 UNL     1     -17.232  47.339 -19.503  1.00  0.00     0.010 A 
HETATM   42  C20 UNL     1     -18.605  47.447 -19.265  1.00  0.00     0.003 A 
HETATM   43  C21 UNL     1     -19.386  46.300 -19.139  1.00  0.00     0.036 A 
HETATM   44  C22 UNL     1     -18.782  45.043 -19.254  1.00  0.00     0.103 A 
HETATM   45  C23 UNL     1     -17.403  44.928 -19.487  1.00  0.00     0.045 A 
BRANCH  44  46
HETATM   46  N3  UNL     1     -19.600  43.831 -19.126  1.00  0.00    -0.116 N 
HETATM   47  O7  UNL     1     -20.825  43.972 -18.996  1.00  0.00    -0.532 OA
HETATM   48  O8  UNL     1     -19.022  42.736 -19.168  1.00  0.00    -0.532 OA
ENDBRANCH  44  46
ENDBRANCH  37  40
ENDBRANCH  32  37
ENDBRANCH  30  32
ENDBRANCH  27  28
ENDBRANCH  26  27
ENDBRANCH  13  26
TORSDOF 11
ENDMDL
MODEL 3
REMARK minimizedAffinity -8.29189396
REMARK CNNscore 0.328609347
REMARK CNNaffinity 6.40266991
REMARK  11 active torsions:
REMARK  status: ('A' for Active; 'I' for Inactive)
REMARK    1  A    between atoms: C3_3  and  O1_4 
REMARK    2  A    between atoms: N1_14  and  O2_16 
REMARK    3  A    between atoms: O2_16  and  C13_17 
REMARK    4  A    between atoms: C13_17  and  C14_18 
REMARK       I    between atoms: C14_18  and  N2_20 
REMARK    5  A    between atoms: N2_20  and  C15_21 
REMARK    6  A    between atoms: C15_21  and  C16_22 
REMARK    7  A    between atoms: C15_21  and  C17_25 
REMARK    8  A    between atoms: C16_22  and  O5_24 
REMARK    9  A    between atoms: C17_25  and  O6_26 
REMARK   10  A    between atoms: C17_25  and  C18_27 
REMARK   11  A    between atoms: C22_31  and  N3_32 
ROOT
HETATM    1  C1  UNL     1      -2.192  52.154 -26.472  1.00  0.00     0.015 C 
HETATM    2  C2  UNL     1      -2.900  51.762 -25.585  1.00  0.00    -0.078 C 
HETATM    3  C3  UNL     1      -3.782  51.272 -24.514  1.00  0.00     0.128 C 
HETATM    4  C4  UNL     1      -4.320  52.421 -23.646  1.00  0.00     0.052 C 
HETATM    5  C5  UNL     1      -4.522  51.833 -22.243  1.00  0.00     0.010 C 
HETATM    6  C6  UNL     1      -4.077  50.359 -22.308  1.00  0.00     0.002 C 
HETATM    7  C7  UNL     1      -3.533  49.765 -20.990  1.00  0.00    -0.004 C 
HETATM    8  C8  UNL     1      -4.540  49.949 -19.846  1.00  0.00     0.010 C 
HETATM    9  C9  UNL     1      -4.063  49.259 -18.577  1.00  0.00     0.035 C 
HETATM   10  C10 UNL     1      -2.689  49.730 -18.162  1.00  0.00    -0.069 C 
HETATM   11  C11 UNL     1      -2.476  50.093 -16.886  1.00  0.00     0.030 C 
HETATM   12  C12 UNL     1      -1.119  50.404 -16.371  1.00  0.00     0.032 C 
HETATM   13  N1  UNL     1      -1.004  50.673 -15.101  1.00  0.00    -0.271 N 
ATOM     14  H1  UNL     1      -1.792  50.733 -14.456  1.00  0.00     0.194 HD
HETATM   15  C24 UNL     1       0.047  50.302 -17.331  1.00  0.00     0.060 C 
HETATM   16  C25 UNL     1      -0.392  50.574 -18.765  1.00  0.00     0.020 C 
HETATM   17  C26 UNL     1      -1.597  49.709 -19.236  1.00  0.00    -0.016 C 
HETATM   18  C27 UNL     1      -1.132  48.244 -19.410  1.00  0.00     0.020 C 
HETATM   19  C28 UNL     1      -2.145  50.324 -20.586  1.00  0.00     0.002 C 
HETATM   20  C29 UNL     1      -1.165  50.187 -21.768  1.00  0.00     0.007 C 
HETATM   21  C30 UNL     1      -1.694  50.848 -23.042  1.00  0.00     0.014 C 
HETATM   22  C31 UNL     1      -3.082  50.319 -23.493  1.00  0.00     0.003 C 
HETATM   23  C32 UNL     1      -2.940  48.889 -24.050  1.00  0.00     0.020 C 
ENDROOT
BRANCH   3  24
HETATM   24  O1  UNL     1      -4.891  50.623 -25.143  1.00  0.00    -0.377 OA
HETATM   25  H2  UNL     1      -5.605  50.533 -24.495  1.00  0.00     0.211 HD
ENDBRANCH   3  24
BRANCH  13  26
HETATM   26  O2  UNL     1       0.334  50.869 -14.729  1.00  0.00    -0.271 OA
BRANCH  26  27
HETATM   27  C13 UNL     1       0.490  52.216 -14.298  1.00  0.00     0.303 C 
BRANCH  27  28
HETATM   28  C14 UNL     1       0.578  52.256 -12.781  1.00  0.00     0.244 C 
HETATM   29  O3  UNL     1       0.304  51.290 -12.073  1.00  0.00    -0.271 OA
HETATM   30  N2  UNL     1       0.933  53.481 -12.269  1.00  0.00    -0.342 N 
HETATM   31  H16 UNL     1       1.274  54.204 -12.896  1.00  0.00     0.163 HD
BRANCH  30  32
HETATM   32  C15 UNL     1       1.050  53.734 -10.830  1.00  0.00     0.216 C 
BRANCH  32  33
HETATM   33  C16 UNL     1      -0.162  53.189 -10.079  1.00  0.00     0.166 C 
HETATM   34  O4  UNL     1      -1.304  53.620 -10.153  1.00  0.00    -0.648 OA
BRANCH  33  35
HETATM   35  O5  UNL     1       0.108  52.137  -9.269  1.00  0.00    -0.775 OA
HETATM   36  H18 UNL     1      -0.759  51.931  -8.857  1.00  0.00     0.167 HD
ENDBRANCH  33  35
ENDBRANCH  32  33
BRANCH  32  37
HETATM   37  C17 UNL     1       2.318  53.106 -10.202  1.00  0.00     0.184 C 
BRANCH  37  38
HETATM   38  O6  UNL     1       3.057  52.369 -11.189  1.00  0.00    -0.388 OA
HETATM   39  H20 UNL     1       3.842  52.012 -10.736  1.00  0.00     0.210 HD
ENDBRANCH  37  38
BRANCH  37  40
HETATM   40  C18 UNL     1       3.227  54.125  -9.530  1.00  0.00    -0.025 A 
HETATM   41  C19 UNL     1       4.584  54.244  -9.874  1.00  0.00     0.010 A 
HETATM   42  C20 UNL     1       5.398  55.207  -9.272  1.00  0.00     0.003 A 
HETATM   43  C21 UNL     1       4.868  56.077  -8.320  1.00  0.00     0.036 A 
HETATM   44  C22 UNL     1       3.516  55.973  -7.976  1.00  0.00     0.103 A 
HETATM   45  C23 UNL     1       2.695  55.004  -8.572  1.00  0.00     0.045 A 
BRANCH  44  46
HETATM   46  N3  UNL     1       2.951  56.888  -6.975  1.00  0.00    -0.116 N 
HETATM   47  O7  UNL     1       1.809  57.329  -7.176  1.00  0.00    -0.532 OA
HETATM   48  O8  UNL     1       3.641  57.155  -5.982  1.00  0.00    -0.532 OA
ENDBRANCH  44  46
ENDBRANCH  37  40
ENDBRANCH  32  37
ENDBRANCH  30  32
ENDBRANCH  27  28
ENDBRANCH  26  27
ENDBRANCH  13  26
TORSDOF 11
ENDMDL
MODEL 4
REMARK minimizedAffinity -8.22004032
REMARK CNNscore 0.240415588
REMARK CNNaffinity 5.93548536
REMARK  11 active torsions:
REMARK  status: ('A' for Active; 'I' for Inactive)
REMARK    1  A    between atoms: C3_3  and  O1_4 
REMARK    2  A    between atoms: N1_14  and  O2_16 
REMARK    3  A    between atoms: O2_16  and  C13_17 
REMARK    4  A    between atoms: C13_17  and  C14_18 
REMARK       I    between atoms: C14_18  and  N2_20 
REMARK    5  A    between atoms: N2_20  and  C15_21 
REMARK    6  A    between atoms: C15_21  and  C16_22 
REMARK    7  A    between atoms: C15_21  and  C17_25 
REMARK    8  A    between atoms: C16_22  and  O5_24 
REMARK    9  A    between atoms: C17_25  and  O6_26 
REMARK   10  A    between atoms: C17_25  and  C18_27 
REMARK   11  A    between atoms: C22_31  and  N3_32 
ROOT
HETATM    1  C1  UNL     1      -0.968  54.079 -27.973  1.00  0.00     0.015 C 
HETATM    2  C2  UNL     1      -0.813  53.140 -27.240  1.00  0.00    -0.078 C 
HETATM    3  C3  UNL     1      -0.602  51.995 -26.342  1.00  0.00     0.128 C 
HETATM    4  C4  UNL     1      -0.944  50.661 -27.025  1.00  0.00     0.052 C 
HETATM    5  C5  UNL     1      -1.432  49.727 -25.909  1.00  0.00     0.010 C 
HETATM    6  C6  UNL     1      -1.391  50.537 -24.599  1.00  0.00     0.002 C 
HETATM    7  C7  UNL     1      -2.420  50.123 -23.523  1.00  0.00    -0.004 C 
HETATM    8  C8  UNL     1      -2.314  48.625 -23.207  1.00  0.00     0.010 C 
HETATM    9  C9  UNL     1      -3.238  48.237 -22.063  1.00  0.00     0.035 C 
HETATM   10  C10 UNL     1      -4.671  48.625 -22.342  1.00  0.00    -0.069 C 
HETATM   11  C11 UNL     1      -5.647  47.720 -22.151  1.00  0.00     0.030 C 
HETATM   12  C12 UNL     1      -7.084  48.080 -22.242  1.00  0.00     0.032 C 
HETATM   13  N1  UNL     1      -7.955  47.151 -21.967  1.00  0.00    -0.271 N 
ATOM     14  H1  UNL     1      -7.711  46.185 -21.745  1.00  0.00     0.194 HD
HETATM   15  C24 UNL     1      -7.439  49.516 -22.559  1.00  0.00     0.060 C 
HETATM   16  C25 UNL     1      -6.351  50.185 -23.390  1.00  0.00     0.020 C 
HETATM   17  C26 UNL     1      -4.924  50.071 -22.779  1.00  0.00    -0.016 C 
HETATM   18  C27 UNL     1      -4.839  50.968 -21.521  1.00  0.00     0.020 C 
HETATM   19  C28 UNL     1      -3.879  50.499 -23.886  1.00  0.00     0.002 C 
HETATM   20  C29 UNL     1      -3.954  51.992 -24.261  1.00  0.00     0.007 C 
HETATM   21  C30 UNL     1      -2.978  52.361 -25.380  1.00  0.00     0.014 C 
HETATM   22  C31 UNL     1      -1.499  52.009 -25.063  1.00  0.00     0.003 C 
HETATM   23  C32 UNL     1      -0.953  52.971 -23.990  1.00  0.00     0.020 C 
ENDROOT
BRANCH   3  24
HETATM   24  O1  UNL     1       0.785  51.982 -25.993  1.00  0.00    -0.377 OA
HETATM   25  H2  UNL     1       1.006  51.109 -25.634  1.00  0.00     0.211 HD
ENDBRANCH   3  24
BRANCH  13  26
HETATM   26  O2  UNL     1      -9.269  47.639 -22.012  1.00  0.00    -0.271 OA
BRANCH  26  27
HETATM   27  C13 UNL     1     -10.154  46.590 -21.637  1.00  0.00     0.303 C 
BRANCH  27  28
HETATM   28  C14 UNL     1     -11.147  46.337 -22.760  1.00  0.00     0.244 C 
HETATM   29  O3  UNL     1     -10.798  46.051 -23.904  1.00  0.00    -0.271 OA
HETATM   30  N2  UNL     1     -12.461  46.515 -22.402  1.00  0.00    -0.342 N 
HETATM   31  H16 UNL     1     -12.700  46.622 -21.420  1.00  0.00     0.163 HD
BRANCH  30  32
HETATM   32  C15 UNL     1     -13.570  46.344 -23.346  1.00  0.00     0.216 C 
BRANCH  32  33
HETATM   33  C16 UNL     1     -14.146  44.933 -23.262  1.00  0.00     0.166 C 
HETATM   34  O4  UNL     1     -13.926  44.121 -22.375  1.00  0.00    -0.648 OA
BRANCH  33  35
HETATM   35  O5  UNL     1     -14.964  44.601 -24.290  1.00  0.00    -0.775 OA
HETATM   36  H18 UNL     1     -15.223  43.675 -24.092  1.00  0.00     0.167 HD
ENDBRANCH  33  35
ENDBRANCH  32  33
BRANCH  32  37
HETATM   37  C17 UNL     1     -14.728  47.344 -23.112  1.00  0.00     0.184 C 
BRANCH  37  38
HETATM   38  O6  UNL     1     -15.737  47.191 -24.122  1.00  0.00    -0.388 OA
HETATM   39  H20 UNL     1     -16.437  47.835 -23.912  1.00  0.00     0.210 HD
ENDBRANCH  37  38
BRANCH  37  40
HETATM   40  C18 UNL     1     -15.356  47.228 -21.731  1.00  0.00    -0.025 A 
HETATM   41  C19 UNL     1     -16.594  46.593 -21.534  1.00  0.00     0.010 A 
HETATM   42  C20 UNL     1     -17.142  46.464 -20.255  1.00  0.00     0.003 A 
HETATM   43  C21 UNL     1     -16.459  46.961 -19.146  1.00  0.00     0.036 A 
HETATM   44  C22 UNL     1     -15.221  47.586 -19.329  1.00  0.00     0.103 A 
HETATM   45  C23 UNL     1     -14.668  47.724 -20.612  1.00  0.00     0.045 A 
BRANCH  44  46
HETATM   46  N3  UNL     1     -14.494  48.109 -18.165  1.00  0.00    -0.116 N 
HETATM   47  O7  UNL     1     -13.330  47.717 -17.988  1.00  0.00    -0.532 OA
HETATM   48  O8  UNL     1     -15.079  48.921 -17.435  1.00  0.00    -0.532 OA
ENDBRANCH  44  46
ENDBRANCH  37  40
ENDBRANCH  32  37
ENDBRANCH  30  32
ENDBRANCH  27  28
ENDBRANCH  26  27
ENDBRANCH  13  26
TORSDOF 11
ENDMDL
MODEL 5
REMARK minimizedAffinity -8.81220627
REMARK CNNscore 0.235150799
REMARK CNNaffinity 5.82086229
REMARK  11 active torsions:
REMARK  status: ('A' for Active; 'I' for Inactive)
REMARK    1  A    between atoms: C3_3  and  O1_4 
REMARK    2  A    between atoms: N1_14  and  O2_16 
REMARK    3  A    between atoms: O2_16  and  C13_17 
REMARK    4  A    between atoms: C13_17  and  C14_18 
REMARK       I    between atoms: C14_18  and  N2_20 
REMARK    5  A    between atoms: N2_20  and  C15_21 
REMARK    6  A    between atoms: C15_21  and  C16_22 
REMARK    7  A    between atoms: C15_21  and  C17_25 
REMARK    8  A    between atoms: C16_22  and  O5_24 
REMARK    9  A    between atoms: C17_25  and  O6_26 
REMARK   10  A    between atoms: C17_25  and  C18_27 
REMARK   11  A    between atoms: C22_31  and  N3_32 
ROOT
HETATM    1  C1  UNL     1      -4.570  48.486 -34.482  1.00  0.00     0.015 C 
HETATM    2  C2  UNL     1      -4.728  47.752 -33.545  1.00  0.00    -0.078 C 
HETATM    3  C3  UNL     1      -4.900  46.853 -32.393  1.00  0.00     0.128 C 
HETATM    4  C4  UNL     1      -5.452  45.482 -32.814  1.00  0.00     0.052 C 
HETATM    5  C5  UNL     1      -6.278  44.975 -31.624  1.00  0.00     0.010 C 
HETATM    6  C6  UNL     1      -6.214  46.066 -30.538  1.00  0.00     0.002 C 
HETATM    7  C7  UNL     1      -7.436  46.146 -29.596  1.00  0.00    -0.004 C 
HETATM    8  C8  UNL     1      -7.718  44.786 -28.943  1.00  0.00     0.010 C 
HETATM    9  C9  UNL     1      -8.841  44.887 -27.923  1.00  0.00     0.035 C 
HETATM   10  C10 UNL     1     -10.100  45.462 -28.528  1.00  0.00    -0.069 C 
HETATM   11  C11 UNL     1     -11.274  44.842 -28.318  1.00  0.00     0.030 C 
HETATM   12  C12 UNL     1     -12.567  45.438 -28.737  1.00  0.00     0.032 C 
HETATM   13  N1  UNL     1     -13.656  44.796 -28.422  1.00  0.00    -0.271 N 
ATOM     14  H1  UNL     1     -13.670  43.890 -27.953  1.00  0.00     0.194 HD
HETATM   15  C24 UNL     1     -12.540  46.788 -29.421  1.00  0.00     0.060 C 
HETATM   16  C25 UNL     1     -11.232  47.000 -30.175  1.00  0.00     0.020 C 
HETATM   17  C26 UNL     1      -9.957  46.771 -29.311  1.00  0.00    -0.016 C 
HETATM   18  C27 UNL     1      -9.824  47.924 -28.288  1.00  0.00     0.020 C 
HETATM   19  C28 UNL     1      -8.712  46.693 -30.284  1.00  0.00     0.002 C 
HETATM   20  C29 UNL     1      -8.394  48.027 -30.987  1.00  0.00     0.007 C 
HETATM   21  C30 UNL     1      -7.228  47.904 -31.969  1.00  0.00     0.014 C 
HETATM   22  C31 UNL     1      -5.921  47.365 -31.327  1.00  0.00     0.003 C 
HETATM   23  C32 UNL     1      -5.305  48.442 -30.414  1.00  0.00     0.020 C 
ENDROOT
BRANCH   3  24
HETATM   24  O1  UNL     1      -3.607  46.661 -31.811  1.00  0.00    -0.377 OA
HETATM   25  H2  UNL     1      -3.640  45.882 -31.235  1.00  0.00     0.211 HD
ENDBRANCH   3  24
BRANCH  13  26
HETATM   26  O2  UNL     1     -14.806  45.502 -28.804  1.00  0.00    -0.271 OA
BRANCH  26  27
HETATM   27  C13 UNL     1     -15.915  44.986 -28.078  1.00  0.00     0.303 C 
BRANCH  27  28
HETATM   28  C14 UNL     1     -15.526  44.801 -26.620  1.00  0.00     0.244 C 
HETATM   29  O3  UNL     1     -15.551  43.707 -26.059  1.00  0.00    -0.271 OA
HETATM   30  N2  UNL     1     -15.201  45.967 -25.971  1.00  0.00    -0.342 N 
HETATM   31  H16 UNL     1     -15.070  46.818 -26.510  1.00  0.00     0.163 HD
BRANCH  30  32
HETATM   32  C15 UNL     1     -14.822  46.006 -24.555  1.00  0.00     0.216 C 
BRANCH  32  33
HETATM   33  C16 UNL     1     -13.386  46.494 -24.387  1.00  0.00     0.166 C 
HETATM   34  O4  UNL     1     -12.940  47.089 -23.416  1.00  0.00    -0.648 OA
BRANCH  33  35
HETATM   35  O5  UNL     1     -12.576  46.223 -25.438  1.00  0.00    -0.775 OA
HETATM   36  H18 UNL     1     -11.715  46.616 -25.178  1.00  0.00     0.167 HD
ENDBRANCH  33  35
ENDBRANCH  32  33
BRANCH  32  37
HETATM   37  C17 UNL     1     -15.736  46.922 -23.705  1.00  0.00     0.184 C 
BRANCH  37  38
HETATM   38  O6  UNL     1     -15.669  48.277 -24.175  1.00  0.00    -0.388 OA
HETATM   39  H20 UNL     1     -16.271  48.795 -23.611  1.00  0.00     0.210 HD
ENDBRANCH  37  38
BRANCH  37  40
HETATM   40  C18 UNL     1     -17.185  46.459 -23.665  1.00  0.00    -0.025 A 
HETATM   41  C19 UNL     1     -18.106  46.828 -24.661  1.00  0.00     0.010 A 
HETATM   42  C20 UNL     1     -19.425  46.367 -24.629  1.00  0.00     0.003 A 
HETATM   43  C21 UNL     1     -19.847  45.521 -23.604  1.00  0.00     0.036 A 
HETATM   44  C22 UNL     1     -18.937  45.140 -22.613  1.00  0.00     0.103 A 
HETATM   45  C23 UNL     1     -17.613  45.604 -22.636  1.00  0.00     0.045 A 
BRANCH  44  46
HETATM   46  N3  UNL     1     -19.374  44.247 -21.532  1.00  0.00    -0.116 N 
HETATM   47  O7  UNL     1     -19.127  43.037 -21.648  1.00  0.00    -0.532 OA
HETATM   48  O8  UNL     1     -19.952  44.754 -20.561  1.00  0.00    -0.532 OA
ENDBRANCH  44  46
ENDBRANCH  37  40
ENDBRANCH  32  37
ENDBRANCH  30  32
ENDBRANCH  27  28
ENDBRANCH  26  27
ENDBRANCH  13  26
TORSDOF 11
ENDMDL
MODEL 6
REMARK minimizedAffinity -8.45311832
REMARK CNNscore 0.217010707
REMARK CNNaffinity 5.96555758
REMARK  11 active torsions:
REMARK  status: ('A' for Active; 'I' for Inactive)
REMARK    1  A    between atoms: C3_3  and  O1_4 
REMARK    2  A    between atoms: N1_14  and  O2_16 
REMARK    3  A    between atoms: O2_16  and  C13_17 
REMARK    4  A    between atoms: C13_17  and  C14_18 
REMARK       I    between atoms: C14_18  and  N2_20 
REMARK    5  A    between atoms: N2_20  and  C15_21 
REMARK    6  A    between atoms: C15_21  and  C16_22 
REMARK    7  A    between atoms: C15_21  and  C17_25 
REMARK    8  A    between atoms: C16_22  and  O5_24 
REMARK    9  A    between atoms: C17_25  and  O6_26 
REMARK   10  A    between atoms: C17_25  and  C18_27 
REMARK   11  A    between atoms: C22_31  and  N3_32 
ROOT
HETATM    1  C1  UNL     1      -0.127  50.969 -26.758  1.00  0.00     0.015 C 
HETATM    2  C2  UNL     1      -1.150  51.186 -26.168  1.00  0.00    -0.078 C 
HETATM    3  C3  UNL     1      -2.413  51.459 -25.465  1.00  0.00     0.128 C 
HETATM    4  C4  UNL     1      -2.232  52.500 -24.348  1.00  0.00     0.052 C 
HETATM    5  C5  UNL     1      -3.267  52.149 -23.271  1.00  0.00     0.010 C 
HETATM    6  C6  UNL     1      -4.017  50.896 -23.763  1.00  0.00     0.002 C 
HETATM    7  C7  UNL     1      -4.571  49.969 -22.658  1.00  0.00    -0.004 C 
HETATM    8  C8  UNL     1      -5.458  50.750 -21.678  1.00  0.00     0.010 C 
HETATM    9  C9  UNL     1      -6.103  49.821 -20.660  1.00  0.00     0.035 C 
HETATM   10  C10 UNL     1      -5.076  49.001 -19.916  1.00  0.00    -0.069 C 
HETATM   11  C11 UNL     1      -5.137  48.928 -18.576  1.00  0.00     0.030 C 
HETATM   12  C12 UNL     1      -4.269  48.011 -17.795  1.00  0.00     0.032 C 
HETATM   13  N1  UNL     1      -4.456  47.958 -16.507  1.00  0.00    -0.271 N 
ATOM     14  H1  UNL     1      -5.122  48.542 -16.000  1.00  0.00     0.194 HD
HETATM   15  C24 UNL     1      -3.292  47.139 -18.553  1.00  0.00     0.060 C 
HETATM   16  C25 UNL     1      -2.862  47.797 -19.859  1.00  0.00     0.020 C 
HETATM   17  C26 UNL     1      -4.045  48.248 -20.764  1.00  0.00    -0.016 C 
HETATM   18  C27 UNL     1      -4.739  46.996 -21.352  1.00  0.00     0.020 C 
HETATM   19  C28 UNL     1      -3.469  49.194 -21.893  1.00  0.00     0.002 C 
HETATM   20  C29 UNL     1      -2.551  48.468 -22.895  1.00  0.00     0.007 C 
HETATM   21  C30 UNL     1      -1.957  49.420 -23.935  1.00  0.00     0.014 C 
HETATM   22  C31 UNL     1      -3.021  50.219 -24.735  1.00  0.00     0.003 C 
HETATM   23  C32 UNL     1      -3.752  49.280 -25.713  1.00  0.00     0.020 C 
ENDROOT
BRANCH   3  24
HETATM   24  O1  UNL     1      -3.329  51.985 -26.429  1.00  0.00    -0.377 OA
HETATM   25  H2  UNL     1      -4.058  52.418 -25.961  1.00  0.00     0.211 HD
ENDBRANCH   3  24
BRANCH  13  26
HETATM   26  O2  UNL     1      -3.630  47.000 -15.900  1.00  0.00    -0.271 OA
BRANCH  26  27
HETATM   27  C13 UNL     1      -2.294  47.488 -15.903  1.00  0.00     0.303 C 
BRANCH  27  28
HETATM   28  C14 UNL     1      -2.172  48.642 -14.921  1.00  0.00     0.244 C 
HETATM   29  O3  UNL     1      -1.228  49.429 -14.932  1.00  0.00    -0.271 OA
HETATM   30  N2  UNL     1      -3.177  48.693 -13.984  1.00  0.00    -0.342 N 
HETATM   31  H16 UNL     1      -3.996  48.104 -14.099  1.00  0.00     0.163 HD
BRANCH  30  32
HETATM   32  C15 UNL     1      -3.228  49.715 -12.934  1.00  0.00     0.216 C 
BRANCH  32  33
HETATM   33  C16 UNL     1      -2.395  49.298 -11.725  1.00  0.00     0.166 C 
HETATM   34  O4  UNL     1      -1.178  49.184 -11.700  1.00  0.00    -0.648 OA
BRANCH  33  35
HETATM   35  O5  UNL     1      -3.117  49.040 -10.609  1.00  0.00    -0.775 OA
HETATM   36  H18 UNL     1      -2.441  48.772  -9.949  1.00  0.00     0.167 HD
ENDBRANCH  33  35
ENDBRANCH  32  33
BRANCH  32  37
HETATM   37  C17 UNL     1      -2.720  51.099 -13.406  1.00  0.00     0.184 C 
BRANCH  37  38
HETATM   38  O6  UNL     1      -3.467  51.548 -14.547  1.00  0.00    -0.388 OA
HETATM   39  H20 UNL     1      -3.109  52.422 -14.785  1.00  0.00     0.210 HD
ENDBRANCH  37  38
BRANCH  37  40
HETATM   40  C18 UNL     1      -2.757  52.159 -12.315  1.00  0.00    -0.025 A 
HETATM   41  C19 UNL     1      -3.954  52.516 -11.671  1.00  0.00     0.010 A 
HETATM   42  C20 UNL     1      -3.967  53.467 -10.648  1.00  0.00     0.003 A 
HETATM   43  C21 UNL     1      -2.780  54.075 -10.241  1.00  0.00     0.036 A 
HETATM   44  C22 UNL     1      -1.580  53.721 -10.868  1.00  0.00     0.103 A 
HETATM   45  C23 UNL     1      -1.562  52.771 -11.901  1.00  0.00     0.045 A 
BRANCH  44  46
HETATM   46  N3  UNL     1      -0.326  54.355 -10.443  1.00  0.00    -0.116 N 
HETATM   47  O7  UNL     1       0.628  54.337 -11.236  1.00  0.00    -0.532 OA
HETATM   48  O8  UNL     1      -0.296  54.884  -9.323  1.00  0.00    -0.532 OA
ENDBRANCH  44  46
ENDBRANCH  37  40
ENDBRANCH  32  37
ENDBRANCH  30  32
ENDBRANCH  27  28
ENDBRANCH  26  27
ENDBRANCH  13  26
TORSDOF 11
ENDMDL
MODEL 7
REMARK minimizedAffinity -9.18360615
REMARK CNNscore 0.215816408
REMARK CNNaffinity 6.27093458
REMARK  11 active torsions:
REMARK  status: ('A' for Active; 'I' for Inactive)
REMARK    1  A    between atoms: C3_3  and  O1_4 
REMARK    2  A    between atoms: N1_14  and  O2_16 
REMARK    3  A    between atoms: O2_16  and  C13_17 
REMARK    4  A    between atoms: C13_17  and  C14_18 
REMARK       I    between atoms: C14_18  and  N2_20 
REMARK    5  A    between atoms: N2_20  and  C15_21 
REMARK    6  A    between atoms: C15_21  and  C16_22 
REMARK    7  A    between atoms: C15_21  and  C17_25 
REMARK    8  A    between atoms: C16_22  and  O5_24 
REMARK    9  A    between atoms: C17_25  and  O6_26 
REMARK   10  A    between atoms: C17_25  and  C18_27 
REMARK   11  A    between atoms: C22_31  and  N3_32 
ROOT
HETATM    1  C1  UNL     1      -2.193  49.883 -26.822  1.00  0.00     0.015 C 
HETATM    2  C2  UNL     1      -1.749  50.702 -26.063  1.00  0.00    -0.078 C 
HETATM    3  C3  UNL     1      -1.212  51.721 -25.150  1.00  0.00     0.128 C 
HETATM    4  C4  UNL     1       0.295  51.537 -24.910  1.00  0.00     0.052 C 
HETATM    5  C5  UNL     1       0.564  52.053 -23.490  1.00  0.00     0.010 C 
HETATM    6  C6  UNL     1      -0.792  52.507 -22.915  1.00  0.00     0.002 C 
HETATM    7  C7  UNL     1      -0.936  52.407 -21.381  1.00  0.00    -0.004 C 
HETATM    8  C8  UNL     1       0.201  53.155 -20.670  1.00  0.00     0.010 C 
HETATM    9  C9  UNL     1      -0.003  53.163 -19.163  1.00  0.00     0.035 C 
HETATM   10  C10 UNL     1      -0.155  51.767 -18.608  1.00  0.00    -0.069 C 
HETATM   11  C11 UNL     1       0.565  51.405 -17.532  1.00  0.00     0.030 C 
HETATM   12  C12 UNL     1       0.345  50.113 -16.834  1.00  0.00     0.032 C 
HETATM   13  N1  UNL     1       1.041  49.886 -15.757  1.00  0.00    -0.271 N 
ATOM     14  H1  UNL     1       1.759  50.515 -15.396  1.00  0.00     0.194 HD
HETATM   15  C24 UNL     1      -0.730  49.191 -17.367  1.00  0.00     0.060 C 
HETATM   16  C25 UNL     1      -0.930  49.382 -18.866  1.00  0.00     0.020 C 
HETATM   17  C26 UNL     1      -1.182  50.858 -19.291  1.00  0.00    -0.016 C 
HETATM   18  C27 UNL     1      -2.589  51.290 -18.813  1.00  0.00     0.020 C 
HETATM   19  C28 UNL     1      -1.034  50.950 -20.863  1.00  0.00     0.002 C 
HETATM   20  C29 UNL     1      -2.138  50.197 -21.630  1.00  0.00     0.007 C 
HETATM   21  C30 UNL     1      -1.932  50.249 -23.145  1.00  0.00     0.014 C 
HETATM   22  C31 UNL     1      -1.833  51.689 -23.716  1.00  0.00     0.003 C 
HETATM   23  C32 UNL     1      -3.218  52.362 -23.677  1.00  0.00     0.020 C 
ENDROOT
BRANCH   3  24
HETATM   24  O1  UNL     1      -1.419  52.994 -25.768  1.00  0.00    -0.377 OA
HETATM   25  H2  UNL     1      -0.849  53.646 -25.333  1.00  0.00     0.211 HD
ENDBRANCH   3  24
BRANCH  13  26
HETATM   26  O2  UNL     1       0.683  48.672 -15.152  1.00  0.00    -0.271 OA
BRANCH  26  27
HETATM   27  C13 UNL     1       1.729  48.281 -14.270  1.00  0.00     0.303 C 
BRANCH  27  28
HETATM   28  C14 UNL     1       1.605  46.797 -13.963  1.00  0.00     0.244 C 
HETATM   29  O3  UNL     1       1.151  46.373 -12.902  1.00  0.00    -0.271 OA
HETATM   30  N2  UNL     1       2.097  45.974 -14.947  1.00  0.00    -0.342 N 
HETATM   31  H16 UNL     1       2.338  46.368 -15.852  1.00  0.00     0.163 HD
BRANCH  30  32
HETATM   32  C15 UNL     1       2.094  44.513 -14.833  1.00  0.00     0.216 C 
BRANCH  32  33
HETATM   33  C16 UNL     1       2.742  44.065 -13.525  1.00  0.00     0.166 C 
HETATM   34  O4  UNL     1       2.359  43.148 -12.814  1.00  0.00    -0.648 OA
BRANCH  33  35
HETATM   35  O5  UNL     1       3.831  44.786 -13.165  1.00  0.00    -0.775 OA
HETATM   36  H18 UNL     1       4.103  44.386 -12.311  1.00  0.00     0.167 HD
ENDBRANCH  33  35
ENDBRANCH  32  33
BRANCH  32  37
HETATM   37  C17 UNL     1       0.672  43.901 -14.890  1.00  0.00     0.184 C 
BRANCH  37  38
HETATM   38  O6  UNL     1      -0.319  44.937 -14.980  1.00  0.00    -0.388 OA
HETATM   39  H20 UNL     1      -1.182  44.489 -15.025  1.00  0.00     0.210 HD
ENDBRANCH  37  38
BRANCH  37  40
HETATM   40  C18 UNL     1       0.488  42.908 -16.029  1.00  0.00    -0.025 A 
HETATM   41  C19 UNL     1       1.582  42.264 -16.631  1.00  0.00     0.010 A 
HETATM   42  C20 UNL     1       1.395  41.329 -17.652  1.00  0.00     0.003 A 
HETATM   43  C21 UNL     1       0.108  41.014 -18.087  1.00  0.00     0.036 A 
HETATM   44  C22 UNL     1      -0.989  41.642 -17.488  1.00  0.00     0.103 A 
HETATM   45  C23 UNL     1      -0.807  42.587 -16.466  1.00  0.00     0.045 A 
BRANCH  44  46
HETATM   46  N3  UNL     1      -2.347  41.312 -17.939  1.00  0.00    -0.116 N 
HETATM   47  O7  UNL     1      -3.238  41.238 -17.079  1.00  0.00    -0.532 OA
HETATM   48  O8  UNL     1      -2.528  41.141 -19.152  1.00  0.00    -0.532 OA
ENDBRANCH  44  46
ENDBRANCH  37  40
ENDBRANCH  32  37
ENDBRANCH  30  32
ENDBRANCH  27  28
ENDBRANCH  26  27
ENDBRANCH  13  26
TORSDOF 11
ENDMDL
MODEL 8
REMARK minimizedAffinity -8.93174171
REMARK CNNscore 0.202121586
REMARK CNNaffinity 6.5598793
REMARK  11 active torsions:
REMARK  status: ('A' for Active; 'I' for Inactive)
REMARK    1  A    between atoms: C3_3  and  O1_4 
REMARK    2  A    between atoms: N1_14  and  O2_16 
REMARK    3  A    between atoms: O2_16  and  C13_17 
REMARK    4  A    between atoms: C13_17  and  C14_18 
REMARK       I    between atoms: C14_18  and  N2_20 
REMARK    5  A    between atoms: N2_20  and  C15_21 
REMARK    6  A    between atoms: C15_21  and  C16_22 
REMARK    7  A    between atoms: C15_21  and  C17_25 
REMARK    8  A    between atoms: C16_22  and  O5_24 
REMARK    9  A    between atoms: C17_25  and  O6_26 
REMARK   10  A    between atoms: C17_25  and  C18_27 
REMARK   11  A    between atoms: C22_31  and  N3_32 
ROOT
HETATM    1  C1  UNL     1      -0.441  54.399 -27.927  1.00  0.00     0.015 C 
HETATM    2  C2  UNL     1      -0.895  53.375 -27.494  1.00  0.00    -0.078 C 
HETATM    3  C3  UNL     1      -1.447  52.111 -26.984  1.00  0.00     0.128 C 
HETATM    4  C4  UNL     1      -2.925  52.250 -26.589  1.00  0.00     0.052 C 
HETATM    5  C5  UNL     1      -3.153  51.255 -25.443  1.00  0.00     0.010 C 
HETATM    6  C6  UNL     1      -1.800  50.569 -25.172  1.00  0.00     0.002 C 
HETATM    7  C7  UNL     1      -1.571  50.087 -23.722  1.00  0.00    -0.004 C 
HETATM    8  C8  UNL     1      -2.715  49.173 -23.259  1.00  0.00     0.010 C 
HETATM    9  C9  UNL     1      -2.435  48.598 -21.879  1.00  0.00     0.035 C 
HETATM   10  C10 UNL     1      -2.170  49.682 -20.861  1.00  0.00    -0.069 C 
HETATM   11  C11 UNL     1      -2.811  49.646 -19.680  1.00  0.00     0.030 C 
HETATM   12  C12 UNL     1      -2.477  50.578 -18.573  1.00  0.00     0.032 C 
HETATM   13  N1  UNL     1      -3.101  50.415 -17.442  1.00  0.00    -0.271 N 
ATOM     14  H1  UNL     1      -3.837  49.725 -17.288  1.00  0.00     0.194 HD
HETATM   15  C24 UNL     1      -1.376  51.590 -18.803  1.00  0.00     0.060 C 
HETATM   16  C25 UNL     1      -1.264  51.961 -20.277  1.00  0.00     0.020 C 
HETATM   17  C26 UNL     1      -1.125  50.739 -21.232  1.00  0.00    -0.016 C 
HETATM   18  C27 UNL     1       0.275  50.108 -21.046  1.00  0.00     0.020 C 
HETATM   19  C28 UNL     1      -1.359  51.243 -22.713  1.00  0.00     0.002 C 
HETATM   20  C29 UNL     1      -0.250  52.184 -23.225  1.00  0.00     0.007 C 
HETATM   21  C30 UNL     1      -0.537  52.706 -24.634  1.00  0.00     0.014 C 
HETATM   22  C31 UNL     1      -0.753  51.586 -25.687  1.00  0.00     0.003 C 
HETATM   23  C32 UNL     1       0.589  50.893 -25.995  1.00  0.00     0.020 C 
ENDROOT
BRANCH   3  24
HETATM   24  O1  UNL     1      -1.350  51.151 -28.040  1.00  0.00    -0.377 OA
HETATM   25  H2  UNL     1      -1.936  50.406 -27.837  1.00  0.00     0.211 HD
ENDBRANCH   3  24
BRANCH  13  26
HETATM   26  O2  UNL     1      -2.639  51.303 -16.459  1.00  0.00    -0.271 OA
BRANCH  26  27
HETATM   27  C13 UNL     1      -1.615  50.657 -15.712  1.00  0.00     0.303 C 
BRANCH  27  28
HETATM   28  C14 UNL     1      -2.242  49.806 -14.621  1.00  0.00     0.244 C 
HETATM   29  O3  UNL     1      -3.303  49.203 -14.775  1.00  0.00    -0.271 OA
HETATM   30  N2  UNL     1      -1.554  49.816 -13.432  1.00  0.00    -0.342 N 
HETATM   31  H16 UNL     1      -0.623  50.220 -13.398  1.00  0.00     0.163 HD
BRANCH  30  32
HETATM   32  C15 UNL     1      -2.008  49.079 -12.248  1.00  0.00     0.216 C 
BRANCH  32  33
HETATM   33  C16 UNL     1      -1.332  47.712 -12.163  1.00  0.00     0.166 C 
HETATM   34  O4  UNL     1      -1.867  46.670 -11.813  1.00  0.00    -0.648 OA
BRANCH  33  35
HETATM   35  O5  UNL     1      -0.024  47.712 -12.513  1.00  0.00    -0.775 OA
HETATM   36  H18 UNL     1       0.253  46.779 -12.383  1.00  0.00     0.167 HD
ENDBRANCH  33  35
ENDBRANCH  32  33
BRANCH  32  37
HETATM   37  C17 UNL     1      -1.731  49.827 -10.922  1.00  0.00     0.184 C 
BRANCH  37  38
HETATM   38  O6  UNL     1      -0.321  49.874 -10.654  1.00  0.00    -0.388 OA
HETATM   39  H20 UNL     1      -0.214  50.364  -9.820  1.00  0.00     0.210 HD
ENDBRANCH  37  38
BRANCH  37  40
HETATM   40  C18 UNL     1      -2.310  51.234 -10.891  1.00  0.00    -0.025 A 
HETATM   41  C19 UNL     1      -3.693  51.465 -10.978  1.00  0.00     0.010 A 
HETATM   42  C20 UNL     1      -4.213  52.761 -10.914  1.00  0.00     0.003 A 
HETATM   43  C21 UNL     1      -3.359  53.851 -10.753  1.00  0.00     0.036 A 
HETATM   44  C22 UNL     1      -1.981  53.633 -10.656  1.00  0.00     0.103 A 
HETATM   45  C23 UNL     1      -1.453  52.334 -10.726  1.00  0.00     0.045 A 
BRANCH  44  46
HETATM   46  N3  UNL     1      -1.076  54.777 -10.484  1.00  0.00    -0.116 N 
HETATM   47  O7  UNL     1       0.129  54.600 -10.719  1.00  0.00    -0.532 OA
HETATM   48  O8  UNL     1      -1.569  55.855 -10.127  1.00  0.00    -0.532 OA
ENDBRANCH  44  46
ENDBRANCH  37  40
ENDBRANCH  32  37
ENDBRANCH  30  32
ENDBRANCH  27  28
ENDBRANCH  26  27
ENDBRANCH  13  26
TORSDOF 11
ENDMDL
MODEL 9
REMARK minimizedAffinity -10.2789507
REMARK CNNscore 0.199999437
REMARK CNNaffinity 6.93422747
REMARK  11 active torsions:
REMARK  status: ('A' for Active; 'I' for Inactive)
REMARK    1  A    between atoms: C3_3  and  O1_4 
REMARK    2  A    between atoms: N1_14  and  O2_16 
REMARK    3  A    between atoms: O2_16  and  C13_17 
REMARK    4  A    between atoms: C13_17  and  C14_18 
REMARK       I    between atoms: C14_18  and  N2_20 
REMARK    5  A    between atoms: N2_20  and  C15_21 
REMARK    6  A    between atoms: C15_21  and  C16_22 
REMARK    7  A    between atoms: C15_21  and  C17_25 
REMARK    8  A    between atoms: C16_22  and  O5_24 
REMARK    9  A    between atoms: C17_25  and  O6_26 
REMARK   10  A    between atoms: C17_25  and  C18_27 
REMARK   11  A    between atoms: C22_31  and  N3_32 
ROOT
HETATM    1  C1  UNL     1      -5.187  50.340 -10.317  1.00  0.00     0.015 C 
HETATM    2  C2  UNL     1      -4.047  50.637 -10.551  1.00  0.00    -0.078 C 
HETATM    3  C3  UNL     1      -2.645  50.994 -10.817  1.00  0.00     0.128 C 
HETATM    4  C4  UNL     1      -2.481  52.495 -11.102  1.00  0.00     0.052 C 
HETATM    5  C5  UNL     1      -1.290  52.616 -12.063  1.00  0.00     0.010 C 
HETATM    6  C6  UNL     1      -0.794  51.184 -12.341  1.00  0.00     0.002 C 
HETATM    7  C7  UNL     1      -0.126  50.963 -13.717  1.00  0.00    -0.004 C 
HETATM    8  C8  UNL     1       1.021  51.958 -13.939  1.00  0.00     0.010 C 
HETATM    9  C9  UNL     1       1.760  51.666 -15.236  1.00  0.00     0.035 C 
HETATM   10  C10 UNL     1       0.827  51.650 -16.424  1.00  0.00    -0.069 C 
HETATM   11  C11 UNL     1       1.155  52.344 -17.527  1.00  0.00     0.030 C 
HETATM   12  C12 UNL     1       0.374  52.239 -18.785  1.00  0.00     0.032 C 
HETATM   13  N1  UNL     1       0.815  52.892 -19.823  1.00  0.00    -0.271 N 
ATOM     14  H1  UNL     1       1.629  53.508 -19.808  1.00  0.00     0.194 HD
HETATM   15  C24 UNL     1      -0.825  51.316 -18.804  1.00  0.00     0.060 C 
HETATM   16  C25 UNL     1      -1.442  51.183 -17.417  1.00  0.00     0.020 C 
HETATM   17  C26 UNL     1      -0.429  50.781 -16.305  1.00  0.00    -0.016 C 
HETATM   18  C27 UNL     1      -0.007  49.307 -16.513  1.00  0.00     0.020 C 
HETATM   19  C28 UNL     1      -1.122  51.010 -14.902  1.00  0.00     0.002 C 
HETATM   20  C29 UNL     1      -2.298  50.051 -14.633  1.00  0.00     0.007 C 
HETATM   21  C30 UNL     1      -2.989  50.338 -13.298  1.00  0.00     0.014 C 
HETATM   22  C31 UNL     1      -2.034  50.298 -12.076  1.00  0.00     0.003 C 
HETATM   23  C32 UNL     1      -1.623  48.842 -11.782  1.00  0.00     0.020 C 
ENDROOT
BRANCH   3  24
HETATM   24  O1  UNL     1      -1.897  50.673  -9.641  1.00  0.00    -0.377 OA
HETATM   25  H2  UNL     1      -1.045  51.134  -9.680  1.00  0.00     0.211 HD
ENDBRANCH   3  24
BRANCH  13  26
HETATM   26  O2  UNL     1       0.035  52.647 -20.963  1.00  0.00    -0.271 OA
BRANCH  26  27
HETATM   27  C13 UNL     1       0.878  52.122 -21.982  1.00  0.00     0.303 C 
BRANCH  27  28
HETATM   28  C14 UNL     1       0.496  52.731 -23.321  1.00  0.00     0.244 C 
HETATM   29  O3  UNL     1       0.726  53.904 -23.608  1.00  0.00    -0.271 OA
HETATM   30  N2  UNL     1      -0.180  51.876 -24.157  1.00  0.00    -0.342 N 
HETATM   31  H16 UNL     1      -0.229  50.888 -23.927  1.00  0.00     0.163 HD
BRANCH  30  32
HETATM   32  C15 UNL     1      -0.657  52.279 -25.484  1.00  0.00     0.216 C 
BRANCH  32  33
HETATM   33  C16 UNL     1       0.292  53.289 -26.123  1.00  0.00     0.166 C 
HETATM   34  O4  UNL     1       0.013  54.440 -26.429  1.00  0.00    -0.648 OA
BRANCH  33  35
HETATM   35  O5  UNL     1       1.539  52.815 -26.356  1.00  0.00    -0.775 OA
HETATM   36  H18 UNL     1       2.001  53.571 -26.779  1.00  0.00     0.167 HD
ENDBRANCH  33  35
ENDBRANCH  32  33
BRANCH  32  37
HETATM   37  C17 UNL     1      -0.812  51.089 -26.462  1.00  0.00     0.184 C 
BRANCH  37  38
HETATM   38  O6  UNL     1       0.417  50.353 -26.559  1.00  0.00    -0.388 OA
HETATM   39  H20 UNL     1       0.251  49.618 -27.175  1.00  0.00     0.210 HD
ENDBRANCH  37  38
BRANCH  37  40
HETATM   40  C18 UNL     1      -1.950  50.149 -26.093  1.00  0.00    -0.025 A 
HETATM   41  C19 UNL     1      -2.238  49.826 -24.756  1.00  0.00     0.010 A 
HETATM   42  C20 UNL     1      -3.308  48.988 -24.431  1.00  0.00     0.003 A 
HETATM   43  C21 UNL     1      -4.116  48.461 -25.437  1.00  0.00     0.036 A 
HETATM   44  C22 UNL     1      -3.845  48.783 -26.772  1.00  0.00     0.103 A 
HETATM   45  C23 UNL     1      -2.768  49.619 -27.104  1.00  0.00     0.045 A 
BRANCH  44  46
HETATM   46  N3  UNL     1      -4.694  48.234 -27.837  1.00  0.00    -0.116 N 
HETATM   47  O7  UNL     1      -5.878  47.987 -27.561  1.00  0.00    -0.532 OA
HETATM   48  O8  UNL     1      -4.184  48.062 -28.952  1.00  0.00    -0.532 OA
ENDBRANCH  44  46
ENDBRANCH  37  40
ENDBRANCH  32  37
ENDBRANCH  30  32
ENDBRANCH  27  28
ENDBRANCH  26  27
ENDBRANCH  13  26
TORSDOF 11
ENDMDL
