MODEL 1
REMARK minimizedAffinity -9.47269249
REMARK  5 active torsions:
REMARK  status: ('A' for Active; 'I' for Inactive)
REMARK    1  A    between atoms: C3_3  and  C4_4 
REMARK    2  A    between atoms: C4_4  and  O2_6 
REMARK    3  A    between atoms: O2_6  and  C5_7 
REMARK    4  A    between atoms: C5_7  and  C6_8 
REMARK    5  A    between atoms: C12_14  and  C13_15 
ROOT
HETATM    1  C1  UNL     1       0.872  53.182 -21.365  1.00  0.00     0.069 C 
HETATM    2  C2  UNL     1       0.158  52.489 -22.497  1.00  0.00     0.018 C 
HETATM    3  C3  UNL     1      -0.475  51.300 -22.394  1.00  0.00     0.052 C 
HETATM    4  C12 UNL     1      -1.184  50.647 -23.575  1.00  0.00     0.104 C 
HETATM    5  C22 UNL     1      -0.879  51.373 -24.887  1.00  0.00     0.024 C 
HETATM    6  C23 UNL     1      -0.226  52.555 -24.910  1.00  0.00     0.020 C 
HETATM    7  C24 UNL     1       0.109  53.281 -26.189  1.00  0.00     0.058 C 
HETATM    8  C25 UNL     1       0.154  52.341 -27.389  1.00  0.00     0.014 C 
HETATM    9  C26 UNL     1      -1.097  51.483 -27.455  1.00  0.00     0.084 C 
HETATM   10  C27 UNL     1      -1.321  50.736 -26.160  1.00  0.00     0.158 C 
HETATM   11  O5  UNL     1      -1.908  49.656 -26.146  1.00  0.00    -0.293 OA
HETATM   12  N1  UNL     1       0.204  53.131 -23.727  1.00  0.00    -0.362 N 
HETATM   13  H22 UNL     1       0.782  53.966 -23.790  1.00  0.00     0.165 HD
ENDROOT
BRANCH   4  14
HETATM   14  C13 UNL     1      -2.679  50.563 -23.305  1.00  0.00     0.029 A 
HETATM   15  C14 UNL     1      -3.530  51.599 -23.268  1.00  0.00     0.154 A 
HETATM   16  O3  UNL     1      -4.886  51.547 -23.057  1.00  0.00    -0.321 OA
HETATM   17  C15 UNL     1      -5.455  50.313 -22.882  1.00  0.00     0.089 A 
HETATM   18  C16 UNL     1      -6.837  50.267 -22.697  1.00  0.00     0.040 A 
HETATM   19  C20 UNL     1      -4.712  49.135 -22.881  1.00  0.00     0.050 A 
HETATM   20  C17 UNL     1      -7.471  49.036 -22.511  1.00  0.00     0.026 A 
HETATM   21  C18 UNL     1      -6.718  47.860 -22.505  1.00  0.00     0.035 A 
HETATM   22 CL1  UNL     1      -7.507  46.348 -22.274  1.00  0.00    -0.084 Cl
HETATM   23  C19 UNL     1      -5.338  47.900 -22.688  1.00  0.00     0.042 A 
HETATM   24  C21 UNL     1      -3.255  49.212 -23.083  1.00  0.00     0.194 A 
HETATM   25  O4  UNL     1      -2.563  48.202 -23.052  1.00  0.00    -0.287 OA
ENDBRANCH   4  14
BRANCH   3  26
HETATM   26  C4  UNL     1      -0.498  50.552 -21.125  1.00  0.00     0.292 C 
HETATM   27  O1  UNL     1      -0.044  49.428 -20.981  1.00  0.00    -0.259 OA
BRANCH  26  28
HETATM   28  O2  UNL     1      -1.108  51.315 -20.191  1.00  0.00    -0.313 OA
BRANCH  28  29
HETATM   29  C5  UNL     1      -1.464  50.600 -19.008  1.00  0.00     0.217 C 
BRANCH  29  30
HETATM   30  C6  UNL     1      -0.421  50.891 -17.960  1.00  0.00    -0.034 A 
HETATM   31  C7  UNL     1       0.327  52.076 -18.028  1.00  0.00     0.009 A 
HETATM   32  C8  UNL     1       1.289  52.363 -17.059  1.00  0.00     0.001 A 
HETATM   33  C9  UNL     1       1.511  51.472 -16.012  1.00  0.00     0.000 A 
HETATM   34  C10 UNL     1       0.771  50.293 -15.931  1.00  0.00     0.001 A 
HETATM   35  C11 UNL     1      -0.194  50.006 -16.899  1.00  0.00     0.009 A 
ENDBRANCH  29  30
ENDBRANCH  28  29
ENDBRANCH  26  28
ENDBRANCH   3  26
TORSDOF 5
ENDMDL
MODEL 2
REMARK minimizedAffinity -9.43210506
REMARK  5 active torsions:
REMARK  status: ('A' for Active; 'I' for Inactive)
REMARK    1  A    between atoms: C3_3  and  C4_4 
REMARK    2  A    between atoms: C4_4  and  O2_6 
REMARK    3  A    between atoms: O2_6  and  C5_7 
REMARK    4  A    between atoms: C5_7  and  C6_8 
REMARK    5  A    between atoms: C12_14  and  C13_15 
ROOT
HETATM    1  C1  UNL     1      -0.145  51.885 -25.731  1.00  0.00     0.069 C 
HETATM    2  C2  UNL     1      -0.566  51.755 -24.290  1.00  0.00     0.018 C 
HETATM    3  C3  UNL     1      -1.796  51.377 -23.878  1.00  0.00     0.052 C 
HETATM    4  C12 UNL     1      -2.164  51.261 -22.404  1.00  0.00     0.104 C 
HETATM    5  C22 UNL     1      -1.073  51.843 -21.503  1.00  0.00     0.024 C 
HETATM    6  C23 UNL     1       0.130  52.213 -21.991  1.00  0.00     0.020 C 
HETATM    7  C24 UNL     1       1.215  52.811 -21.131  1.00  0.00     0.058 C 
HETATM    8  C25 UNL     1       0.658  53.450 -19.865  1.00  0.00     0.014 C 
HETATM    9  C26 UNL     1      -0.274  52.496 -19.139  1.00  0.00     0.084 C 
HETATM   10  C27 UNL     1      -1.373  51.999 -20.051  1.00  0.00     0.158 C 
HETATM   11  O5  UNL     1      -2.469  51.672 -19.601  1.00  0.00    -0.293 OA
HETATM   12  N1  UNL     1       0.395  52.088 -23.345  1.00  0.00    -0.362 N 
HETATM   13  H22 UNL     1       1.271  52.472 -23.693  1.00  0.00     0.165 HD
ENDROOT
BRANCH   4  14
HETATM   14  C13 UNL     1      -2.477  49.813 -22.057  1.00  0.00     0.029 A 
HETATM   15  C14 UNL     1      -1.576  48.835 -21.879  1.00  0.00     0.154 A 
HETATM   16  O3  UNL     1      -1.830  47.530 -21.536  1.00  0.00    -0.321 OA
HETATM   17  C15 UNL     1      -3.136  47.170 -21.330  1.00  0.00     0.089 A 
HETATM   18  C16 UNL     1      -3.382  45.849 -20.954  1.00  0.00     0.040 A 
HETATM   19  C20 UNL     1      -4.196  48.060 -21.484  1.00  0.00     0.050 A 
HETATM   20  C17 UNL     1      -4.695  45.425 -20.734  1.00  0.00     0.026 A 
HETATM   21  C18 UNL     1      -5.753  46.322 -20.896  1.00  0.00     0.035 A 
HETATM   22 CL1  UNL     1      -7.367  45.791 -20.623  1.00  0.00    -0.084 Cl
HETATM   23  C19 UNL     1      -5.512  47.641 -21.272  1.00  0.00     0.042 A 
HETATM   24  C21 UNL     1      -3.906  49.450 -21.878  1.00  0.00     0.194 A 
HETATM   25  O4  UNL     1      -4.814  50.253 -22.059  1.00  0.00    -0.287 OA
ENDBRANCH   4  14
BRANCH   3  26
HETATM   26  C4  UNL     1      -2.867  51.074 -24.844  1.00  0.00     0.292 C 
HETATM   27  O1  UNL     1      -3.932  51.667 -24.898  1.00  0.00    -0.259 OA
BRANCH  26  28
HETATM   28  O2  UNL     1      -2.463  50.043 -25.618  1.00  0.00    -0.313 OA
BRANCH  28  29
HETATM   29  C5  UNL     1      -2.980  48.778 -25.207  1.00  0.00     0.217 C 
BRANCH  29  30
HETATM   30  C6  UNL     1      -4.110  48.416 -26.136  1.00  0.00    -0.034 A 
HETATM   31  C7  UNL     1      -5.374  48.104 -25.613  1.00  0.00     0.009 A 
HETATM   32  C8  UNL     1      -6.431  47.777 -26.462  1.00  0.00     0.001 A 
HETATM   33  C9  UNL     1      -6.237  47.760 -27.841  1.00  0.00     0.000 A 
HETATM   34  C10 UNL     1      -4.987  48.072 -28.373  1.00  0.00     0.001 A 
HETATM   35  C11 UNL     1      -3.928  48.402 -27.525  1.00  0.00     0.009 A 
ENDBRANCH  29  30
ENDBRANCH  28  29
ENDBRANCH  26  28
ENDBRANCH   3  26
TORSDOF 5
ENDMDL
MODEL 3
REMARK minimizedAffinity -9.0637846
REMARK  5 active torsions:
REMARK  status: ('A' for Active; 'I' for Inactive)
REMARK    1  A    between atoms: C3_3  and  C4_4 
REMARK    2  A    between atoms: C4_4  and  O2_6 
REMARK    3  A    between atoms: O2_6  and  C5_7 
REMARK    4  A    between atoms: C5_7  and  C6_8 
REMARK    5  A    between atoms: C12_14  and  C13_15 
ROOT
HETATM    1  C1  UNL     1      -0.539  51.512 -25.346  1.00  0.00     0.069 C 
HETATM    2  C2  UNL     1      -0.731  51.563 -23.852  1.00  0.00     0.018 C 
HETATM    3  C3  UNL     1      -1.891  51.292 -23.215  1.00  0.00     0.052 C 
HETATM    4  C12 UNL     1      -2.025  51.358 -21.699  1.00  0.00     0.104 C 
HETATM    5  C22 UNL     1      -0.789  51.985 -21.050  1.00  0.00     0.024 C 
HETATM    6  C23 UNL     1       0.332  52.241 -21.757  1.00  0.00     0.020 C 
HETATM    7  C24 UNL     1       1.556  52.879 -21.150  1.00  0.00     0.058 C 
HETATM    8  C25 UNL     1       1.224  53.681 -19.897  1.00  0.00     0.014 C 
HETATM    9  C26 UNL     1       0.391  52.859 -18.930  1.00  0.00     0.084 C 
HETATM   10  C27 UNL     1      -0.851  52.315 -19.598  1.00  0.00     0.158 C 
HETATM   11  O5  UNL     1      -1.872  52.093 -18.950  1.00  0.00    -0.293 OA
HETATM   12  N1  UNL     1       0.377  51.954 -23.111  1.00  0.00    -0.362 N 
HETATM   13  H22 UNL     1       1.197  52.255 -23.632  1.00  0.00     0.165 HD
ENDROOT
BRANCH   4  14
HETATM   14  C13 UNL     1      -2.322  49.974 -21.140  1.00  0.00     0.029 A 
HETATM   15  C14 UNL     1      -1.457  48.950 -21.079  1.00  0.00     0.154 A 
HETATM   16  O3  UNL     1      -1.691  47.703 -20.553  1.00  0.00    -0.321 OA
HETATM   17  C15 UNL     1      -2.925  47.463 -20.010  1.00  0.00     0.089 A 
HETATM   18  C16 UNL     1      -3.143  46.203 -19.452  1.00  0.00     0.040 A 
HETATM   19  C20 UNL     1      -3.942  48.414 -20.002  1.00  0.00     0.050 A 
HETATM   20  C17 UNL     1      -4.385  45.901 -18.887  1.00  0.00     0.026 A 
HETATM   21  C18 UNL     1      -5.401  46.859 -18.888  1.00  0.00     0.035 A 
HETATM   22 CL1  UNL     1      -6.928  46.478 -18.190  1.00  0.00    -0.084 Cl
HETATM   23  C19 UNL     1      -5.189  48.117 -19.444  1.00  0.00     0.042 A 
HETATM   24  C21 UNL     1      -3.683  49.738 -20.594  1.00  0.00     0.194 A 
HETATM   25  O4  UNL     1      -4.563  50.589 -20.638  1.00  0.00    -0.287 OA
ENDBRANCH   4  14
BRANCH   3  26
HETATM   26  C4  UNL     1      -3.109  50.933 -23.963  1.00  0.00     0.292 C 
HETATM   27  O1  UNL     1      -4.082  51.661 -24.081  1.00  0.00    -0.259 OA
BRANCH  26  28
HETATM   28  O2  UNL     1      -2.952  49.688 -24.461  1.00  0.00    -0.313 OA
BRANCH  28  29
HETATM   29  C5  UNL     1      -4.073  48.832 -24.233  1.00  0.00     0.217 C 
BRANCH  29  30
HETATM   30  C6  UNL     1      -4.647  48.455 -25.574  1.00  0.00    -0.034 A 
HETATM   31  C7  UNL     1      -5.969  47.996 -25.666  1.00  0.00     0.009 A 
HETATM   32  C8  UNL     1      -6.517  47.652 -26.902  1.00  0.00     0.001 A 
HETATM   33  C9  UNL     1      -5.749  47.766 -28.059  1.00  0.00     0.000 A 
HETATM   34  C10 UNL     1      -4.435  48.225 -27.982  1.00  0.00     0.001 A 
HETATM   35  C11 UNL     1      -3.887  48.571 -26.745  1.00  0.00     0.009 A 
ENDBRANCH  29  30
ENDBRANCH  28  29
ENDBRANCH  26  28
ENDBRANCH   3  26
TORSDOF 5
ENDMDL
MODEL 4
REMARK minimizedAffinity -9.01185226
REMARK  5 active torsions:
REMARK  status: ('A' for Active; 'I' for Inactive)
REMARK    1  A    between atoms: C3_3  and  C4_4 
REMARK    2  A    between atoms: C4_4  and  O2_6 
REMARK    3  A    between atoms: O2_6  and  C5_7 
REMARK    4  A    between atoms: C5_7  and  C6_8 
REMARK    5  A    between atoms: C12_14  and  C13_15 
ROOT
HETATM    1  C1  UNL     1      -3.783  52.232 -25.438  1.00  0.00     0.069 C 
HETATM    2  C2  UNL     1      -3.985  51.090 -24.476  1.00  0.00     0.018 C 
HETATM    3  C3  UNL     1      -3.017  50.559 -23.696  1.00  0.00     0.052 C 
HETATM    4  C12 UNL     1      -3.282  49.404 -22.738  1.00  0.00     0.104 C 
HETATM    5  C22 UNL     1      -4.670  48.798 -22.955  1.00  0.00     0.024 C 
HETATM    6  C23 UNL     1      -5.581  49.380 -23.764  1.00  0.00     0.020 C 
HETATM    7  C24 UNL     1      -6.947  48.793 -24.015  1.00  0.00     0.058 C 
HETATM    8  C25 UNL     1      -6.986  47.293 -23.750  1.00  0.00     0.014 C 
HETATM    9  C26 UNL     1      -6.395  46.965 -22.390  1.00  0.00     0.084 C 
HETATM   10  C27 UNL     1      -4.999  47.529 -22.247  1.00  0.00     0.158 C 
HETATM   11  O5  UNL     1      -4.171  46.989 -21.516  1.00  0.00    -0.293 OA
HETATM   12  N1  UNL     1      -5.262  50.547 -24.439  1.00  0.00    -0.362 N 
HETATM   13  H22 UNL     1      -5.933  50.899 -25.118  1.00  0.00     0.165 HD
ENDROOT
BRANCH   4  14
HETATM   14  C13 UNL     1      -3.078  49.861 -21.301  1.00  0.00     0.029 A 
HETATM   15  C14 UNL     1      -3.776  50.821 -20.675  1.00  0.00     0.154 A 
HETATM   16  O3  UNL     1      -3.632  51.230 -19.372  1.00  0.00    -0.321 OA
HETATM   17  C15 UNL     1      -2.695  50.590 -18.605  1.00  0.00     0.089 A 
HETATM   18  C16 UNL     1      -2.577  50.993 -17.274  1.00  0.00     0.040 A 
HETATM   19  C20 UNL     1      -1.878  49.578 -19.102  1.00  0.00     0.050 A 
HETATM   20  C17 UNL     1      -1.635  50.377 -16.446  1.00  0.00     0.026 A 
HETATM   21  C18 UNL     1      -0.816  49.367 -16.954  1.00  0.00     0.035 A 
HETATM   22 CL1  UNL     1       0.342  48.615 -15.926  1.00  0.00    -0.084 Cl
HETATM   23  C19 UNL     1      -0.930  48.962 -18.281  1.00  0.00     0.042 A 
HETATM   24  C21 UNL     1      -2.028  49.170 -20.509  1.00  0.00     0.194 A 
HETATM   25  O4  UNL     1      -1.303  48.309 -20.994  1.00  0.00    -0.287 OA
ENDBRANCH   4  14
BRANCH   3  26
HETATM   26  C4  UNL     1      -1.633  51.062 -23.746  1.00  0.00     0.292 C 
HETATM   27  O1  UNL     1      -0.695  50.553 -23.153  1.00  0.00    -0.259 OA
BRANCH  26  28
HETATM   28  O2  UNL     1      -1.606  52.160 -24.532  1.00  0.00    -0.313 OA
BRANCH  28  29
HETATM   29  C5  UNL     1      -0.343  52.826 -24.546  1.00  0.00     0.217 C 
BRANCH  29  30
HETATM   30  C6  UNL     1       0.364  52.450 -25.822  1.00  0.00    -0.034 A 
HETATM   31  C7  UNL     1       1.681  51.970 -25.778  1.00  0.00     0.009 A 
HETATM   32  C8  UNL     1       2.345  51.609 -26.951  1.00  0.00     0.001 A 
HETATM   33  C9  UNL     1       1.697  51.721 -28.179  1.00  0.00     0.000 A 
HETATM   34  C10 UNL     1       0.387  52.192 -28.236  1.00  0.00     0.001 A 
HETATM   35  C11 UNL     1      -0.279  52.552 -27.062  1.00  0.00     0.009 A 
ENDBRANCH  29  30
ENDBRANCH  28  29
ENDBRANCH  26  28
ENDBRANCH   3  26
TORSDOF 5
ENDMDL
MODEL 5
REMARK minimizedAffinity -8.87717533
REMARK  5 active torsions:
REMARK  status: ('A' for Active; 'I' for Inactive)
REMARK    1  A    between atoms: C3_3  and  C4_4 
REMARK    2  A    between atoms: C4_4  and  O2_6 
REMARK    3  A    between atoms: O2_6  and  C5_7 
REMARK    4  A    between atoms: C5_7  and  C6_8 
REMARK    5  A    between atoms: C12_14  and  C13_15 
ROOT
HETATM    1  C1  UNL     1       0.854  53.238 -21.410  1.00  0.00     0.069 C 
HETATM    2  C2  UNL     1       0.165  52.570 -22.573  1.00  0.00     0.018 C 
HETATM    3  C3  UNL     1      -0.474  51.382 -22.510  1.00  0.00     0.052 C 
HETATM    4  C12 UNL     1      -1.156  50.757 -23.721  1.00  0.00     0.104 C 
HETATM    5  C22 UNL     1      -0.819  51.510 -25.009  1.00  0.00     0.024 C 
HETATM    6  C23 UNL     1      -0.163  52.689 -24.992  1.00  0.00     0.020 C 
HETATM    7  C24 UNL     1       0.204  53.442 -26.247  1.00  0.00     0.058 C 
HETATM    8  C25 UNL     1       0.274  52.528 -27.465  1.00  0.00     0.014 C 
HETATM    9  C26 UNL     1      -0.978  51.676 -27.579  1.00  0.00     0.084 C 
HETATM   10  C27 UNL     1      -1.234  50.902 -26.305  1.00  0.00     0.158 C 
HETATM   11  O5  UNL     1      -1.824  49.823 -26.329  1.00  0.00    -0.293 OA
HETATM   12  N1  UNL     1       0.241  53.239 -23.787  1.00  0.00    -0.362 N 
HETATM   13  H22 UNL     1       0.823  54.073 -23.819  1.00  0.00     0.165 HD
ENDROOT
BRANCH   4  14
HETATM   14  C13 UNL     1      -2.658  50.671 -23.488  1.00  0.00     0.029 A 
HETATM   15  C14 UNL     1      -3.462  51.695 -23.162  1.00  0.00     0.154 A 
HETATM   16  O3  UNL     1      -4.822  51.650 -22.976  1.00  0.00    -0.321 OA
HETATM   17  C15 UNL     1      -5.448  50.445 -23.155  1.00  0.00     0.089 A 
HETATM   18  C16 UNL     1      -6.833  50.416 -22.992  1.00  0.00     0.040 A 
HETATM   19  C20 UNL     1      -4.759  49.280 -23.483  1.00  0.00     0.050 A 
HETATM   20  C17 UNL     1      -7.525  49.213 -23.159  1.00  0.00     0.026 A 
HETATM   21  C18 UNL     1      -6.826  48.048 -23.483  1.00  0.00     0.035 A 
HETATM   22 CL1  UNL     1      -7.686  46.571 -23.686  1.00  0.00    -0.084 Cl
HETATM   23  C19 UNL     1      -5.444  48.072 -23.646  1.00  0.00     0.042 A 
HETATM   24  C21 UNL     1      -3.298  49.342 -23.654  1.00  0.00     0.194 A 
HETATM   25  O4  UNL     1      -2.653  48.331 -23.906  1.00  0.00    -0.287 OA
ENDBRANCH   4  14
BRANCH   3  26
HETATM   26  C4  UNL     1      -0.528  50.607 -21.258  1.00  0.00     0.292 C 
HETATM   27  O1  UNL     1       0.038  50.929 -20.226  1.00  0.00    -0.259 OA
BRANCH  26  28
HETATM   28  O2  UNL     1      -1.284  49.508 -21.469  1.00  0.00    -0.313 OA
BRANCH  28  29
HETATM   29  C5  UNL     1      -0.819  48.349 -20.775  1.00  0.00     0.217 C 
BRANCH  29  30
HETATM   30  C6  UNL     1      -2.024  47.581 -20.299  1.00  0.00    -0.034 A 
HETATM   31  C7  UNL     1      -2.526  47.795 -19.006  1.00  0.00     0.009 A 
HETATM   32  C8  UNL     1      -3.647  47.098 -18.556  1.00  0.00     0.001 A 
HETATM   33  C9  UNL     1      -4.279  46.181 -19.392  1.00  0.00     0.000 A 
HETATM   34  C10 UNL     1      -3.794  45.963 -20.681  1.00  0.00     0.001 A 
HETATM   35  C11 UNL     1      -2.673  46.662 -21.134  1.00  0.00     0.009 A 
ENDBRANCH  29  30
ENDBRANCH  28  29
ENDBRANCH  26  28
ENDBRANCH   3  26
TORSDOF 5
ENDMDL
MODEL 6
REMARK minimizedAffinity -8.8272543
REMARK  5 active torsions:
REMARK  status: ('A' for Active; 'I' for Inactive)
REMARK    1  A    between atoms: C3_3  and  C4_4 
REMARK    2  A    between atoms: C4_4  and  O2_6 
REMARK    3  A    between atoms: O2_6  and  C5_7 
REMARK    4  A    between atoms: C5_7  and  C6_8 
REMARK    5  A    between atoms: C12_14  and  C13_15 
ROOT
HETATM    1  C1  UNL     1       0.888  53.414 -21.614  1.00  0.00     0.069 C 
HETATM    2  C2  UNL     1       0.175  52.642 -22.695  1.00  0.00     0.018 C 
HETATM    3  C3  UNL     1      -0.447  51.457 -22.513  1.00  0.00     0.052 C 
HETATM    4  C12 UNL     1      -1.154  50.723 -23.646  1.00  0.00     0.104 C 
HETATM    5  C22 UNL     1      -0.861  51.365 -25.003  1.00  0.00     0.024 C 
HETATM    6  C23 UNL     1      -0.219  52.548 -25.106  1.00  0.00     0.020 C 
HETATM    7  C24 UNL     1       0.104  53.193 -26.431  1.00  0.00     0.058 C 
HETATM    8  C25 UNL     1       0.153  52.179 -27.567  1.00  0.00     0.014 C 
HETATM    9  C26 UNL     1      -1.091  51.307 -27.572  1.00  0.00     0.084 C 
HETATM   10  C27 UNL     1      -1.303  50.643 -26.230  1.00  0.00     0.158 C 
HETATM   11  O5  UNL     1      -1.880  49.561 -26.144  1.00  0.00    -0.293 OA
HETATM   12  N1  UNL     1       0.211  53.204 -23.964  1.00  0.00    -0.362 N 
HETATM   13  H22 UNL     1       0.781  54.038 -24.084  1.00  0.00     0.165 HD
ENDROOT
BRANCH   4  14
HETATM   14  C13 UNL     1      -2.647  50.643 -23.364  1.00  0.00     0.029 A 
HETATM   15  C14 UNL     1      -3.508  51.673 -23.388  1.00  0.00     0.154 A 
HETATM   16  O3  UNL     1      -4.862  51.622 -23.168  1.00  0.00    -0.321 OA
HETATM   17  C15 UNL     1      -5.419  50.397 -22.913  1.00  0.00     0.089 A 
HETATM   18  C16 UNL     1      -6.800  50.352 -22.719  1.00  0.00     0.040 A 
HETATM   19  C20 UNL     1      -4.666  49.228 -22.841  1.00  0.00     0.050 A 
HETATM   20  C17 UNL     1      -7.422  49.129 -22.452  1.00  0.00     0.026 A 
HETATM   21  C18 UNL     1      -6.660  47.962 -22.376  1.00  0.00     0.035 A 
HETATM   22 CL1  UNL     1      -7.434  46.461 -22.046  1.00  0.00    -0.084 Cl
HETATM   23  C19 UNL     1      -5.281  48.002 -22.568  1.00  0.00     0.042 A 
HETATM   24  C21 UNL     1      -3.211  49.304 -23.054  1.00  0.00     0.194 A 
HETATM   25  O4  UNL     1      -2.510  48.304 -22.963  1.00  0.00    -0.287 OA
ENDBRANCH   4  14
BRANCH   3  26
HETATM   26  C4  UNL     1      -0.458  50.792 -21.198  1.00  0.00     0.292 C 
HETATM   27  O1  UNL     1       0.204  49.805 -20.921  1.00  0.00    -0.259 OA
BRANCH  26  28
HETATM   28  O2  UNL     1      -1.319  51.453 -20.393  1.00  0.00    -0.313 OA
BRANCH  28  29
HETATM   29  C5  UNL     1      -0.745  51.865 -19.152  1.00  0.00     0.217 C 
BRANCH  29  30
HETATM   30  C6  UNL     1      -1.220  50.915 -18.085  1.00  0.00    -0.034 A 
HETATM   31  C7  UNL     1      -2.578  50.880 -17.732  1.00  0.00     0.009 A 
HETATM   32  C8  UNL     1      -3.033  49.997 -16.752  1.00  0.00     0.001 A 
HETATM   33  C9  UNL     1      -2.138  49.140 -16.117  1.00  0.00     0.000 A 
HETATM   34  C10 UNL     1      -0.788  49.161 -16.461  1.00  0.00     0.001 A 
HETATM   35  C11 UNL     1      -0.331  50.042 -17.444  1.00  0.00     0.009 A 
ENDBRANCH  29  30
ENDBRANCH  28  29
ENDBRANCH  26  28
ENDBRANCH   3  26
TORSDOF 5
ENDMDL
MODEL 7
REMARK minimizedAffinity -8.66526318
REMARK  5 active torsions:
REMARK  status: ('A' for Active; 'I' for Inactive)
REMARK    1  A    between atoms: C3_3  and  C4_4 
REMARK    2  A    between atoms: C4_4  and  O2_6 
REMARK    3  A    between atoms: O2_6  and  C5_7 
REMARK    4  A    between atoms: C5_7  and  C6_8 
REMARK    5  A    between atoms: C12_14  and  C13_15 
ROOT
HETATM    1  C1  UNL     1      -3.078  45.856 -20.497  1.00  0.00     0.069 C 
HETATM    2  C2  UNL     1      -3.746  46.980 -21.248  1.00  0.00     0.018 C 
HETATM    3  C3  UNL     1      -3.212  48.208 -21.431  1.00  0.00     0.052 C 
HETATM    4  C12 UNL     1      -3.935  49.305 -22.203  1.00  0.00     0.104 C 
HETATM    5  C22 UNL     1      -5.382  48.917 -22.513  1.00  0.00     0.024 C 
HETATM    6  C23 UNL     1      -5.847  47.670 -22.288  1.00  0.00     0.020 C 
HETATM    7  C24 UNL     1      -7.275  47.266 -22.562  1.00  0.00     0.058 C 
HETATM    8  C25 UNL     1      -8.220  48.462 -22.565  1.00  0.00     0.014 C 
HETATM    9  C26 UNL     1      -7.691  49.570 -23.459  1.00  0.00     0.084 C 
HETATM   10  C27 UNL     1      -6.283  49.964 -23.073  1.00  0.00     0.158 C 
HETATM   11  O5  UNL     1      -5.868  51.104 -23.272  1.00  0.00    -0.293 OA
HETATM   12  N1  UNL     1      -5.013  46.707 -21.745  1.00  0.00    -0.362 N 
HETATM   13  H22 UNL     1      -5.425  45.812 -21.493  1.00  0.00     0.165 HD
ENDROOT
BRANCH   4  14
HETATM   14  C13 UNL     1      -3.156  49.655 -23.463  1.00  0.00     0.029 A 
HETATM   15  C14 UNL     1      -2.997  48.862 -24.533  1.00  0.00     0.154 A 
HETATM   16  O3  UNL     1      -2.326  49.166 -25.693  1.00  0.00    -0.321 OA
HETATM   17  C15 UNL     1      -1.769  50.413 -25.797  1.00  0.00     0.089 A 
HETATM   18  C16 UNL     1      -1.115  50.722 -26.990  1.00  0.00     0.040 A 
HETATM   19  C20 UNL     1      -1.833  51.354 -24.773  1.00  0.00     0.050 A 
HETATM   20  C17 UNL     1      -0.525  51.978 -27.151  1.00  0.00     0.026 A 
HETATM   21  C18 UNL     1      -0.589  52.914 -26.117  1.00  0.00     0.035 A 
HETATM   22 CL1  UNL     1       0.141  54.459 -26.323  1.00  0.00    -0.084 Cl
HETATM   23  C19 UNL     1      -1.240  52.610 -24.924  1.00  0.00     0.042 A 
HETATM   24  C21 UNL     1      -2.534  51.002 -23.526  1.00  0.00     0.194 A 
HETATM   25  O4  UNL     1      -2.580  51.790 -22.588  1.00  0.00    -0.287 OA
ENDBRANCH   4  14
BRANCH   3  26
HETATM   26  C4  UNL     1      -1.897  48.562 -20.869  1.00  0.00     0.292 C 
HETATM   27  O1  UNL     1      -0.878  47.915 -21.047  1.00  0.00    -0.259 OA
BRANCH  26  28
HETATM   28  O2  UNL     1      -2.035  49.688 -20.136  1.00  0.00    -0.313 OA
BRANCH  28  29
HETATM   29  C5  UNL     1      -0.883  50.012 -19.358  1.00  0.00     0.217 C 
BRANCH  29  30
HETATM   30  C6  UNL     1      -0.270  51.260 -19.938  1.00  0.00    -0.034 A 
HETATM   31  C7  UNL     1      -0.325  52.466 -19.223  1.00  0.00     0.009 A 
HETATM   32  C8  UNL     1       0.247  53.627 -19.744  1.00  0.00     0.001 A 
HETATM   33  C9  UNL     1       0.883  53.594 -20.983  1.00  0.00     0.000 A 
HETATM   34  C10 UNL     1       0.949  52.401 -21.701  1.00  0.00     0.001 A 
HETATM   35  C11 UNL     1       0.379  51.238 -21.180  1.00  0.00     0.009 A 
ENDBRANCH  29  30
ENDBRANCH  28  29
ENDBRANCH  26  28
ENDBRANCH   3  26
TORSDOF 5
ENDMDL
MODEL 8
REMARK minimizedAffinity -8.39438057
REMARK  5 active torsions:
REMARK  status: ('A' for Active; 'I' for Inactive)
REMARK    1  A    between atoms: C3_3  and  C4_4 
REMARK    2  A    between atoms: C4_4  and  O2_6 
REMARK    3  A    between atoms: O2_6  and  C5_7 
REMARK    4  A    between atoms: C5_7  and  C6_8 
REMARK    5  A    between atoms: C12_14  and  C13_15 
ROOT
HETATM    1  C1  UNL     1      -2.854  46.617 -19.309  1.00  0.00     0.069 C 
HETATM    2  C2  UNL     1      -3.818  47.397 -20.165  1.00  0.00     0.018 C 
HETATM    3  C3  UNL     1      -3.995  48.735 -20.102  1.00  0.00     0.052 C 
HETATM    4  C12 UNL     1      -4.985  49.471 -20.997  1.00  0.00     0.104 C 
HETATM    5  C22 UNL     1      -5.883  48.498 -21.763  1.00  0.00     0.024 C 
HETATM    6  C23 UNL     1      -5.651  47.168 -21.767  1.00  0.00     0.020 C 
HETATM    7  C24 UNL     1      -6.533  46.184 -22.493  1.00  0.00     0.058 C 
HETATM    8  C25 UNL     1      -7.937  46.730 -22.723  1.00  0.00     0.014 C 
HETATM    9  C26 UNL     1      -7.887  48.116 -23.343  1.00  0.00     0.084 C 
HETATM   10  C27 UNL     1      -7.042  49.058 -22.516  1.00  0.00     0.158 C 
HETATM   11  O5  UNL     1      -7.264  50.267 -22.510  1.00  0.00    -0.293 OA
HETATM   12  N1  UNL     1      -4.588  46.650 -21.047  1.00  0.00    -0.362 N 
HETATM   13  H22 UNL     1      -4.505  45.638 -20.987  1.00  0.00     0.165 HD
ENDROOT
BRANCH   4  14
HETATM   14  C13 UNL     1      -4.243  50.417 -21.930  1.00  0.00     0.029 A 
HETATM   15  C14 UNL     1      -4.373  51.752 -21.961  1.00  0.00     0.154 A 
HETATM   16  O3  UNL     1      -3.694  52.629 -22.771  1.00  0.00    -0.321 OA
HETATM   17  C15 UNL     1      -2.765  52.108 -23.633  1.00  0.00     0.089 A 
HETATM   18  C16 UNL     1      -2.060  53.010 -24.431  1.00  0.00     0.040 A 
HETATM   19  C20 UNL     1      -2.515  50.742 -23.735  1.00  0.00     0.050 A 
HETATM   20  C17 UNL     1      -1.103  52.535 -25.332  1.00  0.00     0.026 A 
HETATM   21  C18 UNL     1      -0.861  51.163 -25.432  1.00  0.00     0.035 A 
HETATM   22 CL1  UNL     1       0.319  50.588 -26.544  1.00  0.00    -0.084 Cl
HETATM   23  C19 UNL     1      -1.564  50.260 -24.638  1.00  0.00     0.042 A 
HETATM   24  C21 UNL     1      -3.271  49.814 -22.877  1.00  0.00     0.194 A 
HETATM   25  O4  UNL     1      -3.105  48.604 -22.964  1.00  0.00    -0.287 OA
ENDBRANCH   4  14
BRANCH   3  26
HETATM   26  C4  UNL     1      -3.246  49.562 -19.139  1.00  0.00     0.292 C 
HETATM   27  O1  UNL     1      -3.679  49.914 -18.054  1.00  0.00    -0.259 OA
BRANCH  26  28
HETATM   28  O2  UNL     1      -2.041  49.854 -19.675  1.00  0.00    -0.313 OA
BRANCH  28  29
HETATM   29  C5  UNL     1      -1.246  50.720 -18.864  1.00  0.00     0.217 C 
BRANCH  29  30
HETATM   30  C6  UNL     1      -0.470  51.629 -19.782  1.00  0.00    -0.034 A 
HETATM   31  C7  UNL     1      -0.134  51.198 -21.074  1.00  0.00     0.009 A 
HETATM   32  C8  UNL     1       0.576  52.033 -21.937  1.00  0.00     0.001 A 
HETATM   33  C9  UNL     1       0.955  53.306 -21.519  1.00  0.00     0.000 A 
HETATM   34  C10 UNL     1       0.623  53.748 -20.240  1.00  0.00     0.001 A 
HETATM   35  C11 UNL     1      -0.090  52.914 -19.375  1.00  0.00     0.009 A 
ENDBRANCH  29  30
ENDBRANCH  28  29
ENDBRANCH  26  28
ENDBRANCH   3  26
TORSDOF 5
ENDMDL
MODEL 9
REMARK minimizedAffinity -8.28790855
REMARK  5 active torsions:
REMARK  status: ('A' for Active; 'I' for Inactive)
REMARK    1  A    between atoms: C3_3  and  C4_4 
REMARK    2  A    between atoms: C4_4  and  O2_6 
REMARK    3  A    between atoms: O2_6  and  C5_7 
REMARK    4  A    between atoms: C5_7  and  C6_8 
REMARK    5  A    between atoms: C12_14  and  C13_15 
ROOT
HETATM    1  C1  UNL     1      -4.193  48.461 -26.455  1.00  0.00     0.069 C 
HETATM    2  C2  UNL     1      -3.282  49.359 -25.658  1.00  0.00     0.018 C 
HETATM    3  C3  UNL     1      -3.614  49.954 -24.492  1.00  0.00     0.052 C 
HETATM    4  C12 UNL     1      -2.648  50.851 -23.728  1.00  0.00     0.104 C 
HETATM    5  C22 UNL     1      -1.398  51.164 -24.553  1.00  0.00     0.024 C 
HETATM    6  C23 UNL     1      -1.140  50.536 -25.720  1.00  0.00     0.020 C 
HETATM    7  C24 UNL     1       0.071  50.841 -26.565  1.00  0.00     0.058 C 
HETATM    8  C25 UNL     1       0.629  52.233 -26.289  1.00  0.00     0.014 C 
HETATM    9  C26 UNL     1       0.822  52.456 -24.799  1.00  0.00     0.084 C 
HETATM   10  C27 UNL     1      -0.457  52.197 -24.034  1.00  0.00     0.158 C 
HETATM   11  O5  UNL     1      -0.690  52.779 -22.977  1.00  0.00    -0.293 OA
HETATM   12  N1  UNL     1      -2.030  49.594 -26.210  1.00  0.00    -0.362 N 
HETATM   13  H22 UNL     1      -1.856  49.219 -27.139  1.00  0.00     0.165 HD
ENDROOT
BRANCH   4  14
HETATM   14  C13 UNL     1      -2.302  50.222 -22.386  1.00  0.00     0.029 A 
HETATM   15  C14 UNL     1      -1.508  49.157 -22.199  1.00  0.00     0.154 A 
HETATM   16  O3  UNL     1      -1.156  48.590 -20.999  1.00  0.00    -0.321 OA
HETATM   17  C15 UNL     1      -1.642  49.169 -19.856  1.00  0.00     0.089 A 
HETATM   18  C16 UNL     1      -1.257  48.603 -18.640  1.00  0.00     0.040 A 
HETATM   19  C20 UNL     1      -2.490  50.274 -19.873  1.00  0.00     0.050 A 
HETATM   20  C17 UNL     1      -1.724  49.150 -17.443  1.00  0.00     0.026 A 
HETATM   21  C18 UNL     1      -2.578  50.254 -17.469  1.00  0.00     0.035 A 
HETATM   22 CL1  UNL     1      -3.150  50.921 -15.989  1.00  0.00    -0.084 Cl
HETATM   23  C19 UNL     1      -2.967  50.822 -18.679  1.00  0.00     0.042 A 
HETATM   24  C21 UNL     1      -2.877  50.853 -21.171  1.00  0.00     0.194 A 
HETATM   25  O4  UNL     1      -3.649  51.803 -21.229  1.00  0.00    -0.287 OA
ENDBRANCH   4  14
BRANCH   3  26
HETATM   26  C4  UNL     1      -4.953  49.783 -23.900  1.00  0.00     0.292 C 
HETATM   27  O1  UNL     1      -5.795  50.664 -23.839  1.00  0.00    -0.259 OA
BRANCH  26  28
HETATM   28  O2  UNL     1      -5.058  48.516 -23.443  1.00  0.00    -0.313 OA
BRANCH  28  29
HETATM   29  C5  UNL     1      -6.288  48.250 -22.767  1.00  0.00     0.217 C 
BRANCH  29  30
HETATM   30  C6  UNL     1      -6.973  47.117 -23.486  1.00  0.00    -0.034 A 
HETATM   31  C7  UNL     1      -7.280  45.934 -22.797  1.00  0.00     0.009 A 
HETATM   32  C8  UNL     1      -7.923  44.880 -23.447  1.00  0.00     0.001 A 
HETATM   33  C9  UNL     1      -8.269  44.999 -24.791  1.00  0.00     0.000 A 
HETATM   34  C10 UNL     1      -7.974  46.172 -25.486  1.00  0.00     0.001 A 
HETATM   35  C11 UNL     1      -7.332  47.228 -24.836  1.00  0.00     0.009 A 
ENDBRANCH  29  30
ENDBRANCH  28  29
ENDBRANCH  26  28
ENDBRANCH   3  26
TORSDOF 5
ENDMDL
