MODEL 1
REMARK minimizedAffinity -8.45077229
REMARK CNNscore 0.827223599
REMARK CNNaffinity 7.0804882
REMARK  12 active torsions:
REMARK  status: ('A' for Active; 'I' for Inactive)
REMARK    1  A    between atoms: C2_2  and  C17_19 
REMARK    2  A    between atoms: C3_3  and  C4_4 
REMARK    3  A    between atoms: C4_4  and  C5_5 
REMARK    4  A    between atoms: C5_5  and  C6_6 
REMARK    5  A    between atoms: C12_12  and  O1_13 
REMARK    6  A    between atoms: C17_19  and  C18_20 
REMARK    7  A    between atoms: C19_21  and  C20_22 
REMARK    8  A    between atoms: C20_22  and  C22_24 
REMARK    9  A    between atoms: C22_24  and  C23_26 
REMARK   10  A    between atoms: C23_26  and  O4_27 
REMARK   11  A    between atoms: C23_26  and  C24_28 
REMARK   12  A    between atoms: C24_28  and  C25_29 
ROOT
HETATM    1  C1  UNL     1      -1.118   5.366  13.691  1.00  0.00     0.043 C 
HETATM    2  C2  UNL     1      -1.187   6.573  14.589  1.00  0.00    -0.084 C 
HETATM    3  C3  UNL     1      -2.258   6.892  15.347  1.00  0.00    -0.024 C 
ENDROOT
BRANCH   3   4
HETATM    4  C4  UNL     1      -3.514   6.085  15.522  1.00  0.00     0.030 C 
BRANCH   4   5
HETATM    5  C5  UNL     1      -4.836   6.860  15.472  1.00  0.00     0.042 C 
BRANCH   5   6
HETATM    6  C6  UNL     1      -5.430   7.225  14.085  1.00  0.00     0.065 C 
HETATM    7  C7  UNL     1      -4.783   8.505  13.529  1.00  0.00     0.046 C 
HETATM    8  C8  UNL     1      -6.955   7.403  14.056  1.00  0.00     0.043 C 
HETATM    9  C9  UNL     1      -7.665   6.107  14.408  1.00  0.00     0.044 C 
HETATM   10  C10 UNL     1      -7.076   4.964  13.634  1.00  0.00    -0.021 A 
HETATM   11  C11 UNL     1      -7.804   3.773  13.496  1.00  0.00     0.046 A 
HETATM   12  C16 UNL     1      -5.797   5.062  13.070  1.00  0.00     0.082 A 
HETATM   13  C12 UNL     1      -7.261   2.711  12.781  1.00  0.00     0.066 A 
HETATM   14  C13 UNL     1      -6.000   2.809  12.207  1.00  0.00     0.046 A 
HETATM   15  C14 UNL     1      -5.254   3.986  12.347  1.00  0.00    -0.025 A 
HETATM   16  C15 UNL     1      -3.891   4.086  11.722  1.00  0.00     0.051 C 
HETATM   17  O2  UNL     1      -5.021   6.189  13.161  1.00  0.00    -0.340 OA
BRANCH  13  18
HETATM   18  O1  UNL     1      -7.944   1.543  12.616  1.00  0.00    -0.361 OA
HETATM   19  H17 UNL     1      -8.812   1.627  13.042  1.00  0.00     0.217 HD
ENDBRANCH  13  18
ENDBRANCH   5   6
ENDBRANCH   4   5
ENDBRANCH   3   4
BRANCH   2  20
HETATM   20  C17 UNL     1       0.049   7.459  14.574  1.00  0.00     0.060 C 
BRANCH  20  21
HETATM   21  C18 UNL     1       1.270   6.687  14.155  1.00  0.00    -0.026 C 
HETATM   22  C19 UNL     1       1.918   6.624  12.980  1.00  0.00    -0.019 C 
BRANCH  22  23
HETATM   23  C20 UNL     1       1.671   7.260  11.629  1.00  0.00     0.076 C 
HETATM   24  C21 UNL     1       2.215   8.670  11.405  1.00  0.00     0.022 C 
BRANCH  23  25
HETATM   25  C22 UNL     1       2.157   6.300  10.533  1.00  0.00     0.162 C 
HETATM   26  O3  UNL     1       1.570   5.243  10.266  1.00  0.00    -0.294 OA
BRANCH  25  27
HETATM   27  C23 UNL     1       3.365   6.725   9.676  1.00  0.00     0.188 C 
BRANCH  27  28
HETATM   28  O4  UNL     1       4.525   6.909  10.485  1.00  0.00    -0.388 OA
HETATM   29  H31 UNL     1       4.285   6.598  11.384  1.00  0.00     0.210 HD
ENDBRANCH  27  28
BRANCH  27  30
HETATM   30  C24 UNL     1       3.153   7.961   8.790  1.00  0.00     0.043 C 
BRANCH  30  31
HETATM   31  C25 UNL     1       2.119   7.909   7.641  1.00  0.00    -0.020 C 
HETATM   32  C26 UNL     1       0.685   8.199   8.080  1.00  0.00     0.009 C 
HETATM   33  C27 UNL     1       2.174   6.613   6.834  1.00  0.00     0.009 C 
ENDBRANCH  30  31
ENDBRANCH  27  30
ENDBRANCH  25  27
ENDBRANCH  23  25
ENDBRANCH  22  23
ENDBRANCH  20  21
ENDBRANCH   2  20
TORSDOF 12
ENDMDL
MODEL 2
REMARK minimizedAffinity -8.66847038
REMARK CNNscore 0.805956125
REMARK CNNaffinity 6.98110151
REMARK  12 active torsions:
REMARK  status: ('A' for Active; 'I' for Inactive)
REMARK    1  A    between atoms: C2_2  and  C17_19 
REMARK    2  A    between atoms: C3_3  and  C4_4 
REMARK    3  A    between atoms: C4_4  and  C5_5 
REMARK    4  A    between atoms: C5_5  and  C6_6 
REMARK    5  A    between atoms: C12_12  and  O1_13 
REMARK    6  A    between atoms: C17_19  and  C18_20 
REMARK    7  A    between atoms: C19_21  and  C20_22 
REMARK    8  A    between atoms: C20_22  and  C22_24 
REMARK    9  A    between atoms: C22_24  and  C23_26 
REMARK   10  A    between atoms: C23_26  and  O4_27 
REMARK   11  A    between atoms: C23_26  and  C24_28 
REMARK   12  A    between atoms: C24_28  and  C25_29 
ROOT
HETATM    1  C1  UNL     1      -1.269   8.919  11.545  1.00  0.00     0.043 C 
HETATM    2  C2  UNL     1      -1.054   9.020  13.032  1.00  0.00    -0.084 C 
HETATM    3  C3  UNL     1      -2.052   9.104  13.937  1.00  0.00    -0.024 C 
ENDROOT
BRANCH   3   4
HETATM    4  C4  UNL     1      -3.527   9.016  13.666  1.00  0.00     0.030 C 
BRANCH   4   5
HETATM    5  C5  UNL     1      -4.067   7.639  13.264  1.00  0.00     0.042 C 
BRANCH   5   6
HETATM    6  C6  UNL     1      -3.740   6.420  14.168  1.00  0.00     0.065 C 
HETATM    7  C7  UNL     1      -3.566   6.855  15.634  1.00  0.00     0.046 C 
HETATM    8  C8  UNL     1      -2.501   5.615  13.753  1.00  0.00     0.043 C 
HETATM    9  C9  UNL     1      -2.689   4.988  12.382  1.00  0.00     0.044 C 
HETATM   10  C10 UNL     1      -4.026   4.314  12.297  1.00  0.00    -0.021 A 
HETATM   11  C11 UNL     1      -4.256   3.355  11.299  1.00  0.00     0.046 A 
HETATM   12  C16 UNL     1      -5.058   4.648  13.184  1.00  0.00     0.082 A 
HETATM   13  C12 UNL     1      -5.495   2.728  11.215  1.00  0.00     0.066 A 
HETATM   14  C13 UNL     1      -6.515   3.046  12.103  1.00  0.00     0.046 A 
HETATM   15  C14 UNL     1      -6.307   4.010  13.097  1.00  0.00    -0.025 A 
HETATM   16  C15 UNL     1      -7.414   4.347  14.055  1.00  0.00     0.051 C 
HETATM   17  O2  UNL     1      -4.915   5.574  14.185  1.00  0.00    -0.340 OA
BRANCH  13  18
HETATM   18  O1  UNL     1      -5.750   1.784  10.267  1.00  0.00    -0.361 OA
HETATM   19  H17 UNL     1      -4.947   1.645   9.741  1.00  0.00     0.217 HD
ENDBRANCH  13  18
ENDBRANCH   5   6
ENDBRANCH   4   5
ENDBRANCH   3   4
BRANCH   2  20
HETATM   20  C17 UNL     1       0.402   9.050  13.471  1.00  0.00     0.060 C 
BRANCH  20  21
HETATM   21  C18 UNL     1       1.331   8.977  12.291  1.00  0.00    -0.026 C 
HETATM   22  C19 UNL     1       1.977   7.939  11.734  1.00  0.00    -0.019 C 
BRANCH  22  23
HETATM   23  C20 UNL     1       2.056   6.468  12.080  1.00  0.00     0.076 C 
HETATM   24  C21 UNL     1       1.174   5.964  13.221  1.00  0.00     0.022 C 
BRANCH  23  25
HETATM   25  C22 UNL     1       1.828   5.646  10.803  1.00  0.00     0.162 C 
HETATM   26  O3  UNL     1       0.697   5.348  10.396  1.00  0.00    -0.294 OA
BRANCH  25  27
HETATM   27  C23 UNL     1       3.056   5.264   9.953  1.00  0.00     0.188 C 
BRANCH  27  28
HETATM   28  O4  UNL     1       4.265   5.667  10.593  1.00  0.00    -0.388 OA
HETATM   29  H31 UNL     1       4.010   5.987  11.485  1.00  0.00     0.210 HD
ENDBRANCH  27  28
BRANCH  27  30
HETATM   30  C24 UNL     1       3.045   5.767   8.502  1.00  0.00     0.043 C 
BRANCH  30  31
HETATM   31  C25 UNL     1       2.375   7.120   8.168  1.00  0.00    -0.020 C 
HETATM   32  C26 UNL     1       1.789   7.192   6.759  1.00  0.00     0.009 C 
HETATM   33  C27 UNL     1       3.275   8.325   8.430  1.00  0.00     0.009 C 
ENDBRANCH  30  31
ENDBRANCH  27  30
ENDBRANCH  25  27
ENDBRANCH  23  25
ENDBRANCH  22  23
ENDBRANCH  20  21
ENDBRANCH   2  20
TORSDOF 12
ENDMDL
MODEL 3
REMARK minimizedAffinity -7.68738747
REMARK CNNscore 0.800415635
REMARK CNNaffinity 7.56360102
REMARK  12 active torsions:
REMARK  status: ('A' for Active; 'I' for Inactive)
REMARK    1  A    between atoms: C2_2  and  C17_19 
REMARK    2  A    between atoms: C3_3  and  C4_4 
REMARK    3  A    between atoms: C4_4  and  C5_5 
REMARK    4  A    between atoms: C5_5  and  C6_6 
REMARK    5  A    between atoms: C12_12  and  O1_13 
REMARK    6  A    between atoms: C17_19  and  C18_20 
REMARK    7  A    between atoms: C19_21  and  C20_22 
REMARK    8  A    between atoms: C20_22  and  C22_24 
REMARK    9  A    between atoms: C22_24  and  C23_26 
REMARK   10  A    between atoms: C23_26  and  O4_27 
REMARK   11  A    between atoms: C23_26  and  C24_28 
REMARK   12  A    between atoms: C24_28  and  C25_29 
ROOT
HETATM    1  C1  UNL     1      -3.460   9.180  13.321  1.00  0.00     0.043 C 
HETATM    2  C2  UNL     1      -3.421   7.685  13.505  1.00  0.00    -0.084 C 
HETATM    3  C3  UNL     1      -4.143   7.018  14.430  1.00  0.00    -0.024 C 
ENDROOT
BRANCH   3   4
HETATM    4  C4  UNL     1      -5.170   7.595  15.363  1.00  0.00     0.030 C 
BRANCH   4   5
HETATM    5  C5  UNL     1      -6.373   8.288  14.711  1.00  0.00     0.042 C 
BRANCH   5   6
HETATM    6  C6  UNL     1      -7.801   7.864  15.151  1.00  0.00     0.065 C 
HETATM    7  C7  UNL     1      -8.673   9.096  15.448  1.00  0.00     0.046 C 
HETATM    8  C8  UNL     1      -7.857   6.928  16.366  1.00  0.00     0.043 C 
HETATM    9  C9  UNL     1      -7.178   5.602  16.069  1.00  0.00     0.044 C 
HETATM   10  C10 UNL     1      -7.641   5.065  14.746  1.00  0.00    -0.021 A 
HETATM   11  C11 UNL     1      -7.462   3.706  14.450  1.00  0.00     0.046 A 
HETATM   12  C16 UNL     1      -8.225   5.910  13.793  1.00  0.00     0.082 A 
HETATM   13  C12 UNL     1      -7.888   3.204  13.224  1.00  0.00     0.066 A 
HETATM   14  C13 UNL     1      -8.482   4.035  12.282  1.00  0.00     0.046 A 
HETATM   15  C14 UNL     1      -8.656   5.397  12.557  1.00  0.00    -0.025 A 
HETATM   16  C15 UNL     1      -9.301   6.289  11.534  1.00  0.00     0.051 C 
HETATM   17  O2  UNL     1      -8.434   7.248  14.004  1.00  0.00    -0.340 OA
BRANCH  13  18
HETATM   18  O1  UNL     1      -7.741   1.888  12.906  1.00  0.00    -0.361 OA
HETATM   19  H17 UNL     1      -7.342   1.428  13.661  1.00  0.00     0.217 HD
ENDBRANCH  13  18
ENDBRANCH   5   6
ENDBRANCH   4   5
ENDBRANCH   3   4
BRANCH   2  20
HETATM   20  C17 UNL     1      -2.470   6.946  12.576  1.00  0.00     0.060 C 
BRANCH  20  21
HETATM   21  C18 UNL     1      -1.618   5.965  13.333  1.00  0.00    -0.026 C 
HETATM   22  C19 UNL     1      -0.709   5.070  12.910  1.00  0.00    -0.019 C 
BRANCH  22  23
HETATM   23  C20 UNL     1      -0.211   4.674  11.537  1.00  0.00     0.076 C 
HETATM   24  C21 UNL     1       1.270   4.895  11.236  1.00  0.00     0.022 C 
BRANCH  23  25
HETATM   25  C22 UNL     1      -0.619   3.219  11.263  1.00  0.00     0.162 C 
HETATM   26  O3  UNL     1       0.133   2.263  11.492  1.00  0.00    -0.294 OA
BRANCH  25  27
HETATM   27  C23 UNL     1      -2.055   2.945  10.773  1.00  0.00     0.188 C 
BRANCH  27  28
HETATM   28  O4  UNL     1      -2.627   4.114  10.190  1.00  0.00    -0.388 OA
HETATM   29  H31 UNL     1      -1.906   4.778  10.141  1.00  0.00     0.210 HD
ENDBRANCH  27  28
BRANCH  27  30
HETATM   30  C24 UNL     1      -3.017   2.365  11.819  1.00  0.00     0.043 C 
BRANCH  30  31
HETATM   31  C25 UNL     1      -4.482   2.858  11.866  1.00  0.00    -0.020 C 
HETATM   32  C26 UNL     1      -5.242   2.676  10.554  1.00  0.00     0.009 C 
HETATM   33  C27 UNL     1      -4.624   4.294  12.366  1.00  0.00     0.009 C 
ENDBRANCH  30  31
ENDBRANCH  27  30
ENDBRANCH  25  27
ENDBRANCH  23  25
ENDBRANCH  22  23
ENDBRANCH  20  21
ENDBRANCH   2  20
TORSDOF 12
ENDMDL
MODEL 4
REMARK minimizedAffinity -8.62376118
REMARK CNNscore 0.793560207
REMARK CNNaffinity 7.65999937
REMARK  12 active torsions:
REMARK  status: ('A' for Active; 'I' for Inactive)
REMARK    1  A    between atoms: C2_2  and  C17_19 
REMARK    2  A    between atoms: C3_3  and  C4_4 
REMARK    3  A    between atoms: C4_4  and  C5_5 
REMARK    4  A    between atoms: C5_5  and  C6_6 
REMARK    5  A    between atoms: C12_12  and  O1_13 
REMARK    6  A    between atoms: C17_19  and  C18_20 
REMARK    7  A    between atoms: C19_21  and  C20_22 
REMARK    8  A    between atoms: C20_22  and  C22_24 
REMARK    9  A    between atoms: C22_24  and  C23_26 
REMARK   10  A    between atoms: C23_26  and  O4_27 
REMARK   11  A    between atoms: C23_26  and  C24_28 
REMARK   12  A    between atoms: C24_28  and  C25_29 
ROOT
HETATM    1  C1  UNL     1      -2.782   8.843  12.565  1.00  0.00     0.043 C 
HETATM    2  C2  UNL     1      -2.916   7.409  13.006  1.00  0.00    -0.084 C 
HETATM    3  C3  UNL     1      -4.082   6.836  13.372  1.00  0.00    -0.024 C 
ENDROOT
BRANCH   3   4
HETATM    4  C4  UNL     1      -5.450   7.457  13.320  1.00  0.00     0.030 C 
BRANCH   4   5
HETATM    5  C5  UNL     1      -5.988   8.034  14.635  1.00  0.00     0.042 C 
BRANCH   5   6
HETATM    6  C6  UNL     1      -7.447   7.703  15.048  1.00  0.00     0.065 C 
HETATM    7  C7  UNL     1      -8.250   8.988  15.310  1.00  0.00     0.046 C 
HETATM    8  C8  UNL     1      -7.585   6.788  16.273  1.00  0.00     0.043 C 
HETATM    9  C9  UNL     1      -6.981   5.420  16.007  1.00  0.00     0.044 C 
HETATM   10  C10 UNL     1      -7.446   4.894  14.682  1.00  0.00    -0.021 A 
HETATM   11  C11 UNL     1      -7.343   3.522  14.407  1.00  0.00     0.046 A 
HETATM   12  C16 UNL     1      -7.959   5.759  13.705  1.00  0.00     0.082 A 
HETATM   13  C12 UNL     1      -7.772   3.030  13.178  1.00  0.00     0.066 A 
HETATM   14  C13 UNL     1      -8.295   3.882  12.213  1.00  0.00     0.046 A 
HETATM   15  C14 UNL     1      -8.393   5.256  12.467  1.00  0.00    -0.025 A 
HETATM   16  C15 UNL     1      -8.962   6.170  11.419  1.00  0.00     0.051 C 
HETATM   17  O2  UNL     1      -8.092   7.110  13.895  1.00  0.00    -0.340 OA
BRANCH  13  18
HETATM   18  O1  UNL     1      -7.697   1.703  12.880  1.00  0.00    -0.361 OA
HETATM   19  H17 UNL     1      -7.342   1.230  13.649  1.00  0.00     0.217 HD
ENDBRANCH  13  18
ENDBRANCH   5   6
ENDBRANCH   4   5
ENDBRANCH   3   4
BRANCH   2  20
HETATM   20  C17 UNL     1      -1.614   6.622  13.044  1.00  0.00     0.060 C 
BRANCH  20  21
HETATM   21  C18 UNL     1      -0.426   7.520  12.833  1.00  0.00    -0.026 C 
HETATM   22  C19 UNL     1       0.805   7.263  12.361  1.00  0.00    -0.019 C 
BRANCH  22  23
HETATM   23  C20 UNL     1       1.489   5.996  11.896  1.00  0.00     0.076 C 
HETATM   24  C21 UNL     1       0.661   5.013  11.068  1.00  0.00     0.022 C 
BRANCH  23  25
HETATM   25  C22 UNL     1       2.788   6.372  11.168  1.00  0.00     0.162 C 
HETATM   26  O3  UNL     1       3.817   6.703  11.772  1.00  0.00    -0.294 OA
BRANCH  25  27
HETATM   27  C23 UNL     1       2.829   6.238   9.634  1.00  0.00     0.188 C 
BRANCH  27  28
HETATM   28  O4  UNL     1       3.795   5.269   9.232  1.00  0.00    -0.388 OA
HETATM   29  H31 UNL     1       4.113   4.840  10.055  1.00  0.00     0.210 HD
ENDBRANCH  27  28
BRANCH  27  30
HETATM   30  C24 UNL     1       3.051   7.543   8.856  1.00  0.00     0.043 C 
BRANCH  30  31
HETATM   31  C25 UNL     1       1.957   8.051   7.888  1.00  0.00    -0.020 C 
HETATM   32  C26 UNL     1       0.596   8.268   8.546  1.00  0.00     0.009 C 
HETATM   33  C27 UNL     1       1.809   7.190   6.634  1.00  0.00     0.009 C 
ENDBRANCH  30  31
ENDBRANCH  27  30
ENDBRANCH  25  27
ENDBRANCH  23  25
ENDBRANCH  22  23
ENDBRANCH  20  21
ENDBRANCH   2  20
TORSDOF 12
ENDMDL
MODEL 5
REMARK minimizedAffinity -8.31594658
REMARK CNNscore 0.718559206
REMARK CNNaffinity 6.68427658
REMARK  12 active torsions:
REMARK  status: ('A' for Active; 'I' for Inactive)
REMARK    1  A    between atoms: C2_2  and  C17_19 
REMARK    2  A    between atoms: C3_3  and  C4_4 
REMARK    3  A    between atoms: C4_4  and  C5_5 
REMARK    4  A    between atoms: C5_5  and  C6_6 
REMARK    5  A    between atoms: C12_12  and  O1_13 
REMARK    6  A    between atoms: C17_19  and  C18_20 
REMARK    7  A    between atoms: C19_21  and  C20_22 
REMARK    8  A    between atoms: C20_22  and  C22_24 
REMARK    9  A    between atoms: C22_24  and  C23_26 
REMARK   10  A    between atoms: C23_26  and  O4_27 
REMARK   11  A    between atoms: C23_26  and  C24_28 
REMARK   12  A    between atoms: C24_28  and  C25_29 
ROOT
HETATM    1  C1  UNL     1      -1.311   9.099  13.976  1.00  0.00     0.043 C 
HETATM    2  C2  UNL     1      -2.067   8.971  12.680  1.00  0.00    -0.084 C 
HETATM    3  C3  UNL     1      -3.402   8.792  12.597  1.00  0.00    -0.024 C 
ENDROOT
BRANCH   3   4
HETATM    4  C4  UNL     1      -4.385   8.786  13.734  1.00  0.00     0.030 C 
BRANCH   4   5
HETATM    5  C5  UNL     1      -5.548   7.792  13.626  1.00  0.00     0.042 C 
BRANCH   5   6
HETATM    6  C6  UNL     1      -5.675   6.680  14.702  1.00  0.00     0.065 C 
HETATM    7  C7  UNL     1      -6.508   7.167  15.899  1.00  0.00     0.046 C 
HETATM    8  C8  UNL     1      -4.344   6.130  15.231  1.00  0.00     0.043 C 
HETATM    9  C9  UNL     1      -3.551   5.453  14.125  1.00  0.00     0.044 C 
HETATM   10  C10 UNL     1      -4.435   4.525  13.345  1.00  0.00    -0.021 A 
HETATM   11  C11 UNL     1      -3.857   3.521  12.554  1.00  0.00     0.046 A 
HETATM   12  C16 UNL     1      -5.829   4.663  13.377  1.00  0.00     0.082 A 
HETATM   13  C12 UNL     1      -4.672   2.659  11.828  1.00  0.00     0.066 A 
HETATM   14  C13 UNL     1      -6.055   2.783  11.869  1.00  0.00     0.046 A 
HETATM   15  C14 UNL     1      -6.648   3.787  12.643  1.00  0.00    -0.025 A 
HETATM   16  C15 UNL     1      -8.144   3.915  12.684  1.00  0.00     0.051 C 
HETATM   17  O2  UNL     1      -6.471   5.617  14.123  1.00  0.00    -0.340 OA
BRANCH  13  18
HETATM   18  O1  UNL     1      -4.147   1.665  11.057  1.00  0.00    -0.361 OA
HETATM   19  H17 UNL     1      -3.181   1.680  11.146  1.00  0.00     0.217 HD
ENDBRANCH  13  18
ENDBRANCH   5   6
ENDBRANCH   4   5
ENDBRANCH   3   4
BRANCH   2  20
HETATM   20  C17 UNL     1      -1.208   9.029  11.425  1.00  0.00     0.060 C 
BRANCH  20  21
HETATM   21  C18 UNL     1       0.190   8.546  11.697  1.00  0.00    -0.026 C 
HETATM   22  C19 UNL     1       1.100   7.971  10.892  1.00  0.00    -0.019 C 
BRANCH  22  23
HETATM   23  C20 UNL     1       1.077   7.557   9.437  1.00  0.00     0.076 C 
HETATM   24  C21 UNL     1       0.065   8.250   8.525  1.00  0.00     0.022 C 
BRANCH  23  25
HETATM   25  C22 UNL     1       2.499   7.667   8.868  1.00  0.00     0.162 C 
HETATM   26  O3  UNL     1       2.813   8.512   8.018  1.00  0.00    -0.294 OA
BRANCH  25  27
HETATM   27  C23 UNL     1       3.590   6.749   9.452  1.00  0.00     0.188 C 
BRANCH  27  28
HETATM   28  O4  UNL     1       3.012   5.663  10.173  1.00  0.00    -0.388 OA
HETATM   29  H31 UNL     1       2.045   5.710  10.012  1.00  0.00     0.210 HD
ENDBRANCH  27  28
BRANCH  27  30
HETATM   30  C24 UNL     1       4.648   7.442  10.322  1.00  0.00     0.043 C 
BRANCH  30  31
HETATM   31  C25 UNL     1       5.301   6.669  11.492  1.00  0.00    -0.020 C 
HETATM   32  C26 UNL     1       5.446   7.487  12.774  1.00  0.00     0.009 C 
HETATM   33  C27 UNL     1       6.634   6.021  11.123  1.00  0.00     0.009 C 
ENDBRANCH  30  31
ENDBRANCH  27  30
ENDBRANCH  25  27
ENDBRANCH  23  25
ENDBRANCH  22  23
ENDBRANCH  20  21
ENDBRANCH   2  20
TORSDOF 12
ENDMDL
MODEL 6
REMARK minimizedAffinity -8.38065338
REMARK CNNscore 0.690922618
REMARK CNNaffinity 6.85962725
REMARK  12 active torsions:
REMARK  status: ('A' for Active; 'I' for Inactive)
REMARK    1  A    between atoms: C2_2  and  C17_19 
REMARK    2  A    between atoms: C3_3  and  C4_4 
REMARK    3  A    between atoms: C4_4  and  C5_5 
REMARK    4  A    between atoms: C5_5  and  C6_6 
REMARK    5  A    between atoms: C12_12  and  O1_13 
REMARK    6  A    between atoms: C17_19  and  C18_20 
REMARK    7  A    between atoms: C19_21  and  C20_22 
REMARK    8  A    between atoms: C20_22  and  C22_24 
REMARK    9  A    between atoms: C22_24  and  C23_26 
REMARK   10  A    between atoms: C23_26  and  O4_27 
REMARK   11  A    between atoms: C23_26  and  C24_28 
REMARK   12  A    between atoms: C24_28  and  C25_29 
ROOT
HETATM    1  C1  UNL     1       0.430   8.221  13.693  1.00  0.00     0.043 C 
HETATM    2  C2  UNL     1      -0.166   8.540  12.347  1.00  0.00    -0.084 C 
HETATM    3  C3  UNL     1      -1.474   8.806  12.143  1.00  0.00    -0.024 C 
ENDROOT
BRANCH   3   4
HETATM    4  C4  UNL     1      -2.545   8.934  13.190  1.00  0.00     0.030 C 
BRANCH   4   5
HETATM    5  C5  UNL     1      -3.585   7.808  13.244  1.00  0.00     0.042 C 
BRANCH   5   6
HETATM    6  C6  UNL     1      -3.353   6.632  14.231  1.00  0.00     0.065 C 
HETATM    7  C7  UNL     1      -2.319   7.010  15.305  1.00  0.00     0.046 C 
HETATM    8  C8  UNL     1      -2.914   5.313  13.580  1.00  0.00     0.043 C 
HETATM    9  C9  UNL     1      -3.986   4.777  12.647  1.00  0.00     0.044 C 
HETATM   10  C10 UNL     1      -5.327   4.817  13.319  1.00  0.00    -0.021 A 
HETATM   11  C11 UNL     1      -6.375   4.029  12.819  1.00  0.00     0.046 A 
HETATM   12  C16 UNL     1      -5.554   5.649  14.423  1.00  0.00     0.082 A 
HETATM   13  C12 UNL     1      -7.621   4.064  13.438  1.00  0.00     0.066 A 
HETATM   14  C13 UNL     1      -7.845   4.876  14.543  1.00  0.00     0.046 A 
HETATM   15  C14 UNL     1      -6.813   5.678  15.046  1.00  0.00    -0.025 A 
HETATM   16  C15 UNL     1      -7.062   6.553  16.242  1.00  0.00     0.051 C 
HETATM   17  O2  UNL     1      -4.584   6.449  14.971  1.00  0.00    -0.340 OA
BRANCH  13  18
HETATM   18  O1  UNL     1      -8.659   3.305  12.988  1.00  0.00    -0.361 OA
HETATM   19  H17 UNL     1      -8.352   2.773  12.237  1.00  0.00     0.217 HD
ENDBRANCH  13  18
ENDBRANCH   5   6
ENDBRANCH   4   5
ENDBRANCH   3   4
BRANCH   2  20
HETATM   20  C17 UNL     1       0.816   8.519  11.186  1.00  0.00     0.060 C 
BRANCH  20  21
HETATM   21  C18 UNL     1       0.101   8.421   9.867  1.00  0.00    -0.026 C 
HETATM   22  C19 UNL     1       0.516   7.987   8.665  1.00  0.00    -0.019 C 
BRANCH  22  23
HETATM   23  C20 UNL     1       1.843   7.466   8.157  1.00  0.00     0.076 C 
HETATM   24  C21 UNL     1       2.878   8.497   7.707  1.00  0.00     0.022 C 
BRANCH  23  25
HETATM   25  C22 UNL     1       2.434   6.511   9.204  1.00  0.00     0.162 C 
HETATM   26  O3  UNL     1       1.849   5.485   9.575  1.00  0.00    -0.294 OA
BRANCH  25  27
HETATM   27  C23 UNL     1       3.851   6.801   9.736  1.00  0.00     0.188 C 
BRANCH  27  28
HETATM   28  O4  UNL     1       4.245   5.825  10.698  1.00  0.00    -0.388 OA
HETATM   29  H31 UNL     1       3.547   5.136  10.691  1.00  0.00     0.210 HD
ENDBRANCH  27  28
BRANCH  27  30
HETATM   30  C24 UNL     1       4.074   8.209  10.307  1.00  0.00     0.043 C 
BRANCH  30  31
HETATM   31  C25 UNL     1       5.226   8.454  11.309  1.00  0.00    -0.020 C 
HETATM   32  C26 UNL     1       4.759   8.771  12.729  1.00  0.00     0.009 C 
HETATM   33  C27 UNL     1       6.231   9.502  10.835  1.00  0.00     0.009 C 
ENDBRANCH  30  31
ENDBRANCH  27  30
ENDBRANCH  25  27
ENDBRANCH  23  25
ENDBRANCH  22  23
ENDBRANCH  20  21
ENDBRANCH   2  20
TORSDOF 12
ENDMDL
MODEL 7
REMARK minimizedAffinity -8.21820354
REMARK CNNscore 0.608545184
REMARK CNNaffinity 6.62673235
REMARK  12 active torsions:
REMARK  status: ('A' for Active; 'I' for Inactive)
REMARK    1  A    between atoms: C2_2  and  C17_19 
REMARK    2  A    between atoms: C3_3  and  C4_4 
REMARK    3  A    between atoms: C4_4  and  C5_5 
REMARK    4  A    between atoms: C5_5  and  C6_6 
REMARK    5  A    between atoms: C12_12  and  O1_13 
REMARK    6  A    between atoms: C17_19  and  C18_20 
REMARK    7  A    between atoms: C19_21  and  C20_22 
REMARK    8  A    between atoms: C20_22  and  C22_24 
REMARK    9  A    between atoms: C22_24  and  C23_26 
REMARK   10  A    between atoms: C23_26  and  O4_27 
REMARK   11  A    between atoms: C23_26  and  C24_28 
REMARK   12  A    between atoms: C24_28  and  C25_29 
ROOT
HETATM    1  C1  UNL     1       0.198   8.016  15.181  1.00  0.00     0.043 C 
HETATM    2  C2  UNL     1       0.314   7.983  13.680  1.00  0.00    -0.084 C 
HETATM    3  C3  UNL     1      -0.717   8.204  12.838  1.00  0.00    -0.024 C 
ENDROOT
BRANCH   3   4
HETATM    4  C4  UNL     1      -2.115   8.614  13.207  1.00  0.00     0.030 C 
BRANCH   4   5
HETATM    5  C5  UNL     1      -3.203   7.545  13.054  1.00  0.00     0.042 C 
BRANCH   5   6
HETATM    6  C6  UNL     1      -3.352   6.474  14.168  1.00  0.00     0.065 C 
HETATM    7  C7  UNL     1      -3.344   7.125  15.562  1.00  0.00     0.046 C 
HETATM    8  C8  UNL     1      -2.295   5.361  14.148  1.00  0.00     0.043 C 
HETATM    9  C9  UNL     1      -2.382   4.545  12.869  1.00  0.00     0.044 C 
HETATM   10  C10 UNL     1      -3.806   4.167  12.589  1.00  0.00    -0.021 A 
HETATM   11  C11 UNL     1      -4.080   3.110  11.707  1.00  0.00     0.046 A 
HETATM   12  C16 UNL     1      -4.866   4.871  13.175  1.00  0.00     0.082 A 
HETATM   13  C12 UNL     1      -5.400   2.756  11.443  1.00  0.00     0.066 A 
HETATM   14  C13 UNL     1      -6.453   3.442  12.035  1.00  0.00     0.046 A 
HETATM   15  C14 UNL     1      -6.197   4.507  12.907  1.00  0.00    -0.025 A 
HETATM   16  C15 UNL     1      -7.341   5.243  13.545  1.00  0.00     0.051 C 
HETATM   17  O2  UNL     1      -4.682   5.914  14.045  1.00  0.00    -0.340 OA
BRANCH  13  18
HETATM   18  O1  UNL     1      -5.704   1.729  10.602  1.00  0.00    -0.361 OA
HETATM   19  H17 UNL     1      -4.878   1.328  10.288  1.00  0.00     0.217 HD
ENDBRANCH  13  18
ENDBRANCH   5   6
ENDBRANCH   4   5
ENDBRANCH   3   4
BRANCH   2  20
HETATM   20  C17 UNL     1       1.699   7.647  13.148  1.00  0.00     0.060 C 
BRANCH  20  21
HETATM   21  C18 UNL     1       2.093   8.571  12.028  1.00  0.00    -0.026 C 
HETATM   22  C19 UNL     1       3.200   8.619  11.268  1.00  0.00    -0.019 C 
BRANCH  22  23
HETATM   23  C20 UNL     1       4.477   7.808  11.252  1.00  0.00     0.076 C 
HETATM   24  C21 UNL     1       5.140   7.513  12.597  1.00  0.00     0.022 C 
BRANCH  23  25
HETATM   25  C22 UNL     1       4.234   6.514  10.461  1.00  0.00     0.162 C 
HETATM   26  O3  UNL     1       5.081   5.615  10.379  1.00  0.00    -0.294 OA
BRANCH  25  27
HETATM   27  C23 UNL     1       2.845   6.297   9.831  1.00  0.00     0.188 C 
BRANCH  27  28
HETATM   28  O4  UNL     1       2.272   5.066  10.268  1.00  0.00    -0.388 OA
HETATM   29  H31 UNL     1       2.869   4.718  10.965  1.00  0.00     0.210 HD
ENDBRANCH  27  28
BRANCH  27  30
HETATM   30  C24 UNL     1       2.789   6.377   8.298  1.00  0.00     0.043 C 
BRANCH  30  31
HETATM   31  C25 UNL     1       2.056   7.558   7.621  1.00  0.00    -0.020 C 
HETATM   32  C26 UNL     1       0.896   8.122   8.439  1.00  0.00     0.009 C 
HETATM   33  C27 UNL     1       1.601   7.254   6.195  1.00  0.00     0.009 C 
ENDBRANCH  30  31
ENDBRANCH  27  30
ENDBRANCH  25  27
ENDBRANCH  23  25
ENDBRANCH  22  23
ENDBRANCH  20  21
ENDBRANCH   2  20
TORSDOF 12
ENDMDL
MODEL 8
REMARK minimizedAffinity -7.93745327
REMARK CNNscore 0.58905679
REMARK CNNaffinity 6.69825363
REMARK  12 active torsions:
REMARK  status: ('A' for Active; 'I' for Inactive)
REMARK    1  A    between atoms: C2_2  and  C17_19 
REMARK    2  A    between atoms: C3_3  and  C4_4 
REMARK    3  A    between atoms: C4_4  and  C5_5 
REMARK    4  A    between atoms: C5_5  and  C6_6 
REMARK    5  A    between atoms: C12_12  and  O1_13 
REMARK    6  A    between atoms: C17_19  and  C18_20 
REMARK    7  A    between atoms: C19_21  and  C20_22 
REMARK    8  A    between atoms: C20_22  and  C22_24 
REMARK    9  A    between atoms: C22_24  and  C23_26 
REMARK   10  A    between atoms: C23_26  and  O4_27 
REMARK   11  A    between atoms: C23_26  and  C24_28 
REMARK   12  A    between atoms: C24_28  and  C25_29 
ROOT
HETATM    1  C1  UNL     1      -0.570   9.737  13.817  1.00  0.00     0.043 C 
HETATM    2  C2  UNL     1      -0.970   9.082  12.521  1.00  0.00    -0.084 C 
HETATM    3  C3  UNL     1      -2.214   8.631  12.253  1.00  0.00    -0.024 C 
ENDROOT
BRANCH   3   4
HETATM    4  C4  UNL     1      -3.433   8.775  13.120  1.00  0.00     0.030 C 
BRANCH   4   5
HETATM    5  C5  UNL     1      -4.353   7.551  13.213  1.00  0.00     0.042 C 
BRANCH   5   6
HETATM    6  C6  UNL     1      -4.017   6.449  14.254  1.00  0.00     0.065 C 
HETATM    7  C7  UNL     1      -3.253   7.038  15.452  1.00  0.00     0.046 C 
HETATM    8  C8  UNL     1      -3.215   5.260  13.707  1.00  0.00     0.043 C 
HETATM    9  C9  UNL     1      -4.003   4.508  12.648  1.00  0.00     0.044 C 
HETATM   10  C10 UNL     1      -5.403   4.253  13.123  1.00  0.00    -0.021 A 
HETATM   11  C11 UNL     1      -6.174   3.259  12.503  1.00  0.00     0.046 A 
HETATM   12  C16 UNL     1      -5.959   5.012  14.162  1.00  0.00     0.082 A 
HETATM   13  C12 UNL     1      -7.473   3.020  12.939  1.00  0.00     0.066 A 
HETATM   14  C13 UNL     1      -8.022   3.759  13.979  1.00  0.00     0.046 A 
HETATM   15  C14 UNL     1      -7.271   4.764  14.601  1.00  0.00    -0.025 A 
HETATM   16  C15 UNL     1      -7.870   5.559  15.726  1.00  0.00     0.051 C 
HETATM   17  O2  UNL     1      -5.272   6.000  14.819  1.00  0.00    -0.340 OA
BRANCH  13  18
HETATM   18  O1  UNL     1      -8.248   2.055  12.368  1.00  0.00    -0.361 OA
HETATM   19  H17 UNL     1      -7.730   1.605  11.682  1.00  0.00     0.217 HD
ENDBRANCH  13  18
ENDBRANCH   5   6
ENDBRANCH   4   5
ENDBRANCH   3   4
BRANCH   2  20
HETATM   20  C17 UNL     1       0.151   8.928  11.505  1.00  0.00     0.060 C 
BRANCH  20  21
HETATM   21  C18 UNL     1       1.401   8.393  12.147  1.00  0.00    -0.026 C 
HETATM   22  C19 UNL     1       2.559   7.967  11.614  1.00  0.00    -0.019 C 
BRANCH  22  23
HETATM   23  C20 UNL     1       3.048   7.824  10.189  1.00  0.00     0.076 C 
HETATM   24  C21 UNL     1       4.455   8.332   9.874  1.00  0.00     0.022 C 
BRANCH  23  25
HETATM   25  C22 UNL     1       2.878   6.363   9.750  1.00  0.00     0.162 C 
HETATM   26  O3  UNL     1       3.381   5.917   8.710  1.00  0.00    -0.294 OA
BRANCH  25  27
HETATM   27  C23 UNL     1       2.132   5.400  10.695  1.00  0.00     0.188 C 
BRANCH  27  28
HETATM   28  O4  UNL     1       2.597   4.062  10.532  1.00  0.00    -0.388 OA
HETATM   29  H31 UNL     1       3.372   4.112   9.932  1.00  0.00     0.210 HD
ENDBRANCH  27  28
BRANCH  27  30
HETATM   30  C24 UNL     1       0.599   5.430  10.601  1.00  0.00     0.043 C 
BRANCH  30  31
HETATM   31  C25 UNL     1      -0.249   4.915  11.787  1.00  0.00    -0.020 C 
HETATM   32  C26 UNL     1       0.330   5.255  13.159  1.00  0.00     0.009 C 
HETATM   33  C27 UNL     1      -0.570   3.424  11.702  1.00  0.00     0.009 C 
ENDBRANCH  30  31
ENDBRANCH  27  30
ENDBRANCH  25  27
ENDBRANCH  23  25
ENDBRANCH  22  23
ENDBRANCH  20  21
ENDBRANCH   2  20
TORSDOF 12
ENDMDL
MODEL 9
REMARK minimizedAffinity -8.56187344
REMARK CNNscore 0.583526433
REMARK CNNaffinity 6.4095664
REMARK  12 active torsions:
REMARK  status: ('A' for Active; 'I' for Inactive)
REMARK    1  A    between atoms: C2_2  and  C17_19 
REMARK    2  A    between atoms: C3_3  and  C4_4 
REMARK    3  A    between atoms: C4_4  and  C5_5 
REMARK    4  A    between atoms: C5_5  and  C6_6 
REMARK    5  A    between atoms: C12_12  and  O1_13 
REMARK    6  A    between atoms: C17_19  and  C18_20 
REMARK    7  A    between atoms: C19_21  and  C20_22 
REMARK    8  A    between atoms: C20_22  and  C22_24 
REMARK    9  A    between atoms: C22_24  and  C23_26 
REMARK   10  A    between atoms: C23_26  and  O4_27 
REMARK   11  A    between atoms: C23_26  and  C24_28 
REMARK   12  A    between atoms: C24_28  and  C25_29 
ROOT
HETATM    1  C1  UNL     1      -1.029   5.527  11.816  1.00  0.00     0.043 C 
HETATM    2  C2  UNL     1      -0.377   5.853  13.135  1.00  0.00    -0.084 C 
HETATM    3  C3  UNL     1      -0.989   5.729  14.331  1.00  0.00    -0.024 C 
ENDROOT
BRANCH   3   4
HETATM    4  C4  UNL     1      -2.358   5.167  14.593  1.00  0.00     0.030 C 
BRANCH   4   5
HETATM    5  C5  UNL     1      -3.469   6.183  14.886  1.00  0.00     0.042 C 
BRANCH   5   6
HETATM    6  C6  UNL     1      -4.285   6.754  13.695  1.00  0.00     0.065 C 
HETATM    7  C7  UNL     1      -3.554   7.944  13.049  1.00  0.00     0.046 C 
HETATM    8  C8  UNL     1      -5.715   7.194  14.037  1.00  0.00     0.043 C 
HETATM    9  C9  UNL     1      -6.556   6.016  14.499  1.00  0.00     0.044 C 
HETATM   10  C10 UNL     1      -6.381   4.855  13.565  1.00  0.00    -0.021 A 
HETATM   11  C11 UNL     1      -7.331   3.822  13.560  1.00  0.00     0.046 A 
HETATM   12  C16 UNL     1      -5.269   4.775  12.717  1.00  0.00     0.082 A 
HETATM   13  C12 UNL     1      -7.173   2.742  12.697  1.00  0.00     0.066 A 
HETATM   14  C13 UNL     1      -6.079   2.668  11.843  1.00  0.00     0.046 A 
HETATM   15  C14 UNL     1      -5.115   3.683  11.845  1.00  0.00    -0.025 A 
HETATM   16  C15 UNL     1      -3.936   3.596  10.918  1.00  0.00     0.051 C 
HETATM   17  O2  UNL     1      -4.297   5.740  12.662  1.00  0.00    -0.340 OA
BRANCH  13  18
HETATM   18  O1  UNL     1      -8.080   1.727  12.656  1.00  0.00    -0.361 OA
HETATM   19  H17 UNL     1      -8.797   1.925  13.278  1.00  0.00     0.217 HD
ENDBRANCH  13  18
ENDBRANCH   5   6
ENDBRANCH   4   5
ENDBRANCH   3   4
BRANCH   2  20
HETATM   20  C17 UNL     1       1.049   6.373  13.038  1.00  0.00     0.060 C 
BRANCH  20  21
HETATM   21  C18 UNL     1       1.131   7.581  12.146  1.00  0.00    -0.026 C 
HETATM   22  C19 UNL     1       1.296   7.691  10.817  1.00  0.00    -0.019 C 
BRANCH  22  23
HETATM   23  C20 UNL     1       1.495   6.676   9.714  1.00  0.00     0.076 C 
HETATM   24  C21 UNL     1       1.883   7.203   8.333  1.00  0.00     0.022 C 
BRANCH  23  25
HETATM   25  C22 UNL     1       2.488   5.608  10.195  1.00  0.00     0.162 C 
HETATM   26  O3  UNL     1       2.124   4.503  10.619  1.00  0.00    -0.294 OA
BRANCH  25  27
HETATM   27  C23 UNL     1       3.995   5.897  10.053  1.00  0.00     0.188 C 
BRANCH  27  28
HETATM   28  O4  UNL     1       4.737   4.687   9.919  1.00  0.00    -0.388 OA
HETATM   29  H31 UNL     1       4.076   3.967   9.833  1.00  0.00     0.210 HD
ENDBRANCH  27  28
BRANCH  27  30
HETATM   30  C24 UNL     1       4.615   6.765  11.158  1.00  0.00     0.043 C 
BRANCH  30  31
HETATM   31  C25 UNL     1       5.968   7.470  10.907  1.00  0.00    -0.020 C 
HETATM   32  C26 UNL     1       7.062   7.090  11.903  1.00  0.00     0.009 C 
HETATM   33  C27 UNL     1       5.851   8.989  10.803  1.00  0.00     0.009 C 
ENDBRANCH  30  31
ENDBRANCH  27  30
ENDBRANCH  25  27
ENDBRANCH  23  25
ENDBRANCH  22  23
ENDBRANCH  20  21
ENDBRANCH   2  20
TORSDOF 12
ENDMDL
