MODEL 1
REMARK minimizedAffinity -6.36252594
REMARK CNNscore 0.803452075
REMARK CNNaffinity 7.13842964
REMARK  8 active torsions:
REMARK  status: ('A' for Active; 'I' for Inactive)
REMARK    1  A    between atoms: C12_14  and  C13_15 
REMARK    2  A    between atoms: C13_15  and  C15_17 
REMARK    3  A    between atoms: C15_17  and  C16_18 
REMARK    4  A    between atoms: C16_18  and  C17_19 
REMARK    5  A    between atoms: C26_28  and  C27_29 
REMARK    6  A    between atoms: C27_29  and  C28_30 
REMARK    7  A    between atoms: C28_30  and  C29_31 
REMARK    8  A    between atoms: C29_31  and  O4_33 
ROOT
HETATM    1  C1  UNL     1       6.367  12.406  23.003  1.00  0.00     0.025 C 
HETATM    2  C2  UNL     1       6.229  12.425  21.673  1.00  0.00     0.015 C 
HETATM    3  C3  UNL     1       7.060  13.323  20.834  1.00  0.00     0.289 C 
HETATM    4  O1  UNL     1       8.038  13.953  21.190  1.00  0.00    -0.260 OA
HETATM    5  O2  UNL     1       6.544  13.306  19.576  1.00  0.00    -0.311 OA
HETATM    6  C4  UNL     1       5.286  12.606  19.565  1.00  0.00     0.142 C 
HETATM    7  C5  UNL     1       4.164  13.638  19.587  1.00  0.00     0.039 C 
HETATM    8  C6  UNL     1       2.742  13.074  19.732  1.00  0.00     0.006 C 
HETATM    9  C7  UNL     1       2.628  11.931  20.771  1.00  0.00    -0.027 A 
HETATM   10  C8  UNL     1       1.213  11.325  20.874  1.00  0.00     0.011 C 
HETATM   11  C9  UNL     1       0.509  11.058  19.536  1.00  0.00     0.011 C 
HETATM   12  C10 UNL     1       0.531  12.306  18.641  1.00  0.00    -0.032 C 
HETATM   13  C11 UNL     1      -0.279  13.447  19.336  1.00  0.00     0.016 C 
HETATM   14  C12 UNL     1      -0.005  12.151  17.181  1.00  0.00    -0.002 C 
HETATM   15  C21 UNL     1       0.759  13.286  16.429  1.00  0.00     0.006 C 
HETATM   16  C22 UNL     1       1.922  13.751  17.327  1.00  0.00     0.011 C 
HETATM   17  C23 UNL     1       2.056  12.651  18.390  1.00  0.00    -0.032 C 
HETATM   18  C24 UNL     1       2.859  11.487  17.728  1.00  0.00     0.016 C 
HETATM   19  C25 UNL     1       3.193  12.148  22.155  1.00  0.00     0.022 A 
HETATM   20  C26 UNL     1       3.935  11.198  21.239  1.00  0.00    -0.021 A 
HETATM   21  C31 UNL     1       5.318  11.667  20.760  1.00  0.00     0.063 C 
ENDROOT
BRANCH  14  22
HETATM   22  C13 UNL     1      -1.540  12.190  16.891  1.00  0.00    -0.014 C 
HETATM   23  C14 UNL     1      -2.075  13.622  16.799  1.00  0.00     0.010 C 
BRANCH  22  24
HETATM   24  C15 UNL     1      -2.307  11.402  17.993  1.00  0.00     0.008 C 
BRANCH  24  25
HETATM   25  C16 UNL     1      -3.257  10.295  17.515  1.00  0.00     0.028 C 
BRANCH  25  26
HETATM   26  C17 UNL     1      -3.222  10.064  16.029  1.00  0.00    -0.025 C 
HETATM   27  C18 UNL     1      -2.921   8.919  15.385  1.00  0.00    -0.091 C 
HETATM   28  C19 UNL     1      -2.515   7.637  16.059  1.00  0.00     0.042 C 
HETATM   29  C20 UNL     1      -2.952   8.853  13.879  1.00  0.00     0.042 C 
ENDBRANCH  25  26
ENDBRANCH  24  25
ENDBRANCH  22  24
ENDBRANCH  14  22
BRANCH  20  30
HETATM   30  C27 UNL     1       3.857   9.677  21.415  1.00  0.00     0.021 C 
BRANCH  30  31
HETATM   31  C28 UNL     1       3.713   9.202  22.857  1.00  0.00     0.112 C 
BRANCH  31  32
HETATM   32  C29 UNL     1       2.417   8.470  23.095  1.00  0.00     0.258 C 
HETATM   33  O3  UNL     1       1.825   7.821  22.244  1.00  0.00    -0.265 OA
BRANCH  32  34
HETATM   34  O4  UNL     1       1.999   8.640  24.381  1.00  0.00    -0.326 OA
HETATM   35  C30 UNL     1       2.446   9.856  24.980  1.00  0.00     0.213 C 
ENDBRANCH  32  34
ENDBRANCH  31  32
ENDBRANCH  30  31
ENDBRANCH  20  30
TORSDOF 8
ENDMDL
MODEL 2
REMARK minimizedAffinity -8.334939
REMARK CNNscore 0.472714037
REMARK CNNaffinity 7.13417864
REMARK  8 active torsions:
REMARK  status: ('A' for Active; 'I' for Inactive)
REMARK    1  A    between atoms: C12_14  and  C13_15 
REMARK    2  A    between atoms: C13_15  and  C15_17 
REMARK    3  A    between atoms: C15_17  and  C16_18 
REMARK    4  A    between atoms: C16_18  and  C17_19 
REMARK    5  A    between atoms: C26_28  and  C27_29 
REMARK    6  A    between atoms: C27_29  and  C28_30 
REMARK    7  A    between atoms: C28_30  and  C29_31 
REMARK    8  A    between atoms: C29_31  and  O4_33 
ROOT
HETATM    1  C1  UNL     1       4.433   7.143  11.867  1.00  0.00     0.025 C 
HETATM    2  C2  UNL     1       3.502   8.070  12.123  1.00  0.00     0.015 C 
HETATM    3  C3  UNL     1       3.812   9.244  12.974  1.00  0.00     0.289 C 
HETATM    4  O1  UNL     1       4.913   9.603  13.348  1.00  0.00    -0.260 OA
HETATM    5  O2  UNL     1       2.639   9.872  13.253  1.00  0.00    -0.311 OA
HETATM    6  C4  UNL     1       1.529   9.069  12.809  1.00  0.00     0.142 C 
HETATM    7  C5  UNL     1       0.964   8.325  14.013  1.00  0.00     0.039 C 
HETATM    8  C6  UNL     1      -0.137   7.298  13.706  1.00  0.00     0.006 C 
HETATM    9  C7  UNL     1       0.150   6.434  12.453  1.00  0.00    -0.027 A 
HETATM   10  C8  UNL     1      -0.982   5.442  12.110  1.00  0.00     0.011 C 
HETATM   11  C9  UNL     1      -2.405   6.010  12.195  1.00  0.00     0.011 C 
HETATM   12  C10 UNL     1      -2.645   6.704  13.544  1.00  0.00    -0.032 C 
HETATM   13  C11 UNL     1      -2.531   5.648  14.689  1.00  0.00     0.016 C 
HETATM   14  C12 UNL     1      -3.993   7.473  13.727  1.00  0.00    -0.002 C 
HETATM   15  C21 UNL     1      -3.621   8.538  14.805  1.00  0.00     0.006 C 
HETATM   16  C22 UNL     1      -2.084   8.602  14.899  1.00  0.00     0.011 C 
HETATM   17  C23 UNL     1      -1.588   7.880  13.638  1.00  0.00    -0.032 C 
HETATM   18  C24 UNL     1      -1.692   8.907  12.466  1.00  0.00     0.016 C 
HETATM   19  C25 UNL     1       1.488   5.741  12.338  1.00  0.00     0.022 A 
HETATM   20  C26 UNL     1       1.232   6.922  11.427  1.00  0.00    -0.021 A 
HETATM   21  C31 UNL     1       2.071   8.180  11.702  1.00  0.00     0.063 C 
ENDROOT
BRANCH  14  22
HETATM   22  C13 UNL     1      -5.302   6.703  14.094  1.00  0.00    -0.014 C 
HETATM   23  C14 UNL     1      -5.342   6.303  15.572  1.00  0.00     0.010 C 
BRANCH  22  24
HETATM   24  C15 UNL     1      -5.444   5.441  13.194  1.00  0.00     0.008 C 
BRANCH  24  25
HETATM   25  C16 UNL     1      -6.708   4.592  13.390  1.00  0.00     0.028 C 
BRANCH  25  26
HETATM   26  C17 UNL     1      -7.926   5.393  13.763  1.00  0.00    -0.025 C 
HETATM   27  C18 UNL     1      -8.857   5.903  12.933  1.00  0.00    -0.091 C 
HETATM   28  C19 UNL     1      -8.821   5.794  11.434  1.00  0.00     0.042 C 
HETATM   29  C20 UNL     1     -10.034   6.671  13.477  1.00  0.00     0.042 C 
ENDBRANCH  25  26
ENDBRANCH  24  25
ENDBRANCH  22  24
ENDBRANCH  14  22
BRANCH  20  30
HETATM   30  C27 UNL     1       0.914   6.741   9.937  1.00  0.00     0.021 C 
BRANCH  30  31
HETATM   31  C28 UNL     1       1.097   7.991   9.083  1.00  0.00     0.112 C 
BRANCH  31  32
HETATM   32  C29 UNL     1       2.266   7.877   8.139  1.00  0.00     0.258 C 
HETATM   33  O3  UNL     1       2.842   8.830   7.636  1.00  0.00    -0.265 OA
BRANCH  32  34
HETATM   34  O4  UNL     1       2.580   6.568   7.920  1.00  0.00    -0.326 OA
HETATM   35  C30 UNL     1       2.309   6.122   6.592  1.00  0.00     0.213 C 
ENDBRANCH  32  34
ENDBRANCH  31  32
ENDBRANCH  30  31
ENDBRANCH  20  30
TORSDOF 8
ENDMDL
MODEL 3
REMARK minimizedAffinity -6.91989708
REMARK CNNscore 0.400709629
REMARK CNNaffinity 6.44855881
REMARK  8 active torsions:
REMARK  status: ('A' for Active; 'I' for Inactive)
REMARK    1  A    between atoms: C12_14  and  C13_15 
REMARK    2  A    between atoms: C13_15  and  C15_17 
REMARK    3  A    between atoms: C15_17  and  C16_18 
REMARK    4  A    between atoms: C16_18  and  C17_19 
REMARK    5  A    between atoms: C26_28  and  C27_29 
REMARK    6  A    between atoms: C27_29  and  C28_30 
REMARK    7  A    between atoms: C28_30  and  C29_31 
REMARK    8  A    between atoms: C29_31  and  O4_33 
ROOT
HETATM    1  C1  UNL     1       0.785  14.937  19.514  1.00  0.00     0.025 C 
HETATM    2  C2  UNL     1       1.104  14.199  18.445  1.00  0.00     0.015 C 
HETATM    3  C3  UNL     1       1.694  14.824  17.237  1.00  0.00     0.289 C 
HETATM    4  O1  UNL     1       2.125  15.957  17.140  1.00  0.00    -0.260 OA
HETATM    5  O2  UNL     1       1.687  13.893  16.246  1.00  0.00    -0.311 OA
HETATM    6  C4  UNL     1       0.936  12.736  16.658  1.00  0.00     0.142 C 
HETATM    7  C5  UNL     1      -0.456  12.825  16.045  1.00  0.00     0.039 C 
HETATM    8  C6  UNL     1      -1.455  11.749  16.497  1.00  0.00     0.006 C 
HETATM    9  C7  UNL     1      -1.405  11.452  18.017  1.00  0.00    -0.027 A 
HETATM   10  C8  UNL     1      -2.366  10.330  18.462  1.00  0.00     0.011 C 
HETATM   11  C9  UNL     1      -2.397   9.089  17.559  1.00  0.00     0.011 C 
HETATM   12  C10 UNL     1      -2.617   9.479  16.090  1.00  0.00    -0.032 C 
HETATM   13  C11 UNL     1      -4.019  10.154  15.946  1.00  0.00     0.016 C 
HETATM   14  C12 UNL     1      -2.515   8.342  15.021  1.00  0.00    -0.002 C 
HETATM   15  C21 UNL     1      -2.111   9.133  13.738  1.00  0.00     0.006 C 
HETATM   16  C22 UNL     1      -1.635  10.533  14.173  1.00  0.00     0.011 C 
HETATM   17  C23 UNL     1      -1.403  10.412  15.686  1.00  0.00    -0.032 C 
HETATM   18  C24 UNL     1      -0.008   9.734  15.870  1.00  0.00     0.016 C 
HETATM   19  C25 UNL     1      -1.486  12.607  18.986  1.00  0.00     0.022 A 
HETATM   20  C26 UNL     1      -0.149  11.911  18.838  1.00  0.00    -0.021 A 
HETATM   21  C31 UNL     1       0.969  12.733  18.177  1.00  0.00     0.063 C 
ENDROOT
BRANCH  14  22
HETATM   22  C13 UNL     1      -3.723   7.386  14.763  1.00  0.00    -0.014 C 
HETATM   23  C14 UNL     1      -3.802   6.261  15.799  1.00  0.00     0.010 C 
BRANCH  22  24
HETATM   24  C15 UNL     1      -3.627   6.787  13.329  1.00  0.00     0.008 C 
BRANCH  24  25
HETATM   25  C16 UNL     1      -4.545   5.597  13.015  1.00  0.00     0.028 C 
BRANCH  25  26
HETATM   26  C17 UNL     1      -6.011   5.917  13.118  1.00  0.00    -0.025 C 
HETATM   27  C18 UNL     1      -7.033   5.049  13.250  1.00  0.00    -0.091 C 
HETATM   28  C19 UNL     1      -6.887   3.552  13.277  1.00  0.00     0.042 C 
HETATM   29  C20 UNL     1      -8.453   5.542  13.360  1.00  0.00     0.042 C 
ENDBRANCH  25  26
ENDBRANCH  24  25
ENDBRANCH  22  24
ENDBRANCH  14  22
BRANCH  20  30
HETATM   30  C27 UNL     1       0.382  10.943  19.902  1.00  0.00     0.021 C 
BRANCH  30  31
HETATM   31  C28 UNL     1       1.760  11.287  20.456  1.00  0.00     0.112 C 
BRANCH  31  32
HETATM   32  C29 UNL     1       2.497  10.073  20.960  1.00  0.00     0.258 C 
HETATM   33  O3  UNL     1       3.700   9.894  20.833  1.00  0.00    -0.265 OA
BRANCH  32  34
HETATM   34  O4  UNL     1       1.637   9.206  21.566  1.00  0.00    -0.326 OA
HETATM   35  C30 UNL     1       2.249   8.380  22.556  1.00  0.00     0.213 C 
ENDBRANCH  32  34
ENDBRANCH  31  32
ENDBRANCH  30  31
ENDBRANCH  20  30
TORSDOF 8
ENDMDL
MODEL 4
REMARK minimizedAffinity -8.25047684
REMARK CNNscore 0.350200087
REMARK CNNaffinity 6.84730387
REMARK  8 active torsions:
REMARK  status: ('A' for Active; 'I' for Inactive)
REMARK    1  A    between atoms: C12_14  and  C13_15 
REMARK    2  A    between atoms: C13_15  and  C15_17 
REMARK    3  A    between atoms: C15_17  and  C16_18 
REMARK    4  A    between atoms: C16_18  and  C17_19 
REMARK    5  A    between atoms: C26_28  and  C27_29 
REMARK    6  A    between atoms: C27_29  and  C28_30 
REMARK    7  A    between atoms: C28_30  and  C29_31 
REMARK    8  A    between atoms: C29_31  and  O4_33 
ROOT
HETATM    1  C1  UNL     1      -7.492   4.429  14.609  1.00  0.00     0.025 C 
HETATM    2  C2  UNL     1      -6.750   4.201  13.519  1.00  0.00     0.015 C 
HETATM    3  C3  UNL     1      -6.828   2.905  12.803  1.00  0.00     0.289 C 
HETATM    4  O1  UNL     1      -7.657   2.030  12.969  1.00  0.00    -0.260 OA
HETATM    5  O2  UNL     1      -5.811   2.870  11.902  1.00  0.00    -0.311 OA
HETATM    6  C4  UNL     1      -4.924   3.985  12.112  1.00  0.00     0.142 C 
HETATM    7  C5  UNL     1      -3.717   3.494  12.902  1.00  0.00     0.039 C 
HETATM    8  C6  UNL     1      -2.728   4.581  13.354  1.00  0.00     0.006 C 
HETATM    9  C7  UNL     1      -3.414   5.861  13.894  1.00  0.00    -0.027 A 
HETATM   10  C8  UNL     1      -2.423   6.975  14.293  1.00  0.00     0.011 C 
HETATM   11  C9  UNL     1      -1.274   7.221  13.305  1.00  0.00     0.011 C 
HETATM   12  C10 UNL     1      -0.550   5.911  12.960  1.00  0.00    -0.032 C 
HETATM   13  C11 UNL     1       0.107   5.335  14.254  1.00  0.00     0.016 C 
HETATM   14  C12 UNL     1       0.543   5.968  11.844  1.00  0.00    -0.002 C 
HETATM   15  C21 UNL     1       0.543   4.501  11.309  1.00  0.00     0.006 C 
HETATM   16  C22 UNL     1      -0.738   3.811  11.818  1.00  0.00     0.011 C 
HETATM   17  C23 UNL     1      -1.633   4.960  12.303  1.00  0.00    -0.032 C 
HETATM   18  C24 UNL     1      -2.307   5.567  11.031  1.00  0.00     0.016 C 
HETATM   19  C25 UNL     1      -4.480   5.722  14.956  1.00  0.00     0.022 A 
HETATM   20  C26 UNL     1      -4.927   6.108  13.562  1.00  0.00    -0.021 A 
HETATM   21  C31 UNL     1      -5.751   5.056  12.803  1.00  0.00     0.063 C 
ENDROOT
BRANCH  14  22
HETATM   22  C13 UNL     1       1.986   6.469  12.172  1.00  0.00    -0.014 C 
HETATM   23  C14 UNL     1       2.027   7.977  12.435  1.00  0.00     0.010 C 
BRANCH  22  24
HETATM   24  C15 UNL     1       2.952   6.102  11.009  1.00  0.00     0.008 C 
BRANCH  24  25
HETATM   25  C16 UNL     1       3.372   7.245  10.074  1.00  0.00     0.028 C 
BRANCH  25  26
HETATM   26  C17 UNL     1       3.030   7.005   8.629  1.00  0.00    -0.025 C 
HETATM   27  C18 UNL     1       1.948   7.446   7.958  1.00  0.00    -0.091 C 
HETATM   28  C19 UNL     1       0.832   8.250   8.567  1.00  0.00     0.042 C 
HETATM   29  C20 UNL     1       1.766   7.129   6.496  1.00  0.00     0.042 C 
ENDBRANCH  25  26
ENDBRANCH  24  25
ENDBRANCH  22  24
ENDBRANCH  14  22
BRANCH  20  30
HETATM   30  C27 UNL     1      -5.341   7.543  13.213  1.00  0.00     0.021 C 
BRANCH  30  31
HETATM   31  C28 UNL     1      -5.845   8.372  14.389  1.00  0.00     0.112 C 
BRANCH  31  32
HETATM   32  C29 UNL     1      -7.185   7.903  14.892  1.00  0.00     0.258 C 
HETATM   33  O3  UNL     1      -8.160   7.708  14.179  1.00  0.00    -0.265 OA
BRANCH  32  34
HETATM   34  O4  UNL     1      -7.160   7.736  16.244  1.00  0.00    -0.326 OA
HETATM   35  C30 UNL     1      -8.404   7.309  16.799  1.00  0.00     0.213 C 
ENDBRANCH  32  34
ENDBRANCH  31  32
ENDBRANCH  30  31
ENDBRANCH  20  30
TORSDOF 8
ENDMDL
MODEL 5
REMARK minimizedAffinity -7.37668753
REMARK CNNscore 0.218088672
REMARK CNNaffinity 6.52549505
REMARK  8 active torsions:
REMARK  status: ('A' for Active; 'I' for Inactive)
REMARK    1  A    between atoms: C12_14  and  C13_15 
REMARK    2  A    between atoms: C13_15  and  C15_17 
REMARK    3  A    between atoms: C15_17  and  C16_18 
REMARK    4  A    between atoms: C16_18  and  C17_19 
REMARK    5  A    between atoms: C26_28  and  C27_29 
REMARK    6  A    between atoms: C27_29  and  C28_30 
REMARK    7  A    between atoms: C28_30  and  C29_31 
REMARK    8  A    between atoms: C29_31  and  O4_33 
ROOT
HETATM    1  C1  UNL     1      -7.606   6.108  12.893  1.00  0.00     0.025 C 
HETATM    2  C2  UNL     1      -7.005   6.183  14.086  1.00  0.00     0.015 C 
HETATM    3  C3  UNL     1      -7.801   6.234  15.337  1.00  0.00     0.289 C 
HETATM    4  O1  UNL     1      -8.994   6.023  15.450  1.00  0.00    -0.260 OA
HETATM    5  O2  UNL     1      -6.953   6.545  16.353  1.00  0.00    -0.311 OA
HETATM    6  C4  UNL     1      -5.663   6.909  15.827  1.00  0.00     0.142 C 
HETATM    7  C5  UNL     1      -5.566   8.430  15.806  1.00  0.00     0.039 C 
HETATM    8  C6  UNL     1      -4.312   9.009  15.134  1.00  0.00     0.006 C 
HETATM    9  C7  UNL     1      -3.922   8.290  13.818  1.00  0.00    -0.027 A 
HETATM   10  C8  UNL     1      -2.629   8.834  13.173  1.00  0.00     0.011 C 
HETATM   11  C9  UNL     1      -1.466   9.092  14.141  1.00  0.00     0.011 C 
HETATM   12  C10 UNL     1      -1.916   9.954  15.330  1.00  0.00    -0.032 C 
HETATM   13  C11 UNL     1      -2.361  11.356  14.804  1.00  0.00     0.016 C 
HETATM   14  C12 UNL     1      -0.889  10.174  16.487  1.00  0.00    -0.002 C 
HETATM   15  C21 UNL     1      -1.822  10.445  17.708  1.00  0.00     0.006 C 
HETATM   16  C22 UNL     1      -3.247  10.002  17.324  1.00  0.00     0.011 C 
HETATM   17  C23 UNL     1      -3.061   9.143  16.065  1.00  0.00    -0.032 C 
HETATM   18  C24 UNL     1      -2.610   7.729  16.552  1.00  0.00     0.016 C 
HETATM   19  C25 UNL     1      -4.978   8.094  12.757  1.00  0.00     0.022 A 
HETATM   20  C26 UNL     1      -4.522   6.871  13.524  1.00  0.00    -0.021 A 
HETATM   21  C31 UNL     1      -5.559   6.241  14.467  1.00  0.00     0.063 C 
ENDROOT
BRANCH  14  22
HETATM   22  C13 UNL     1       0.232  11.255  16.358  1.00  0.00    -0.014 C 
HETATM   23  C14 UNL     1       1.040  11.097  15.067  1.00  0.00     0.010 C 
BRANCH  22  24
HETATM   24  C15 UNL     1       1.177  11.189  17.592  1.00  0.00     0.008 C 
BRANCH  24  25
HETATM   25  C16 UNL     1       0.532  11.409  18.968  1.00  0.00     0.028 C 
BRANCH  25  26
HETATM   26  C17 UNL     1       1.258  10.726  20.095  1.00  0.00    -0.025 C 
HETATM   27  C18 UNL     1       2.006  11.301  21.057  1.00  0.00    -0.091 C 
HETATM   28  C19 UNL     1       2.290  12.775  21.154  1.00  0.00     0.042 C 
HETATM   29  C20 UNL     1       2.652  10.466  22.132  1.00  0.00     0.042 C 
ENDBRANCH  25  26
ENDBRANCH  24  25
ENDBRANCH  22  24
ENDBRANCH  14  22
BRANCH  20  30
HETATM   30  C27 UNL     1      -3.582   5.830  12.903  1.00  0.00     0.021 C 
BRANCH  30  31
HETATM   31  C28 UNL     1      -4.057   4.385  13.014  1.00  0.00     0.112 C 
BRANCH  31  32
HETATM   32  C29 UNL     1      -4.407   3.790  11.675  1.00  0.00     0.258 C 
HETATM   33  O3  UNL     1      -3.655   3.772  10.710  1.00  0.00    -0.265 OA
BRANCH  32  34
HETATM   34  O4  UNL     1      -5.673   3.286  11.689  1.00  0.00    -0.326 OA
HETATM   35  C30 UNL     1      -5.751   1.903  11.345  1.00  0.00     0.213 C 
ENDBRANCH  32  34
ENDBRANCH  31  32
ENDBRANCH  30  31
ENDBRANCH  20  30
TORSDOF 8
ENDMDL
MODEL 6
REMARK minimizedAffinity -8.60364914
REMARK CNNscore 0.211038962
REMARK CNNaffinity 6.8440094
REMARK  8 active torsions:
REMARK  status: ('A' for Active; 'I' for Inactive)
REMARK    1  A    between atoms: C12_14  and  C13_15 
REMARK    2  A    between atoms: C13_15  and  C15_17 
REMARK    3  A    between atoms: C15_17  and  C16_18 
REMARK    4  A    between atoms: C16_18  and  C17_19 
REMARK    5  A    between atoms: C26_28  and  C27_29 
REMARK    6  A    between atoms: C27_29  and  C28_30 
REMARK    7  A    between atoms: C28_30  and  C29_31 
REMARK    8  A    between atoms: C29_31  and  O4_33 
ROOT
HETATM    1  C1  UNL     1       2.178   7.512  14.174  1.00  0.00     0.025 C 
HETATM    2  C2  UNL     1       1.139   8.325  13.954  1.00  0.00     0.015 C 
HETATM    3  C3  UNL     1       1.131   9.710  14.483  1.00  0.00     0.289 C 
HETATM    4  O1  UNL     1       2.073  10.311  14.965  1.00  0.00    -0.260 OA
HETATM    5  O2  UNL     1      -0.124  10.208  14.317  1.00  0.00    -0.311 OA
HETATM    6  C4  UNL     1      -1.019   9.163  13.893  1.00  0.00     0.142 C 
HETATM    7  C5  UNL     1      -1.797   8.676  15.109  1.00  0.00     0.039 C 
HETATM    8  C6  UNL     1      -2.699   7.454  14.879  1.00  0.00     0.006 C 
HETATM    9  C7  UNL     1      -2.042   6.350  14.012  1.00  0.00    -0.027 A 
HETATM   10  C8  UNL     1      -2.968   5.148  13.732  1.00  0.00     0.011 C 
HETATM   11  C9  UNL     1      -4.412   5.501  13.348  1.00  0.00     0.011 C 
HETATM   12  C10 UNL     1      -5.032   6.474  14.362  1.00  0.00    -0.032 C 
HETATM   13  C11 UNL     1      -5.114   5.774  15.757  1.00  0.00     0.016 C 
HETATM   14  C12 UNL     1      -6.444   7.056  14.028  1.00  0.00    -0.002 C 
HETATM   15  C21 UNL     1      -6.438   8.404  14.815  1.00  0.00     0.006 C 
HETATM   16  C22 UNL     1      -4.982   8.716  15.211  1.00  0.00     0.011 C 
HETATM   17  C23 UNL     1      -4.133   7.777  14.342  1.00  0.00    -0.032 C 
HETATM   18  C24 UNL     1      -4.032   8.444  12.932  1.00  0.00     0.016 C 
HETATM   19  C25 UNL     1      -0.664   5.857  14.386  1.00  0.00     0.022 A 
HETATM   20  C26 UNL     1      -0.787   6.715  13.144  1.00  0.00    -0.021 A 
HETATM   21  C31 UNL     1      -0.150   8.111  13.224  1.00  0.00     0.063 C 
ENDROOT
BRANCH  14  22
HETATM   22  C13 UNL     1      -7.733   6.220  14.312  1.00  0.00    -0.014 C 
HETATM   23  C14 UNL     1      -8.308   6.498  15.704  1.00  0.00     0.010 C 
BRANCH  22  24
HETATM   24  C15 UNL     1      -7.426   4.702  14.153  1.00  0.00     0.008 C 
BRANCH  24  25
HETATM   25  C16 UNL     1      -8.088   3.985  12.968  1.00  0.00     0.028 C 
BRANCH  25  26
HETATM   26  C17 UNL     1      -7.455   2.664  12.627  1.00  0.00    -0.025 C 
HETATM   27  C18 UNL     1      -6.405   2.444  11.811  1.00  0.00    -0.091 C 
HETATM   28  C19 UNL     1      -5.682   3.514  11.039  1.00  0.00     0.042 C 
HETATM   29  C20 UNL     1      -5.878   1.050  11.592  1.00  0.00     0.042 C 
ENDBRANCH  25  26
ENDBRANCH  24  25
ENDBRANCH  22  24
ENDBRANCH  14  22
BRANCH  20  30
HETATM   30  C27 UNL     1      -0.714   6.114  11.735  1.00  0.00     0.021 C 
BRANCH  30  31
HETATM   31  C28 UNL     1      -1.489   4.814  11.548  1.00  0.00     0.112 C 
BRANCH  31  32
HETATM   32  C29 UNL     1      -0.597   3.663  11.163  1.00  0.00     0.258 C 
HETATM   33  O3  UNL     1       0.614   3.640  11.336  1.00  0.00    -0.265 OA
BRANCH  32  34
HETATM   34  O4  UNL     1      -1.324   2.662  10.590  1.00  0.00    -0.326 OA
HETATM   35  C30 UNL     1      -0.831   1.353  10.874  1.00  0.00     0.213 C 
ENDBRANCH  32  34
ENDBRANCH  31  32
ENDBRANCH  30  31
ENDBRANCH  20  30
TORSDOF 8
ENDMDL
MODEL 7
REMARK minimizedAffinity -8.67930222
REMARK CNNscore 0.193929091
REMARK CNNaffinity 6.68046188
REMARK  8 active torsions:
REMARK  status: ('A' for Active; 'I' for Inactive)
REMARK    1  A    between atoms: C12_14  and  C13_15 
REMARK    2  A    between atoms: C13_15  and  C15_17 
REMARK    3  A    between atoms: C15_17  and  C16_18 
REMARK    4  A    between atoms: C16_18  and  C17_19 
REMARK    5  A    between atoms: C26_28  and  C27_29 
REMARK    6  A    between atoms: C27_29  and  C28_30 
REMARK    7  A    between atoms: C28_30  and  C29_31 
REMARK    8  A    between atoms: C29_31  and  O4_33 
ROOT
HETATM    1  C1  UNL     1       3.668   7.531  13.066  1.00  0.00     0.025 C 
HETATM    2  C2  UNL     1       2.666   8.409  13.194  1.00  0.00     0.015 C 
HETATM    3  C3  UNL     1       2.811   9.611  14.050  1.00  0.00     0.289 C 
HETATM    4  O1  UNL     1       3.841  10.035  14.541  1.00  0.00    -0.260 OA
HETATM    5  O2  UNL     1       1.582  10.177  14.179  1.00  0.00    -0.311 OA
HETATM    6  C4  UNL     1       0.576   9.308  13.626  1.00  0.00     0.142 C 
HETATM    7  C5  UNL     1      -0.086   8.551  14.772  1.00  0.00     0.039 C 
HETATM    8  C6  UNL     1      -1.087   7.461  14.361  1.00  0.00     0.006 C 
HETATM    9  C7  UNL     1      -0.610   6.595  13.167  1.00  0.00    -0.027 A 
HETATM   10  C8  UNL     1      -1.641   5.538  12.717  1.00  0.00     0.011 C 
HETATM   11  C9  UNL     1      -3.092   6.028  12.625  1.00  0.00     0.011 C 
HETATM   12  C10 UNL     1      -3.524   6.727  13.922  1.00  0.00    -0.032 C 
HETATM   13  C11 UNL     1      -3.488   5.695  15.095  1.00  0.00     0.016 C 
HETATM   14  C12 UNL     1      -4.924   7.424  13.932  1.00  0.00    -0.002 C 
HETATM   15  C21 UNL     1      -4.736   8.523  15.024  1.00  0.00     0.006 C 
HETATM   16  C22 UNL     1      -3.226   8.673  15.293  1.00  0.00     0.011 C 
HETATM   17  C23 UNL     1      -2.549   7.961  14.113  1.00  0.00    -0.032 C 
HETATM   18  C24 UNL     1      -2.570   8.964  12.916  1.00  0.00     0.016 C 
HETATM   19  C25 UNL     1       0.766   5.976  13.223  1.00  0.00     0.022 A 
HETATM   20  C26 UNL     1       0.556   7.128  12.263  1.00  0.00    -0.021 A 
HETATM   21  C31 UNL     1       1.289   8.434  12.608  1.00  0.00     0.063 C 
ENDROOT
BRANCH  14  22
HETATM   22  C13 UNL     1      -6.224   6.588  14.161  1.00  0.00    -0.014 C 
HETATM   23  C14 UNL     1      -6.673   6.609  15.625  1.00  0.00     0.010 C 
BRANCH  22  24
HETATM   24  C15 UNL     1      -6.000   5.121  13.692  1.00  0.00     0.008 C 
BRANCH  24  25
HETATM   25  C16 UNL     1      -7.067   4.522  12.764  1.00  0.00     0.028 C 
BRANCH  25  26
HETATM   26  C17 UNL     1      -6.817   3.085  12.399  1.00  0.00    -0.025 C 
HETATM   27  C18 UNL     1      -5.875   2.602  11.564  1.00  0.00    -0.091 C 
HETATM   28  C19 UNL     1      -4.901   3.449  10.792  1.00  0.00     0.042 C 
HETATM   29  C20 UNL     1      -5.747   1.121  11.322  1.00  0.00     0.042 C 
ENDBRANCH  25  26
ENDBRANCH  24  25
ENDBRANCH  22  24
ENDBRANCH  14  22
BRANCH  20  30
HETATM   30  C27 UNL     1       0.423   6.908  10.751  1.00  0.00     0.021 C 
BRANCH  30  31
HETATM   31  C28 UNL     1       1.156   7.927   9.885  1.00  0.00     0.112 C 
BRANCH  31  32
HETATM   32  C29 UNL     1       0.328   8.390   8.715  1.00  0.00     0.258 C 
HETATM   33  O3  UNL     1      -0.638   9.135   8.805  1.00  0.00    -0.265 OA
BRANCH  32  34
HETATM   34  O4  UNL     1       0.800   7.858   7.552  1.00  0.00    -0.326 OA
HETATM   35  C30 UNL     1       2.076   7.231   7.678  1.00  0.00     0.213 C 
ENDBRANCH  32  34
ENDBRANCH  31  32
ENDBRANCH  30  31
ENDBRANCH  20  30
TORSDOF 8
ENDMDL
MODEL 8
REMARK minimizedAffinity -6.3899188
REMARK CNNscore 0.179014698
REMARK CNNaffinity 6.09971762
REMARK  8 active torsions:
REMARK  status: ('A' for Active; 'I' for Inactive)
REMARK    1  A    between atoms: C12_14  and  C13_15 
REMARK    2  A    between atoms: C13_15  and  C15_17 
REMARK    3  A    between atoms: C15_17  and  C16_18 
REMARK    4  A    between atoms: C16_18  and  C17_19 
REMARK    5  A    between atoms: C26_28  and  C27_29 
REMARK    6  A    between atoms: C27_29  and  C28_30 
REMARK    7  A    between atoms: C28_30  and  C29_31 
REMARK    8  A    between atoms: C29_31  and  O4_33 
ROOT
HETATM    1  C1  UNL     1     -18.741   8.123  12.163  1.00  0.00     0.025 C 
HETATM    2  C2  UNL     1     -17.943   8.954  12.844  1.00  0.00     0.015 C 
HETATM    3  C3  UNL     1     -17.960  10.413  12.580  1.00  0.00     0.289 C 
HETATM    4  O1  UNL     1     -18.779  11.024  11.918  1.00  0.00    -0.260 OA
HETATM    5  O2  UNL     1     -16.900  10.962  13.231  1.00  0.00    -0.311 OA
HETATM    6  C4  UNL     1     -16.048   9.925  13.752  1.00  0.00     0.142 C 
HETATM    7  C5  UNL     1     -14.870   9.751  12.799  1.00  0.00     0.039 C 
HETATM    8  C6  UNL     1     -13.927   8.579  13.113  1.00  0.00     0.006 C 
HETATM    9  C7  UNL     1     -14.663   7.279  13.521  1.00  0.00    -0.027 A 
HETATM   10  C8  UNL     1     -13.715   6.119  13.893  1.00  0.00     0.011 C 
HETATM   11  C9  UNL     1     -12.525   6.499  14.785  1.00  0.00     0.011 C 
HETATM   12  C10 UNL     1     -11.759   7.698  14.206  1.00  0.00    -0.032 C 
HETATM   13  C11 UNL     1     -11.153   7.297  12.823  1.00  0.00     0.016 C 
HETATM   14  C12 UNL     1     -10.615   8.308  15.079  1.00  0.00    -0.002 C 
HETATM   15  C21 UNL     1     -10.560   9.781  14.565  1.00  0.00     0.006 C 
HETATM   16  C22 UNL     1     -11.849  10.053  13.766  1.00  0.00     0.011 C 
HETATM   17  C23 UNL     1     -12.790   8.899  14.140  1.00  0.00    -0.032 C 
HETATM   18  C24 UNL     1     -13.414   9.263  15.525  1.00  0.00     0.016 C 
HETATM   19  C25 UNL     1     -15.776   6.765  12.637  1.00  0.00     0.022 A 
HETATM   20  C26 UNL     1     -16.163   7.367  13.972  1.00  0.00    -0.021 A 
HETATM   21  C31 UNL     1     -16.929   8.698  13.914  1.00  0.00     0.063 C 
ENDROOT
BRANCH  14  22
HETATM   22  C13 UNL     1      -9.200   7.646  15.106  1.00  0.00    -0.014 C 
HETATM   23  C14 UNL     1      -8.076   8.681  15.009  1.00  0.00     0.010 C 
BRANCH  22  24
HETATM   24  C15 UNL     1      -9.076   6.612  13.950  1.00  0.00     0.008 C 
BRANCH  24  25
HETATM   25  C16 UNL     1      -7.655   6.249  13.498  1.00  0.00     0.028 C 
BRANCH  25  26
HETATM   26  C17 UNL     1      -7.538   4.868  12.912  1.00  0.00    -0.025 C 
HETATM   27  C18 UNL     1      -6.411   4.159  12.702  1.00  0.00    -0.091 C 
HETATM   28  C19 UNL     1      -5.021   4.656  12.988  1.00  0.00     0.042 C 
HETATM   29  C20 UNL     1      -6.473   2.770  12.120  1.00  0.00     0.042 C 
ENDBRANCH  25  26
ENDBRANCH  24  25
ENDBRANCH  22  24
ENDBRANCH  14  22
BRANCH  20  30
HETATM   30  C27 UNL     1     -16.588   6.495  15.160  1.00  0.00     0.021 C 
BRANCH  30  31
HETATM   31  C28 UNL     1     -17.638   5.437  14.840  1.00  0.00     0.112 C 
BRANCH  31  32
HETATM   32  C29 UNL     1     -17.148   4.038  15.113  1.00  0.00     0.258 C 
HETATM   33  O3  UNL     1     -15.979   3.689  15.031  1.00  0.00    -0.265 OA
BRANCH  32  34
HETATM   34  O4  UNL     1     -18.186   3.223  15.452  1.00  0.00    -0.326 OA
HETATM   35  C30 UNL     1     -17.816   2.137  16.302  1.00  0.00     0.213 C 
ENDBRANCH  32  34
ENDBRANCH  31  32
ENDBRANCH  30  31
ENDBRANCH  20  30
TORSDOF 8
ENDMDL
MODEL 9
REMARK minimizedAffinity -7.15709019
REMARK CNNscore 0.169588417
REMARK CNNaffinity 6.10510063
REMARK  8 active torsions:
REMARK  status: ('A' for Active; 'I' for Inactive)
REMARK    1  A    between atoms: C12_14  and  C13_15 
REMARK    2  A    between atoms: C13_15  and  C15_17 
REMARK    3  A    between atoms: C15_17  and  C16_18 
REMARK    4  A    between atoms: C16_18  and  C17_19 
REMARK    5  A    between atoms: C26_28  and  C27_29 
REMARK    6  A    between atoms: C27_29  and  C28_30 
REMARK    7  A    between atoms: C28_30  and  C29_31 
REMARK    8  A    between atoms: C29_31  and  O4_33 
ROOT
HETATM    1  C1  UNL     1       0.739  13.459  15.031  1.00  0.00     0.025 C 
HETATM    2  C2  UNL     1       0.803  12.141  15.247  1.00  0.00     0.015 C 
HETATM    3  C3  UNL     1       1.934  11.338  14.721  1.00  0.00     0.289 C 
HETATM    4  O1  UNL     1       2.970  11.763  14.245  1.00  0.00    -0.260 OA
HETATM    5  O2  UNL     1       1.617  10.025  14.881  1.00  0.00    -0.311 OA
HETATM    6  C4  UNL     1       0.245   9.894  15.298  1.00  0.00     0.142 C 
HETATM    7  C5  UNL     1      -0.595   9.542  14.077  1.00  0.00     0.039 C 
HETATM    8  C6  UNL     1      -2.115   9.508  14.300  1.00  0.00     0.006 C 
HETATM    9  C7  UNL     1      -2.643  10.678  15.168  1.00  0.00    -0.027 A 
HETATM   10  C8  UNL     1      -4.161  10.613  15.441  1.00  0.00     0.011 C 
HETATM   11  C9  UNL     1      -4.705   9.228  15.818  1.00  0.00     0.011 C 
HETATM   12  C10 UNL     1      -4.262   8.164  14.802  1.00  0.00    -0.032 C 
HETATM   13  C11 UNL     1      -4.875   8.505  13.406  1.00  0.00     0.016 C 
HETATM   14  C12 UNL     1      -4.601   6.674  15.130  1.00  0.00    -0.002 C 
HETATM   15  C21 UNL     1      -3.493   5.905  14.346  1.00  0.00     0.006 C 
HETATM   16  C22 UNL     1      -2.397   6.916  13.958  1.00  0.00     0.011 C 
HETATM   17  C23 UNL     1      -2.679   8.148  14.830  1.00  0.00    -0.032 C 
HETATM   18  C24 UNL     1      -2.083   7.842  16.241  1.00  0.00     0.016 C 
HETATM   19  C25 UNL     1      -2.251  12.090  14.801  1.00  0.00     0.022 A 
HETATM   20  C26 UNL     1      -1.626  11.491  16.043  1.00  0.00    -0.021 A 
HETATM   21  C31 UNL     1      -0.117  11.208  15.969  1.00  0.00     0.063 C 
ENDROOT
BRANCH  14  22
HETATM   22  C13 UNL     1      -6.026   6.102  14.838  1.00  0.00    -0.014 C 
HETATM   23  C14 UNL     1      -6.784   5.756  16.123  1.00  0.00     0.010 C 
BRANCH  22  24
HETATM   24  C15 UNL     1      -5.917   4.846  13.926  1.00  0.00     0.008 C 
BRANCH  24  25
HETATM   25  C16 UNL     1      -7.233   4.158  13.537  1.00  0.00     0.028 C 
BRANCH  25  26
HETATM   26  C17 UNL     1      -7.910   4.773  12.343  1.00  0.00    -0.025 C 
HETATM   27  C18 UNL     1      -8.852   5.737  12.341  1.00  0.00    -0.091 C 
HETATM   28  C19 UNL     1      -9.442   6.361  13.576  1.00  0.00     0.042 C 
HETATM   29  C20 UNL     1      -9.415   6.259  11.044  1.00  0.00     0.042 C 
ENDBRANCH  25  26
ENDBRANCH  24  25
ENDBRANCH  22  24
ENDBRANCH  14  22
BRANCH  20  30
HETATM   30  C27 UNL     1      -2.081  11.892  17.452  1.00  0.00     0.021 C 
BRANCH  30  31
HETATM   31  C28 UNL     1      -1.584  10.985  18.572  1.00  0.00     0.112 C 
BRANCH  31  32
HETATM   32  C29 UNL     1      -0.435  11.590  19.336  1.00  0.00     0.258 C 
HETATM   33  O3  UNL     1       0.290  10.969  20.100  1.00  0.00    -0.265 OA
BRANCH  32  34
HETATM   34  O4  UNL     1      -0.324  12.921  19.062  1.00  0.00    -0.326 OA
HETATM   35  C30 UNL     1       0.467  13.643  20.006  1.00  0.00     0.213 C 
ENDBRANCH  32  34
ENDBRANCH  31  32
ENDBRANCH  30  31
ENDBRANCH  20  30
TORSDOF 8
ENDMDL
