MODEL 1
REMARK minimizedAffinity -7.26355219
REMARK CNNscore 0.564016044
REMARK CNNaffinity 7.06993484
REMARK  13 active torsions:
REMARK  status: ('A' for Active; 'I' for Inactive)
REMARK    1  A    between atoms: C3_3  and  O1_4 
REMARK    2  A    between atoms: N1_14  and  O2_16 
REMARK    3  A    between atoms: O2_16  and  C13_17 
REMARK    4  A    between atoms: C13_17  and  C14_18 
REMARK       I    between atoms: C14_18  and  N2_20 
REMARK    5  A    between atoms: N2_20  and  C15_21 
REMARK    6  A    between atoms: C15_21  and  C16_22 
REMARK    7  A    between atoms: C15_21  and  C21_32 
REMARK       I    between atoms: C16_22  and  N3_24 
REMARK    8  A    between atoms: N3_24  and  C17_25 
REMARK    9  A    between atoms: C17_25  and  C18_26 
REMARK   10  A    between atoms: C17_25  and  C19_28 
REMARK   11  A    between atoms: C18_26  and  S1_27 
REMARK   12  A    between atoms: C19_28  and  C20_29 
REMARK   13  A    between atoms: C20_29  and  O6_31 
ROOT
HETATM    1  C1  UNL     1      -5.778  17.351  16.667  1.00  0.00     0.015 C 
HETATM    2  C2  UNL     1      -5.126  16.421  17.058  1.00  0.00    -0.078 C 
HETATM    3  C3  UNL     1      -4.315  15.284  17.530  1.00  0.00     0.128 C 
HETATM    4  C4  UNL     1      -4.284  15.206  19.059  1.00  0.00     0.052 C 
HETATM    5  C5  UNL     1      -4.036  13.732  19.400  1.00  0.00     0.010 C 
HETATM    6  C6  UNL     1      -4.124  12.921  18.081  1.00  0.00     0.002 C 
HETATM    7  C7  UNL     1      -2.725  12.430  17.628  1.00  0.00    -0.004 C 
HETATM    8  C8  UNL     1      -2.132  11.356  18.561  1.00  0.00     0.010 C 
HETATM    9  C9  UNL     1      -2.749   9.983  18.351  1.00  0.00     0.035 C 
HETATM   10  C10 UNL     1      -2.578   9.527  16.927  1.00  0.00    -0.069 C 
HETATM   11  C11 UNL     1      -2.024   8.327  16.676  1.00  0.00     0.030 C 
HETATM   12  C12 UNL     1      -1.928   7.771  15.302  1.00  0.00     0.032 C 
HETATM   13  N1  UNL     1      -1.401   6.586  15.166  1.00  0.00    -0.271 N 
ATOM     14  H1  UNL     1      -1.029   6.030  15.936  1.00  0.00     0.194 HD
HETATM   15  C24 UNL     1      -2.509   8.584  14.167  1.00  0.00     0.060 C 
HETATM   16  C25 UNL     1      -2.447  10.075  14.473  1.00  0.00     0.020 C 
HETATM   17  C26 UNL     1      -3.087  10.477  15.840  1.00  0.00    -0.016 C 
HETATM   18  C27 UNL     1      -4.612  10.282  15.736  1.00  0.00     0.020 C 
HETATM   19  C28 UNL     1      -2.644  11.967  16.152  1.00  0.00     0.002 C 
HETATM   20  C29 UNL     1      -3.228  13.051  15.231  1.00  0.00     0.007 C 
HETATM   21  C30 UNL     1      -4.617  13.551  15.610  1.00  0.00     0.014 C 
HETATM   22  C31 UNL     1      -4.853  13.884  17.099  1.00  0.00     0.003 C 
HETATM   23  C32 UNL     1      -6.385  13.772  17.354  1.00  0.00     0.020 C 
ENDROOT
BRANCH   3  24
HETATM   24  O1  UNL     1      -2.981  15.484  17.073  1.00  0.00    -0.377 OA
HETATM   25  H2  UNL     1      -2.725  16.388  17.319  1.00  0.00     0.211 HD
ENDBRANCH   3  24
BRANCH  13  26
HETATM   26  O2  UNL     1      -1.411   6.172  13.825  1.00  0.00    -0.271 OA
BRANCH  26  27
HETATM   27  C13 UNL     1      -0.097   5.791  13.458  1.00  0.00     0.303 C 
BRANCH  27  28
HETATM   28  C14 UNL     1       0.655   6.954  12.811  1.00  0.00     0.244 C 
HETATM   29  O3  UNL     1       0.982   7.978  13.405  1.00  0.00    -0.271 OA
HETATM   30  N2  UNL     1       0.967   6.741  11.480  1.00  0.00    -0.346 N 
HETATM   31  H16 UNL     1       0.498   5.986  10.988  1.00  0.00     0.163 HD
BRANCH  30  32
HETATM   32  C15 UNL     1       1.535   7.817  10.648  1.00  0.00     0.180 C 
BRANCH  32  33
HETATM   33  C16 UNL     1       3.075   7.666  10.660  1.00  0.00     0.241 C 
HETATM   34  O4  UNL     1       3.718   7.014   9.845  1.00  0.00    -0.271 OA
HETATM   35  N3  UNL     1       3.686   8.438  11.639  1.00  0.00    -0.353 N 
HETATM   36  H18 UNL     1       3.065   8.904  12.292  1.00  0.00     0.163 HD
BRANCH  35  37
HETATM   37  C17 UNL     1       5.104   8.279  11.979  1.00  0.00     0.103 C 
BRANCH  37  38
HETATM   38  C18 UNL     1       5.713   9.618  12.466  1.00  0.00     0.096 C 
BRANCH  38  39
HETATM   39  S1  UNL     1       6.669  10.511  11.191  1.00  0.00    -0.180 SA
HETATM   40  H22 UNL     1       5.736  10.429  10.224  1.00  0.00     0.101 HD
ENDBRANCH  38  39
ENDBRANCH  37  38
BRANCH  37  41
HETATM   41  C19 UNL     1       5.853   7.746  10.751  1.00  0.00     0.136 C 
BRANCH  41  42
HETATM   42  C20 UNL     1       6.711   6.559  11.083  1.00  0.00     0.141 C 
HETATM   43  O5  UNL     1       7.840   6.566  11.541  1.00  0.00    -0.650 OA
BRANCH  42  44
HETATM   44  O6  UNL     1       6.084   5.396  10.818  1.00  0.00    -0.776 OA
HETATM   45  H25 UNL     1       6.725   4.705  11.087  1.00  0.00     0.167 HD
ENDBRANCH  42  44
ENDBRANCH  41  42
ENDBRANCH  37  41
ENDBRANCH  35  37
ENDBRANCH  32  33
BRANCH  32  46
HETATM   46  C21 UNL     1       0.879   7.838   9.247  1.00  0.00     0.009 C 
HETATM   47  C22 UNL     1       1.813   8.345   8.143  1.00  0.00     0.012 C 
HETATM   48  C23 UNL     1      -0.440   8.615   9.238  1.00  0.00     0.012 C 
ENDBRANCH  32  46
ENDBRANCH  30  32
ENDBRANCH  27  28
ENDBRANCH  26  27
ENDBRANCH  13  26
TORSDOF 13
ENDMDL
MODEL 2
REMARK minimizedAffinity -7.73571157
REMARK CNNscore 0.400949121
REMARK CNNaffinity 5.96063471
REMARK  13 active torsions:
REMARK  status: ('A' for Active; 'I' for Inactive)
REMARK    1  A    between atoms: C3_3  and  O1_4 
REMARK    2  A    between atoms: N1_14  and  O2_16 
REMARK    3  A    between atoms: O2_16  and  C13_17 
REMARK    4  A    between atoms: C13_17  and  C14_18 
REMARK       I    between atoms: C14_18  and  N2_20 
REMARK    5  A    between atoms: N2_20  and  C15_21 
REMARK    6  A    between atoms: C15_21  and  C16_22 
REMARK    7  A    between atoms: C15_21  and  C21_32 
REMARK       I    between atoms: C16_22  and  N3_24 
REMARK    8  A    between atoms: N3_24  and  C17_25 
REMARK    9  A    between atoms: C17_25  and  C18_26 
REMARK   10  A    between atoms: C17_25  and  C19_28 
REMARK   11  A    between atoms: C18_26  and  S1_27 
REMARK   12  A    between atoms: C19_28  and  C20_29 
REMARK   13  A    between atoms: C20_29  and  O6_31 
ROOT
HETATM    1  C1  UNL     1      -6.889 -10.476   8.476  1.00  0.00     0.015 C 
HETATM    2  C2  UNL     1      -6.258 -10.411   7.455  1.00  0.00    -0.078 C 
HETATM    3  C3  UNL     1      -5.488 -10.317   6.202  1.00  0.00     0.128 C 
HETATM    4  C4  UNL     1      -4.108 -10.968   6.335  1.00  0.00     0.052 C 
HETATM    5  C5  UNL     1      -3.712 -11.406   4.920  1.00  0.00     0.010 C 
HETATM    6  C6  UNL     1      -4.940 -11.194   3.997  1.00  0.00     0.002 C 
HETATM    7  C7  UNL     1      -4.725  -9.994   3.040  1.00  0.00    -0.004 C 
HETATM    8  C8  UNL     1      -3.639 -10.258   1.978  1.00  0.00     0.010 C 
HETATM    9  C9  UNL     1      -4.121 -11.153   0.848  1.00  0.00     0.035 C 
HETATM   10  C10 UNL     1      -5.323 -10.558   0.165  1.00  0.00    -0.069 C 
HETATM   11  C11 UNL     1      -5.315 -10.394  -1.170  1.00  0.00     0.030 C 
HETATM   12  C12 UNL     1      -6.507  -9.918  -1.917  1.00  0.00     0.032 C 
HETATM   13  N1  UNL     1      -6.409  -9.820  -3.213  1.00  0.00    -0.271 N 
ATOM     14  H1  UNL     1      -5.561 -10.024  -3.743  1.00  0.00     0.194 HD
HETATM   15  C24 UNL     1      -7.772  -9.646  -1.133  1.00  0.00     0.060 C 
HETATM   16  C25 UNL     1      -7.452  -9.219   0.294  1.00  0.00     0.020 C 
HETATM   17  C26 UNL     1      -6.511 -10.200   1.062  1.00  0.00    -0.016 C 
HETATM   18  C27 UNL     1      -7.289 -11.502   1.335  1.00  0.00     0.020 C 
HETATM   19  C28 UNL     1      -6.014  -9.456   2.371  1.00  0.00     0.002 C 
HETATM   20  C29 UNL     1      -7.085  -9.186   3.441  1.00  0.00     0.007 C 
HETATM   21  C30 UNL     1      -7.362 -10.343   4.394  1.00  0.00     0.014 C 
HETATM   22  C31 UNL     1      -6.133 -11.061   4.990  1.00  0.00     0.003 C 
HETATM   23  C32 UNL     1      -6.593 -12.493   5.394  1.00  0.00     0.020 C 
ENDROOT
BRANCH   3  24
HETATM   24  O1  UNL     1      -5.296  -8.936   5.912  1.00  0.00    -0.377 OA
HETATM   25  H2  UNL     1      -4.951  -8.520   6.718  1.00  0.00     0.211 HD
ENDBRANCH   3  24
BRANCH  13  26
HETATM   26  O2  UNL     1      -7.617  -9.399  -3.789  1.00  0.00    -0.271 OA
BRANCH  26  27
HETATM   27  C13 UNL     1      -7.372  -8.233  -4.557  1.00  0.00     0.303 C 
BRANCH  27  28
HETATM   28  C14 UNL     1      -8.318  -7.101  -4.157  1.00  0.00     0.244 C 
HETATM   29  O3  UNL     1      -8.420  -6.658  -3.016  1.00  0.00    -0.271 OA
HETATM   30  N2  UNL     1      -9.044  -6.586  -5.216  1.00  0.00    -0.346 N 
HETATM   31  H16 UNL     1      -9.081  -7.117  -6.081  1.00  0.00     0.163 HD
BRANCH  30  32
HETATM   32  C15 UNL     1     -10.128  -5.612  -4.996  1.00  0.00     0.180 C 
BRANCH  32  33
HETATM   33  C16 UNL     1      -9.704  -4.273  -5.644  1.00  0.00     0.241 C 
HETATM   34  O4  UNL     1      -9.890  -3.977  -6.819  1.00  0.00    -0.271 OA
HETATM   35  N3  UNL     1      -9.173  -3.374  -4.729  1.00  0.00    -0.353 N 
HETATM   36  H18 UNL     1      -9.017  -3.730  -3.792  1.00  0.00     0.163 HD
BRANCH  35  37
HETATM   37  C17 UNL     1      -8.502  -2.140  -5.154  1.00  0.00     0.103 C 
BRANCH  37  38
HETATM   38  C18 UNL     1      -9.447  -0.919  -5.025  1.00  0.00     0.096 C 
BRANCH  38  39
HETATM   39  S1  UNL     1     -11.214  -1.356  -4.875  1.00  0.00    -0.180 SA
HETATM   40  H22 UNL     1     -11.055  -2.276  -3.905  1.00  0.00     0.101 HD
ENDBRANCH  38  39
ENDBRANCH  37  38
BRANCH  37  41
HETATM   41  C19 UNL     1      -8.014  -2.311  -6.599  1.00  0.00     0.136 C 
BRANCH  41  42
HETATM   42  C20 UNL     1      -6.925  -1.337  -6.947  1.00  0.00     0.141 C 
HETATM   43  O5  UNL     1      -6.231  -0.697  -6.178  1.00  0.00    -0.650 OA
BRANCH  42  44
HETATM   44  O6  UNL     1      -6.762  -1.221  -8.280  1.00  0.00    -0.776 OA
HETATM   45  H25 UNL     1      -6.026  -0.582  -8.381  1.00  0.00     0.167 HD
ENDBRANCH  42  44
ENDBRANCH  41  42
ENDBRANCH  37  41
ENDBRANCH  35  37
ENDBRANCH  32  33
BRANCH  32  46
HETATM   46  C21 UNL     1     -11.487  -6.179  -5.469  1.00  0.00     0.009 C 
HETATM   47  C22 UNL     1     -11.399  -6.963  -6.783  1.00  0.00     0.012 C 
HETATM   48  C23 UNL     1     -12.565  -5.095  -5.558  1.00  0.00     0.012 C 
ENDBRANCH  32  46
ENDBRANCH  30  32
ENDBRANCH  27  28
ENDBRANCH  26  27
ENDBRANCH  13  26
TORSDOF 13
ENDMDL
MODEL 3
REMARK minimizedAffinity -7.49278688
REMARK CNNscore 0.322265446
REMARK CNNaffinity 5.4426856
REMARK  13 active torsions:
REMARK  status: ('A' for Active; 'I' for Inactive)
REMARK    1  A    between atoms: C3_3  and  O1_4 
REMARK    2  A    between atoms: N1_14  and  O2_16 
REMARK    3  A    between atoms: O2_16  and  C13_17 
REMARK    4  A    between atoms: C13_17  and  C14_18 
REMARK       I    between atoms: C14_18  and  N2_20 
REMARK    5  A    between atoms: N2_20  and  C15_21 
REMARK    6  A    between atoms: C15_21  and  C16_22 
REMARK    7  A    between atoms: C15_21  and  C21_32 
REMARK       I    between atoms: C16_22  and  N3_24 
REMARK    8  A    between atoms: N3_24  and  C17_25 
REMARK    9  A    between atoms: C17_25  and  C18_26 
REMARK   10  A    between atoms: C17_25  and  C19_28 
REMARK   11  A    between atoms: C18_26  and  S1_27 
REMARK   12  A    between atoms: C19_28  and  C20_29 
REMARK   13  A    between atoms: C20_29  and  O6_31 
ROOT
HETATM    1  C1  UNL     1       1.482   8.159  10.225  1.00  0.00     0.015 C 
HETATM    2  C2  UNL     1       2.474   7.838  10.823  1.00  0.00    -0.078 C 
HETATM    3  C3  UNL     1       3.682   7.442  11.568  1.00  0.00     0.128 C 
HETATM    4  C4  UNL     1       4.379   6.241  10.922  1.00  0.00     0.052 C 
HETATM    5  C5  UNL     1       5.857   6.350  11.318  1.00  0.00     0.010 C 
HETATM    6  C6  UNL     1       6.058   7.716  12.023  1.00  0.00     0.002 C 
HETATM    7  C7  UNL     1       6.283   7.536  13.546  1.00  0.00    -0.004 C 
HETATM    8  C8  UNL     1       7.629   6.864  13.881  1.00  0.00     0.010 C 
HETATM    9  C9  UNL     1       8.811   7.811  13.756  1.00  0.00     0.035 C 
HETATM   10  C10 UNL     1       8.639   9.009  14.651  1.00  0.00    -0.069 C 
HETATM   11  C11 UNL     1       9.615   9.338  15.516  1.00  0.00     0.030 C 
HETATM   12  C12 UNL     1       9.557  10.568  16.346  1.00  0.00     0.032 C 
HETATM   13  N1  UNL     1      10.567  10.815  17.132  1.00  0.00    -0.271 N 
ATOM     14  H1  UNL     1      11.380  10.207  17.232  1.00  0.00     0.194 HD
HETATM   15  C24 UNL     1       8.365  11.484  16.172  1.00  0.00     0.060 C 
HETATM   16  C25 UNL     1       7.129  10.701  15.747  1.00  0.00     0.020 C 
HETATM   17  C26 UNL     1       7.341   9.803  14.487  1.00  0.00    -0.016 C 
HETATM   18  C27 UNL     1       7.516  10.723  13.262  1.00  0.00     0.020 C 
HETATM   19  C28 UNL     1       6.099   8.823  14.388  1.00  0.00     0.002 C 
HETATM   20  C29 UNL     1       4.747   9.478  14.053  1.00  0.00     0.007 C 
HETATM   21  C30 UNL     1       4.483   9.708  12.570  1.00  0.00     0.014 C 
HETATM   22  C31 UNL     1       4.796   8.534  11.618  1.00  0.00     0.003 C 
HETATM   23  C32 UNL     1       5.044   9.144  10.207  1.00  0.00     0.020 C 
ENDROOT
BRANCH   3  24
HETATM   24  O1  UNL     1       3.278   7.062  12.880  1.00  0.00    -0.377 OA
HETATM   25  H2  UNL     1       2.548   6.430  12.784  1.00  0.00     0.211 HD
ENDBRANCH   3  24
BRANCH  13  26
HETATM   26  O2  UNL     1      10.396  12.024  17.823  1.00  0.00    -0.271 OA
BRANCH  26  27
HETATM   27  C13 UNL     1      11.481  12.193  18.719  1.00  0.00     0.303 C 
BRANCH  27  28
HETATM   28  C14 UNL     1      12.812  11.879  18.038  1.00  0.00     0.244 C 
HETATM   29  O3  UNL     1      13.504  10.897  18.296  1.00  0.00    -0.271 OA
HETATM   30  N2  UNL     1      13.167  12.796  17.065  1.00  0.00    -0.346 N 
HETATM   31  H16 UNL     1      12.678  13.686  17.037  1.00  0.00     0.163 HD
BRANCH  30  32
HETATM   32  C15 UNL     1      14.494  12.754  16.425  1.00  0.00     0.180 C 
BRANCH  32  33
HETATM   33  C16 UNL     1      15.526  13.314  17.432  1.00  0.00     0.241 C 
HETATM   34  O4  UNL     1      15.728  14.506  17.634  1.00  0.00    -0.271 OA
HETATM   35  N3  UNL     1      16.145  12.321  18.180  1.00  0.00    -0.353 N 
HETATM   36  H18 UNL     1      15.946  11.366  17.906  1.00  0.00     0.163 HD
BRANCH  35  37
HETATM   37  C17 UNL     1      17.311  12.601  19.027  1.00  0.00     0.103 C 
BRANCH  37  38
HETATM   38  C18 UNL     1      18.575  11.889  18.485  1.00  0.00     0.096 C 
BRANCH  38  39
HETATM   39  S1  UNL     1      20.142  12.508  19.192  1.00  0.00    -0.180 SA
HETATM   40  H22 UNL     1      19.754  12.450  20.479  1.00  0.00     0.101 HD
ENDBRANCH  38  39
ENDBRANCH  37  38
BRANCH  37  41
HETATM   41  C19 UNL     1      17.000  12.158  20.463  1.00  0.00     0.136 C 
BRANCH  41  42
HETATM   42  C20 UNL     1      15.802  12.868  21.026  1.00  0.00     0.141 C 
HETATM   43  O5  UNL     1      14.629  12.639  20.794  1.00  0.00    -0.650 OA
BRANCH  42  44
HETATM   44  O6  UNL     1      16.156  13.852  21.877  1.00  0.00    -0.776 OA
HETATM   45  H25 UNL     1      15.304  14.225  22.187  1.00  0.00     0.167 HD
ENDBRANCH  42  44
ENDBRANCH  41  42
ENDBRANCH  37  41
ENDBRANCH  35  37
ENDBRANCH  32  33
BRANCH  32  46
HETATM   46  C21 UNL     1      14.800  11.341  15.875  1.00  0.00     0.009 C 
HETATM   47  C22 UNL     1      16.217  11.199  15.310  1.00  0.00     0.012 C 
HETATM   48  C23 UNL     1      13.761  10.884  14.848  1.00  0.00     0.012 C 
ENDBRANCH  32  46
ENDBRANCH  30  32
ENDBRANCH  27  28
ENDBRANCH  26  27
ENDBRANCH  13  26
TORSDOF 13
ENDMDL
MODEL 4
REMARK minimizedAffinity -7.21436357
REMARK CNNscore 0.241065755
REMARK CNNaffinity 5.065557
REMARK  13 active torsions:
REMARK  status: ('A' for Active; 'I' for Inactive)
REMARK    1  A    between atoms: C3_3  and  O1_4 
REMARK    2  A    between atoms: N1_14  and  O2_16 
REMARK    3  A    between atoms: O2_16  and  C13_17 
REMARK    4  A    between atoms: C13_17  and  C14_18 
REMARK       I    between atoms: C14_18  and  N2_20 
REMARK    5  A    between atoms: N2_20  and  C15_21 
REMARK    6  A    between atoms: C15_21  and  C16_22 
REMARK    7  A    between atoms: C15_21  and  C21_32 
REMARK       I    between atoms: C16_22  and  N3_24 
REMARK    8  A    between atoms: N3_24  and  C17_25 
REMARK    9  A    between atoms: C17_25  and  C18_26 
REMARK   10  A    between atoms: C17_25  and  C19_28 
REMARK   11  A    between atoms: C18_26  and  S1_27 
REMARK   12  A    between atoms: C19_28  and  C20_29 
REMARK   13  A    between atoms: C20_29  and  O6_31 
ROOT
HETATM    1  C1  UNL     1       1.808   6.103  11.760  1.00  0.00     0.015 C 
HETATM    2  C2  UNL     1       2.849   6.703  11.764  1.00  0.00    -0.078 C 
HETATM    3  C3  UNL     1       4.133   7.425  11.774  1.00  0.00     0.128 C 
HETATM    4  C4  UNL     1       4.390   8.143  10.445  1.00  0.00     0.052 C 
HETATM    5  C5  UNL     1       5.308   9.325  10.776  1.00  0.00     0.010 C 
HETATM    6  C6  UNL     1       5.423   9.416  12.320  1.00  0.00     0.002 C 
HETATM    7  C7  UNL     1       6.825   8.967  12.807  1.00  0.00    -0.004 C 
HETATM    8  C8  UNL     1       7.946   9.942  12.400  1.00  0.00     0.010 C 
HETATM    9  C9  UNL     1       7.982  11.195  13.258  1.00  0.00     0.035 C 
HETATM   10  C10 UNL     1       8.156  10.848  14.712  1.00  0.00    -0.069 C 
HETATM   11  C11 UNL     1       9.148  11.419  15.418  1.00  0.00     0.030 C 
HETATM   12  C12 UNL     1       9.306  11.206  16.879  1.00  0.00     0.032 C 
HETATM   13  N1  UNL     1      10.282  11.828  17.479  1.00  0.00    -0.271 N 
ATOM     14  H1  UNL     1      10.958  12.429  17.006  1.00  0.00     0.194 HD
HETATM   15  C24 UNL     1       8.285  10.338  17.583  1.00  0.00     0.060 C 
HETATM   16  C25 UNL     1       7.716   9.286  16.639  1.00  0.00     0.020 C 
HETATM   17  C26 UNL     1       7.144   9.863  15.305  1.00  0.00    -0.016 C 
HETATM   18  C27 UNL     1       5.865  10.659  15.631  1.00  0.00     0.020 C 
HETATM   19  C28 UNL     1       6.914   8.643  14.319  1.00  0.00     0.002 C 
HETATM   20  C29 UNL     1       5.798   7.661  14.711  1.00  0.00     0.007 C 
HETATM   21  C30 UNL     1       4.392   8.066  14.284  1.00  0.00     0.014 C 
HETATM   22  C31 UNL     1       4.223   8.567  12.834  1.00  0.00     0.003 C 
HETATM   23  C32 UNL     1       2.948   9.459  12.805  1.00  0.00     0.020 C 
ENDROOT
BRANCH   3  24
HETATM   24  O1  UNL     1       5.170   6.467  11.963  1.00  0.00    -0.377 OA
HETATM   25  H2  UNL     1       5.026   5.757  11.316  1.00  0.00     0.211 HD
ENDBRANCH   3  24
BRANCH  13  26
HETATM   26  O2  UNL     1      10.287  11.566  18.857  1.00  0.00    -0.271 OA
BRANCH  26  27
HETATM   27  C13 UNL     1      11.612  11.258  19.256  1.00  0.00     0.303 C 
BRANCH  27  28
HETATM   28  C14 UNL     1      12.551  12.437  19.008  1.00  0.00     0.244 C 
HETATM   29  O3  UNL     1      12.538  13.478  19.660  1.00  0.00    -0.271 OA
HETATM   30  N2  UNL     1      13.457  12.219  17.985  1.00  0.00    -0.346 N 
HETATM   31  H16 UNL     1      13.291  11.443  17.350  1.00  0.00     0.163 HD
BRANCH  30  32
HETATM   32  C15 UNL     1      14.323  13.303  17.489  1.00  0.00     0.180 C 
BRANCH  32  33
HETATM   33  C16 UNL     1      15.756  13.043  18.010  1.00  0.00     0.241 C 
HETATM   34  O4  UNL     1      16.409  12.031  17.781  1.00  0.00    -0.271 OA
HETATM   35  N3  UNL     1      16.289  14.130  18.690  1.00  0.00    -0.353 N 
HETATM   36  H18 UNL     1      15.654  14.900  18.868  1.00  0.00     0.163 HD
BRANCH  35  37
HETATM   37  C17 UNL     1      17.535  14.028  19.460  1.00  0.00     0.103 C 
BRANCH  37  38
HETATM   38  C18 UNL     1      18.727  13.657  18.542  1.00  0.00     0.096 C 
BRANCH  38  39
HETATM   39  S1  UNL     1      19.785  12.319  19.196  1.00  0.00    -0.180 SA
HETATM   40  H22 UNL     1      18.782  11.470  19.488  1.00  0.00     0.101 HD
ENDBRANCH  38  39
ENDBRANCH  37  38
BRANCH  37  41
HETATM   41  C19 UNL     1      17.349  12.987  20.571  1.00  0.00     0.136 C 
BRANCH  41  42
HETATM   42  C20 UNL     1      16.214  13.339  21.491  1.00  0.00     0.141 C 
HETATM   43  O5  UNL     1      16.103  14.335  22.182  1.00  0.00    -0.650 OA
BRANCH  42  44
HETATM   44  O6  UNL     1      15.253  12.393  21.487  1.00  0.00    -0.776 OA
HETATM   45  H25 UNL     1      14.570  12.736  22.101  1.00  0.00     0.167 HD
ENDBRANCH  42  44
ENDBRANCH  41  42
ENDBRANCH  37  41
ENDBRANCH  35  37
ENDBRANCH  32  33
BRANCH  32  46
HETATM   46  C21 UNL     1      14.191  13.460  15.956  1.00  0.00     0.009 C 
HETATM   47  C22 UNL     1      13.272  14.612  15.536  1.00  0.00     0.012 C 
HETATM   48  C23 UNL     1      13.765  12.156  15.276  1.00  0.00     0.012 C 
ENDBRANCH  32  46
ENDBRANCH  30  32
ENDBRANCH  27  28
ENDBRANCH  26  27
ENDBRANCH  13  26
TORSDOF 13
ENDMDL
MODEL 5
REMARK minimizedAffinity -7.23331308
REMARK CNNscore 0.218018025
REMARK CNNaffinity 6.5037384
REMARK  13 active torsions:
REMARK  status: ('A' for Active; 'I' for Inactive)
REMARK    1  A    between atoms: C3_3  and  O1_4 
REMARK    2  A    between atoms: N1_14  and  O2_16 
REMARK    3  A    between atoms: O2_16  and  C13_17 
REMARK    4  A    between atoms: C13_17  and  C14_18 
REMARK       I    between atoms: C14_18  and  N2_20 
REMARK    5  A    between atoms: N2_20  and  C15_21 
REMARK    6  A    between atoms: C15_21  and  C16_22 
REMARK    7  A    between atoms: C15_21  and  C21_32 
REMARK       I    between atoms: C16_22  and  N3_24 
REMARK    8  A    between atoms: N3_24  and  C17_25 
REMARK    9  A    between atoms: C17_25  and  C18_26 
REMARK   10  A    between atoms: C17_25  and  C19_28 
REMARK   11  A    between atoms: C18_26  and  S1_27 
REMARK   12  A    between atoms: C19_28  and  C20_29 
REMARK   13  A    between atoms: C20_29  and  O6_31 
ROOT
HETATM    1  C1  UNL     1      -0.303   7.245  14.560  1.00  0.00     0.015 C 
HETATM    2  C2  UNL     1      -1.403   6.969  14.163  1.00  0.00    -0.078 C 
HETATM    3  C3  UNL     1      -2.752   6.643  13.668  1.00  0.00     0.128 C 
HETATM    4  C4  UNL     1      -2.788   5.279  12.972  1.00  0.00     0.052 C 
HETATM    5  C5  UNL     1      -4.227   4.771  13.116  1.00  0.00     0.010 C 
HETATM    6  C6  UNL     1      -4.978   5.740  14.065  1.00  0.00     0.002 C 
HETATM    7  C7  UNL     1      -5.999   6.610  13.289  1.00  0.00    -0.004 C 
HETATM    8  C8  UNL     1      -7.190   5.798  12.742  1.00  0.00     0.010 C 
HETATM    9  C9  UNL     1      -8.210   5.448  13.813  1.00  0.00     0.035 C 
HETATM   10  C10 UNL     1      -8.742   6.690  14.477  1.00  0.00    -0.069 C 
HETATM   11  C11 UNL     1     -10.070   6.890  14.545  1.00  0.00     0.030 C 
HETATM   12  C12 UNL     1     -10.663   8.035  15.281  1.00  0.00     0.032 C 
HETATM   13  N1  UNL     1     -11.963   8.125  15.314  1.00  0.00    -0.271 N 
ATOM     14  H1  UNL     1     -12.596   7.476  14.847  1.00  0.00     0.194 HD
HETATM   15  C24 UNL     1      -9.722   8.978  16.000  1.00  0.00     0.060 C 
HETATM   16  C25 UNL     1      -8.370   9.040  15.301  1.00  0.00     0.020 C 
HETATM   17  C26 UNL     1      -7.704   7.647  15.067  1.00  0.00    -0.016 C 
HETATM   18  C27 UNL     1      -7.279   7.078  16.435  1.00  0.00     0.020 C 
HETATM   19  C28 UNL     1      -6.503   7.859  14.053  1.00  0.00     0.002 C 
HETATM   20  C29 UNL     1      -5.306   8.666  14.583  1.00  0.00     0.007 C 
HETATM   21  C30 UNL     1      -4.283   7.867  15.382  1.00  0.00     0.014 C 
HETATM   22  C31 UNL     1      -3.836   6.517  14.784  1.00  0.00     0.003 C 
HETATM   23  C32 UNL     1      -3.322   5.643  15.966  1.00  0.00     0.020 C 
ENDROOT
BRANCH   3  24
HETATM   24  O1  UNL     1      -3.115   7.634  12.711  1.00  0.00    -0.377 OA
HETATM   25  H2  UNL     1      -2.380   7.707  12.081  1.00  0.00     0.211 HD
ENDBRANCH   3  24
BRANCH  13  26
HETATM   26  O2  UNL     1     -12.382   9.227  16.075  1.00  0.00    -0.271 OA
BRANCH  26  27
HETATM   27  C13 UNL     1     -13.689   8.975  16.560  1.00  0.00     0.303 C 
BRANCH  27  28
HETATM   28  C14 UNL     1     -13.845   9.456  18.002  1.00  0.00     0.244 C 
HETATM   29  O3  UNL     1     -14.729  10.219  18.382  1.00  0.00    -0.271 OA
HETATM   30  N2  UNL     1     -12.905   8.925  18.867  1.00  0.00    -0.346 N 
HETATM   31  H16 UNL     1     -12.084   8.477  18.474  1.00  0.00     0.163 HD
BRANCH  30  32
HETATM   32  C15 UNL     1     -12.791   9.406  20.256  1.00  0.00     0.180 C 
BRANCH  32  33
HETATM   33  C16 UNL     1     -13.304   8.285  21.191  1.00  0.00     0.241 C 
HETATM   34  O4  UNL     1     -13.368   7.099  20.888  1.00  0.00    -0.271 OA
HETATM   35  N3  UNL     1     -13.594   8.739  22.471  1.00  0.00    -0.353 N 
HETATM   36  H18 UNL     1     -13.555   9.743  22.608  1.00  0.00     0.163 HD
BRANCH  35  37
HETATM   37  C17 UNL     1     -14.304   7.904  23.448  1.00  0.00     0.103 C 
BRANCH  37  38
HETATM   38  C18 UNL     1     -15.742   8.428  23.687  1.00  0.00     0.096 C 
BRANCH  38  39
HETATM   39  S1  UNL     1     -16.997   7.696  22.580  1.00  0.00    -0.180 SA
HETATM   40  H22 UNL     1     -16.633   6.414  22.775  1.00  0.00     0.101 HD
ENDBRANCH  38  39
ENDBRANCH  37  38
BRANCH  37  41
HETATM   41  C19 UNL     1     -13.501   7.878  24.755  1.00  0.00     0.136 C 
BRANCH  41  42
HETATM   42  C20 UNL     1     -14.323   7.389  25.913  1.00  0.00     0.141 C 
HETATM   43  O5  UNL     1     -14.908   8.062  26.743  1.00  0.00    -0.650 OA
BRANCH  42  44
HETATM   44  O6  UNL     1     -14.369   6.043  25.964  1.00  0.00    -0.776 OA
HETATM   45  H25 UNL     1     -14.937   5.846  26.738  1.00  0.00     0.167 HD
ENDBRANCH  42  44
ENDBRANCH  41  42
ENDBRANCH  37  41
ENDBRANCH  35  37
ENDBRANCH  32  33
BRANCH  32  46
HETATM   46  C21 UNL     1     -11.361   9.915  20.550  1.00  0.00     0.009 C 
HETATM   47  C22 UNL     1     -11.072  10.098  22.044  1.00  0.00     0.012 C 
HETATM   48  C23 UNL     1     -11.033  11.196  19.777  1.00  0.00     0.012 C 
ENDBRANCH  32  46
ENDBRANCH  30  32
ENDBRANCH  27  28
ENDBRANCH  26  27
ENDBRANCH  13  26
TORSDOF 13
ENDMDL
MODEL 6
REMARK minimizedAffinity -8.64976883
REMARK CNNscore 0.202774599
REMARK CNNaffinity 6.73525
REMARK  13 active torsions:
REMARK  status: ('A' for Active; 'I' for Inactive)
REMARK    1  A    between atoms: C3_3  and  O1_4 
REMARK    2  A    between atoms: N1_14  and  O2_16 
REMARK    3  A    between atoms: O2_16  and  C13_17 
REMARK    4  A    between atoms: C13_17  and  C14_18 
REMARK       I    between atoms: C14_18  and  N2_20 
REMARK    5  A    between atoms: N2_20  and  C15_21 
REMARK    6  A    between atoms: C15_21  and  C16_22 
REMARK    7  A    between atoms: C15_21  and  C21_32 
REMARK       I    between atoms: C16_22  and  N3_24 
REMARK    8  A    between atoms: N3_24  and  C17_25 
REMARK    9  A    between atoms: C17_25  and  C18_26 
REMARK   10  A    between atoms: C17_25  and  C19_28 
REMARK   11  A    between atoms: C18_26  and  S1_27 
REMARK   12  A    between atoms: C19_28  and  C20_29 
REMARK   13  A    between atoms: C20_29  and  O6_31 
ROOT
HETATM    1  C1  UNL     1       2.951   6.184   8.414  1.00  0.00     0.015 C 
HETATM    2  C2  UNL     1       2.561   6.214   9.550  1.00  0.00    -0.078 C 
HETATM    3  C3  UNL     1       2.081   6.236  10.943  1.00  0.00     0.128 C 
HETATM    4  C4  UNL     1       3.053   6.976  11.867  1.00  0.00     0.052 C 
HETATM    5  C5  UNL     1       2.206   7.509  13.028  1.00  0.00     0.010 C 
HETATM    6  C6  UNL     1       0.716   7.255  12.683  1.00  0.00     0.002 C 
HETATM    7  C7  UNL     1       0.120   6.121  13.557  1.00  0.00    -0.004 C 
HETATM    8  C8  UNL     1      -0.015   6.513  15.042  1.00  0.00     0.010 C 
HETATM    9  C9  UNL     1      -1.201   7.425  15.307  1.00  0.00     0.035 C 
HETATM   10  C10 UNL     1      -2.487   6.781  14.864  1.00  0.00    -0.069 C 
HETATM   11  C11 UNL     1      -3.513   6.682  15.727  1.00  0.00     0.030 C 
HETATM   12  C12 UNL     1      -4.843   6.159  15.322  1.00  0.00     0.032 C 
HETATM   13  N1  UNL     1      -5.783   6.132  16.225  1.00  0.00    -0.271 N 
ATOM     14  H1  UNL     1      -5.656   6.421  17.195  1.00  0.00     0.194 HD
HETATM   15  C24 UNL     1      -5.036   5.761  13.875  1.00  0.00     0.060 C 
HETATM   16  C25 UNL     1      -3.726   5.288  13.257  1.00  0.00     0.020 C 
HETATM   17  C26 UNL     1      -2.543   6.296  13.413  1.00  0.00    -0.016 C 
HETATM   18  C27 UNL     1      -2.834   7.524  12.529  1.00  0.00     0.020 C 
HETATM   19  C28 UNL     1      -1.210   5.526  13.033  1.00  0.00     0.002 C 
HETATM   20  C29 UNL     1      -1.058   5.129  11.555  1.00  0.00     0.007 C 
HETATM   21  C30 UNL     1      -0.505   6.215  10.640  1.00  0.00     0.014 C 
HETATM   22  C31 UNL     1       0.729   6.989  11.148  1.00  0.00     0.003 C 
HETATM   23  C32 UNL     1       0.739   8.364  10.416  1.00  0.00     0.020 C 
ENDROOT
BRANCH   3  24
HETATM   24  O1  UNL     1       1.989   4.887  11.392  1.00  0.00    -0.377 OA
HETATM   25  H2  UNL     1       2.834   4.458  11.185  1.00  0.00     0.211 HD
ENDBRANCH   3  24
BRANCH  13  26
HETATM   26  O2  UNL     1      -6.990   5.654  15.694  1.00  0.00    -0.271 OA
BRANCH  26  27
HETATM   27  C13 UNL     1      -8.060   6.387  16.266  1.00  0.00     0.303 C 
BRANCH  27  28
HETATM   28  C14 UNL     1      -8.983   6.950  15.187  1.00  0.00     0.244 C 
HETATM   29  O3  UNL     1      -8.775   6.848  13.980  1.00  0.00    -0.271 OA
HETATM   30  N2  UNL     1     -10.111   7.572  15.691  1.00  0.00    -0.346 N 
HETATM   31  H16 UNL     1     -10.131   7.812  16.677  1.00  0.00     0.163 HD
BRANCH  30  32
HETATM   32  C15 UNL     1     -11.025   8.323  14.812  1.00  0.00     0.180 C 
BRANCH  32  33
HETATM   33  C16 UNL     1     -12.286   7.456  14.584  1.00  0.00     0.241 C 
HETATM   34  O4  UNL     1     -12.273   6.249  14.369  1.00  0.00    -0.271 OA
HETATM   35  N3  UNL     1     -13.468   8.165  14.753  1.00  0.00    -0.353 N 
HETATM   36  H18 UNL     1     -13.373   9.167  14.882  1.00  0.00     0.163 HD
BRANCH  35  37
HETATM   37  C17 UNL     1     -14.769   7.607  14.367  1.00  0.00     0.103 C 
BRANCH  37  38
HETATM   38  C18 UNL     1     -15.253   6.560  15.400  1.00  0.00     0.096 C 
BRANCH  38  39
HETATM   39  S1  UNL     1     -15.311   7.177  17.118  1.00  0.00    -0.180 SA
HETATM   40  H22 UNL     1     -15.982   8.311  16.843  1.00  0.00     0.101 HD
ENDBRANCH  38  39
ENDBRANCH  37  38
BRANCH  37  41
HETATM   41  C19 UNL     1     -14.650   6.989  12.968  1.00  0.00     0.136 C 
BRANCH  41  42
HETATM   42  C20 UNL     1     -15.700   7.511  12.028  1.00  0.00     0.141 C 
HETATM   43  O5  UNL     1     -16.752   6.980  11.725  1.00  0.00    -0.650 OA
BRANCH  42  44
HETATM   44  O6  UNL     1     -15.359   8.708  11.510  1.00  0.00    -0.776 OA
HETATM   45  H25 UNL     1     -16.115   8.950  10.935  1.00  0.00     0.167 HD
ENDBRANCH  42  44
ENDBRANCH  41  42
ENDBRANCH  37  41
ENDBRANCH  35  37
ENDBRANCH  32  33
BRANCH  32  46
HETATM   46  C21 UNL     1     -11.286   9.743  15.367  1.00  0.00     0.009 C 
HETATM   47  C22 UNL     1     -10.256  10.779  14.903  1.00  0.00     0.012 C 
HETATM   48  C23 UNL     1     -11.411   9.753  16.893  1.00  0.00     0.012 C 
ENDBRANCH  32  46
ENDBRANCH  30  32
ENDBRANCH  27  28
ENDBRANCH  26  27
ENDBRANCH  13  26
TORSDOF 13
ENDMDL
MODEL 7
REMARK minimizedAffinity -7.87087917
REMARK CNNscore 0.181388035
REMARK CNNaffinity 5.87633657
REMARK  13 active torsions:
REMARK  status: ('A' for Active; 'I' for Inactive)
REMARK    1  A    between atoms: C3_3  and  O1_4 
REMARK    2  A    between atoms: N1_14  and  O2_16 
REMARK    3  A    between atoms: O2_16  and  C13_17 
REMARK    4  A    between atoms: C13_17  and  C14_18 
REMARK       I    between atoms: C14_18  and  N2_20 
REMARK    5  A    between atoms: N2_20  and  C15_21 
REMARK    6  A    between atoms: C15_21  and  C16_22 
REMARK    7  A    between atoms: C15_21  and  C21_32 
REMARK       I    between atoms: C16_22  and  N3_24 
REMARK    8  A    between atoms: N3_24  and  C17_25 
REMARK    9  A    between atoms: C17_25  and  C18_26 
REMARK   10  A    between atoms: C17_25  and  C19_28 
REMARK   11  A    between atoms: C18_26  and  S1_27 
REMARK   12  A    between atoms: C19_28  and  C20_29 
REMARK   13  A    between atoms: C20_29  and  O6_31 
ROOT
HETATM    1  C1  UNL     1      -7.216   7.097  14.756  1.00  0.00     0.015 C 
HETATM    2  C2  UNL     1      -6.028   6.912  14.761  1.00  0.00    -0.078 C 
HETATM    3  C3  UNL     1      -4.573   6.684  14.781  1.00  0.00     0.128 C 
HETATM    4  C4  UNL     1      -4.153   5.607  13.775  1.00  0.00     0.052 C 
HETATM    5  C5  UNL     1      -2.700   5.923  13.404  1.00  0.00     0.010 C 
HETATM    6  C6  UNL     1      -2.336   7.292  14.035  1.00  0.00     0.002 C 
HETATM    7  C7  UNL     1      -1.364   7.121  15.230  1.00  0.00    -0.004 C 
HETATM    8  C8  UNL     1       0.039   6.645  14.803  1.00  0.00     0.010 C 
HETATM    9  C9  UNL     1       0.881   7.756  14.197  1.00  0.00     0.035 C 
HETATM   10  C10 UNL     1       1.037   8.901  15.161  1.00  0.00    -0.069 C 
HETATM   11  C11 UNL     1       2.268   9.353  15.461  1.00  0.00     0.030 C 
HETATM   12  C12 UNL     1       2.486  10.548  16.316  1.00  0.00     0.032 C 
HETATM   13  N1  UNL     1       3.716  10.926  16.524  1.00  0.00    -0.271 N 
ATOM     14  H1  UNL     1       4.536  10.440  16.160  1.00  0.00     0.194 HD
HETATM   15  C24 UNL     1       1.267  11.285  16.829  1.00  0.00     0.060 C 
HETATM   16  C25 UNL     1       0.086  10.338  16.998  1.00  0.00     0.020 C 
HETATM   17  C26 UNL     1      -0.254   9.501  15.724  1.00  0.00    -0.016 C 
HETATM   18  C27 UNL     1      -0.820  10.457  14.655  1.00  0.00     0.020 C 
HETATM   19  C28 UNL     1      -1.256   8.353  16.162  1.00  0.00     0.002 C 
HETATM   20  C29 UNL     1      -2.660   8.811  16.590  1.00  0.00     0.007 C 
HETATM   21  C30 UNL     1      -3.652   9.025  15.453  1.00  0.00     0.014 C 
HETATM   22  C31 UNL     1      -3.719   7.925  14.373  1.00  0.00     0.003 C 
HETATM   23  C32 UNL     1      -4.279   8.588  13.080  1.00  0.00     0.020 C 
ENDROOT
BRANCH   3  24
HETATM   24  O1  UNL     1      -4.223   6.227  16.084  1.00  0.00    -0.377 OA
HETATM   25  H2  UNL     1      -4.824   5.497  16.304  1.00  0.00     0.211 HD
ENDBRANCH   3  24
BRANCH  13  26
HETATM   26  O2  UNL     1       3.770  12.085  17.312  1.00  0.00    -0.271 OA
BRANCH  26  27
HETATM   27  C13 UNL     1       5.120  12.329  17.670  1.00  0.00     0.303 C 
BRANCH  27  28
HETATM   28  C14 UNL     1       5.491  11.594  18.957  1.00  0.00     0.244 C 
HETATM   29  O3  UNL     1       6.460  10.847  19.069  1.00  0.00    -0.271 OA
HETATM   30  N2  UNL     1       4.644  11.868  20.016  1.00  0.00    -0.346 N 
HETATM   31  H16 UNL     1       3.753  12.315  19.819  1.00  0.00     0.163 HD
BRANCH  30  32
HETATM   32  C15 UNL     1       4.740  11.121  21.283  1.00  0.00     0.180 C 
BRANCH  32  33
HETATM   33  C16 UNL     1       5.314  12.076  22.356  1.00  0.00     0.241 C 
HETATM   34  O4  UNL     1       4.637  12.741  23.132  1.00  0.00    -0.271 OA
HETATM   35  N3  UNL     1       6.700  12.033  22.432  1.00  0.00    -0.353 N 
HETATM   36  H18 UNL     1       7.170  11.489  21.717  1.00  0.00     0.163 HD
BRANCH  35  37
HETATM   37  C17 UNL     1       7.465  13.013  23.213  1.00  0.00     0.103 C 
BRANCH  37  38
HETATM   38  C18 UNL     1       7.277  14.443  22.648  1.00  0.00     0.096 C 
BRANCH  38  39
HETATM   39  S1  UNL     1       8.287  15.715  23.483  1.00  0.00    -0.180 SA
HETATM   40  H22 UNL     1       9.450  15.041  23.423  1.00  0.00     0.101 HD
ENDBRANCH  38  39
ENDBRANCH  37  38
BRANCH  37  41
HETATM   41  C19 UNL     1       8.944  12.607  23.209  1.00  0.00     0.136 C 
BRANCH  41  42
HETATM   42  C20 UNL     1       9.475  12.423  21.816  1.00  0.00     0.141 C 
HETATM   43  O5  UNL     1       9.276  11.484  21.066  1.00  0.00    -0.650 OA
BRANCH  42  44
HETATM   44  O6  UNL     1      10.246  13.459  21.431  1.00  0.00    -0.776 OA
HETATM   45  H25 UNL     1      10.516  13.236  20.515  1.00  0.00     0.167 HD
ENDBRANCH  42  44
ENDBRANCH  41  42
ENDBRANCH  37  41
ENDBRANCH  35  37
ENDBRANCH  32  33
BRANCH  32  46
HETATM   46  C21 UNL     1       3.390  10.456  21.638  1.00  0.00     0.009 C 
HETATM   47  C22 UNL     1       3.536   9.201  22.505  1.00  0.00     0.012 C 
HETATM   48  C23 UNL     1       2.548  10.158  20.395  1.00  0.00     0.012 C 
ENDBRANCH  32  46
ENDBRANCH  30  32
ENDBRANCH  27  28
ENDBRANCH  26  27
ENDBRANCH  13  26
TORSDOF 13
ENDMDL
MODEL 8
REMARK minimizedAffinity -8.24041748
REMARK CNNscore 0.166104838
REMARK CNNaffinity 5.70591688
REMARK  13 active torsions:
REMARK  status: ('A' for Active; 'I' for Inactive)
REMARK    1  A    between atoms: C3_3  and  O1_4 
REMARK    2  A    between atoms: N1_14  and  O2_16 
REMARK    3  A    between atoms: O2_16  and  C13_17 
REMARK    4  A    between atoms: C13_17  and  C14_18 
REMARK       I    between atoms: C14_18  and  N2_20 
REMARK    5  A    between atoms: N2_20  and  C15_21 
REMARK    6  A    between atoms: C15_21  and  C16_22 
REMARK    7  A    between atoms: C15_21  and  C21_32 
REMARK       I    between atoms: C16_22  and  N3_24 
REMARK    8  A    between atoms: N3_24  and  C17_25 
REMARK    9  A    between atoms: C17_25  and  C18_26 
REMARK   10  A    between atoms: C17_25  and  C19_28 
REMARK   11  A    between atoms: C18_26  and  S1_27 
REMARK   12  A    between atoms: C19_28  and  C20_29 
REMARK   13  A    between atoms: C20_29  and  O6_31 
ROOT
HETATM    1  C1  UNL     1      -7.161   7.725  15.097  1.00  0.00     0.015 C 
HETATM    2  C2  UNL     1      -6.072   7.249  14.921  1.00  0.00    -0.078 C 
HETATM    3  C3  UNL     1      -4.735   6.663  14.719  1.00  0.00     0.128 C 
HETATM    4  C4  UNL     1      -4.760   5.539  13.679  1.00  0.00     0.052 C 
HETATM    5  C5  UNL     1      -3.349   5.488  13.080  1.00  0.00     0.010 C 
HETATM    6  C6  UNL     1      -2.561   6.708  13.623  1.00  0.00     0.002 C 
HETATM    7  C7  UNL     1      -1.490   6.273  14.656  1.00  0.00    -0.004 C 
HETATM    8  C8  UNL     1      -0.335   5.471  14.024  1.00  0.00     0.010 C 
HETATM    9  C9  UNL     1       0.655   6.349  13.276  1.00  0.00     0.035 C 
HETATM   10  C10 UNL     1       1.241   7.396  14.183  1.00  0.00    -0.069 C 
HETATM   11  C11 UNL     1       2.576   7.520  14.281  1.00  0.00     0.030 C 
HETATM   12  C12 UNL     1       3.217   8.602  15.070  1.00  0.00     0.032 C 
HETATM   13  N1  UNL     1       4.520   8.655  15.078  1.00  0.00    -0.271 N 
ATOM     14  H1  UNL     1       5.125   7.988  14.599  1.00  0.00     0.194 HD
HETATM   15  C24 UNL     1       2.316   9.609  15.753  1.00  0.00     0.060 C 
HETATM   16  C25 UNL     1       0.976   8.984  16.121  1.00  0.00     0.020 C 
HETATM   17  C26 UNL     1       0.245   8.288  14.929  1.00  0.00    -0.016 C 
HETATM   18  C27 UNL     1      -0.223   9.378  13.945  1.00  0.00     0.020 C 
HETATM   19  C28 UNL     1      -0.933   7.418  15.538  1.00  0.00     0.002 C 
HETATM   20  C29 UNL     1      -2.094   8.202  16.171  1.00  0.00     0.007 C 
HETATM   21  C30 UNL     1      -3.164   8.684  15.198  1.00  0.00     0.014 C 
HETATM   22  C31 UNL     1      -3.671   7.660  14.161  1.00  0.00     0.003 C 
HETATM   23  C32 UNL     1      -4.241   8.470  12.960  1.00  0.00     0.020 C 
ENDROOT
BRANCH   3  24
HETATM   24  O1  UNL     1      -4.313   6.105  15.959  1.00  0.00    -0.377 OA
HETATM   25  H2  UNL     1      -5.037   5.544  16.282  1.00  0.00     0.211 HD
ENDBRANCH   3  24
BRANCH  13  26
HETATM   26  O2  UNL     1       4.984   9.746  15.828  1.00  0.00    -0.271 OA
BRANCH  26  27
HETATM   27  C13 UNL     1       6.356   9.946  15.537  1.00  0.00     0.303 C 
BRANCH  27  28
HETATM   28  C14 UNL     1       7.152  10.244  16.807  1.00  0.00     0.244 C 
HETATM   29  O3  UNL     1       7.574   9.383  17.574  1.00  0.00    -0.271 OA
HETATM   30  N2  UNL     1       7.387  11.593  17.010  1.00  0.00    -0.346 N 
HETATM   31  H16 UNL     1       6.847  12.264  16.473  1.00  0.00     0.163 HD
BRANCH  30  32
HETATM   32  C15 UNL     1       7.984  12.082  18.265  1.00  0.00     0.180 C 
BRANCH  32  33
HETATM   33  C16 UNL     1       7.140  11.533  19.440  1.00  0.00     0.241 C 
HETATM   34  O4  UNL     1       6.520  10.476  19.419  1.00  0.00    -0.271 OA
HETATM   35  N3  UNL     1       7.235  12.314  20.585  1.00  0.00    -0.353 N 
HETATM   36  H18 UNL     1       7.733  13.192  20.486  1.00  0.00     0.163 HD
BRANCH  35  37
HETATM   37  C17 UNL     1       6.348  12.111  21.737  1.00  0.00     0.103 C 
BRANCH  37  38
HETATM   38  C18 UNL     1       4.960  12.754  21.490  1.00  0.00     0.096 C 
BRANCH  38  39
HETATM   39  S1  UNL     1       3.604  11.548  21.285  1.00  0.00    -0.180 SA
HETATM   40  H22 UNL     1       3.898  10.812  22.374  1.00  0.00     0.101 HD
ENDBRANCH  38  39
ENDBRANCH  37  38
BRANCH  37  41
HETATM   41  C19 UNL     1       7.015  12.700  22.987  1.00  0.00     0.136 C 
BRANCH  41  42
HETATM   42  C20 UNL     1       8.506  12.518  22.970  1.00  0.00     0.141 C 
HETATM   43  O5  UNL     1       9.355  13.374  22.799  1.00  0.00    -0.650 OA
BRANCH  42  44
HETATM   44  O6  UNL     1       8.857  11.233  23.179  1.00  0.00    -0.776 OA
HETATM   45  H25 UNL     1       9.837  11.241  23.163  1.00  0.00     0.167 HD
ENDBRANCH  42  44
ENDBRANCH  41  42
ENDBRANCH  37  41
ENDBRANCH  35  37
ENDBRANCH  32  33
BRANCH  32  46
HETATM   46  C21 UNL     1       9.496  11.757  18.323  1.00  0.00     0.009 C 
HETATM   47  C22 UNL     1       9.928  10.679  17.324  1.00  0.00     0.012 C 
HETATM   48  C23 UNL     1       9.955  11.397  19.739  1.00  0.00     0.012 C 
ENDBRANCH  32  46
ENDBRANCH  30  32
ENDBRANCH  27  28
ENDBRANCH  26  27
ENDBRANCH  13  26
TORSDOF 13
ENDMDL
MODEL 9
REMARK minimizedAffinity -8.17812157
REMARK CNNscore 0.161282569
REMARK CNNaffinity 6.53078842
REMARK  13 active torsions:
REMARK  status: ('A' for Active; 'I' for Inactive)
REMARK    1  A    between atoms: C3_3  and  O1_4 
REMARK    2  A    between atoms: N1_14  and  O2_16 
REMARK    3  A    between atoms: O2_16  and  C13_17 
REMARK    4  A    between atoms: C13_17  and  C14_18 
REMARK       I    between atoms: C14_18  and  N2_20 
REMARK    5  A    between atoms: N2_20  and  C15_21 
REMARK    6  A    between atoms: C15_21  and  C16_22 
REMARK    7  A    between atoms: C15_21  and  C21_32 
REMARK       I    between atoms: C16_22  and  N3_24 
REMARK    8  A    between atoms: N3_24  and  C17_25 
REMARK    9  A    between atoms: C17_25  and  C18_26 
REMARK   10  A    between atoms: C17_25  and  C19_28 
REMARK   11  A    between atoms: C18_26  and  S1_27 
REMARK   12  A    between atoms: C19_28  and  C20_29 
REMARK   13  A    between atoms: C20_29  and  O6_31 
ROOT
HETATM    1  C1  UNL     1      -7.233   8.002  16.057  1.00  0.00     0.015 C 
HETATM    2  C2  UNL     1      -6.413   7.301  15.527  1.00  0.00    -0.078 C 
HETATM    3  C3  UNL     1      -5.401   6.440  14.890  1.00  0.00     0.128 C 
HETATM    4  C4  UNL     1      -6.047   5.328  14.057  1.00  0.00     0.052 C 
HETATM    5  C5  UNL     1      -5.023   4.966  12.974  1.00  0.00     0.010 C 
HETATM    6  C6  UNL     1      -3.870   6.000  13.050  1.00  0.00     0.002 C 
HETATM    7  C7  UNL     1      -2.582   5.364  13.634  1.00  0.00    -0.004 C 
HETATM    8  C8  UNL     1      -1.944   4.323  12.693  1.00  0.00     0.010 C 
HETATM    9  C9  UNL     1      -1.183   4.955  11.539  1.00  0.00     0.035 C 
HETATM   10  C10 UNL     1      -0.100   5.869  12.045  1.00  0.00    -0.069 C 
HETATM   11  C11 UNL     1       1.163   5.706  11.612  1.00  0.00     0.030 C 
HETATM   12  C12 UNL     1       2.255   6.641  11.984  1.00  0.00     0.032 C 
HETATM   13  N1  UNL     1       3.440   6.415  11.489  1.00  0.00    -0.271 N 
ATOM     14  H1  UNL     1       3.669   5.625  10.885  1.00  0.00     0.194 HD
HETATM   15  C24 UNL     1       1.905   7.829  12.854  1.00  0.00     0.060 C 
HETATM   16  C25 UNL     1       0.727   7.512  13.766  1.00  0.00     0.020 C 
HETATM   17  C26 UNL     1      -0.533   6.967  13.020  1.00  0.00    -0.016 C 
HETATM   18  C27 UNL     1      -1.135   8.114  12.184  1.00  0.00     0.020 C 
HETATM   19  C28 UNL     1      -1.516   6.379  14.116  1.00  0.00     0.002 C 
HETATM   20  C29 UNL     1      -2.163   7.405  15.062  1.00  0.00     0.007 C 
HETATM   21  C30 UNL     1      -3.417   8.086  14.528  1.00  0.00     0.014 C 
HETATM   22  C31 UNL     1      -4.476   7.176  13.871  1.00  0.00     0.003 C 
HETATM   23  C32 UNL     1      -5.308   8.068  12.904  1.00  0.00     0.020 C 
ENDROOT
BRANCH   3  24
HETATM   24  O1  UNL     1      -4.639   5.827  15.925  1.00  0.00    -0.377 OA
HETATM   25  H2  UNL     1      -5.269   5.439  16.555  1.00  0.00     0.211 HD
ENDBRANCH   3  24
BRANCH  13  26
HETATM   26  O2  UNL     1       4.360   7.395  11.891  1.00  0.00    -0.271 OA
BRANCH  26  27
HETATM   27  C13 UNL     1       5.648   6.809  11.959  1.00  0.00     0.303 C 
BRANCH  27  28
HETATM   28  C14 UNL     1       6.699   7.833  12.384  1.00  0.00     0.244 C 
HETATM   29  O3  UNL     1       7.297   8.571  11.605  1.00  0.00    -0.271 OA
HETATM   30  N2  UNL     1       6.904   7.883  13.751  1.00  0.00    -0.346 N 
HETATM   31  H16 UNL     1       6.548   7.121  14.321  1.00  0.00     0.163 HD
BRANCH  30  32
HETATM   32  C15 UNL     1       7.998   8.683  14.330  1.00  0.00     0.180 C 
BRANCH  32  33
HETATM   33  C16 UNL     1       7.388   9.616  15.404  1.00  0.00     0.241 C 
HETATM   34  O4  UNL     1       6.344   9.396  16.006  1.00  0.00    -0.271 OA
HETATM   35  N3  UNL     1       8.203  10.699  15.704  1.00  0.00    -0.353 N 
HETATM   36  H18 UNL     1       9.022  10.818  15.118  1.00  0.00     0.163 HD
BRANCH  35  37
HETATM   37  C17 UNL     1       7.729  11.824  16.519  1.00  0.00     0.103 C 
BRANCH  37  38
HETATM   38  C18 UNL     1       7.669  13.128  15.685  1.00  0.00     0.096 C 
BRANCH  38  39
HETATM   39  S1  UNL     1       8.694  14.487  16.347  1.00  0.00    -0.180 SA
HETATM   40  H22 UNL     1       9.815  13.759  16.506  1.00  0.00     0.101 HD
ENDBRANCH  38  39
ENDBRANCH  37  38
BRANCH  37  41
HETATM   41  C19 UNL     1       8.656  11.986  17.731  1.00  0.00     0.136 C 
BRANCH  41  42
HETATM   42  C20 UNL     1       8.078  11.367  18.971  1.00  0.00     0.141 C 
HETATM   43  O5  UNL     1       8.326  11.656  20.128  1.00  0.00    -0.650 OA
BRANCH  42  44
HETATM   44  O6  UNL     1       7.193  10.393  18.681  1.00  0.00    -0.776 OA
HETATM   45  H25 UNL     1       6.877  10.081  19.554  1.00  0.00     0.167 HD
ENDBRANCH  42  44
ENDBRANCH  41  42
ENDBRANCH  37  41
ENDBRANCH  35  37
ENDBRANCH  32  33
BRANCH  32  46
HETATM   46  C21 UNL     1       9.152   7.775  14.815  1.00  0.00     0.009 C 
HETATM   47  C22 UNL     1       9.314   7.753  16.339  1.00  0.00     0.012 C 
HETATM   48  C23 UNL     1      10.481   8.118  14.137  1.00  0.00     0.012 C 
ENDBRANCH  32  46
ENDBRANCH  30  32
ENDBRANCH  27  28
ENDBRANCH  26  27
ENDBRANCH  13  26
TORSDOF 13
ENDMDL
