MODEL 1
REMARK minimizedAffinity -9.58632183
REMARK  6 active torsions:
REMARK  status: ('A' for Active; 'I' for Inactive)
REMARK    1  A    between atoms: C2_2  and  C3_3 
REMARK    2  A    between atoms: C3_3  and  C4_4 
REMARK    3  A    between atoms: C3_3  and  C27_28 
REMARK    4  A    between atoms: C5_5  and  C6_6 
REMARK    5  A    between atoms: C6_6  and  C8_8 
REMARK    6  A    between atoms: C16_16  and  O1_17 
ROOT
HETATM    1  C8  UNL     1       0.219   6.245  11.670  1.00  0.00    -0.002 C 
HETATM    2  C9  UNL     1      -0.773   5.220  12.259  1.00  0.00     0.040 C 
HETATM    3  C10 UNL     1      -1.821   6.115  12.855  1.00  0.00    -0.068 C 
HETATM    4  C11 UNL     1      -3.152   6.009  12.695  1.00  0.00    -0.072 C 
HETATM    5  C12 UNL     1      -3.864   4.765  12.226  1.00  0.00     0.035 C 
HETATM    6  C13 UNL     1      -4.924   4.351  13.256  1.00  0.00     0.010 C 
HETATM    7  C14 UNL     1      -5.867   5.516  13.609  1.00  0.00    -0.003 C 
HETATM    8  C15 UNL     1      -6.983   5.076  14.564  1.00  0.00     0.037 C 
HETATM    9  C16 UNL     1      -7.977   6.212  14.802  1.00  0.00     0.118 C 
HETATM   10  C17 UNL     1      -7.295   7.498  15.262  1.00  0.00     0.032 C 
HETATM   11  C18 UNL     1      -6.145   7.914  14.341  1.00  0.00     0.012 C 
HETATM   12  C19 UNL     1      -5.096   6.792  14.117  1.00  0.00    -0.033 C 
HETATM   13  C20 UNL     1      -4.365   6.526  15.455  1.00  0.00     0.016 C 
HETATM   14  C21 UNL     1      -4.087   7.175  12.979  1.00  0.00     0.023 C 
HETATM   15  C22 UNL     1      -3.331   8.518  13.064  1.00  0.00     0.011 C 
HETATM   16  C23 UNL     1      -2.025   8.476  13.847  1.00  0.00     0.014 C 
HETATM   17  C24 UNL     1      -1.112   7.291  13.484  1.00  0.00    -0.020 C 
HETATM   18  C25 UNL     1      -0.368   6.871  14.775  1.00  0.00     0.020 C 
HETATM   19  C26 UNL     1      -0.088   7.596  12.380  1.00  0.00     0.019 C 
ENDROOT
BRANCH   1  20
HETATM   20  C6  UNL     1       1.698   5.799  11.756  1.00  0.00     0.008 C 
HETATM   21  C7  UNL     1       2.581   6.913  12.336  1.00  0.00     0.014 C 
BRANCH  20  22
HETATM   22  C5  UNL     1       2.240   5.433  10.389  1.00  0.00    -0.026 C 
HETATM   23  C4  UNL     1       2.528   6.250   9.361  1.00  0.00    -0.025 C 
BRANCH  23  24
HETATM   24  C3  UNL     1       2.424   7.762   9.301  1.00  0.00     0.011 C 
BRANCH  24  25
HETATM   25  C2  UNL     1       3.823   8.395   9.099  1.00  0.00     0.004 C 
HETATM   26  C1  UNL     1       4.735   8.260  10.313  1.00  0.00     0.006 C 
ENDBRANCH  24  25
BRANCH  24  27
HETATM   27  C27 UNL     1       1.434   8.255   8.203  1.00  0.00    -0.015 C 
HETATM   28  C28 UNL     1      -0.003   8.348   8.728  1.00  0.00     0.010 C 
HETATM   29  C29 UNL     1       1.454   7.424   6.915  1.00  0.00     0.010 C 
ENDBRANCH  24  27
ENDBRANCH  23  24
ENDBRANCH  20  22
ENDBRANCH   1  20
BRANCH   9  30
HETATM   30  O1  UNL     1      -8.920   5.791  15.782  1.00  0.00    -0.396 OA
HETATM   31  H24 UNL     1      -9.548   6.522  15.919  1.00  0.00     0.210 HD
ENDBRANCH   9  30
TORSDOF 6
ENDMDL
MODEL 2
REMARK minimizedAffinity -9.10240555
REMARK  6 active torsions:
REMARK  status: ('A' for Active; 'I' for Inactive)
REMARK    1  A    between atoms: C2_2  and  C3_3 
REMARK    2  A    between atoms: C3_3  and  C4_4 
REMARK    3  A    between atoms: C3_3  and  C27_28 
REMARK    4  A    between atoms: C5_5  and  C6_6 
REMARK    5  A    between atoms: C6_6  and  C8_8 
REMARK    6  A    between atoms: C16_16  and  O1_17 
ROOT
HETATM    1  C8  UNL     1      -2.593   4.426  13.143  1.00  0.00    -0.002 C 
HETATM    2  C9  UNL     1      -1.872   4.863  11.850  1.00  0.00     0.040 C 
HETATM    3  C10 UNL     1      -0.842   5.818  12.380  1.00  0.00    -0.068 C 
HETATM    4  C11 UNL     1       0.470   5.830  12.083  1.00  0.00    -0.072 C 
HETATM    5  C12 UNL     1       1.083   5.159  10.880  1.00  0.00     0.035 C 
HETATM    6  C13 UNL     1       1.870   6.186  10.055  1.00  0.00     0.010 C 
HETATM    7  C14 UNL     1       2.878   6.966  10.919  1.00  0.00    -0.003 C 
HETATM    8  C15 UNL     1       3.730   7.923  10.077  1.00  0.00     0.037 C 
HETATM    9  C16 UNL     1       4.806   8.591  10.932  1.00  0.00     0.118 C 
HETATM   10  C17 UNL     1       4.228   9.269  12.172  1.00  0.00     0.032 C 
HETATM   11  C18 UNL     1       3.334   8.333  12.989  1.00  0.00     0.012 C 
HETATM   12  C19 UNL     1       2.205   7.674  12.153  1.00  0.00    -0.033 C 
HETATM   13  C20 UNL     1       1.210   8.774  11.712  1.00  0.00     0.016 C 
HETATM   14  C21 UNL     1       1.482   6.542  12.966  1.00  0.00     0.023 C 
HETATM   15  C22 UNL     1       0.910   6.866  14.362  1.00  0.00     0.011 C 
HETATM   16  C23 UNL     1      -0.512   7.413  14.366  1.00  0.00     0.014 C 
HETATM   17  C24 UNL     1      -1.492   6.624  13.480  1.00  0.00    -0.020 C 
HETATM   18  C25 UNL     1      -2.511   7.638  12.904  1.00  0.00     0.020 C 
HETATM   19  C26 UNL     1      -2.244   5.502  14.212  1.00  0.00     0.019 C 
ENDROOT
BRANCH   1  20
HETATM   20  C6  UNL     1      -4.109   4.177  12.956  1.00  0.00     0.008 C 
HETATM   21  C7  UNL     1      -4.462   3.995  11.472  1.00  0.00     0.014 C 
BRANCH  20  22
HETATM   22  C5  UNL     1      -4.924   5.335  13.494  1.00  0.00    -0.026 C 
HETATM   23  C4  UNL     1      -6.254   5.524  13.420  1.00  0.00    -0.025 C 
BRANCH  23  24
HETATM   24  C3  UNL     1      -7.302   4.614  12.809  1.00  0.00     0.011 C 
BRANCH  24  25
HETATM   25  C2  UNL     1      -7.422   3.301  13.622  1.00  0.00     0.004 C 
HETATM   26  C1  UNL     1      -7.447   2.048  12.755  1.00  0.00     0.006 C 
ENDBRANCH  24  25
BRANCH  24  27
HETATM   27  C27 UNL     1      -8.693   5.304  12.671  1.00  0.00    -0.015 C 
HETATM   28  C28 UNL     1      -8.891   5.920  11.281  1.00  0.00     0.010 C 
HETATM   29  C29 UNL     1      -8.984   6.361  13.743  1.00  0.00     0.010 C 
ENDBRANCH  24  27
ENDBRANCH  23  24
ENDBRANCH  20  22
ENDBRANCH   1  20
BRANCH   9  30
HETATM   30  O1  UNL     1       5.487   9.553  10.133  1.00  0.00    -0.396 OA
HETATM   31  H24 UNL     1       6.171   9.966  10.689  1.00  0.00     0.210 HD
ENDBRANCH   9  30
TORSDOF 6
ENDMDL
MODEL 3
REMARK minimizedAffinity -9.04688644
REMARK  6 active torsions:
REMARK  status: ('A' for Active; 'I' for Inactive)
REMARK    1  A    between atoms: C2_2  and  C3_3 
REMARK    2  A    between atoms: C3_3  and  C4_4 
REMARK    3  A    between atoms: C3_3  and  C27_28 
REMARK    4  A    between atoms: C5_5  and  C6_6 
REMARK    5  A    between atoms: C6_6  and  C8_8 
REMARK    6  A    between atoms: C16_16  and  O1_17 
ROOT
HETATM    1  C8  UNL     1      -4.333   6.469  14.864  1.00  0.00    -0.002 C 
HETATM    2  C9  UNL     1      -3.777   6.154  13.459  1.00  0.00     0.040 C 
HETATM    3  C10 UNL     1      -2.375   6.683  13.558  1.00  0.00    -0.068 C 
HETATM    4  C11 UNL     1      -1.249   6.042  13.198  1.00  0.00    -0.072 C 
HETATM    5  C12 UNL     1      -1.197   4.854  12.271  1.00  0.00     0.035 C 
HETATM    6  C13 UNL     1      -0.260   5.152  11.092  1.00  0.00     0.010 C 
HETATM    7  C14 UNL     1       1.122   5.637  11.567  1.00  0.00    -0.003 C 
HETATM    8  C15 UNL     1       2.087   5.843  10.393  1.00  0.00     0.037 C 
HETATM    9  C16 UNL     1       3.486   6.201  10.893  1.00  0.00     0.118 C 
HETATM   10  C17 UNL     1       3.476   7.391  11.850  1.00  0.00     0.032 C 
HETATM   11  C18 UNL     1       2.476   7.215  12.995  1.00  0.00     0.012 C 
HETATM   12  C19 UNL     1       1.036   6.892  12.513  1.00  0.00    -0.033 C 
HETATM   13  C20 UNL     1       0.474   8.131  11.775  1.00  0.00     0.016 C 
HETATM   14  C21 UNL     1       0.115   6.474  13.712  1.00  0.00     0.023 C 
HETATM   15  C22 UNL     1       0.006   7.404  14.938  1.00  0.00     0.011 C 
HETATM   16  C23 UNL     1      -1.064   8.484  14.836  1.00  0.00     0.014 C 
HETATM   17  C24 UNL     1      -2.429   7.972  14.343  1.00  0.00    -0.020 C 
HETATM   18  C25 UNL     1      -3.074   9.107  13.512  1.00  0.00     0.020 C 
HETATM   19  C26 UNL     1      -3.390   7.551  15.466  1.00  0.00     0.019 C 
ENDROOT
BRANCH   1  20
HETATM   20  C6  UNL     1      -5.833   6.853  14.868  1.00  0.00     0.008 C 
HETATM   21  C7  UNL     1      -6.046   8.249  15.471  1.00  0.00     0.014 C 
BRANCH  20  22
HETATM   22  C5  UNL     1      -6.649   5.863  15.673  1.00  0.00    -0.026 C 
HETATM   23  C4  UNL     1      -7.461   4.889  15.222  1.00  0.00    -0.025 C 
BRANCH  23  24
HETATM   24  C3  UNL     1      -7.752   4.496  13.787  1.00  0.00     0.011 C 
BRANCH  24  25
HETATM   25  C2  UNL     1      -7.666   5.731  12.857  1.00  0.00     0.004 C 
HETATM   26  C1  UNL     1      -8.874   5.890  11.942  1.00  0.00     0.006 C 
ENDBRANCH  24  25
BRANCH  24  27
HETATM   27  C27 UNL     1      -6.820   3.356  13.273  1.00  0.00    -0.015 C 
HETATM   28  C28 UNL     1      -5.848   3.853  12.197  1.00  0.00     0.010 C 
HETATM   29  C29 UNL     1      -7.562   2.118  12.758  1.00  0.00     0.010 C 
ENDBRANCH  24  27
ENDBRANCH  23  24
ENDBRANCH  20  22
ENDBRANCH   1  20
BRANCH   9  30
HETATM   30  O1  UNL     1       4.308   6.497   9.768  1.00  0.00    -0.396 OA
HETATM   31  H24 UNL     1       5.194   6.718  10.102  1.00  0.00     0.210 HD
ENDBRANCH   9  30
TORSDOF 6
ENDMDL
MODEL 4
REMARK minimizedAffinity -8.99645901
REMARK  6 active torsions:
REMARK  status: ('A' for Active; 'I' for Inactive)
REMARK    1  A    between atoms: C2_2  and  C3_3 
REMARK    2  A    between atoms: C3_3  and  C4_4 
REMARK    3  A    between atoms: C3_3  and  C27_28 
REMARK    4  A    between atoms: C5_5  and  C6_6 
REMARK    5  A    between atoms: C6_6  and  C8_8 
REMARK    6  A    between atoms: C16_16  and  O1_17 
ROOT
HETATM    1  C8  UNL     1      -2.658   6.367  13.384  1.00  0.00    -0.002 C 
HETATM    2  C9  UNL     1      -1.772   6.188  12.132  1.00  0.00     0.040 C 
HETATM    3  C10 UNL     1      -0.494   6.847  12.564  1.00  0.00    -0.068 C 
HETATM    4  C11 UNL     1       0.747   6.343  12.449  1.00  0.00    -0.072 C 
HETATM    5  C12 UNL     1       1.134   5.219  11.521  1.00  0.00     0.035 C 
HETATM    6  C13 UNL     1       2.272   5.674  10.597  1.00  0.00     0.010 C 
HETATM    7  C14 UNL     1       3.452   6.267  11.388  1.00  0.00    -0.003 C 
HETATM    8  C15 UNL     1       4.625   6.633  10.471  1.00  0.00     0.037 C 
HETATM    9  C16 UNL     1       5.830   7.101  11.287  1.00  0.00     0.118 C 
HETATM   10  C17 UNL     1       5.477   8.229  12.253  1.00  0.00     0.032 C 
HETATM   11  C18 UNL     1       4.272   7.890  13.135  1.00  0.00     0.012 C 
HETATM   12  C19 UNL     1       3.020   7.453  12.329  1.00  0.00    -0.033 C 
HETATM   13  C20 UNL     1       2.504   8.669  11.522  1.00  0.00     0.016 C 
HETATM   14  C21 UNL     1       1.907   6.879  13.273  1.00  0.00     0.023 C 
HETATM   15  C22 UNL     1       1.426   7.725  14.471  1.00  0.00     0.011 C 
HETATM   16  C23 UNL     1       0.294   8.696  14.163  1.00  0.00     0.014 C 
HETATM   17  C24 UNL     1      -0.863   8.079  13.356  1.00  0.00    -0.020 C 
HETATM   18  C25 UNL     1      -1.427   9.189  12.436  1.00  0.00     0.020 C 
HETATM   19  C26 UNL     1      -1.997   7.502  14.218  1.00  0.00     0.019 C 
ENDROOT
BRANCH   1  20
HETATM   20  C6  UNL     1      -4.154   6.598  13.058  1.00  0.00     0.008 C 
HETATM   21  C7  UNL     1      -4.585   8.027  13.420  1.00  0.00     0.014 C 
BRANCH  20  22
HETATM   22  C5  UNL     1      -5.035   5.633  13.823  1.00  0.00    -0.026 C 
HETATM   23  C4  UNL     1      -5.531   4.451  13.411  1.00  0.00    -0.025 C 
BRANCH  23  24
HETATM   24  C3  UNL     1      -5.312   3.749  12.086  1.00  0.00     0.011 C 
BRANCH  24  25
HETATM   25  C2  UNL     1      -3.938   3.035  12.069  1.00  0.00     0.004 C 
HETATM   26  C1  UNL     1      -3.103   3.349  10.833  1.00  0.00     0.006 C 
ENDBRANCH  24  25
BRANCH  24  27
HETATM   27  C27 UNL     1      -6.455   2.747  11.738  1.00  0.00    -0.015 C 
HETATM   28  C28 UNL     1      -7.489   2.646  12.865  1.00  0.00     0.010 C 
HETATM   29  C29 UNL     1      -5.972   1.343  11.361  1.00  0.00     0.010 C 
ENDBRANCH  24  27
ENDBRANCH  23  24
ENDBRANCH  20  22
ENDBRANCH   1  20
BRANCH   9  30
HETATM   30  O1  UNL     1       6.844   7.539  10.388  1.00  0.00    -0.396 OA
HETATM   31  H24 UNL     1       7.604   7.829  10.922  1.00  0.00     0.210 HD
ENDBRANCH   9  30
TORSDOF 6
ENDMDL
MODEL 5
REMARK minimizedAffinity -8.9692297
REMARK  6 active torsions:
REMARK  status: ('A' for Active; 'I' for Inactive)
REMARK    1  A    between atoms: C2_2  and  C3_3 
REMARK    2  A    between atoms: C3_3  and  C4_4 
REMARK    3  A    between atoms: C3_3  and  C27_28 
REMARK    4  A    between atoms: C5_5  and  C6_6 
REMARK    5  A    between atoms: C6_6  and  C8_8 
REMARK    6  A    between atoms: C16_16  and  O1_17 
ROOT
HETATM    1  C8  UNL     1      -2.501   4.530  13.212  1.00  0.00    -0.002 C 
HETATM    2  C9  UNL     1      -1.762   4.927  11.916  1.00  0.00     0.040 C 
HETATM    3  C10 UNL     1      -0.740   5.898  12.431  1.00  0.00    -0.068 C 
HETATM    4  C11 UNL     1       0.576   5.901  12.152  1.00  0.00    -0.072 C 
HETATM    5  C12 UNL     1       1.206   5.194  10.979  1.00  0.00     0.035 C 
HETATM    6  C13 UNL     1       2.004   6.195  10.133  1.00  0.00     0.010 C 
HETATM    7  C14 UNL     1       3.001   7.002  10.987  1.00  0.00    -0.003 C 
HETATM    8  C15 UNL     1       3.864   7.932  10.128  1.00  0.00     0.037 C 
HETATM    9  C16 UNL     1       4.928   8.628  10.976  1.00  0.00     0.118 C 
HETATM   10  C17 UNL     1       4.333   9.343  12.186  1.00  0.00     0.032 C 
HETATM   11  C18 UNL     1       3.428   8.433  13.020  1.00  0.00     0.012 C 
HETATM   12  C19 UNL     1       2.310   7.747  12.189  1.00  0.00    -0.033 C 
HETATM   13  C20 UNL     1       1.322   8.833  11.700  1.00  0.00     0.016 C 
HETATM   14  C21 UNL     1       1.576   6.641  13.026  1.00  0.00     0.023 C 
HETATM   15  C22 UNL     1       0.984   7.008  14.404  1.00  0.00     0.011 C 
HETATM   16  C23 UNL     1      -0.437   7.554  14.371  1.00  0.00     0.014 C 
HETATM   17  C24 UNL     1      -1.405   6.738  13.496  1.00  0.00    -0.020 C 
HETATM   18  C25 UNL     1      -2.416   7.732  12.875  1.00  0.00     0.020 C 
HETATM   19  C26 UNL     1      -2.167   5.639  14.253  1.00  0.00     0.019 C 
ENDROOT
BRANCH   1  20
HETATM   20  C6  UNL     1      -4.014   4.275  13.012  1.00  0.00     0.008 C 
HETATM   21  C7  UNL     1      -4.309   3.777  11.589  1.00  0.00     0.014 C 
BRANCH  20  22
HETATM   22  C5  UNL     1      -4.818   5.538  13.244  1.00  0.00    -0.026 C 
HETATM   23  C4  UNL     1      -6.032   5.661  13.809  1.00  0.00    -0.025 C 
BRANCH  23  24
HETATM   24  C3  UNL     1      -6.911   4.576  14.399  1.00  0.00     0.011 C 
BRANCH  24  25
HETATM   25  C2  UNL     1      -7.580   5.069  15.706  1.00  0.00     0.004 C 
HETATM   26  C1  UNL     1      -7.058   6.417  16.188  1.00  0.00     0.006 C 
ENDBRANCH  24  25
BRANCH  24  27
HETATM   27  C27 UNL     1      -7.984   4.056  13.394  1.00  0.00    -0.015 C 
HETATM   28  C28 UNL     1      -7.616   2.683  12.823  1.00  0.00     0.010 C 
HETATM   29  C29 UNL     1      -8.292   5.022  12.244  1.00  0.00     0.010 C 
ENDBRANCH  24  27
ENDBRANCH  23  24
ENDBRANCH  20  22
ENDBRANCH   1  20
BRANCH   9  30
HETATM   30  O1  UNL     1       5.620   9.564  10.157  1.00  0.00    -0.396 OA
HETATM   31  H24 UNL     1       6.296   9.995  10.709  1.00  0.00     0.210 HD
ENDBRANCH   9  30
TORSDOF 6
ENDMDL
MODEL 6
REMARK minimizedAffinity -8.84196663
REMARK  6 active torsions:
REMARK  status: ('A' for Active; 'I' for Inactive)
REMARK    1  A    between atoms: C2_2  and  C3_3 
REMARK    2  A    between atoms: C3_3  and  C4_4 
REMARK    3  A    between atoms: C3_3  and  C27_28 
REMARK    4  A    between atoms: C5_5  and  C6_6 
REMARK    5  A    between atoms: C6_6  and  C8_8 
REMARK    6  A    between atoms: C16_16  and  O1_17 
ROOT
HETATM    1  C8  UNL     1       1.232   7.586  12.509  1.00  0.00    -0.002 C 
HETATM    2  C9  UNL     1       0.494   6.260  12.786  1.00  0.00     0.040 C 
HETATM    3  C10 UNL     1      -0.884   6.742  13.137  1.00  0.00    -0.068 C 
HETATM    4  C11 UNL     1      -2.046   6.280  12.643  1.00  0.00    -0.072 C 
HETATM    5  C12 UNL     1      -2.217   4.948  11.958  1.00  0.00     0.035 C 
HETATM    6  C13 UNL     1      -3.305   4.132  12.670  1.00  0.00     0.010 C 
HETATM    7  C14 UNL     1      -4.613   4.930  12.824  1.00  0.00    -0.003 C 
HETATM    8  C15 UNL     1      -5.728   4.082  13.449  1.00  0.00     0.037 C 
HETATM    9  C16 UNL     1      -7.048   4.851  13.477  1.00  0.00     0.118 C 
HETATM   10  C17 UNL     1      -6.914   6.216  14.148  1.00  0.00     0.032 C 
HETATM   11  C18 UNL     1      -5.769   7.047  13.563  1.00  0.00     0.012 C 
HETATM   12  C19 UNL     1      -4.405   6.305  13.563  1.00  0.00    -0.033 C 
HETATM   13  C20 UNL     1      -3.951   6.106  15.029  1.00  0.00     0.016 C 
HETATM   14  C21 UNL     1      -3.330   7.089  12.733  1.00  0.00     0.023 C 
HETATM   15  C22 UNL     1      -3.060   8.573  13.061  1.00  0.00     0.011 C 
HETATM   16  C23 UNL     1      -2.018   8.815  14.145  1.00  0.00     0.014 C 
HETATM   17  C24 UNL     1      -0.729   7.991  13.973  1.00  0.00    -0.020 C 
HETATM   18  C25 UNL     1      -0.206   7.654  15.391  1.00  0.00     0.020 C 
HETATM   19  C26 UNL     1       0.375   8.702  13.175  1.00  0.00     0.019 C 
ENDROOT
BRANCH   1  20
HETATM   20  C6  UNL     1       2.718   7.574  12.945  1.00  0.00     0.008 C 
HETATM   21  C7  UNL     1       2.848   7.673  14.472  1.00  0.00     0.014 C 
BRANCH  20  22
HETATM   22  C5  UNL     1       3.477   8.733  12.332  1.00  0.00    -0.026 C 
HETATM   23  C4  UNL     1       4.160   8.762  11.173  1.00  0.00    -0.025 C 
BRANCH  23  24
HETATM   24  C3  UNL     1       4.325   7.656  10.150  1.00  0.00     0.011 C 
BRANCH  24  25
HETATM   25  C2  UNL     1       4.762   6.339  10.838  1.00  0.00     0.004 C 
HETATM   26  C1  UNL     1       6.233   6.318  11.237  1.00  0.00     0.006 C 
ENDBRANCH  24  25
BRANCH  24  27
HETATM   27  C27 UNL     1       3.041   7.429   9.295  1.00  0.00    -0.015 C 
HETATM   28  C28 UNL     1       2.924   5.979   8.813  1.00  0.00     0.010 C 
HETATM   29  C29 UNL     1       2.902   8.378   8.099  1.00  0.00     0.010 C 
ENDBRANCH  24  27
ENDBRANCH  23  24
ENDBRANCH  20  22
ENDBRANCH   1  20
BRANCH   9  30
HETATM   30  O1  UNL     1      -8.014   4.068  14.170  1.00  0.00    -0.396 OA
HETATM   31  H24 UNL     1      -8.849   4.568  14.176  1.00  0.00     0.210 HD
ENDBRANCH   9  30
TORSDOF 6
ENDMDL
MODEL 7
REMARK minimizedAffinity -8.8319273
REMARK  6 active torsions:
REMARK  status: ('A' for Active; 'I' for Inactive)
REMARK    1  A    between atoms: C2_2  and  C3_3 
REMARK    2  A    between atoms: C3_3  and  C4_4 
REMARK    3  A    between atoms: C3_3  and  C27_28 
REMARK    4  A    between atoms: C5_5  and  C6_6 
REMARK    5  A    between atoms: C6_6  and  C8_8 
REMARK    6  A    between atoms: C16_16  and  O1_17 
ROOT
HETATM    1  C8  UNL     1      -4.394   7.390  13.204  1.00  0.00    -0.002 C 
HETATM    2  C9  UNL     1      -3.082   8.201  13.266  1.00  0.00     0.040 C 
HETATM    3  C10 UNL     1      -2.081   7.207  12.753  1.00  0.00    -0.068 C 
HETATM    4  C11 UNL     1      -1.151   7.420  11.805  1.00  0.00    -0.072 C 
HETATM    5  C12 UNL     1      -0.672   8.780  11.365  1.00  0.00     0.035 C 
HETATM    6  C13 UNL     1       0.853   8.871  11.521  1.00  0.00     0.010 C 
HETATM    7  C14 UNL     1       1.572   7.699  10.828  1.00  0.00    -0.003 C 
HETATM    8  C15 UNL     1       3.096   7.842  10.903  1.00  0.00     0.037 C 
HETATM    9  C16 UNL     1       3.788   6.739  10.103  1.00  0.00     0.118 C 
HETATM   10  C17 UNL     1       3.317   5.344  10.507  1.00  0.00     0.032 C 
HETATM   11  C18 UNL     1       1.792   5.210  10.485  1.00  0.00     0.012 C 
HETATM   12  C19 UNL     1       1.066   6.294  11.326  1.00  0.00    -0.033 C 
HETATM   13  C20 UNL     1       1.394   6.061  12.821  1.00  0.00     0.016 C 
HETATM   14  C21 UNL     1      -0.481   6.270  11.070  1.00  0.00     0.023 C 
HETATM   15  C22 UNL     1      -1.253   4.944  11.240  1.00  0.00     0.011 C 
HETATM   16  C23 UNL     1      -1.748   4.662  12.653  1.00  0.00     0.014 C 
HETATM   17  C24 UNL     1      -2.447   5.857  13.325  1.00  0.00    -0.020 C 
HETATM   18  C25 UNL     1      -2.129   5.785  14.838  1.00  0.00     0.020 C 
HETATM   19  C26 UNL     1      -3.970   5.895  13.123  1.00  0.00     0.019 C 
ENDROOT
BRANCH   1  20
HETATM   20  C6  UNL     1      -5.380   7.715  14.352  1.00  0.00     0.008 C 
HETATM   21  C7  UNL     1      -4.940   8.968  15.124  1.00  0.00     0.014 C 
BRANCH  20  22
HETATM   22  C5  UNL     1      -5.474   6.566  15.334  1.00  0.00    -0.026 C 
HETATM   23  C4  UNL     1      -6.474   5.679  15.488  1.00  0.00    -0.025 C 
BRANCH  23  24
HETATM   24  C3  UNL     1      -7.762   5.567  14.697  1.00  0.00     0.011 C 
BRANCH  24  25
HETATM   25  C2  UNL     1      -8.420   6.959  14.531  1.00  0.00     0.004 C 
HETATM   26  C1  UNL     1      -9.653   7.159  15.404  1.00  0.00     0.006 C 
ENDBRANCH  24  25
BRANCH  24  27
HETATM   27  C27 UNL     1      -7.561   4.886  13.309  1.00  0.00    -0.015 C 
HETATM   28  C28 UNL     1      -8.503   5.463  12.247  1.00  0.00     0.010 C 
HETATM   29  C29 UNL     1      -7.688   3.359  13.330  1.00  0.00     0.010 C 
ENDBRANCH  24  27
ENDBRANCH  23  24
ENDBRANCH  20  22
ENDBRANCH   1  20
BRANCH   9  30
HETATM   30  O1  UNL     1       5.194   6.847  10.303  1.00  0.00    -0.396 OA
HETATM   31  H24 UNL     1       5.619   6.142   9.785  1.00  0.00     0.210 HD
ENDBRANCH   9  30
TORSDOF 6
ENDMDL
MODEL 8
REMARK minimizedAffinity -8.71175289
REMARK  6 active torsions:
REMARK  status: ('A' for Active; 'I' for Inactive)
REMARK    1  A    between atoms: C2_2  and  C3_3 
REMARK    2  A    between atoms: C3_3  and  C4_4 
REMARK    3  A    between atoms: C3_3  and  C27_28 
REMARK    4  A    between atoms: C5_5  and  C6_6 
REMARK    5  A    between atoms: C6_6  and  C8_8 
REMARK    6  A    between atoms: C16_16  and  O1_17 
ROOT
HETATM    1  C8  UNL     1       0.754   7.442  13.223  1.00  0.00    -0.002 C 
HETATM    2  C9  UNL     1       0.012   6.098  13.380  1.00  0.00     0.040 C 
HETATM    3  C10 UNL     1      -1.408   6.550  13.558  1.00  0.00    -0.068 C 
HETATM    4  C11 UNL     1      -2.488   6.079  12.909  1.00  0.00    -0.072 C 
HETATM    5  C12 UNL     1      -2.545   4.758  12.185  1.00  0.00     0.035 C 
HETATM    6  C13 UNL     1      -3.699   3.910  12.736  1.00  0.00     0.010 C 
HETATM    7  C14 UNL     1      -5.031   4.683  12.734  1.00  0.00    -0.003 C 
HETATM    8  C15 UNL     1      -6.200   3.804  13.194  1.00  0.00     0.037 C 
HETATM    9  C16 UNL     1      -7.528   4.550  13.065  1.00  0.00     0.118 C 
HETATM   10  C17 UNL     1      -7.507   5.903  13.772  1.00  0.00     0.032 C 
HETATM   11  C18 UNL     1      -6.312   6.765  13.355  1.00  0.00     0.012 C 
HETATM   12  C19 UNL     1      -4.946   6.045  13.518  1.00  0.00    -0.033 C 
HETATM   13  C20 UNL     1      -4.681   5.825  15.026  1.00  0.00     0.016 C 
HETATM   14  C21 UNL     1      -3.789   6.864  12.847  1.00  0.00     0.023 C 
HETATM   15  C22 UNL     1      -3.592   8.346  13.234  1.00  0.00     0.011 C 
HETATM   16  C23 UNL     1      -2.702   8.583  14.447  1.00  0.00     0.014 C 
HETATM   17  C24 UNL     1      -1.387   7.784  14.429  1.00  0.00    -0.020 C 
HETATM   18  C25 UNL     1      -1.044   7.428  15.896  1.00  0.00     0.020 C 
HETATM   19  C26 UNL     1      -0.203   8.529  13.793  1.00  0.00     0.019 C 
ENDROOT
BRANCH   1  20
HETATM   20  C6  UNL     1       2.171   7.446  13.847  1.00  0.00     0.008 C 
HETATM   21  C7  UNL     1       2.142   7.980  15.287  1.00  0.00     0.014 C 
BRANCH  20  22
HETATM   22  C5  UNL     1       3.120   8.311  13.044  1.00  0.00    -0.026 C 
HETATM   23  C4  UNL     1       3.419   8.227  11.735  1.00  0.00    -0.025 C 
BRANCH  23  24
HETATM   24  C3  UNL     1       2.861   7.269  10.701  1.00  0.00     0.011 C 
BRANCH  24  25
HETATM   25  C2  UNL     1       2.080   8.042   9.609  1.00  0.00     0.004 C 
HETATM   26  C1  UNL     1       2.820   8.134   8.280  1.00  0.00     0.006 C 
ENDBRANCH  24  25
BRANCH  24  27
HETATM   27  C27 UNL     1       3.959   6.369  10.057  1.00  0.00    -0.015 C 
HETATM   28  C28 UNL     1       3.456   4.944   9.806  1.00  0.00     0.010 C 
HETATM   29  C29 UNL     1       5.273   6.315  10.845  1.00  0.00     0.010 C 
ENDBRANCH  24  27
ENDBRANCH  23  24
ENDBRANCH  20  22
ENDBRANCH   1  20
BRANCH   9  30
HETATM   30  O1  UNL     1      -8.560   3.737  13.614  1.00  0.00    -0.396 OA
HETATM   31  H24 UNL     1      -9.398   4.223  13.520  1.00  0.00     0.210 HD
ENDBRANCH   9  30
TORSDOF 6
ENDMDL
MODEL 9
REMARK minimizedAffinity -8.67619038
REMARK  6 active torsions:
REMARK  status: ('A' for Active; 'I' for Inactive)
REMARK    1  A    between atoms: C2_2  and  C3_3 
REMARK    2  A    between atoms: C3_3  and  C4_4 
REMARK    3  A    between atoms: C3_3  and  C27_28 
REMARK    4  A    between atoms: C5_5  and  C6_6 
REMARK    5  A    between atoms: C6_6  and  C8_8 
REMARK    6  A    between atoms: C16_16  and  O1_17 
ROOT
HETATM    1  C8  UNL     1      -7.248   5.252  14.096  1.00  0.00    -0.002 C 
HETATM    2  C9  UNL     1      -6.347   5.179  12.845  1.00  0.00     0.040 C 
HETATM    3  C10 UNL     1      -5.027   5.644  13.389  1.00  0.00    -0.068 C 
HETATM    4  C11 UNL     1      -3.833   5.049  13.218  1.00  0.00    -0.072 C 
HETATM    5  C12 UNL     1      -3.523   4.044  12.138  1.00  0.00     0.035 C 
HETATM    6  C13 UNL     1      -2.323   4.522  11.309  1.00  0.00     0.010 C 
HETATM    7  C14 UNL     1      -1.117   4.879  12.197  1.00  0.00    -0.003 C 
HETATM    8  C15 UNL     1       0.110   5.265  11.364  1.00  0.00     0.037 C 
HETATM    9  C16 UNL     1       1.328   5.492  12.258  1.00  0.00     0.118 C 
HETATM   10  C17 UNL     1       1.051   6.492  13.378  1.00  0.00     0.032 C 
HETATM   11  C18 UNL     1      -0.204   6.141  14.181  1.00  0.00     0.012 C 
HETATM   12  C19 UNL     1      -1.467   5.947  13.299  1.00  0.00    -0.033 C 
HETATM   13  C20 UNL     1      -1.848   7.312  12.677  1.00  0.00     0.016 C 
HETATM   14  C21 UNL     1      -2.654   5.346  14.130  1.00  0.00     0.023 C 
HETATM   15  C22 UNL     1      -3.091   6.046  15.435  1.00  0.00     0.011 C 
HETATM   16  C23 UNL     1      -4.121   7.154  15.259  1.00  0.00     0.014 C 
HETATM   17  C24 UNL     1      -5.305   6.774  14.352  1.00  0.00    -0.020 C 
HETATM   18  C25 UNL     1      -5.740   8.056  13.601  1.00  0.00     0.020 C 
HETATM   19  C26 UNL     1      -6.511   6.185  15.101  1.00  0.00     0.019 C 
ENDROOT
BRANCH   1  20
HETATM   20  C6  UNL     1      -8.706   5.669  13.787  1.00  0.00     0.008 C 
HETATM   21  C7  UNL     1      -8.888   5.989  12.296  1.00  0.00     0.014 C 
BRANCH  20  22
HETATM   22  C5  UNL     1      -9.106   6.894  14.583  1.00  0.00    -0.026 C 
HETATM   23  C4  UNL     1     -10.290   7.533  14.593  1.00  0.00    -0.025 C 
BRANCH  23  24
HETATM   24  C3  UNL     1     -11.556   7.181  13.836  1.00  0.00     0.011 C 
BRANCH  24  25
HETATM   25  C2  UNL     1     -12.681   6.773  14.820  1.00  0.00     0.004 C 
HETATM   26  C1  UNL     1     -13.493   5.572  14.352  1.00  0.00     0.006 C 
ENDBRANCH  24  25
BRANCH  24  27
HETATM   27  C27 UNL     1     -12.037   8.329  12.898  1.00  0.00    -0.015 C 
HETATM   28  C28 UNL     1     -11.397   9.673  13.264  1.00  0.00     0.010 C 
HETATM   29  C29 UNL     1     -13.559   8.491  12.827  1.00  0.00     0.010 C 
ENDBRANCH  24  27
ENDBRANCH  23  24
ENDBRANCH  20  22
ENDBRANCH   1  20
BRANCH   9  30
HETATM   30  O1  UNL     1       2.403   5.961  11.450  1.00  0.00    -0.396 OA
HETATM   31  H24 UNL     1       3.171   6.097  12.032  1.00  0.00     0.210 HD
ENDBRANCH   9  30
TORSDOF 6
ENDMDL
