MODEL 1
REMARK minimizedAffinity -9.15954399
REMARK  12 active torsions:
REMARK  status: ('A' for Active; 'I' for Inactive)
REMARK    1  A    between atoms: C4_4  and  C5_5 
REMARK    2  A    between atoms: C5_5  and  C6_6 
REMARK    3  A    between atoms: C6_6  and  C7_7 
REMARK    4  A    between atoms: C7_7  and  C9_9 
REMARK    5  A    between atoms: C17_17  and  C18_18 
REMARK    6  A    between atoms: C18_18  and  O1_20 
REMARK    7  A    between atoms: C18_18  and  C20_21 
REMARK    8  A    between atoms: C20_21  and  O2_22 
REMARK    9  A    between atoms: C21_23  and  C22_24 
REMARK   10  A    between atoms: C22_24  and  C23_25 
REMARK   11  A    between atoms: C23_25  and  C24_26 
REMARK   12  A    between atoms: C24_26  and  O4_28 
ROOT
HETATM    1  C9  UNL     1      -3.028  49.650 -19.894  1.00  0.00    -0.002 C 
HETATM    2  C10 UNL     1      -2.846  51.171 -19.703  1.00  0.00     0.006 C 
HETATM    3  C11 UNL     1      -2.232  51.691 -20.998  1.00  0.00     0.011 C 
HETATM    4  C12 UNL     1      -1.288  50.561 -21.466  1.00  0.00    -0.032 C 
HETATM    5  C13 UNL     1      -0.014  50.582 -20.574  1.00  0.00     0.016 C 
HETATM    6  C14 UNL     1      -0.816  50.715 -22.969  1.00  0.00     0.004 C 
HETATM    7  C15 UNL     1      -0.066  52.040 -23.199  1.00  0.00     0.007 C 
HETATM    8  C16 UNL     1       0.029  52.571 -24.623  1.00  0.00     0.009 C 
HETATM    9  C17 UNL     1      -0.283  51.567 -25.745  1.00  0.00     0.031 C 
HETATM   10  C21 UNL     1      -1.627  50.811 -25.473  1.00  0.00    -0.025 A 
HETATM   11  C25 UNL     1      -2.719  51.498 -24.652  1.00  0.00     0.021 A 
HETATM   12  C26 UNL     1      -1.904  50.411 -23.997  1.00  0.00    -0.027 A 
HETATM   13  C27 UNL     1      -2.600  49.092 -23.717  1.00  0.00     0.011 C 
HETATM   14  C28 UNL     1      -3.212  49.088 -22.331  1.00  0.00     0.011 C 
HETATM   15  C29 UNL     1      -2.174  49.281 -21.181  1.00  0.00    -0.032 C 
HETATM   16  C30 UNL     1      -1.332  47.998 -21.104  1.00  0.00     0.016 C 
ENDROOT
BRANCH   1  17
HETATM   17  C7  UNL     1      -2.991  48.844 -18.558  1.00  0.00    -0.014 C 
HETATM   18  C8  UNL     1      -2.783  47.342 -18.795  1.00  0.00     0.010 C 
BRANCH  17  19
HETATM   19  C6  UNL     1      -2.071  49.381 -17.441  1.00  0.00     0.008 C 
BRANCH  19  20
HETATM   20  C5  UNL     1      -0.599  48.996 -17.636  1.00  0.00     0.028 C 
BRANCH  20  21
HETATM   21  C4  UNL     1       0.221  49.349 -16.423  1.00  0.00    -0.025 C 
HETATM   22  C2  UNL     1       0.793  50.536 -16.144  1.00  0.00    -0.091 C 
HETATM   23  C1  UNL     1       0.755  51.742 -17.044  1.00  0.00     0.042 C 
HETATM   24  C3  UNL     1       1.557  50.741 -14.862  1.00  0.00     0.042 C 
ENDBRANCH  20  21
ENDBRANCH  19  20
ENDBRANCH  17  19
ENDBRANCH   1  17
BRANCH  10  25
HETATM   25  C22 UNL     1      -1.999  49.769 -26.546  1.00  0.00     0.021 C 
BRANCH  25  26
HETATM   26  C23 UNL     1      -3.500  49.560 -26.756  1.00  0.00     0.111 C 
BRANCH  26  27
HETATM   27  C24 UNL     1      -3.810  49.325 -28.208  1.00  0.00     0.139 C 
HETATM   28  O3  UNL     1      -4.225  48.301 -28.725  1.00  0.00    -0.650 OA
BRANCH  27  29
HETATM   29  O4  UNL     1      -3.560  50.415 -28.963  1.00  0.00    -0.776 OA
HETATM   30  H41 UNL     1      -3.789  50.128 -29.871  1.00  0.00     0.167 HD
ENDBRANCH  27  29
ENDBRANCH  26  27
ENDBRANCH  25  26
ENDBRANCH  10  25
BRANCH   9  31
HETATM   31  C18 UNL     1      -0.151  52.233 -27.185  1.00  0.00     0.080 C 
HETATM   32  C19 UNL     1      -0.203  53.775 -27.212  1.00  0.00     0.048 C 
BRANCH  31  33
HETATM   33  O1  UNL     1      -1.229  51.821 -28.043  1.00  0.00    -0.388 OA
HETATM   34  H33 UNL     1      -0.908  52.000 -28.951  1.00  0.00     0.210 HD
ENDBRANCH  31  33
BRANCH  31  35
HETATM   35  C20 UNL     1       1.184  51.799 -27.858  1.00  0.00     0.201 C 
BRANCH  35  36
HETATM   36  O2  UNL     1       2.271  52.042 -26.957  1.00  0.00    -0.398 OA
HETATM   37  H36 UNL     1       3.091  51.917 -27.467  1.00  0.00     0.209 HD
ENDBRANCH  35  36
ENDBRANCH  31  35
ENDBRANCH   9  31
TORSDOF 12
ENDMDL
MODEL 2
REMARK minimizedAffinity -8.71051884
REMARK  12 active torsions:
REMARK  status: ('A' for Active; 'I' for Inactive)
REMARK    1  A    between atoms: C4_4  and  C5_5 
REMARK    2  A    between atoms: C5_5  and  C6_6 
REMARK    3  A    between atoms: C6_6  and  C7_7 
REMARK    4  A    between atoms: C7_7  and  C9_9 
REMARK    5  A    between atoms: C17_17  and  C18_18 
REMARK    6  A    between atoms: C18_18  and  O1_20 
REMARK    7  A    between atoms: C18_18  and  C20_21 
REMARK    8  A    between atoms: C20_21  and  O2_22 
REMARK    9  A    between atoms: C21_23  and  C22_24 
REMARK   10  A    between atoms: C22_24  and  C23_25 
REMARK   11  A    between atoms: C23_25  and  C24_26 
REMARK   12  A    between atoms: C24_26  and  O4_28 
ROOT
HETATM    1  C9  UNL     1      -1.679  50.936 -19.270  1.00  0.00    -0.002 C 
HETATM    2  C10 UNL     1      -1.108  52.368 -19.196  1.00  0.00     0.006 C 
HETATM    3  C11 UNL     1      -0.743  52.755 -20.625  1.00  0.00     0.011 C 
HETATM    4  C12 UNL     1      -0.238  51.444 -21.268  1.00  0.00    -0.032 C 
HETATM    5  C13 UNL     1       1.191  51.150 -20.730  1.00  0.00     0.016 C 
HETATM    6  C14 UNL     1      -0.144  51.512 -22.848  1.00  0.00     0.004 C 
HETATM    7  C15 UNL     1       0.807  52.629 -23.315  1.00  0.00     0.007 C 
HETATM    8  C16 UNL     1       0.653  53.150 -24.738  1.00  0.00     0.009 C 
HETATM    9  C17 UNL     1      -0.159  52.268 -25.701  1.00  0.00     0.031 C 
HETATM   10  C21 UNL     1      -1.525  51.842 -25.065  1.00  0.00    -0.025 A 
HETATM   11  C25 UNL     1      -2.181  52.750 -24.024  1.00  0.00     0.021 A 
HETATM   12  C26 UNL     1      -1.500  51.491 -23.552  1.00  0.00    -0.027 A 
HETATM   13  C27 UNL     1      -2.385  50.366 -23.049  1.00  0.00     0.011 C 
HETATM   14  C28 UNL     1      -2.606  50.479 -21.555  1.00  0.00     0.011 C 
HETATM   15  C29 UNL     1      -1.292  50.402 -20.714  1.00  0.00    -0.032 C 
HETATM   16  C30 UNL     1      -0.778  48.956 -20.799  1.00  0.00     0.016 C 
ENDROOT
BRANCH   1  17
HETATM   17  C7  UNL     1      -1.488  50.119 -17.953  1.00  0.00    -0.014 C 
HETATM   18  C8  UNL     1      -2.395  48.882 -17.906  1.00  0.00     0.010 C 
BRANCH  17  19
HETATM   19  C6  UNL     1      -0.039  49.785 -17.540  1.00  0.00     0.008 C 
BRANCH  19  20
HETATM   20  C5  UNL     1       0.425  50.555 -16.296  1.00  0.00     0.028 C 
BRANCH  20  21
HETATM   21  C4  UNL     1       1.522  51.529 -16.636  1.00  0.00    -0.025 C 
HETATM   22  C2  UNL     1       2.629  51.793 -15.915  1.00  0.00    -0.091 C 
HETATM   23  C1  UNL     1       2.951  51.180 -14.579  1.00  0.00     0.042 C 
HETATM   24  C3  UNL     1       3.656  52.775 -16.412  1.00  0.00     0.042 C 
ENDBRANCH  20  21
ENDBRANCH  19  20
ENDBRANCH  17  19
ENDBRANCH   1  17
BRANCH  10  25
HETATM   25  C22 UNL     1      -2.390  50.936 -25.964  1.00  0.00     0.021 C 
BRANCH  25  26
HETATM   26  C23 UNL     1      -2.064  49.443 -25.888  1.00  0.00     0.111 C 
BRANCH  26  27
HETATM   27  C24 UNL     1      -3.155  48.624 -26.519  1.00  0.00     0.139 C 
HETATM   28  O3  UNL     1      -3.158  48.113 -27.627  1.00  0.00    -0.650 OA
BRANCH  27  29
HETATM   29  O4  UNL     1      -4.228  48.498 -25.710  1.00  0.00    -0.776 OA
HETATM   30  H41 UNL     1      -4.856  47.963 -26.236  1.00  0.00     0.167 HD
ENDBRANCH  27  29
ENDBRANCH  26  27
ENDBRANCH  25  26
ENDBRANCH  10  25
BRANCH   9  31
HETATM   31  C18 UNL     1      -0.250  52.911 -27.155  1.00  0.00     0.080 C 
HETATM   32  C19 UNL     1       0.479  52.135 -28.272  1.00  0.00     0.048 C 
BRANCH  31  33
HETATM   33  O1  UNL     1       0.347  54.219 -27.175  1.00  0.00    -0.388 OA
HETATM   34  H33 UNL     1      -0.025  54.651 -27.971  1.00  0.00     0.210 HD
ENDBRANCH  31  33
BRANCH  31  35
HETATM   35  C20 UNL     1      -1.738  53.061 -27.584  1.00  0.00     0.201 C 
BRANCH  35  36
HETATM   36  O2  UNL     1      -1.862  54.166 -28.487  1.00  0.00    -0.398 OA
HETATM   37  H36 UNL     1      -2.816  54.329 -28.600  1.00  0.00     0.209 HD
ENDBRANCH  35  36
ENDBRANCH  31  35
ENDBRANCH   9  31
TORSDOF 12
ENDMDL
MODEL 3
REMARK minimizedAffinity -8.68069363
REMARK  12 active torsions:
REMARK  status: ('A' for Active; 'I' for Inactive)
REMARK    1  A    between atoms: C4_4  and  C5_5 
REMARK    2  A    between atoms: C5_5  and  C6_6 
REMARK    3  A    between atoms: C6_6  and  C7_7 
REMARK    4  A    between atoms: C7_7  and  C9_9 
REMARK    5  A    between atoms: C17_17  and  C18_18 
REMARK    6  A    between atoms: C18_18  and  O1_20 
REMARK    7  A    between atoms: C18_18  and  C20_21 
REMARK    8  A    between atoms: C20_21  and  O2_22 
REMARK    9  A    between atoms: C21_23  and  C22_24 
REMARK   10  A    between atoms: C22_24  and  C23_25 
REMARK   11  A    between atoms: C23_25  and  C24_26 
REMARK   12  A    between atoms: C24_26  and  O4_28 
ROOT
HETATM    1  C9  UNL     1      -3.334  49.225 -19.769  1.00  0.00    -0.002 C 
HETATM    2  C10 UNL     1      -3.165  50.729 -19.461  1.00  0.00     0.006 C 
HETATM    3  C11 UNL     1      -2.507  51.343 -20.692  1.00  0.00     0.011 C 
HETATM    4  C12 UNL     1      -1.543  50.250 -21.207  1.00  0.00    -0.032 C 
HETATM    5  C13 UNL     1      -0.302  50.209 -20.271  1.00  0.00     0.016 C 
HETATM    6  C14 UNL     1      -1.018  50.514 -22.677  1.00  0.00     0.004 C 
HETATM    7  C15 UNL     1      -0.266  51.853 -22.783  1.00  0.00     0.007 C 
HETATM    8  C16 UNL     1      -0.123  52.486 -24.161  1.00  0.00     0.009 C 
HETATM    9  C17 UNL     1      -0.391  51.566 -25.363  1.00  0.00     0.031 C 
HETATM   10  C21 UNL     1      -1.740  50.790 -25.194  1.00  0.00    -0.025 A 
HETATM   11  C25 UNL     1      -2.864  51.415 -24.365  1.00  0.00     0.021 A 
HETATM   12  C26 UNL     1      -2.069  50.284 -23.762  1.00  0.00    -0.027 A 
HETATM   13  C27 UNL     1      -2.768  48.947 -23.604  1.00  0.00     0.011 C 
HETATM   14  C28 UNL     1      -3.429  48.842 -22.245  1.00  0.00     0.011 C 
HETATM   15  C29 UNL     1      -2.433  48.952 -21.047  1.00  0.00    -0.032 C 
HETATM   16  C30 UNL     1      -1.590  47.668 -21.034  1.00  0.00     0.016 C 
ENDROOT
BRANCH   1  17
HETATM   17  C7  UNL     1      -3.341  48.325 -18.493  1.00  0.00    -0.014 C 
HETATM   18  C8  UNL     1      -3.127  49.140 -17.211  1.00  0.00     0.010 C 
BRANCH  17  19
HETATM   19  C6  UNL     1      -4.508  47.324 -18.350  1.00  0.00     0.008 C 
BRANCH  19  20
HETATM   20  C5  UNL     1      -5.671  47.613 -19.308  1.00  0.00     0.028 C 
BRANCH  20  21
HETATM   21  C4  UNL     1      -6.678  48.539 -18.678  1.00  0.00    -0.025 C 
HETATM   22  C2  UNL     1      -8.019  48.411 -18.687  1.00  0.00    -0.091 C 
HETATM   23  C1  UNL     1      -8.774  47.316 -19.392  1.00  0.00     0.042 C 
HETATM   24  C3  UNL     1      -8.893  49.410 -17.976  1.00  0.00     0.042 C 
ENDBRANCH  20  21
ENDBRANCH  19  20
ENDBRANCH  17  19
ENDBRANCH   1  17
BRANCH  10  25
HETATM   25  C22 UNL     1      -2.070  49.828 -26.353  1.00  0.00     0.021 C 
BRANCH  25  26
HETATM   26  C23 UNL     1      -3.554  49.729 -26.712  1.00  0.00     0.111 C 
BRANCH  26  27
HETATM   27  C24 UNL     1      -3.732  49.399 -28.168  1.00  0.00     0.139 C 
HETATM   28  O3  UNL     1      -4.051  48.327 -28.655  1.00  0.00    -0.650 OA
BRANCH  27  29
HETATM   29  O4  UNL     1      -3.475  50.458 -28.964  1.00  0.00    -0.776 OA
HETATM   30  H41 UNL     1      -3.614  50.110 -29.868  1.00  0.00     0.167 HD
ENDBRANCH  27  29
ENDBRANCH  26  27
ENDBRANCH  25  26
ENDBRANCH  10  25
BRANCH   9  31
HETATM   31  C18 UNL     1      -0.210  52.335 -26.746  1.00  0.00     0.080 C 
HETATM   32  C19 UNL     1       0.406  51.506 -27.893  1.00  0.00     0.048 C 
BRANCH  31  33
HETATM   33  O1  UNL     1       0.676  53.458 -26.597  1.00  0.00    -0.388 OA
HETATM   34  H33 UNL     1       0.480  54.034 -27.365  1.00  0.00     0.210 HD
ENDBRANCH  31  33
BRANCH  31  35
HETATM   35  C20 UNL     1      -1.582  52.874 -27.244  1.00  0.00     0.201 C 
BRANCH  35  36
HETATM   36  O2  UNL     1      -1.383  53.652 -28.431  1.00  0.00    -0.398 OA
HETATM   37  H36 UNL     1      -2.227  54.102 -28.615  1.00  0.00     0.209 HD
ENDBRANCH  35  36
ENDBRANCH  31  35
ENDBRANCH   9  31
TORSDOF 12
ENDMDL
MODEL 4
REMARK minimizedAffinity -8.5617342
REMARK  12 active torsions:
REMARK  status: ('A' for Active; 'I' for Inactive)
REMARK    1  A    between atoms: C4_4  and  C5_5 
REMARK    2  A    between atoms: C5_5  and  C6_6 
REMARK    3  A    between atoms: C6_6  and  C7_7 
REMARK    4  A    between atoms: C7_7  and  C9_9 
REMARK    5  A    between atoms: C17_17  and  C18_18 
REMARK    6  A    between atoms: C18_18  and  O1_20 
REMARK    7  A    between atoms: C18_18  and  C20_21 
REMARK    8  A    between atoms: C20_21  and  O2_22 
REMARK    9  A    between atoms: C21_23  and  C22_24 
REMARK   10  A    between atoms: C22_24  and  C23_25 
REMARK   11  A    between atoms: C23_25  and  C24_26 
REMARK   12  A    between atoms: C24_26  and  O4_28 
ROOT
HETATM    1  C9  UNL     1      -4.096  48.495 -21.029  1.00  0.00    -0.002 C 
HETATM    2  C10 UNL     1      -4.849  48.643 -19.689  1.00  0.00     0.006 C 
HETATM    3  C11 UNL     1      -3.846  49.230 -18.701  1.00  0.00     0.011 C 
HETATM    4  C12 UNL     1      -2.493  48.596 -19.093  1.00  0.00    -0.032 C 
HETATM    5  C13 UNL     1      -2.478  47.122 -18.597  1.00  0.00     0.016 C 
HETATM    6  C14 UNL     1      -1.244  49.325 -18.447  1.00  0.00     0.004 C 
HETATM    7  C15 UNL     1      -1.309  49.312 -16.909  1.00  0.00     0.007 C 
HETATM    8  C16 UNL     1      -0.489  50.348 -16.151  1.00  0.00     0.009 C 
HETATM    9  C17 UNL     1       0.620  51.054 -16.948  1.00  0.00     0.031 C 
HETATM   10  C21 UNL     1       0.079  51.597 -18.313  1.00  0.00    -0.025 A 
HETATM   11  C25 UNL     1      -1.397  51.978 -18.435  1.00  0.00     0.021 A 
HETATM   12  C26 UNL     1      -0.934  50.688 -19.062  1.00  0.00    -0.027 A 
HETATM   13  C27 UNL     1      -0.879  50.630 -20.578  1.00  0.00     0.011 C 
HETATM   14  C28 UNL     1      -2.187  50.117 -21.146  1.00  0.00     0.011 C 
HETATM   15  C29 UNL     1      -2.559  48.676 -20.671  1.00  0.00    -0.032 C 
HETATM   16  C30 UNL     1      -1.577  47.705 -21.344  1.00  0.00     0.016 C 
ENDROOT
BRANCH   1  17
HETATM   17  C7  UNL     1      -4.656  47.356 -21.937  1.00  0.00    -0.014 C 
HETATM   18  C8  UNL     1      -5.424  46.300 -21.129  1.00  0.00     0.010 C 
BRANCH  17  19
HETATM   19  C6  UNL     1      -5.428  47.784 -23.202  1.00  0.00     0.008 C 
BRANCH  19  20
HETATM   20  C5  UNL     1      -4.598  48.667 -24.144  1.00  0.00     0.028 C 
BRANCH  20  21
HETATM   21  C4  UNL     1      -4.971  48.428 -25.584  1.00  0.00    -0.025 C 
HETATM   22  C2  UNL     1      -4.144  48.419 -26.647  1.00  0.00    -0.091 C 
HETATM   23  C1  UNL     1      -2.668  48.703 -26.592  1.00  0.00     0.042 C 
HETATM   24  C3  UNL     1      -4.669  48.127 -28.029  1.00  0.00     0.042 C 
ENDBRANCH  20  21
ENDBRANCH  19  20
ENDBRANCH  17  19
ENDBRANCH   1  17
BRANCH  10  25
HETATM   25  C22 UNL     1       1.140  52.302 -19.182  1.00  0.00     0.021 C 
BRANCH  25  26
HETATM   26  C23 UNL     1       0.680  53.604 -19.839  1.00  0.00     0.111 C 
BRANCH  26  27
HETATM   27  C24 UNL     1       1.200  53.707 -21.246  1.00  0.00     0.139 C 
HETATM   28  O3  UNL     1       0.994  52.943 -22.174  1.00  0.00    -0.650 OA
BRANCH  27  29
HETATM   29  O4  UNL     1       1.989  54.788 -21.417  1.00  0.00    -0.776 OA
HETATM   30  H41 UNL     1       2.264  54.731 -22.355  1.00  0.00     0.167 HD
ENDBRANCH  27  29
ENDBRANCH  26  27
ENDBRANCH  25  26
ENDBRANCH  10  25
BRANCH   9  31
HETATM   31  C18 UNL     1       1.407  52.110 -16.053  1.00  0.00     0.080 C 
HETATM   32  C19 UNL     1       1.084  52.075 -14.544  1.00  0.00     0.048 C 
BRANCH  31  33
HETATM   33  O1  UNL     1       1.099  53.455 -16.456  1.00  0.00    -0.388 OA
HETATM   34  H33 UNL     1       1.833  53.997 -16.099  1.00  0.00     0.210 HD
ENDBRANCH  31  33
BRANCH  31  35
HETATM   35  C20 UNL     1       2.942  51.907 -16.207  1.00  0.00     0.201 C 
BRANCH  35  36
HETATM   36  O2  UNL     1       3.594  53.182 -16.193  1.00  0.00    -0.398 OA
HETATM   37  H36 UNL     1       4.519  53.027 -16.455  1.00  0.00     0.209 HD
ENDBRANCH  35  36
ENDBRANCH  31  35
ENDBRANCH   9  31
TORSDOF 12
ENDMDL
MODEL 5
REMARK minimizedAffinity -8.47383308
REMARK  12 active torsions:
REMARK  status: ('A' for Active; 'I' for Inactive)
REMARK    1  A    between atoms: C4_4  and  C5_5 
REMARK    2  A    between atoms: C5_5  and  C6_6 
REMARK    3  A    between atoms: C6_6  and  C7_7 
REMARK    4  A    between atoms: C7_7  and  C9_9 
REMARK    5  A    between atoms: C17_17  and  C18_18 
REMARK    6  A    between atoms: C18_18  and  O1_20 
REMARK    7  A    between atoms: C18_18  and  C20_21 
REMARK    8  A    between atoms: C20_21  and  O2_22 
REMARK    9  A    between atoms: C21_23  and  C22_24 
REMARK   10  A    between atoms: C22_24  and  C23_25 
REMARK   11  A    between atoms: C23_25  and  C24_26 
REMARK   12  A    between atoms: C24_26  and  O4_28 
ROOT
HETATM    1  C9  UNL     1      -3.973  50.239 -23.644  1.00  0.00    -0.002 C 
HETATM    2  C10 UNL     1      -4.707  49.251 -22.711  1.00  0.00     0.006 C 
HETATM    3  C11 UNL     1      -3.917  49.232 -21.407  1.00  0.00     0.011 C 
HETATM    4  C12 UNL     1      -2.441  49.386 -21.840  1.00  0.00    -0.032 C 
HETATM    5  C13 UNL     1      -1.957  48.031 -22.429  1.00  0.00     0.016 C 
HETATM    6  C14 UNL     1      -1.469  49.757 -20.647  1.00  0.00     0.004 C 
HETATM    7  C15 UNL     1      -1.494  48.691 -19.537  1.00  0.00     0.007 C 
HETATM    8  C16 UNL     1      -1.023  49.095 -18.146  1.00  0.00     0.009 C 
HETATM    9  C17 UNL     1      -0.206  50.394 -18.056  1.00  0.00     0.031 C 
HETATM   10  C21 UNL     1      -0.917  51.565 -18.814  1.00  0.00    -0.025 A 
HETATM   11  C25 UNL     1      -2.441  51.554 -18.946  1.00  0.00     0.021 A 
HETATM   12  C26 UNL     1      -1.612  51.196 -20.154  1.00  0.00    -0.027 A 
HETATM   13  C27 UNL     1      -1.574  52.195 -21.295  1.00  0.00     0.011 C 
HETATM   14  C28 UNL     1      -2.668  51.907 -22.302  1.00  0.00     0.011 C 
HETATM   15  C29 UNL     1      -2.563  50.495 -22.962  1.00  0.00    -0.032 C 
HETATM   16  C30 UNL     1      -1.341  50.515 -23.893  1.00  0.00     0.016 C 
ENDROOT
BRANCH   1  17
HETATM   17  C7  UNL     1      -4.170  49.927 -25.161  1.00  0.00    -0.014 C 
HETATM   18  C8  UNL     1      -3.411  50.917 -26.056  1.00  0.00     0.010 C 
BRANCH  17  19
HETATM   19  C6  UNL     1      -3.955  48.466 -25.609  1.00  0.00     0.008 C 
BRANCH  19  20
HETATM   20  C5  UNL     1      -3.366  48.350 -27.022  1.00  0.00     0.028 C 
BRANCH  20  21
HETATM   21  C4  UNL     1      -4.453  48.322 -28.064  1.00  0.00    -0.025 C 
HETATM   22  C2  UNL     1      -5.738  47.958 -27.890  1.00  0.00    -0.091 C 
HETATM   23  C1  UNL     1      -6.321  47.451 -26.598  1.00  0.00     0.042 C 
HETATM   24  C3  UNL     1      -6.718  48.020 -29.032  1.00  0.00     0.042 C 
ENDBRANCH  20  21
ENDBRANCH  19  20
ENDBRANCH  17  19
ENDBRANCH   1  17
BRANCH  10  25
HETATM   25  C22 UNL     1      -0.148  52.901 -18.787  1.00  0.00     0.021 C 
BRANCH  25  26
HETATM   26  C23 UNL     1       1.321  52.813 -19.207  1.00  0.00     0.111 C 
BRANCH  26  27
HETATM   27  C24 UNL     1       1.488  53.189 -20.653  1.00  0.00     0.139 C 
HETATM   28  O3  UNL     1       1.536  52.442 -21.616  1.00  0.00    -0.650 OA
BRANCH  27  29
HETATM   29  O4  UNL     1       1.605  54.523 -20.820  1.00  0.00    -0.776 OA
HETATM   30  H41 UNL     1       1.717  54.629 -21.787  1.00  0.00     0.167 HD
ENDBRANCH  27  29
ENDBRANCH  26  27
ENDBRANCH  25  26
ENDBRANCH  10  25
BRANCH   9  31
HETATM   31  C18 UNL     1       0.232  50.712 -16.559  1.00  0.00     0.080 C 
HETATM   32  C19 UNL     1       0.527  49.480 -15.676  1.00  0.00     0.048 C 
BRANCH  31  33
HETATM   33  O1  UNL     1      -0.807  51.417 -15.859  1.00  0.00    -0.388 OA
HETATM   34  H33 UNL     1      -0.355  51.839 -15.099  1.00  0.00     0.210 HD
ENDBRANCH  31  33
BRANCH  31  35
HETATM   35  C20 UNL     1       1.504  51.608 -16.549  1.00  0.00     0.201 C 
BRANCH  35  36
HETATM   36  O2  UNL     1       1.419  52.542 -15.466  1.00  0.00    -0.398 OA
HETATM   37  H36 UNL     1       2.141  53.183 -15.592  1.00  0.00     0.209 HD
ENDBRANCH  35  36
ENDBRANCH  31  35
ENDBRANCH   9  31
TORSDOF 12
ENDMDL
MODEL 6
REMARK minimizedAffinity -8.37740707
REMARK  12 active torsions:
REMARK  status: ('A' for Active; 'I' for Inactive)
REMARK    1  A    between atoms: C4_4  and  C5_5 
REMARK    2  A    between atoms: C5_5  and  C6_6 
REMARK    3  A    between atoms: C6_6  and  C7_7 
REMARK    4  A    between atoms: C7_7  and  C9_9 
REMARK    5  A    between atoms: C17_17  and  C18_18 
REMARK    6  A    between atoms: C18_18  and  O1_20 
REMARK    7  A    between atoms: C18_18  and  C20_21 
REMARK    8  A    between atoms: C20_21  and  O2_22 
REMARK    9  A    between atoms: C21_23  and  C22_24 
REMARK   10  A    between atoms: C22_24  and  C23_25 
REMARK   11  A    between atoms: C23_25  and  C24_26 
REMARK   12  A    between atoms: C24_26  and  O4_28 
ROOT
HETATM    1  C9  UNL     1      -5.395  49.651 -20.984  1.00  0.00    -0.002 C 
HETATM    2  C10 UNL     1      -4.544  50.519 -20.033  1.00  0.00     0.006 C 
HETATM    3  C11 UNL     1      -3.416  51.096 -20.881  1.00  0.00     0.011 C 
HETATM    4  C12 UNL     1      -3.071  49.978 -21.890  1.00  0.00    -0.032 C 
HETATM    5  C13 UNL     1      -2.267  48.874 -21.146  1.00  0.00     0.016 C 
HETATM    6  C14 UNL     1      -2.183  50.474 -23.103  1.00  0.00     0.004 C 
HETATM    7  C15 UNL     1      -0.844  51.065 -22.626  1.00  0.00     0.007 C 
HETATM    8  C16 UNL     1      -0.101  52.004 -23.567  1.00  0.00     0.009 C 
HETATM    9  C17 UNL     1      -0.540  51.977 -25.041  1.00  0.00     0.031 C 
HETATM   10  C21 UNL     1      -2.095  52.101 -25.172  1.00  0.00    -0.025 A 
HETATM   11  C25 UNL     1      -2.881  52.842 -24.089  1.00  0.00     0.021 A 
HETATM   12  C26 UNL     1      -2.938  51.335 -24.114  1.00  0.00    -0.027 A 
HETATM   13  C27 UNL     1      -4.243  50.694 -24.546  1.00  0.00     0.011 C 
HETATM   14  C28 UNL     1      -5.139  50.434 -23.353  1.00  0.00     0.011 C 
HETATM   15  C29 UNL     1      -4.515  49.471 -22.293  1.00  0.00    -0.032 C 
HETATM   16  C30 UNL     1      -4.484  48.066 -22.915  1.00  0.00     0.016 C 
ENDROOT
BRANCH   1  17
HETATM   17  C7  UNL     1      -6.143  48.485 -20.264  1.00  0.00    -0.014 C 
HETATM   18  C8  UNL     1      -5.406  48.021 -19.000  1.00  0.00     0.010 C 
BRANCH  17  19
HETATM   19  C6  UNL     1      -7.654  48.672 -20.012  1.00  0.00     0.008 C 
BRANCH  19  20
HETATM   20  C5  UNL     1      -8.528  47.767 -20.892  1.00  0.00     0.028 C 
BRANCH  20  21
HETATM   21  C4  UNL     1      -8.266  48.013 -22.354  1.00  0.00    -0.025 C 
HETATM   22  C2  UNL     1      -7.829  47.121 -23.264  1.00  0.00    -0.091 C 
HETATM   23  C1  UNL     1      -7.465  45.693 -22.962  1.00  0.00     0.042 C 
HETATM   24  C3  UNL     1      -7.649  47.517 -24.706  1.00  0.00     0.042 C 
ENDBRANCH  20  21
ENDBRANCH  19  20
ENDBRANCH  17  19
ENDBRANCH   1  17
BRANCH  10  25
HETATM   25  C22 UNL     1      -2.616  52.061 -26.622  1.00  0.00     0.021 C 
BRANCH  25  26
HETATM   26  C23 UNL     1      -2.146  50.863 -27.449  1.00  0.00     0.111 C 
BRANCH  26  27
HETATM   27  C24 UNL     1      -3.316  50.130 -28.044  1.00  0.00     0.139 C 
HETATM   28  O3  UNL     1      -3.985  49.251 -27.528  1.00  0.00    -0.650 OA
BRANCH  27  29
HETATM   29  O4  UNL     1      -3.585  50.540 -29.301  1.00  0.00    -0.776 OA
HETATM   30  H41 UNL     1      -4.346  49.985 -29.570  1.00  0.00     0.167 HD
ENDBRANCH  27  29
ENDBRANCH  26  27
ENDBRANCH  25  26
ENDBRANCH  10  25
BRANCH   9  31
HETATM   31  C18 UNL     1       0.306  52.995 -25.926  1.00  0.00     0.080 C 
HETATM   32  C19 UNL     1      -0.106  53.087 -27.410  1.00  0.00     0.048 C 
BRANCH  31  33
HETATM   33  O1  UNL     1       1.693  52.616 -25.960  1.00  0.00    -0.388 OA
HETATM   34  H33 UNL     1       2.167  53.429 -26.232  1.00  0.00     0.210 HD
ENDBRANCH  31  33
BRANCH  31  35
HETATM   35  C20 UNL     1       0.220  54.429 -25.327  1.00  0.00     0.201 C 
BRANCH  35  36
HETATM   36  O2  UNL     1       0.190  55.387 -26.392  1.00  0.00    -0.398 OA
HETATM   37  H36 UNL     1       0.303  56.263 -25.982  1.00  0.00     0.209 HD
ENDBRANCH  35  36
ENDBRANCH  31  35
ENDBRANCH   9  31
TORSDOF 12
ENDMDL
MODEL 7
REMARK minimizedAffinity -8.36020184
REMARK  12 active torsions:
REMARK  status: ('A' for Active; 'I' for Inactive)
REMARK    1  A    between atoms: C4_4  and  C5_5 
REMARK    2  A    between atoms: C5_5  and  C6_6 
REMARK    3  A    between atoms: C6_6  and  C7_7 
REMARK    4  A    between atoms: C7_7  and  C9_9 
REMARK    5  A    between atoms: C17_17  and  C18_18 
REMARK    6  A    between atoms: C18_18  and  O1_20 
REMARK    7  A    between atoms: C18_18  and  C20_21 
REMARK    8  A    between atoms: C20_21  and  O2_22 
REMARK    9  A    between atoms: C21_23  and  C22_24 
REMARK   10  A    between atoms: C22_24  and  C23_25 
REMARK   11  A    between atoms: C23_25  and  C24_26 
REMARK   12  A    between atoms: C24_26  and  O4_28 
ROOT
HETATM    1  C9  UNL     1      -1.746  49.440 -18.867  1.00  0.00    -0.002 C 
HETATM    2  C10 UNL     1      -1.574  48.084 -19.585  1.00  0.00     0.006 C 
HETATM    3  C11 UNL     1      -1.729  48.370 -21.075  1.00  0.00     0.011 C 
HETATM    4  C12 UNL     1      -2.799  49.482 -21.151  1.00  0.00    -0.032 C 
HETATM    5  C13 UNL     1      -4.192  48.845 -20.886  1.00  0.00     0.016 C 
HETATM    6  C14 UNL     1      -2.867  50.197 -22.563  1.00  0.00     0.004 C 
HETATM    7  C15 UNL     1      -3.185  49.199 -23.692  1.00  0.00     0.007 C 
HETATM    8  C16 UNL     1      -2.819  49.593 -25.117  1.00  0.00     0.009 C 
HETATM    9  C17 UNL     1      -2.529  51.084 -25.358  1.00  0.00     0.031 C 
HETATM   10  C21 UNL     1      -1.518  51.642 -24.301  1.00  0.00    -0.025 A 
HETATM   11  C25 UNL     1      -0.499  50.693 -23.665  1.00  0.00     0.021 A 
HETATM   12  C26 UNL     1      -1.689  51.127 -22.845  1.00  0.00    -0.027 A 
HETATM   13  C27 UNL     1      -1.432  52.085 -21.697  1.00  0.00     0.011 C 
HETATM   14  C28 UNL     1      -1.168  51.329 -20.411  1.00  0.00     0.011 C 
HETATM   15  C29 UNL     1      -2.354  50.421 -19.958  1.00  0.00    -0.032 C 
HETATM   16  C30 UNL     1      -3.488  51.347 -19.494  1.00  0.00     0.016 C 
ENDROOT
BRANCH   1  17
HETATM   17  C7  UNL     1      -2.284  49.310 -17.408  1.00  0.00    -0.014 C 
HETATM   18  C8  UNL     1      -2.956  47.952 -17.160  1.00  0.00     0.010 C 
BRANCH  17  19
HETATM   19  C6  UNL     1      -1.316  49.688 -16.267  1.00  0.00     0.008 C 
BRANCH  19  20
HETATM   20  C5  UNL     1       0.160  49.497 -16.642  1.00  0.00     0.028 C 
BRANCH  20  21
HETATM   21  C4  UNL     1       0.823  50.817 -16.936  1.00  0.00    -0.025 C 
HETATM   22  C2  UNL     1       1.644  51.513 -16.127  1.00  0.00    -0.091 C 
HETATM   23  C1  UNL     1       2.017  51.109 -14.726  1.00  0.00     0.042 C 
HETATM   24  C3  UNL     1       2.259  52.810 -16.584  1.00  0.00     0.042 C 
ENDBRANCH  20  21
ENDBRANCH  19  20
ENDBRANCH  17  19
ENDBRANCH   1  17
BRANCH  10  25
HETATM   25  C22 UNL     1      -1.190  53.140 -24.463  1.00  0.00     0.021 C 
BRANCH  25  26
HETATM   26  C23 UNL     1       0.301  53.474 -24.544  1.00  0.00     0.111 C 
BRANCH  26  27
HETATM   27  C24 UNL     1       0.509  54.873 -25.054  1.00  0.00     0.139 C 
HETATM   28  O3  UNL     1       0.042  55.375 -26.063  1.00  0.00    -0.650 OA
BRANCH  27  29
HETATM   29  O4  UNL     1       1.332  55.586 -24.257  1.00  0.00    -0.776 OA
HETATM   30  H41 UNL     1       1.391  56.457 -24.702  1.00  0.00     0.167 HD
ENDBRANCH  27  29
ENDBRANCH  26  27
ENDBRANCH  25  26
ENDBRANCH  10  25
BRANCH   9  31
HETATM   31  C18 UNL     1      -2.161  51.374 -26.879  1.00  0.00     0.080 C 
HETATM   32  C19 UNL     1      -0.663  51.263 -27.234  1.00  0.00     0.048 C 
BRANCH  31  33
HETATM   33  O1  UNL     1      -2.520  52.717 -27.247  1.00  0.00    -0.388 OA
HETATM   34  H33 UNL     1      -2.564  52.704 -28.226  1.00  0.00     0.210 HD
ENDBRANCH  31  33
BRANCH  31  35
HETATM   35  C20 UNL     1      -2.936  50.401 -27.815  1.00  0.00     0.201 C 
BRANCH  35  36
HETATM   36  O2  UNL     1      -3.525  51.144 -28.889  1.00  0.00    -0.398 OA
HETATM   37  H36 UNL     1      -4.129  50.536 -29.351  1.00  0.00     0.209 HD
ENDBRANCH  35  36
ENDBRANCH  31  35
ENDBRANCH   9  31
TORSDOF 12
ENDMDL
MODEL 8
REMARK minimizedAffinity -8.28699493
REMARK  12 active torsions:
REMARK  status: ('A' for Active; 'I' for Inactive)
REMARK    1  A    between atoms: C4_4  and  C5_5 
REMARK    2  A    between atoms: C5_5  and  C6_6 
REMARK    3  A    between atoms: C6_6  and  C7_7 
REMARK    4  A    between atoms: C7_7  and  C9_9 
REMARK    5  A    between atoms: C17_17  and  C18_18 
REMARK    6  A    between atoms: C18_18  and  O1_20 
REMARK    7  A    between atoms: C18_18  and  C20_21 
REMARK    8  A    between atoms: C20_21  and  O2_22 
REMARK    9  A    between atoms: C21_23  and  C22_24 
REMARK   10  A    between atoms: C22_24  and  C23_25 
REMARK   11  A    between atoms: C23_25  and  C24_26 
REMARK   12  A    between atoms: C24_26  and  O4_28 
ROOT
HETATM    1  C9  UNL     1      -5.653  49.619 -21.073  1.00  0.00    -0.002 C 
HETATM    2  C10 UNL     1      -4.780  50.448 -20.107  1.00  0.00     0.006 C 
HETATM    3  C11 UNL     1      -3.601  50.956 -20.929  1.00  0.00     0.011 C 
HETATM    4  C12 UNL     1      -3.292  49.812 -21.920  1.00  0.00    -0.032 C 
HETATM    5  C13 UNL     1      -2.568  48.673 -21.148  1.00  0.00     0.016 C 
HETATM    6  C14 UNL     1      -2.347  50.248 -23.114  1.00  0.00     0.004 C 
HETATM    7  C15 UNL     1      -0.991  50.770 -22.606  1.00  0.00     0.007 C 
HETATM    8  C16 UNL     1      -0.174  51.659 -23.535  1.00  0.00     0.009 C 
HETATM    9  C17 UNL     1      -0.575  51.643 -25.019  1.00  0.00     0.031 C 
HETATM   10  C21 UNL     1      -2.118  51.849 -25.191  1.00  0.00    -0.025 A 
HETATM   11  C25 UNL     1      -2.890  52.642 -24.135  1.00  0.00     0.021 A 
HETATM   12  C26 UNL     1      -3.028  51.140 -24.151  1.00  0.00    -0.027 A 
HETATM   13  C27 UNL     1      -4.355  50.567 -24.612  1.00  0.00     0.011 C 
HETATM   14  C28 UNL     1      -5.293  50.366 -23.440  1.00  0.00     0.011 C 
HETATM   15  C29 UNL     1      -4.750  49.380 -22.358  1.00  0.00    -0.032 C 
HETATM   16  C30 UNL     1      -4.780  47.970 -22.967  1.00  0.00     0.016 C 
ENDROOT
BRANCH   1  17
HETATM   17  C7  UNL     1      -6.481  48.502 -20.364  1.00  0.00    -0.014 C 
HETATM   18  C8  UNL     1      -5.707  47.859 -19.205  1.00  0.00     0.010 C 
BRANCH  17  19
HETATM   19  C6  UNL     1      -7.930  48.852 -19.963  1.00  0.00     0.008 C 
BRANCH  19  20
HETATM   20  C5  UNL     1      -8.058  49.306 -18.503  1.00  0.00     0.028 C 
BRANCH  20  21
HETATM   21  C4  UNL     1      -9.270  48.698 -17.848  1.00  0.00    -0.025 C 
HETATM   22  C2  UNL     1     -10.229  47.958 -18.438  1.00  0.00    -0.091 C 
HETATM   23  C1  UNL     1     -10.288  47.640 -19.908  1.00  0.00     0.042 C 
HETATM   24  C3  UNL     1     -11.367  47.387 -17.633  1.00  0.00     0.042 C 
ENDBRANCH  20  21
ENDBRANCH  19  20
ENDBRANCH  17  19
ENDBRANCH   1  17
BRANCH  10  25
HETATM   25  C22 UNL     1      -2.603  51.825 -26.654  1.00  0.00     0.021 C 
BRANCH  25  26
HETATM   26  C23 UNL     1      -2.218  50.574 -27.446  1.00  0.00     0.111 C 
BRANCH  26  27
HETATM   27  C24 UNL     1      -3.419  49.980 -28.128  1.00  0.00     0.139 C 
HETATM   28  O3  UNL     1      -4.144  49.089 -27.718  1.00  0.00    -0.650 OA
BRANCH  27  29
HETATM   29  O4  UNL     1      -3.646  50.540 -29.335  1.00  0.00    -0.776 OA
HETATM   30  H41 UNL     1      -4.433  50.064 -29.669  1.00  0.00     0.167 HD
ENDBRANCH  27  29
ENDBRANCH  26  27
ENDBRANCH  25  26
ENDBRANCH  10  25
BRANCH   9  31
HETATM   31  C18 UNL     1       0.347  52.605 -25.889  1.00  0.00     0.080 C 
HETATM   32  C19 UNL     1       1.130  51.923 -27.031  1.00  0.00     0.048 C 
BRANCH  31  33
HETATM   33  O1  UNL     1       1.360  53.220 -25.075  1.00  0.00    -0.388 OA
HETATM   34  H33 UNL     1       1.654  54.001 -25.588  1.00  0.00     0.210 HD
ENDBRANCH  31  33
BRANCH  31  35
HETATM   35  C20 UNL     1      -0.508  53.741 -26.523  1.00  0.00     0.201 C 
BRANCH  35  36
HETATM   36  O2  UNL     1       0.174  54.991 -26.368  1.00  0.00    -0.398 OA
HETATM   37  H36 UNL     1      -0.457  55.688 -26.623  1.00  0.00     0.209 HD
ENDBRANCH  35  36
ENDBRANCH  31  35
ENDBRANCH   9  31
TORSDOF 12
ENDMDL
MODEL 9
REMARK minimizedAffinity -8.27574444
REMARK  12 active torsions:
REMARK  status: ('A' for Active; 'I' for Inactive)
REMARK    1  A    between atoms: C4_4  and  C5_5 
REMARK    2  A    between atoms: C5_5  and  C6_6 
REMARK    3  A    between atoms: C6_6  and  C7_7 
REMARK    4  A    between atoms: C7_7  and  C9_9 
REMARK    5  A    between atoms: C17_17  and  C18_18 
REMARK    6  A    between atoms: C18_18  and  O1_20 
REMARK    7  A    between atoms: C18_18  and  C20_21 
REMARK    8  A    between atoms: C20_21  and  O2_22 
REMARK    9  A    between atoms: C21_23  and  C22_24 
REMARK   10  A    between atoms: C22_24  and  C23_25 
REMARK   11  A    between atoms: C23_25  and  C24_26 
REMARK   12  A    between atoms: C24_26  and  O4_28 
ROOT
HETATM    1  C9  UNL     1      -1.238  50.059 -19.960  1.00  0.00    -0.002 C 
HETATM    2  C10 UNL     1      -2.353  49.638 -18.980  1.00  0.00     0.006 C 
HETATM    3  C11 UNL     1      -3.603  49.421 -19.827  1.00  0.00     0.011 C 
HETATM    4  C12 UNL     1      -3.515  50.492 -20.937  1.00  0.00    -0.032 C 
HETATM    5  C13 UNL     1      -3.884  51.871 -20.320  1.00  0.00     0.016 C 
HETATM    6  C14 UNL     1      -4.507  50.233 -22.144  1.00  0.00     0.004 C 
HETATM    7  C15 UNL     1      -5.974  50.198 -21.678  1.00  0.00     0.007 C 
HETATM    8  C16 UNL     1      -6.991  49.500 -22.573  1.00  0.00     0.009 C 
HETATM    9  C17 UNL     1      -6.554  49.237 -24.023  1.00  0.00     0.031 C 
HETATM   10  C21 UNL     1      -5.143  48.562 -24.076  1.00  0.00    -0.025 A 
HETATM   11  C25 UNL     1      -4.684  47.692 -22.903  1.00  0.00     0.021 A 
HETATM   12  C26 UNL     1      -4.096  49.073 -23.048  1.00  0.00    -0.027 A 
HETATM   13  C27 UNL     1      -2.643  49.170 -23.473  1.00  0.00     0.011 C 
HETATM   14  C28 UNL     1      -1.728  49.205 -22.267  1.00  0.00     0.011 C 
HETATM   15  C29 UNL     1      -1.981  50.418 -21.317  1.00  0.00    -0.032 C 
HETATM   16  C30 UNL     1      -1.503  51.681 -22.050  1.00  0.00     0.016 C 
ENDROOT
BRANCH   1  17
HETATM   17  C7  UNL     1      -0.134  50.947 -19.305  1.00  0.00    -0.014 C 
HETATM   18  C8  UNL     1      -0.343  52.439 -19.598  1.00  0.00     0.010 C 
BRANCH  17  19
HETATM   19  C6  UNL     1       0.176  50.693 -17.814  1.00  0.00     0.008 C 
BRANCH  19  20
HETATM   20  C5  UNL     1       0.901  51.866 -17.141  1.00  0.00     0.028 C 
BRANCH  20  21
HETATM   21  C4  UNL     1       1.554  51.436 -15.854  1.00  0.00    -0.025 C 
HETATM   22  C2  UNL     1       2.790  51.755 -15.422  1.00  0.00    -0.091 C 
HETATM   23  C1  UNL     1       3.784  52.580 -16.194  1.00  0.00     0.042 C 
HETATM   24  C3  UNL     1       3.287  51.272 -14.085  1.00  0.00     0.042 C 
ENDBRANCH  20  21
ENDBRANCH  19  20
ENDBRANCH  17  19
ENDBRANCH   1  17
BRANCH  10  25
HETATM   25  C22 UNL     1      -4.624  48.283 -25.500  1.00  0.00     0.021 C 
BRANCH  25  26
HETATM   26  C23 UNL     1      -4.070  49.502 -26.240  1.00  0.00     0.111 C 
BRANCH  26  27
HETATM   27  C24 UNL     1      -3.782  49.171 -27.678  1.00  0.00     0.139 C 
HETATM   28  O3  UNL     1      -3.680  48.065 -28.182  1.00  0.00    -0.650 OA
BRANCH  27  29
HETATM   29  O4  UNL     1      -3.616  50.279 -28.430  1.00  0.00    -0.776 OA
HETATM   30  H41 UNL     1      -3.427  49.928 -29.325  1.00  0.00     0.167 HD
ENDBRANCH  27  29
ENDBRANCH  26  27
ENDBRANCH  25  26
ENDBRANCH  10  25
BRANCH   9  31
HETATM   31  C18 UNL     1      -7.696  48.507 -24.859  1.00  0.00     0.080 C 
HETATM   32  C19 UNL     1      -7.206  47.645 -26.042  1.00  0.00     0.048 C 
BRANCH  31  33
HETATM   33  O1  UNL     1      -8.587  49.464 -25.456  1.00  0.00    -0.388 OA
HETATM   34  H33 UNL     1      -9.399  48.956 -25.661  1.00  0.00     0.210 HD
ENDBRANCH  31  33
BRANCH  31  35
HETATM   35  C20 UNL     1      -8.539  47.588 -23.928  1.00  0.00     0.201 C 
BRANCH  35  36
HETATM   36  O2  UNL     1      -9.911  47.625 -24.341  1.00  0.00    -0.398 OA
HETATM   37  H36 UNL     1     -10.424  47.178 -23.645  1.00  0.00     0.209 HD
ENDBRANCH  35  36
ENDBRANCH  31  35
ENDBRANCH   9  31
TORSDOF 12
ENDMDL
