MODEL 1
REMARK minimizedAffinity -8.26519394
REMARK CNNscore 0.719150007
REMARK CNNaffinity 7.0146699
REMARK  9 active torsions:
REMARK  status: ('A' for Active; 'I' for Inactive)
REMARK    1  A    between atoms: C2_2  and  C35_40 
REMARK    2  A    between atoms: C3_3  and  C4_4 
REMARK    3  A    between atoms: C4_4  and  O1_5 
REMARK    4  A    between atoms: C4_4  and  C5_6 
REMARK    5  A    between atoms: C5_6  and  C6_7 
REMARK    6  A    between atoms: C6_7  and  C8_9 
REMARK    7  A    between atoms: C10_11  and  O2_12 
REMARK    8  A    between atoms: C33_37  and  O5_38 
REMARK    9  A    between atoms: C35_40  and  O7_42 
ROOT
HETATM    1  C8  UNL     1      -9.002  45.322 -33.686  1.00  0.00     0.002 C 
HETATM    2  C9  UNL     1      -8.961  46.871 -33.671  1.00  0.00     0.038 C 
HETATM    3  C10 UNL     1      -8.851  47.290 -32.210  1.00  0.00     0.132 C 
HETATM    4  C11 UNL     1      -9.775  46.276 -31.486  1.00  0.00     0.017 C 
HETATM    5  C12 UNL     1     -11.253  46.659 -31.840  1.00  0.00     0.023 C 
HETATM    6  C13 UNL     1      -9.578  46.253 -29.953  1.00  0.00    -0.029 C 
HETATM    7  C14 UNL     1      -8.918  45.269 -29.292  1.00  0.00     0.003 C 
HETATM    8  C15 UNL     1      -7.984  44.405 -30.080  1.00  0.00     0.157 C 
HETATM    9  O3  UNL     1      -7.070  43.784 -29.535  1.00  0.00    -0.293 OA
HETATM   10  C16 UNL     1      -8.111  44.314 -31.572  1.00  0.00     0.094 C 
HETATM   11  C17 UNL     1      -9.409  44.894 -32.179  1.00  0.00    -0.016 C 
HETATM   12  C18 UNL     1     -10.556  43.809 -32.081  1.00  0.00     0.011 C 
HETATM   13  C19 UNL     1     -11.231  43.500 -30.726  1.00  0.00     0.001 C 
HETATM   14  C20 UNL     1     -10.474  42.541 -29.805  1.00  0.00     0.000 C 
HETATM   15  C21 UNL     1     -10.708  42.775 -28.306  1.00  0.00     0.001 C 
HETATM   16  C22 UNL     1     -10.566  44.199 -27.721  1.00  0.00     0.015 C 
HETATM   17  C23 UNL     1      -9.176  44.981 -27.785  1.00  0.00    -0.003 C 
HETATM   18  C24 UNL     1      -8.108  44.093 -27.097  1.00  0.00     0.022 C 
HETATM   19  C25 UNL     1      -8.289  43.938 -25.599  1.00  0.00     0.080 C 
HETATM   20  C26 UNL     1      -8.310  45.259 -24.877  1.00  0.00     0.136 C 
HETATM   21  O4  UNL     1      -8.199  45.278 -23.648  1.00  0.00    -0.297 OA
HETATM   22  C27 UNL     1      -8.445  46.543 -25.703  1.00  0.00     0.025 C 
HETATM   23  C28 UNL     1      -9.064  47.629 -24.777  1.00  0.00     0.024 C 
HETATM   24  C29 UNL     1      -7.023  47.003 -26.108  1.00  0.00     0.044 C 
HETATM   25  C30 UNL     1      -6.992  47.907 -27.300  1.00  0.00    -0.029 C 
HETATM   26  C31 UNL     1      -8.071  48.194 -28.042  1.00  0.00    -0.023 C 
HETATM   27  C32 UNL     1      -9.449  47.601 -27.809  1.00  0.00     0.047 C 
HETATM   28  C33 UNL     1     -10.222  47.348 -29.125  1.00  0.00     0.156 C 
HETATM   29  C34 UNL     1      -9.396  46.322 -26.934  1.00  0.00     0.025 C 
ENDROOT
BRANCH   1  30
HETATM   30  C6  UNL     1      -9.784  44.714 -34.893  1.00  0.00    -0.011 C 
HETATM   31  C7  UNL     1      -9.099  43.427 -35.383  1.00  0.00     0.010 C 
BRANCH  30  32
HETATM   32  C5  UNL     1      -9.894  45.688 -36.098  1.00  0.00     0.040 C 
BRANCH  32  33
HETATM   33  C4  UNL     1     -11.332  45.991 -36.567  1.00  0.00     0.142 C 
BRANCH  33  34
HETATM   34  C3  UNL     1     -11.396  47.177 -37.482  1.00  0.00     0.018 C 
HETATM   35  C2  UNL     1     -12.442  47.999 -37.708  1.00  0.00     0.010 C 
HETATM   36  C1  UNL     1     -13.808  47.894 -37.102  1.00  0.00     0.055 C 
BRANCH  35  37
HETATM   37  C35 UNL     1     -12.196  49.107 -38.661  1.00  0.00     0.171 C 
HETATM   38  O6  UNL     1     -11.235  49.229 -39.400  1.00  0.00    -0.646 OA
BRANCH  37  39
HETATM   39  O7  UNL     1     -13.184  50.019 -38.656  1.00  0.00    -0.773 OA
HETATM   40  H48 UNL     1     -12.896  50.654 -39.340  1.00  0.00     0.167 HD
ENDBRANCH  37  39
ENDBRANCH  35  37
ENDBRANCH  33  34
BRANCH  33  41
HETATM   41  O1  UNL     1     -11.802  44.882 -37.328  1.00  0.00    -0.392 OA
HETATM   42  H6  UNL     1     -11.753  44.098 -36.756  1.00  0.00     0.210 HD
ENDBRANCH  33  41
ENDBRANCH  32  33
ENDBRANCH  30  32
ENDBRANCH   1  30
BRANCH   3  43
HETATM   43  O2  UNL     1      -7.492  47.204 -31.800  1.00  0.00    -0.394 OA
HETATM   44  H17 UNL     1      -7.452  47.560 -30.893  1.00  0.00     0.210 HD
ENDBRANCH   3  43
BRANCH  28  45
HETATM   45  O5  UNL     1     -10.254  48.568 -29.862  1.00  0.00    -0.390 OA
HETATM   46  H46 UNL     1     -10.617  49.252 -29.279  1.00  0.00     0.210 HD
ENDBRANCH  28  45
TORSDOF 9
ENDMDL
MODEL 2
REMARK minimizedAffinity -8.53394699
REMARK CNNscore 0.685163677
REMARK CNNaffinity 6.81676722
REMARK  9 active torsions:
REMARK  status: ('A' for Active; 'I' for Inactive)
REMARK    1  A    between atoms: C2_2  and  C35_40 
REMARK    2  A    between atoms: C3_3  and  C4_4 
REMARK    3  A    between atoms: C4_4  and  O1_5 
REMARK    4  A    between atoms: C4_4  and  C5_6 
REMARK    5  A    between atoms: C5_6  and  C6_7 
REMARK    6  A    between atoms: C6_7  and  C8_9 
REMARK    7  A    between atoms: C10_11  and  O2_12 
REMARK    8  A    between atoms: C33_37  and  O5_38 
REMARK    9  A    between atoms: C35_40  and  O7_42 
ROOT
HETATM    1  C8  UNL     1      -6.472  46.944 -31.741  1.00  0.00     0.002 C 
HETATM    2  C9  UNL     1      -6.227  48.338 -31.108  1.00  0.00     0.038 C 
HETATM    3  C10 UNL     1      -6.800  48.283 -29.697  1.00  0.00     0.132 C 
HETATM    4  C11 UNL     1      -8.093  47.445 -29.878  1.00  0.00     0.017 C 
HETATM    5  C12 UNL     1      -9.130  48.348 -30.630  1.00  0.00     0.023 C 
HETATM    6  C13 UNL     1      -8.688  46.941 -28.543  1.00  0.00    -0.029 C 
HETATM    7  C14 UNL     1      -8.589  45.659 -28.109  1.00  0.00     0.003 C 
HETATM    8  C15 UNL     1      -7.518  44.801 -28.708  1.00  0.00     0.157 C 
HETATM    9  O3  UNL     1      -7.093  43.804 -28.123  1.00  0.00    -0.293 OA
HETATM   10  C16 UNL     1      -6.899  45.169 -30.025  1.00  0.00     0.094 C 
HETATM   11  C17 UNL     1      -7.629  46.264 -30.834  1.00  0.00    -0.016 C 
HETATM   12  C18 UNL     1      -8.812  45.604 -31.651  1.00  0.00     0.011 C 
HETATM   13  C19 UNL     1     -10.106  45.158 -30.934  1.00  0.00     0.001 C 
HETATM   14  C20 UNL     1     -10.050  43.797 -30.237  1.00  0.00     0.000 C 
HETATM   15  C21 UNL     1     -10.961  43.670 -29.008  1.00  0.00     0.001 C 
HETATM   16  C22 UNL     1     -10.930  44.760 -27.913  1.00  0.00     0.015 C 
HETATM   17  C23 UNL     1      -9.598  45.061 -27.087  1.00  0.00    -0.003 C 
HETATM   18  C24 UNL     1      -9.148  43.734 -26.425  1.00  0.00     0.022 C 
HETATM   19  C25 UNL     1     -10.069  43.235 -25.327  1.00  0.00     0.080 C 
HETATM   20  C26 UNL     1     -10.260  44.245 -24.227  1.00  0.00     0.136 C 
HETATM   21  O4  UNL     1     -10.772  43.890 -23.162  1.00  0.00    -0.297 OA
HETATM   22  C27 UNL     1      -9.786  45.684 -24.463  1.00  0.00     0.025 C 
HETATM   23  C28 UNL     1     -10.623  46.608 -23.533  1.00  0.00     0.024 C 
HETATM   24  C29 UNL     1      -8.302  45.775 -24.029  1.00  0.00     0.044 C 
HETATM   25  C30 UNL     1      -7.556  46.917 -24.647  1.00  0.00    -0.029 C 
HETATM   26  C31 UNL     1      -8.073  47.716 -25.592  1.00  0.00    -0.023 C 
HETATM   27  C32 UNL     1      -9.453  47.538 -26.200  1.00  0.00     0.047 C 
HETATM   28  C33 UNL     1      -9.497  47.908 -27.701  1.00  0.00     0.156 C 
HETATM   29  C34 UNL     1     -10.021  46.116 -25.955  1.00  0.00     0.025 C 
ENDROOT
BRANCH   1  30
HETATM   30  C6  UNL     1      -6.629  46.965 -33.294  1.00  0.00    -0.011 C 
HETATM   31  C7  UNL     1      -5.455  47.721 -33.942  1.00  0.00     0.010 C 
BRANCH  30  32
HETATM   32  C5  UNL     1      -7.949  47.636 -33.763  1.00  0.00     0.040 C 
BRANCH  32  33
HETATM   33  C4  UNL     1      -8.510  47.113 -35.102  1.00  0.00     0.142 C 
BRANCH  33  34
HETATM   34  C3  UNL     1      -7.787  47.686 -36.284  1.00  0.00     0.018 C 
HETATM   35  C2  UNL     1      -8.202  47.741 -37.567  1.00  0.00     0.010 C 
HETATM   36  C1  UNL     1      -9.493  47.210 -38.112  1.00  0.00     0.055 C 
BRANCH  35  37
HETATM   37  C35 UNL     1      -7.269  48.389 -38.518  1.00  0.00     0.171 C 
HETATM   38  O6  UNL     1      -7.039  48.039 -39.663  1.00  0.00    -0.646 OA
BRANCH  37  39
HETATM   39  O7  UNL     1      -6.665  49.468 -37.991  1.00  0.00    -0.773 OA
HETATM   40  H48 UNL     1      -6.117  49.794 -38.732  1.00  0.00     0.167 HD
ENDBRANCH  37  39
ENDBRANCH  35  37
ENDBRANCH  33  34
BRANCH  33  41
HETATM   41  O1  UNL     1      -8.302  45.705 -35.159  1.00  0.00    -0.392 OA
HETATM   42  H6  UNL     1      -8.752  45.316 -34.389  1.00  0.00     0.210 HD
ENDBRANCH  33  41
ENDBRANCH  32  33
ENDBRANCH  30  32
ENDBRANCH   1  30
BRANCH   3  43
HETATM   43  O2  UNL     1      -5.851  47.672 -28.832  1.00  0.00    -0.394 OA
HETATM   44  H17 UNL     1      -6.216  47.734 -27.929  1.00  0.00     0.210 HD
ENDBRANCH   3  43
BRANCH  28  45
HETATM   45  O5  UNL     1      -8.987  49.232 -27.846  1.00  0.00    -0.390 OA
HETATM   46  H46 UNL     1      -9.492  49.806 -27.250  1.00  0.00     0.210 HD
ENDBRANCH  28  45
TORSDOF 9
ENDMDL
MODEL 3
REMARK minimizedAffinity -8.16949177
REMARK CNNscore 0.571635664
REMARK CNNaffinity 6.28969717
REMARK  9 active torsions:
REMARK  status: ('A' for Active; 'I' for Inactive)
REMARK    1  A    between atoms: C2_2  and  C35_40 
REMARK    2  A    between atoms: C3_3  and  C4_4 
REMARK    3  A    between atoms: C4_4  and  O1_5 
REMARK    4  A    between atoms: C4_4  and  C5_6 
REMARK    5  A    between atoms: C5_6  and  C6_7 
REMARK    6  A    between atoms: C6_7  and  C8_9 
REMARK    7  A    between atoms: C10_11  and  O2_12 
REMARK    8  A    between atoms: C33_37  and  O5_38 
REMARK    9  A    between atoms: C35_40  and  O7_42 
ROOT
HETATM    1  C8  UNL     1     -12.158  45.877 -27.595  1.00  0.00     0.002 C 
HETATM    2  C9  UNL     1     -11.101  45.607 -26.495  1.00  0.00     0.038 C 
HETATM    3  C10 UNL     1      -9.736  45.777 -27.150  1.00  0.00     0.132 C 
HETATM    4  C11 UNL     1      -9.944  45.156 -28.556  1.00  0.00     0.017 C 
HETATM    5  C12 UNL     1     -10.039  43.602 -28.367  1.00  0.00     0.023 C 
HETATM    6  C13 UNL     1      -8.819  45.508 -29.555  1.00  0.00    -0.029 C 
HETATM    7  C14 UNL     1      -8.953  46.416 -30.554  1.00  0.00     0.003 C 
HETATM    8  C15 UNL     1     -10.057  47.420 -30.439  1.00  0.00     0.157 C 
HETATM    9  O3  UNL     1     -10.016  48.492 -31.046  1.00  0.00    -0.293 OA
HETATM   10  C16 UNL     1     -11.225  47.163 -29.532  1.00  0.00     0.094 C 
HETATM   11  C17 UNL     1     -11.362  45.721 -28.996  1.00  0.00    -0.016 C 
HETATM   12  C18 UNL     1     -12.093  44.831 -30.081  1.00  0.00     0.011 C 
HETATM   13  C19 UNL     1     -11.345  44.374 -31.354  1.00  0.00     0.001 C 
HETATM   14  C20 UNL     1     -11.266  45.398 -32.488  1.00  0.00     0.000 C 
HETATM   15  C21 UNL     1     -10.019  45.275 -33.374  1.00  0.00     0.001 C 
HETATM   16  C22 UNL     1      -8.620  45.186 -32.723  1.00  0.00     0.015 C 
HETATM   17  C23 UNL     1      -8.054  46.376 -31.822  1.00  0.00    -0.003 C 
HETATM   18  C24 UNL     1      -8.078  47.666 -32.682  1.00  0.00     0.022 C 
HETATM   19  C25 UNL     1      -7.091  47.673 -33.834  1.00  0.00     0.080 C 
HETATM   20  C26 UNL     1      -5.671  47.459 -33.382  1.00  0.00     0.136 C 
HETATM   21  O4  UNL     1      -4.746  47.688 -34.166  1.00  0.00    -0.297 OA
HETATM   22  C27 UNL     1      -5.422  46.985 -31.946  1.00  0.00     0.025 C 
HETATM   23  C28 UNL     1      -4.047  46.258 -31.927  1.00  0.00     0.024 C 
HETATM   24  C29 UNL     1      -5.321  48.237 -31.039  1.00  0.00     0.044 C 
HETATM   25  C30 UNL     1      -5.589  47.964 -29.592  1.00  0.00    -0.029 C 
HETATM   26  C31 UNL     1      -6.009  46.779 -29.126  1.00  0.00    -0.023 C 
HETATM   27  C32 UNL     1      -6.323  45.579 -30.003  1.00  0.00     0.047 C 
HETATM   28  C33 UNL     1      -7.511  44.744 -29.470  1.00  0.00     0.156 C 
HETATM   29  C34 UNL     1      -6.537  45.978 -31.486  1.00  0.00     0.025 C 
ENDROOT
BRANCH   1  30
HETATM   30  C6  UNL     1     -13.506  45.115 -27.389  1.00  0.00    -0.011 C 
HETATM   31  C7  UNL     1     -14.570  45.632 -28.373  1.00  0.00     0.010 C 
BRANCH  30  32
HETATM   32  C5  UNL     1     -14.072  45.259 -25.950  1.00  0.00     0.040 C 
BRANCH  32  33
HETATM   33  C4  UNL     1     -14.653  46.647 -25.611  1.00  0.00     0.142 C 
BRANCH  33  34
HETATM   34  C3  UNL     1     -16.014  46.559 -24.988  1.00  0.00     0.018 C 
HETATM   35  C2  UNL     1     -16.324  46.425 -23.682  1.00  0.00     0.010 C 
HETATM   36  C1  UNL     1     -15.359  46.308 -22.541  1.00  0.00     0.055 C 
BRANCH  35  37
HETATM   37  C35 UNL     1     -17.772  46.384 -23.365  1.00  0.00     0.171 C 
HETATM   38  O6  UNL     1     -18.691  46.538 -24.149  1.00  0.00    -0.646 OA
BRANCH  37  39
HETATM   39  O7  UNL     1     -18.006  46.136 -22.064  1.00  0.00    -0.773 OA
HETATM   40  H48 UNL     1     -18.982  46.111 -22.021  1.00  0.00     0.167 HD
ENDBRANCH  37  39
ENDBRANCH  35  37
ENDBRANCH  33  34
BRANCH  33  41
HETATM   41  O1  UNL     1     -13.815  47.261 -24.637  1.00  0.00    -0.392 OA
HETATM   42  H6  UNL     1     -12.921  47.313 -25.017  1.00  0.00     0.210 HD
ENDBRANCH  33  41
ENDBRANCH  32  33
ENDBRANCH  30  32
ENDBRANCH   1  30
BRANCH   3  43
HETATM   43  O2  UNL     1      -9.407  47.161 -27.191  1.00  0.00    -0.394 OA
HETATM   44  H17 UNL     1      -8.497  47.220 -27.536  1.00  0.00     0.210 HD
ENDBRANCH   3  43
BRANCH  28  45
HETATM   45  O5  UNL     1      -7.234  44.392 -28.116  1.00  0.00    -0.390 OA
HETATM   46  H46 UNL     1      -6.367  43.960 -28.098  1.00  0.00     0.210 HD
ENDBRANCH  28  45
TORSDOF 9
ENDMDL
MODEL 4
REMARK minimizedAffinity -9.77526569
REMARK CNNscore 0.397855699
REMARK CNNaffinity 6.63901758
REMARK  9 active torsions:
REMARK  status: ('A' for Active; 'I' for Inactive)
REMARK    1  A    between atoms: C2_2  and  C35_40 
REMARK    2  A    between atoms: C3_3  and  C4_4 
REMARK    3  A    between atoms: C4_4  and  O1_5 
REMARK    4  A    between atoms: C4_4  and  C5_6 
REMARK    5  A    between atoms: C5_6  and  C6_7 
REMARK    6  A    between atoms: C6_7  and  C8_9 
REMARK    7  A    between atoms: C10_11  and  O2_12 
REMARK    8  A    between atoms: C33_37  and  O5_38 
REMARK    9  A    between atoms: C35_40  and  O7_42 
ROOT
HETATM    1  C8  UNL     1      -6.885  47.974 -21.982  1.00  0.00     0.002 C 
HETATM    2  C9  UNL     1      -7.136  47.046 -20.767  1.00  0.00     0.038 C 
HETATM    3  C10 UNL     1      -6.033  47.343 -19.757  1.00  0.00     0.132 C 
HETATM    4  C11 UNL     1      -4.786  47.552 -20.655  1.00  0.00     0.017 C 
HETATM    5  C12 UNL     1      -4.371  46.146 -21.209  1.00  0.00     0.023 C 
HETATM    6  C13 UNL     1      -3.600  48.208 -19.912  1.00  0.00    -0.029 C 
HETATM    7  C14 UNL     1      -3.236  49.506 -20.070  1.00  0.00     0.003 C 
HETATM    8  C15 UNL     1      -4.249  50.450 -20.638  1.00  0.00     0.157 C 
HETATM    9  O3  UNL     1      -4.172  51.665 -20.448  1.00  0.00    -0.293 OA
HETATM   10  C16 UNL     1      -5.420  49.927 -21.417  1.00  0.00     0.094 C 
HETATM   11  C17 UNL     1      -5.342  48.445 -21.846  1.00  0.00    -0.016 C 
HETATM   12  C18 UNL     1      -4.492  48.333 -23.175  1.00  0.00     0.011 C 
HETATM   13  C19 UNL     1      -2.955  48.488 -23.139  1.00  0.00     0.001 C 
HETATM   14  C20 UNL     1      -2.427  49.924 -23.119  1.00  0.00     0.000 C 
HETATM   15  C21 UNL     1      -1.085  50.103 -22.396  1.00  0.00     0.001 C 
HETATM   16  C22 UNL     1      -0.891  49.512 -20.981  1.00  0.00     0.015 C 
HETATM   17  C23 UNL     1      -1.793  49.995 -19.756  1.00  0.00    -0.003 C 
HETATM   18  C24 UNL     1      -1.635  51.532 -19.636  1.00  0.00     0.022 C 
HETATM   19  C25 UNL     1      -0.260  51.990 -19.188  1.00  0.00     0.080 C 
HETATM   20  C26 UNL     1       0.150  51.391 -17.870  1.00  0.00     0.136 C 
HETATM   21  O4  UNL     1       1.119  51.860 -17.268  1.00  0.00    -0.297 OA
HETATM   22  C27 UNL     1      -0.672  50.227 -17.306  1.00  0.00     0.025 C 
HETATM   23  C28 UNL     1       0.257  49.415 -16.360  1.00  0.00     0.024 C 
HETATM   24  C29 UNL     1      -1.826  50.821 -16.461  1.00  0.00     0.044 C 
HETATM   25  C30 UNL     1      -2.984  49.892 -16.272  1.00  0.00    -0.029 C 
HETATM   26  C31 UNL     1      -3.088  48.702 -16.882  1.00  0.00    -0.023 C 
HETATM   27  C32 UNL     1      -2.079  48.165 -17.882  1.00  0.00     0.047 C 
HETATM   28  C33 UNL     1      -2.741  47.341 -19.013  1.00  0.00     0.156 C 
HETATM   29  C34 UNL     1      -1.174  49.284 -18.459  1.00  0.00     0.025 C 
ENDROOT
BRANCH   1  30
HETATM   30  C6  UNL     1      -7.394  47.400 -23.342  1.00  0.00    -0.011 C 
HETATM   31  C7  UNL     1      -7.650  45.887 -23.223  1.00  0.00     0.010 C 
BRANCH  30  32
HETATM   32  C5  UNL     1      -6.394  47.627 -24.509  1.00  0.00     0.040 C 
BRANCH  32  33
HETATM   33  C4  UNL     1      -7.006  47.532 -25.923  1.00  0.00     0.142 C 
BRANCH  33  34
HETATM   34  C3  UNL     1      -8.336  48.217 -26.015  1.00  0.00     0.018 C 
HETATM   35  C2  UNL     1      -9.535  47.671 -26.308  1.00  0.00     0.010 C 
HETATM   36  C1  UNL     1      -9.806  46.235 -26.637  1.00  0.00     0.055 C 
BRANCH  35  37
HETATM   37  C35 UNL     1     -10.686  48.606 -26.307  1.00  0.00     0.171 C 
HETATM   38  O6  UNL     1     -11.865  48.306 -26.367  1.00  0.00    -0.646 OA
BRANCH  37  39
HETATM   39  O7  UNL     1     -10.303  49.892 -26.216  1.00  0.00    -0.773 OA
HETATM   40  H48 UNL     1     -11.155  50.370 -26.198  1.00  0.00     0.167 HD
ENDBRANCH  37  39
ENDBRANCH  35  37
ENDBRANCH  33  34
BRANCH  33  41
HETATM   41  O1  UNL     1      -6.148  48.216 -26.831  1.00  0.00    -0.392 OA
HETATM   42  H6  UNL     1      -5.273  47.796 -26.774  1.00  0.00     0.210 HD
ENDBRANCH  33  41
ENDBRANCH  32  33
ENDBRANCH  30  32
ENDBRANCH   1  30
BRANCH   3  43
HETATM   43  O2  UNL     1      -6.386  48.498 -19.007  1.00  0.00    -0.394 OA
HETATM   44  H17 UNL     1      -5.702  48.603 -18.319  1.00  0.00     0.210 HD
ENDBRANCH   3  43
BRANCH  28  45
HETATM   45  O5  UNL     1      -3.533  46.319 -18.412  1.00  0.00    -0.390 OA
HETATM   46  H46 UNL     1      -2.961  45.826 -17.803  1.00  0.00     0.210 HD
ENDBRANCH  28  45
TORSDOF 9
ENDMDL
MODEL 5
REMARK minimizedAffinity -8.46530533
REMARK CNNscore 0.382931501
REMARK CNNaffinity 6.58982611
REMARK  9 active torsions:
REMARK  status: ('A' for Active; 'I' for Inactive)
REMARK    1  A    between atoms: C2_2  and  C35_40 
REMARK    2  A    between atoms: C3_3  and  C4_4 
REMARK    3  A    between atoms: C4_4  and  O1_5 
REMARK    4  A    between atoms: C4_4  and  C5_6 
REMARK    5  A    between atoms: C5_6  and  C6_7 
REMARK    6  A    between atoms: C6_7  and  C8_9 
REMARK    7  A    between atoms: C10_11  and  O2_12 
REMARK    8  A    between atoms: C33_37  and  O5_38 
REMARK    9  A    between atoms: C35_40  and  O7_42 
ROOT
HETATM    1  C8  UNL     1      -3.468  50.875 -23.279  1.00  0.00     0.002 C 
HETATM    2  C9  UNL     1      -4.278  49.635 -23.736  1.00  0.00     0.038 C 
HETATM    3  C10 UNL     1      -4.433  48.741 -22.511  1.00  0.00     0.132 C 
HETATM    4  C11 UNL     1      -3.058  48.872 -21.807  1.00  0.00     0.017 C 
HETATM    5  C12 UNL     1      -2.016  48.084 -22.672  1.00  0.00     0.023 C 
HETATM    6  C13 UNL     1      -3.061  48.343 -20.355  1.00  0.00    -0.029 C 
HETATM    7  C14 UNL     1      -3.068  49.143 -19.259  1.00  0.00     0.003 C 
HETATM    8  C15 UNL     1      -3.517  50.560 -19.434  1.00  0.00     0.157 C 
HETATM    9  O3  UNL     1      -3.937  51.223 -18.484  1.00  0.00    -0.293 OA
HETATM   10  C16 UNL     1      -3.514  51.195 -20.795  1.00  0.00     0.094 C 
HETATM   11  C17 UNL     1      -2.751  50.428 -21.898  1.00  0.00    -0.016 C 
HETATM   12  C18 UNL     1      -1.211  50.780 -21.803  1.00  0.00     0.011 C 
HETATM   13  C19 UNL     1      -0.339  50.186 -20.674  1.00  0.00     0.001 C 
HETATM   14  C20 UNL     1      -0.415  50.900 -19.324  1.00  0.00     0.000 C 
HETATM   15  C21 UNL     1      -0.180  49.995 -18.106  1.00  0.00     0.001 C 
HETATM   16  C22 UNL     1      -0.956  48.664 -17.978  1.00  0.00     0.015 C 
HETATM   17  C23 UNL     1      -2.549  48.646 -17.879  1.00  0.00    -0.003 C 
HETATM   18  C24 UNL     1      -2.953  49.531 -16.672  1.00  0.00     0.022 C 
HETATM   19  C25 UNL     1      -2.567  48.963 -15.319  1.00  0.00     0.080 C 
HETATM   20  C26 UNL     1      -3.138  47.590 -15.083  1.00  0.00     0.136 C 
HETATM   21  O4  UNL     1      -3.118  47.115 -13.944  1.00  0.00    -0.297 OA
HETATM   22  C27 UNL     1      -3.749  46.836 -16.269  1.00  0.00     0.025 C 
HETATM   23  C28 UNL     1      -3.668  45.317 -15.947  1.00  0.00     0.024 C 
HETATM   24  C29 UNL     1      -5.243  47.232 -16.369  1.00  0.00     0.044 C 
HETATM   25  C30 UNL     1      -5.844  47.006 -17.721  1.00  0.00    -0.029 C 
HETATM   26  C31 UNL     1      -5.135  46.625 -18.794  1.00  0.00    -0.023 C 
HETATM   27  C32 UNL     1      -3.629  46.425 -18.795  1.00  0.00     0.047 C 
HETATM   28  C33 UNL     1      -2.972  46.846 -20.131  1.00  0.00     0.156 C 
HETATM   29  C34 UNL     1      -2.946  47.120 -17.589  1.00  0.00     0.025 C 
ENDROOT
BRANCH   1  30
HETATM   30  C6  UNL     1      -2.613  51.533 -24.409  1.00  0.00    -0.011 C 
HETATM   31  C7  UNL     1      -2.218  52.967 -24.016  1.00  0.00     0.010 C 
BRANCH  30  32
HETATM   32  C5  UNL     1      -3.353  51.595 -25.773  1.00  0.00     0.040 C 
BRANCH  32  33
HETATM   33  C4  UNL     1      -2.514  51.164 -26.994  1.00  0.00     0.142 C 
BRANCH  33  34
HETATM   34  C3  UNL     1      -3.329  50.430 -28.015  1.00  0.00     0.018 C 
HETATM   35  C2  UNL     1      -3.893  49.208 -27.909  1.00  0.00     0.010 C 
HETATM   36  C1  UNL     1      -3.808  48.285 -26.732  1.00  0.00     0.055 C 
BRANCH  35  37
HETATM   37  C35 UNL     1      -4.663  48.750 -29.090  1.00  0.00     0.171 C 
HETATM   38  O6  UNL     1      -5.389  47.774 -29.148  1.00  0.00    -0.646 OA
BRANCH  37  39
HETATM   39  O7  UNL     1      -4.496  49.553 -30.155  1.00  0.00    -0.773 OA
HETATM   40  H48 UNL     1      -5.076  49.144 -30.827  1.00  0.00     0.167 HD
ENDBRANCH  37  39
ENDBRANCH  35  37
ENDBRANCH  33  34
BRANCH  33  41
HETATM   41  O1  UNL     1      -2.032  52.336 -27.645  1.00  0.00    -0.392 OA
HETATM   42  H6  UNL     1      -1.512  52.836 -26.992  1.00  0.00     0.210 HD
ENDBRANCH  33  41
ENDBRANCH  32  33
ENDBRANCH  30  32
ENDBRANCH   1  30
BRANCH   3  43
HETATM   43  O2  UNL     1      -5.517  49.216 -21.722  1.00  0.00    -0.394 OA
HETATM   44  H17 UNL     1      -5.638  48.572 -20.999  1.00  0.00     0.210 HD
ENDBRANCH   3  43
BRANCH  28  45
HETATM   45  O5  UNL     1      -3.631  46.150 -21.187  1.00  0.00    -0.390 OA
HETATM   46  H46 UNL     1      -3.602  45.204 -20.977  1.00  0.00     0.210 HD
ENDBRANCH  28  45
TORSDOF 9
ENDMDL
MODEL 6
REMARK minimizedAffinity -9.00628185
REMARK CNNscore 0.348313212
REMARK CNNaffinity 6.71596575
REMARK  9 active torsions:
REMARK  status: ('A' for Active; 'I' for Inactive)
REMARK    1  A    between atoms: C2_2  and  C35_40 
REMARK    2  A    between atoms: C3_3  and  C4_4 
REMARK    3  A    between atoms: C4_4  and  O1_5 
REMARK    4  A    between atoms: C4_4  and  C5_6 
REMARK    5  A    between atoms: C5_6  and  C6_7 
REMARK    6  A    between atoms: C6_7  and  C8_9 
REMARK    7  A    between atoms: C10_11  and  O2_12 
REMARK    8  A    between atoms: C33_37  and  O5_38 
REMARK    9  A    between atoms: C35_40  and  O7_42 
ROOT
HETATM    1  C8  UNL     1      -1.912  50.489 -17.482  1.00  0.00     0.002 C 
HETATM    2  C9  UNL     1      -1.276  51.433 -18.533  1.00  0.00     0.038 C 
HETATM    3  C10 UNL     1      -1.966  51.136 -19.859  1.00  0.00     0.132 C 
HETATM    4  C11 UNL     1      -2.137  49.595 -19.827  1.00  0.00     0.017 C 
HETATM    5  C12 UNL     1      -0.717  48.966 -20.034  1.00  0.00     0.023 C 
HETATM    6  C13 UNL     1      -3.121  49.065 -20.894  1.00  0.00    -0.029 C 
HETATM    7  C14 UNL     1      -4.382  48.648 -20.617  1.00  0.00     0.003 C 
HETATM    8  C15 UNL     1      -5.001  49.104 -19.333  1.00  0.00     0.157 C 
HETATM    9  O3  UNL     1      -6.224  49.126 -19.182  1.00  0.00    -0.293 OA
HETATM   10  C16 UNL     1      -4.139  49.598 -18.208  1.00  0.00     0.094 C 
HETATM   11  C17 UNL     1      -2.625  49.316 -18.341  1.00  0.00    -0.016 C 
HETATM   12  C18 UNL     1      -2.326  47.846 -17.838  1.00  0.00     0.011 C 
HETATM   13  C19 UNL     1      -2.712  46.627 -18.705  1.00  0.00     0.001 C 
HETATM   14  C20 UNL     1      -4.172  46.180 -18.619  1.00  0.00     0.000 C 
HETATM   15  C21 UNL     1      -4.716  45.523 -19.895  1.00  0.00     0.001 C 
HETATM   16  C22 UNL     1      -4.517  46.219 -21.261  1.00  0.00     0.015 C 
HETATM   17  C23 UNL     1      -5.140  47.660 -21.550  1.00  0.00    -0.003 C 
HETATM   18  C24 UNL     1      -6.668  47.567 -21.301  1.00  0.00     0.022 C 
HETATM   19  C25 UNL     1      -7.419  46.715 -22.306  1.00  0.00     0.080 C 
HETATM   20  C26 UNL     1      -7.221  47.181 -23.724  1.00  0.00     0.136 C 
HETATM   21  O4  UNL     1      -7.960  46.746 -24.611  1.00  0.00    -0.297 OA
HETATM   22  C27 UNL     1      -6.117  48.204 -24.012  1.00  0.00     0.025 C 
HETATM   23  C28 UNL     1      -5.704  48.037 -25.501  1.00  0.00     0.024 C 
HETATM   24  C29 UNL     1      -6.719  49.620 -23.832  1.00  0.00     0.044 C 
HETATM   25  C30 UNL     1      -5.701  50.686 -23.574  1.00  0.00    -0.029 C 
HETATM   26  C31 UNL     1      -4.398  50.437 -23.380  1.00  0.00    -0.023 C 
HETATM   27  C32 UNL     1      -3.792  49.045 -23.340  1.00  0.00     0.047 C 
HETATM   28  C33 UNL     1      -2.633  48.926 -22.323  1.00  0.00     0.156 C 
HETATM   29  C34 UNL     1      -4.862  47.947 -23.103  1.00  0.00     0.025 C 
ENDROOT
BRANCH   1  30
HETATM   30  C6  UNL     1      -0.959  50.106 -16.306  1.00  0.00    -0.011 C 
HETATM   31  C7  UNL     1      -1.645  50.366 -14.953  1.00  0.00     0.010 C 
BRANCH  30  32
HETATM   32  C5  UNL     1       0.378  50.895 -16.326  1.00  0.00     0.040 C 
BRANCH  32  33
HETATM   33  C4  UNL     1       0.705  51.664 -15.029  1.00  0.00     0.142 C 
BRANCH  33  34
HETATM   34  C3  UNL     1       1.765  50.984 -14.216  1.00  0.00     0.018 C 
HETATM   35  C2  UNL     1       3.104  51.052 -14.369  1.00  0.00     0.010 C 
HETATM   36  C1  UNL     1       3.845  51.817 -15.424  1.00  0.00     0.055 C 
BRANCH  35  37
HETATM   37  C35 UNL     1       3.905  50.278 -13.391  1.00  0.00     0.171 C 
HETATM   38  O6  UNL     1       3.708  50.201 -12.191  1.00  0.00    -0.646 OA
BRANCH  37  39
HETATM   39  O7  UNL     1       4.923  49.616 -13.969  1.00  0.00    -0.773 OA
HETATM   40  H48 UNL     1       5.327  49.142 -13.216  1.00  0.00     0.167 HD
ENDBRANCH  37  39
ENDBRANCH  35  37
ENDBRANCH  33  34
BRANCH  33  41
HETATM   41  O1  UNL     1       1.237  52.937 -15.382  1.00  0.00    -0.392 OA
HETATM   42  H6  UNL     1       0.569  53.389 -15.926  1.00  0.00     0.210 HD
ENDBRANCH  33  41
ENDBRANCH  32  33
ENDBRANCH  30  32
ENDBRANCH   1  30
BRANCH   3  43
HETATM   43  O2  UNL     1      -3.203  51.838 -19.909  1.00  0.00    -0.394 OA
HETATM   44  H17 UNL     1      -3.570  51.692 -20.801  1.00  0.00     0.210 HD
ENDBRANCH   3  43
BRANCH  28  45
HETATM   45  O5  UNL     1      -1.679  49.944 -22.617  1.00  0.00    -0.390 OA
HETATM   46  H46 UNL     1      -1.437  49.857 -23.552  1.00  0.00     0.210 HD
ENDBRANCH  28  45
TORSDOF 9
ENDMDL
MODEL 7
REMARK minimizedAffinity -8.43307972
REMARK CNNscore 0.340355575
REMARK CNNaffinity 6.27849627
REMARK  9 active torsions:
REMARK  status: ('A' for Active; 'I' for Inactive)
REMARK    1  A    between atoms: C2_2  and  C35_40 
REMARK    2  A    between atoms: C3_3  and  C4_4 
REMARK    3  A    between atoms: C4_4  and  O1_5 
REMARK    4  A    between atoms: C4_4  and  C5_6 
REMARK    5  A    between atoms: C5_6  and  C6_7 
REMARK    6  A    between atoms: C6_7  and  C8_9 
REMARK    7  A    between atoms: C10_11  and  O2_12 
REMARK    8  A    between atoms: C33_37  and  O5_38 
REMARK    9  A    between atoms: C35_40  and  O7_42 
ROOT
HETATM    1  C8  UNL     1     -13.621  44.281 -26.569  1.00  0.00     0.002 C 
HETATM    2  C9  UNL     1     -13.928  43.562 -27.907  1.00  0.00     0.038 C 
HETATM    3  C10 UNL     1     -12.744  43.829 -28.828  1.00  0.00     0.132 C 
HETATM    4  C11 UNL     1     -12.380  45.302 -28.509  1.00  0.00     0.017 C 
HETATM    5  C12 UNL     1     -13.503  46.203 -29.129  1.00  0.00     0.023 C 
HETATM    6  C13 UNL     1     -10.994  45.722 -29.050  1.00  0.00    -0.029 C 
HETATM    7  C14 UNL     1      -9.893  45.870 -28.271  1.00  0.00     0.003 C 
HETATM    8  C15 UNL     1      -9.892  45.202 -26.931  1.00  0.00     0.157 C 
HETATM    9  O3  UNL     1      -8.840  44.937 -26.346  1.00  0.00    -0.293 OA
HETATM   10  C16 UNL     1     -11.184  44.791 -26.287  1.00  0.00     0.094 C 
HETATM   11  C17 UNL     1     -12.471  45.363 -26.924  1.00  0.00    -0.016 C 
HETATM   12  C18 UNL     1     -12.727  46.818 -26.356  1.00  0.00     0.011 C 
HETATM   13  C19 UNL     1     -11.865  48.008 -26.832  1.00  0.00     0.001 C 
HETATM   14  C20 UNL     1     -10.504  48.163 -26.151  1.00  0.00     0.000 C 
HETATM   15  C21 UNL     1      -9.419  48.806 -27.026  1.00  0.00     0.001 C 
HETATM   16  C22 UNL     1      -9.171  48.273 -28.456  1.00  0.00     0.015 C 
HETATM   17  C23 UNL     1      -8.699  46.769 -28.704  1.00  0.00    -0.003 C 
HETATM   18  C24 UNL     1      -7.392  46.551 -27.900  1.00  0.00     0.022 C 
HETATM   19  C25 UNL     1      -6.196  47.324 -28.422  1.00  0.00     0.080 C 
HETATM   20  C26 UNL     1      -5.894  47.020 -29.865  1.00  0.00     0.136 C 
HETATM   21  O4  UNL     1      -4.815  47.378 -30.345  1.00  0.00    -0.297 OA
HETATM   22  C27 UNL     1      -6.934  46.250 -30.685  1.00  0.00     0.025 C 
HETATM   23  C28 UNL     1      -6.710  46.613 -32.181  1.00  0.00     0.024 C 
HETATM   24  C29 UNL     1      -6.660  44.737 -30.507  1.00  0.00     0.044 C 
HETATM   25  C30 UNL     1      -7.840  43.865 -30.801  1.00  0.00    -0.029 C 
HETATM   26  C31 UNL     1      -9.066  44.339 -31.065  1.00  0.00    -0.023 C 
HETATM   27  C32 UNL     1      -9.433  45.813 -31.047  1.00  0.00     0.047 C 
HETATM   28  C33 UNL     1     -10.866  46.065 -30.521  1.00  0.00     0.156 C 
HETATM   29  C34 UNL     1      -8.393  46.665 -30.274  1.00  0.00     0.025 C 
ENDROOT
BRANCH   1  30
HETATM   30  C6  UNL     1     -14.890  44.740 -25.783  1.00  0.00    -0.011 C 
HETATM   31  C7  UNL     1     -15.885  45.434 -26.729  1.00  0.00     0.010 C 
BRANCH  30  32
HETATM   32  C5  UNL     1     -14.564  45.722 -24.625  1.00  0.00     0.040 C 
BRANCH  32  33
HETATM   33  C4  UNL     1     -15.665  46.758 -24.314  1.00  0.00     0.142 C 
BRANCH  33  34
HETATM   34  C3  UNL     1     -16.678  46.237 -23.340  1.00  0.00     0.018 C 
HETATM   35  C2  UNL     1     -18.023  46.311 -23.418  1.00  0.00     0.010 C 
HETATM   36  C1  UNL     1     -18.820  46.963 -24.507  1.00  0.00     0.055 C 
BRANCH  35  37
HETATM   37  C35 UNL     1     -18.769  45.683 -22.302  1.00  0.00     0.171 C 
HETATM   38  O6  UNL     1     -19.768  44.992 -22.393  1.00  0.00    -0.646 OA
BRANCH  37  39
HETATM   39  O7  UNL     1     -18.215  45.943 -21.104  1.00  0.00    -0.773 OA
HETATM   40  H48 UNL     1     -18.790  45.448 -20.488  1.00  0.00     0.167 HD
ENDBRANCH  37  39
ENDBRANCH  35  37
ENDBRANCH  33  34
BRANCH  33  41
HETATM   41  O1  UNL     1     -15.060  47.885 -23.687  1.00  0.00    -0.392 OA
HETATM   42  H6  UNL     1     -14.386  48.228 -24.298  1.00  0.00     0.210 HD
ENDBRANCH  33  41
ENDBRANCH  32  33
ENDBRANCH  30  32
ENDBRANCH   1  30
BRANCH   3  43
HETATM   43  O2  UNL     1     -11.699  42.913 -28.522  1.00  0.00    -0.394 OA
HETATM   44  H17 UNL     1     -10.999  43.058 -29.185  1.00  0.00     0.210 HD
ENDBRANCH   3  43
BRANCH  28  45
HETATM   45  O5  UNL     1     -11.767  45.273 -31.291  1.00  0.00    -0.390 OA
HETATM   46  H46 UNL     1     -11.612  45.480 -32.226  1.00  0.00     0.210 HD
ENDBRANCH  28  45
TORSDOF 9
ENDMDL
MODEL 8
REMARK minimizedAffinity -8.70638275
REMARK CNNscore 0.339680433
REMARK CNNaffinity 6.35994673
REMARK  9 active torsions:
REMARK  status: ('A' for Active; 'I' for Inactive)
REMARK    1  A    between atoms: C2_2  and  C35_40 
REMARK    2  A    between atoms: C3_3  and  C4_4 
REMARK    3  A    between atoms: C4_4  and  O1_5 
REMARK    4  A    between atoms: C4_4  and  C5_6 
REMARK    5  A    between atoms: C5_6  and  C6_7 
REMARK    6  A    between atoms: C6_7  and  C8_9 
REMARK    7  A    between atoms: C10_11  and  O2_12 
REMARK    8  A    between atoms: C33_37  and  O5_38 
REMARK    9  A    between atoms: C35_40  and  O7_42 
ROOT
HETATM    1  C8  UNL     1      -5.105  46.015 -18.651  1.00  0.00     0.002 C 
HETATM    2  C9  UNL     1      -6.150  46.084 -19.793  1.00  0.00     0.038 C 
HETATM    3  C10 UNL     1      -5.647  47.130 -20.781  1.00  0.00     0.132 C 
HETATM    4  C11 UNL     1      -5.055  48.226 -19.857  1.00  0.00     0.017 C 
HETATM    5  C12 UNL     1      -6.261  48.957 -19.173  1.00  0.00     0.023 C 
HETATM    6  C13 UNL     1      -4.165  49.244 -20.606  1.00  0.00    -0.029 C 
HETATM    7  C14 UNL     1      -2.810  49.250 -20.544  1.00  0.00     0.003 C 
HETATM    8  C15 UNL     1      -2.126  47.996 -20.095  1.00  0.00     0.157 C 
HETATM    9  O3  UNL     1      -0.950  47.768 -20.383  1.00  0.00    -0.293 OA
HETATM   10  C16 UNL     1      -2.882  46.957 -19.320  1.00  0.00     0.094 C 
HETATM   11  C17 UNL     1      -4.258  47.390 -18.767  1.00  0.00    -0.016 C 
HETATM   12  C18 UNL     1      -4.049  48.161 -17.401  1.00  0.00     0.011 C 
HETATM   13  C19 UNL     1      -3.499  49.605 -17.392  1.00  0.00     0.001 C 
HETATM   14  C20 UNL     1      -1.980  49.744 -17.511  1.00  0.00     0.000 C 
HETATM   15  C21 UNL     1      -1.507  51.034 -18.195  1.00  0.00     0.001 C 
HETATM   16  C22 UNL     1      -2.125  51.457 -19.548  1.00  0.00     0.015 C 
HETATM   17  C23 UNL     1      -1.984  50.534 -20.842  1.00  0.00    -0.003 C 
HETATM   18  C24 UNL     1      -0.471  50.297 -21.084  1.00  0.00     0.022 C 
HETATM   19  C25 UNL     1       0.299  51.530 -21.516  1.00  0.00     0.080 C 
HETATM   20  C26 UNL     1      -0.263  52.157 -22.763  1.00  0.00     0.136 C 
HETATM   21  O4  UNL     1       0.400  53.006 -23.365  1.00  0.00    -0.297 OA
HETATM   22  C27 UNL     1      -1.639  51.698 -23.258  1.00  0.00     0.025 C 
HETATM   23  C28 UNL     1      -2.244  52.859 -24.098  1.00  0.00     0.024 C 
HETATM   24  C29 UNL     1      -1.429  50.481 -24.193  1.00  0.00     0.044 C 
HETATM   25  C30 UNL     1      -2.641  49.616 -24.348  1.00  0.00    -0.029 C 
HETATM   26  C31 UNL     1      -3.770  49.787 -23.646  1.00  0.00    -0.023 C 
HETATM   27  C32 UNL     1      -3.952  50.840 -22.566  1.00  0.00     0.047 C 
HETATM   28  C33 UNL     1      -4.838  50.349 -21.397  1.00  0.00     0.156 C 
HETATM   29  C34 UNL     1      -2.597  51.390 -22.051  1.00  0.00     0.025 C 
ENDROOT
BRANCH   1  30
HETATM   30  C6  UNL     1      -5.696  45.594 -17.268  1.00  0.00    -0.011 C 
HETATM   31  C7  UNL     1      -5.193  44.194 -16.874  1.00  0.00     0.010 C 
BRANCH  30  32
HETATM   32  C5  UNL     1      -7.249  45.569 -17.253  1.00  0.00     0.040 C 
BRANCH  32  33
HETATM   33  C4  UNL     1      -7.919  46.851 -16.719  1.00  0.00     0.142 C 
BRANCH  33  34
HETATM   34  C3  UNL     1      -9.414  46.801 -16.829  1.00  0.00     0.018 C 
HETATM   35  C2  UNL     1     -10.211  47.497 -17.666  1.00  0.00     0.010 C 
HETATM   36  C1  UNL     1      -9.774  48.513 -18.677  1.00  0.00     0.055 C 
BRANCH  35  37
HETATM   37  C35 UNL     1     -11.662  47.218 -17.554  1.00  0.00     0.171 C 
HETATM   38  O6  UNL     1     -12.343  47.307 -16.548  1.00  0.00    -0.646 OA
BRANCH  37  39
HETATM   39  O7  UNL     1     -12.207  46.847 -18.726  1.00  0.00    -0.773 OA
HETATM   40  H48 UNL     1     -13.150  46.730 -18.500  1.00  0.00     0.167 HD
ENDBRANCH  37  39
ENDBRANCH  35  37
ENDBRANCH  33  34
BRANCH  33  41
HETATM   41  O1  UNL     1      -7.632  46.965 -15.329  1.00  0.00    -0.392 OA
HETATM   42  H6  UNL     1      -6.664  46.984 -15.234  1.00  0.00     0.210 HD
ENDBRANCH  33  41
ENDBRANCH  32  33
ENDBRANCH  30  32
ENDBRANCH   1  30
BRANCH   3  43
HETATM   43  O2  UNL     1      -4.680  46.535 -21.638  1.00  0.00    -0.394 OA
HETATM   44  H17 UNL     1      -4.449  47.208 -22.306  1.00  0.00     0.210 HD
ENDBRANCH   3  43
BRANCH  28  45
HETATM   45  O5  UNL     1      -6.072  49.884 -21.940  1.00  0.00    -0.390 OA
HETATM   46  H46 UNL     1      -6.439  50.598 -22.484  1.00  0.00     0.210 HD
ENDBRANCH  28  45
TORSDOF 9
ENDMDL
MODEL 9
REMARK minimizedAffinity -9.089118
REMARK CNNscore 0.330086678
REMARK CNNaffinity 6.59931803
REMARK  9 active torsions:
REMARK  status: ('A' for Active; 'I' for Inactive)
REMARK    1  A    between atoms: C2_2  and  C35_40 
REMARK    2  A    between atoms: C3_3  and  C4_4 
REMARK    3  A    between atoms: C4_4  and  O1_5 
REMARK    4  A    between atoms: C4_4  and  C5_6 
REMARK    5  A    between atoms: C5_6  and  C6_7 
REMARK    6  A    between atoms: C6_7  and  C8_9 
REMARK    7  A    between atoms: C10_11  and  O2_12 
REMARK    8  A    between atoms: C33_37  and  O5_38 
REMARK    9  A    between atoms: C35_40  and  O7_42 
ROOT
HETATM    1  C8  UNL     1      -6.273  47.964 -18.756  1.00  0.00     0.002 C 
HETATM    2  C9  UNL     1      -5.230  47.711 -17.638  1.00  0.00     0.038 C 
HETATM    3  C10 UNL     1      -3.943  48.396 -18.079  1.00  0.00     0.132 C 
HETATM    4  C11 UNL     1      -3.906  48.120 -19.605  1.00  0.00     0.017 C 
HETATM    5  C12 UNL     1      -3.565  46.601 -19.794  1.00  0.00     0.023 C 
HETATM    6  C13 UNL     1      -2.884  48.998 -20.362  1.00  0.00    -0.029 C 
HETATM    7  C14 UNL     1      -3.227  50.061 -21.131  1.00  0.00     0.003 C 
HETATM    8  C15 UNL     1      -4.574  50.676 -20.911  1.00  0.00     0.157 C 
HETATM    9  O3  UNL     1      -4.812  51.838 -21.245  1.00  0.00    -0.293 OA
HETATM   10  C16 UNL     1      -5.659  49.899 -20.225  1.00  0.00     0.094 C 
HETATM   11  C17 UNL     1      -5.405  48.384 -20.058  1.00  0.00    -0.016 C 
HETATM   12  C18 UNL     1      -5.808  47.639 -21.395  1.00  0.00     0.011 C 
HETATM   13  C19 UNL     1      -4.907  47.735 -22.646  1.00  0.00     0.001 C 
HETATM   14  C20 UNL     1      -5.072  48.996 -23.495  1.00  0.00     0.000 C 
HETATM   15  C21 UNL     1      -3.804  49.436 -24.241  1.00  0.00     0.001 C 
HETATM   16  C22 UNL     1      -2.466  49.556 -23.476  1.00  0.00     0.015 C 
HETATM   17  C23 UNL     1      -2.299  50.583 -22.266  1.00  0.00    -0.003 C 
HETATM   18  C24 UNL     1      -2.650  51.996 -22.800  1.00  0.00     0.022 C 
HETATM   19  C25 UNL     1      -1.657  52.555 -23.801  1.00  0.00     0.080 C 
HETATM   20  C26 UNL     1      -0.256  52.616 -23.255  1.00  0.00     0.136 C 
HETATM   21  O4  UNL     1       0.599  53.272 -23.856  1.00  0.00    -0.297 OA
HETATM   22  C27 UNL     1       0.055  51.875 -21.950  1.00  0.00     0.025 C 
HETATM   23  C28 UNL     1       1.577  51.555 -21.946  1.00  0.00     0.024 C 
HETATM   24  C29 UNL     1      -0.241  52.836 -20.772  1.00  0.00     0.044 C 
HETATM   25  C30 UNL     1      -0.482  52.144 -19.467  1.00  0.00    -0.029 C 
HETATM   26  C31 UNL     1      -0.570  50.812 -19.338  1.00  0.00    -0.023 C 
HETATM   27  C32 UNL     1      -0.494  49.835 -20.499  1.00  0.00     0.047 C 
HETATM   28  C33 UNL     1      -1.419  48.610 -20.311  1.00  0.00     0.156 C 
HETATM   29  C34 UNL     1      -0.748  50.527 -21.863  1.00  0.00     0.025 C 
ENDROOT
BRANCH   1  30
HETATM   30  C6  UNL     1      -7.357  46.847 -18.886  1.00  0.00    -0.011 C 
HETATM   31  C7  UNL     1      -6.763  45.598 -19.561  1.00  0.00     0.010 C 
BRANCH  30  32
HETATM   32  C5  UNL     1      -8.595  47.295 -19.709  1.00  0.00     0.040 C 
BRANCH  32  33
HETATM   33  C4  UNL     1      -9.411  48.449 -19.090  1.00  0.00     0.142 C 
BRANCH  33  34
HETATM   34  C3  UNL     1     -10.833  48.058 -18.818  1.00  0.00     0.018 C 
HETATM   35  C2  UNL     1     -11.297  47.195 -17.890  1.00  0.00     0.010 C 
HETATM   36  C1  UNL     1     -10.476  46.399 -16.921  1.00  0.00     0.055 C 
BRANCH  35  37
HETATM   37  C35 UNL     1     -12.768  47.026 -17.847  1.00  0.00     0.171 C 
HETATM   38  O6  UNL     1     -13.449  46.385 -18.628  1.00  0.00    -0.646 OA
BRANCH  37  39
HETATM   39  O7  UNL     1     -13.329  47.666 -16.805  1.00  0.00    -0.773 OA
HETATM   40  H48 UNL     1     -14.275  47.439 -16.895  1.00  0.00     0.167 HD
ENDBRANCH  37  39
ENDBRANCH  35  37
ENDBRANCH  33  34
BRANCH  33  41
HETATM   41  O1  UNL     1      -8.844  48.773 -17.824  1.00  0.00    -0.392 OA
HETATM   42  H6  UNL     1      -7.915  49.014 -17.977  1.00  0.00     0.210 HD
ENDBRANCH  33  41
ENDBRANCH  32  33
ENDBRANCH  30  32
ENDBRANCH   1  30
BRANCH   3  43
HETATM   43  O2  UNL     1      -4.017  49.780 -17.760  1.00  0.00    -0.394 OA
HETATM   44  H17 UNL     1      -3.147  50.163 -17.978  1.00  0.00     0.210 HD
ENDBRANCH   3  43
BRANCH  28  45
HETATM   45  O5  UNL     1      -1.112  48.011 -19.054  1.00  0.00    -0.390 OA
HETATM   46  H46 UNL     1      -0.159  47.833 -19.040  1.00  0.00     0.210 HD
ENDBRANCH  28  45
TORSDOF 9
ENDMDL
