MODEL 1
REMARK minimizedAffinity -9.49170589
REMARK CNNscore 0.296380192
REMARK CNNaffinity 6.32930803
REMARK  10 active torsions:
REMARK  status: ('A' for Active; 'I' for Inactive)
REMARK    1  A    between atoms: O1_2  and  C2_3 
REMARK    2  A    between atoms: C7_9  and  C8_10 
REMARK    3  A    between atoms: C8_10  and  C9_11 
REMARK    4  A    between atoms: C9_11  and  N2_12 
REMARK    5  A    between atoms: N2_12  and  C10_13 
REMARK    6  A    between atoms: C20_24  and  C21_25 
REMARK    7  A    between atoms: C21_25  and  C23_27 
REMARK    8  A    between atoms: C27_31  and  C28_32 
REMARK    9  A    between atoms: C28_32  and  O3_33 
REMARK   10  A    between atoms: C37_45  and  O7_46 
ROOT
HETATM    1  C10 UNL     1      -7.779  48.454 -26.372  1.00  0.00     0.259 C 
HETATM    2  C11 UNL     1      -8.911  48.731 -25.374  1.00  0.00     0.117 C 
HETATM    3  C12 UNL     1      -9.703  47.479 -25.055  1.00  0.00     0.141 C 
HETATM    4  O2  UNL     1     -10.131  47.285 -23.913  1.00  0.00    -0.297 OA
HETATM    5  C13 UNL     1      -9.965  46.485 -26.198  1.00  0.00     0.057 C 
HETATM    6  C14 UNL     1      -9.021  45.274 -25.967  1.00  0.00     0.027 C 
HETATM    7  C15 UNL     1     -11.441  45.950 -26.124  1.00  0.00     0.009 C 
HETATM    8  C16 UNL     1     -12.531  47.039 -26.021  1.00  0.00     0.007 C 
HETATM    9  C17 UNL     1     -13.708  46.864 -26.977  1.00  0.00     0.010 C 
HETATM   10  C18 UNL     1     -14.306  45.447 -27.052  1.00  0.00    -0.036 C 
HETATM   11  C19 UNL     1     -15.161  45.398 -28.345  1.00  0.00     0.016 C 
HETATM   12  C20 UNL     1     -15.158  44.961 -25.816  1.00  0.00     0.000 C 
HETATM   13  C30 UNL     1     -14.168  44.199 -24.941  1.00  0.00     0.006 C 
HETATM   14  C31 UNL     1     -13.366  43.413 -25.962  1.00  0.00     0.006 C 
HETATM   15  C32 UNL     1     -13.171  44.357 -27.168  1.00  0.00    -0.001 C 
HETATM   16  C33 UNL     1     -11.721  44.909 -27.231  1.00  0.00    -0.002 C 
HETATM   17  C34 UNL     1     -11.353  45.372 -28.662  1.00  0.00     0.040 C 
HETATM   18  C35 UNL     1     -10.300  46.438 -28.758  1.00  0.00     0.161 A 
HETATM   19  O6  UNL     1     -10.777  47.683 -28.253  1.00  0.00    -0.365 OA
HETATM   20  C36 UNL     1      -9.661  47.110 -27.548  1.00  0.00     0.130 A 
HETATM   21  C37 UNL     1      -8.392  47.938 -27.708  1.00  0.00     0.190 C 
ENDROOT
BRANCH   1  22
HETATM   22  N2  UNL     1      -6.762  47.593 -25.729  1.00  0.00     0.091 N 
HETATM   23  H12 UNL     1      -7.232  46.828 -25.233  1.00  0.00     0.316 HD
BRANCH  22  24
HETATM   24  C9  UNL     1      -5.869  48.295 -24.794  1.00  0.00     0.275 C 
BRANCH  24  25
HETATM   25  C8  UNL     1      -4.460  48.437 -25.398  1.00  0.00     0.070 C 
BRANCH  25  26
HETATM   26  C7  UNL     1      -3.475  48.981 -24.408  1.00  0.00    -0.029 A 
HETATM   27  C6  UNL     1      -3.139  48.409 -23.198  1.00  0.00     0.096 A 
HETATM   28  N1  UNL     1      -2.162  49.171 -22.608  1.00  0.00    -0.365 N 
HETATM   29  C5  UNL     1      -1.844  50.234 -23.415  1.00  0.00     0.043 A 
HETATM   30  H6  UNL     1      -1.727  48.973 -21.715  1.00  0.00     0.165 HD
HETATM   31  C4  UNL     1      -0.898  51.253 -23.241  1.00  0.00     0.033 A 
HETATM   32  C38 UNL     1      -2.672  50.155 -24.542  1.00  0.00     0.001 A 
HETATM   33  C3  UNL     1      -0.798  52.220 -24.250  1.00  0.00     0.039 A 
HETATM   34  C2  UNL     1      -1.632  52.196 -25.369  1.00  0.00     0.069 A 
HETATM   35  C39 UNL     1      -2.558  51.157 -25.529  1.00  0.00     0.051 A 
BRANCH  34  36
HETATM   36  O1  UNL     1      -1.421  53.208 -26.270  1.00  0.00    -0.356 OA
HETATM   37  C1  UNL     1      -0.701  52.866 -27.444  1.00  0.00     0.210 C 
ENDBRANCH  34  36
ENDBRANCH  25  26
ENDBRANCH  24  25
ENDBRANCH  22  24
ENDBRANCH   1  22
BRANCH  21  38
HETATM   38  O7  UNL     1      -8.677  49.111 -28.485  1.00  0.00    -0.390 OA
HETATM   39  H51 UNL     1      -8.479  48.913 -29.419  1.00  0.00     0.210 HD
ENDBRANCH  21  38
BRANCH  12  40
HETATM   40  C21 UNL     1     -16.227  45.810 -25.048  1.00  0.00     0.016 C 
HETATM   41  C22 UNL     1     -15.544  46.987 -24.323  1.00  0.00     0.013 C 
BRANCH  40  42
HETATM   42  C23 UNL     1     -17.322  45.211 -24.114  1.00  0.00     0.140 C 
HETATM   43  C24 UNL     1     -17.998  46.166 -23.135  1.00  0.00     0.067 C 
HETATM   44  C25 UNL     1     -18.950  45.369 -22.277  1.00  0.00    -0.067 C 
HETATM   45  C26 UNL     1     -19.137  45.872 -20.871  1.00  0.00     0.044 C 
HETATM   46  C27 UNL     1     -19.590  44.293 -22.799  1.00  0.00     0.042 C 
HETATM   47  C29 UNL     1     -19.362  43.920 -24.225  1.00  0.00     0.292 C 
HETATM   48  O4  UNL     1     -20.078  43.115 -24.807  1.00  0.00    -0.260 OA
HETATM   49  O5  UNL     1     -18.311  44.499 -24.863  1.00  0.00    -0.311 OA
BRANCH  46  50
HETATM   50  C28 UNL     1     -20.608  43.457 -22.081  1.00  0.00     0.209 C 
BRANCH  50  51
HETATM   51  O3  UNL     1     -21.887  43.586 -22.707  1.00  0.00    -0.396 OA
HETATM   52  H40 UNL     1     -22.369  42.765 -22.507  1.00  0.00     0.209 HD
ENDBRANCH  50  51
ENDBRANCH  46  50
ENDBRANCH  40  42
ENDBRANCH  12  40
TORSDOF 10
ENDMDL
MODEL 2
REMARK minimizedAffinity -8.83742142
REMARK CNNscore 0.243927971
REMARK CNNaffinity 5.89576292
REMARK  10 active torsions:
REMARK  status: ('A' for Active; 'I' for Inactive)
REMARK    1  A    between atoms: O1_2  and  C2_3 
REMARK    2  A    between atoms: C7_9  and  C8_10 
REMARK    3  A    between atoms: C8_10  and  C9_11 
REMARK    4  A    between atoms: C9_11  and  N2_12 
REMARK    5  A    between atoms: N2_12  and  C10_13 
REMARK    6  A    between atoms: C20_24  and  C21_25 
REMARK    7  A    between atoms: C21_25  and  C23_27 
REMARK    8  A    between atoms: C27_31  and  C28_32 
REMARK    9  A    between atoms: C28_32  and  O3_33 
REMARK   10  A    between atoms: C37_45  and  O7_46 
ROOT
HETATM    1  C10 UNL     1     -10.345  46.980 -25.546  1.00  0.00     0.259 C 
HETATM    2  C11 UNL     1     -11.077  46.665 -24.235  1.00  0.00     0.117 C 
HETATM    3  C12 UNL     1     -11.982  45.457 -24.369  1.00  0.00     0.141 C 
HETATM    4  O2  UNL     1     -12.106  44.663 -23.431  1.00  0.00    -0.297 OA
HETATM    5  C13 UNL     1     -12.744  45.274 -25.691  1.00  0.00     0.057 C 
HETATM    6  C14 UNL     1     -12.035  44.131 -26.466  1.00  0.00     0.027 C 
HETATM    7  C15 UNL     1     -14.217  44.806 -25.407  1.00  0.00     0.009 C 
HETATM    8  C16 UNL     1     -14.996  45.663 -24.386  1.00  0.00     0.007 C 
HETATM    9  C17 UNL     1     -16.402  46.065 -24.822  1.00  0.00     0.010 C 
HETATM   10  C18 UNL     1     -17.267  44.938 -25.416  1.00  0.00    -0.036 C 
HETATM   11  C19 UNL     1     -18.440  45.629 -26.160  1.00  0.00     0.016 C 
HETATM   12  C20 UNL     1     -17.822  43.854 -24.413  1.00  0.00     0.000 C 
HETATM   13  C30 UNL     1     -16.800  42.723 -24.466  1.00  0.00     0.006 C 
HETATM   14  C31 UNL     1     -16.487  42.632 -25.947  1.00  0.00     0.006 C 
HETATM   15  C32 UNL     1     -16.450  44.087 -26.464  1.00  0.00    -0.001 C 
HETATM   16  C33 UNL     1     -14.996  44.564 -26.721  1.00  0.00    -0.002 C 
HETATM   17  C34 UNL     1     -14.955  45.744 -27.723  1.00  0.00     0.040 C 
HETATM   18  C35 UNL     1     -13.779  46.669 -27.602  1.00  0.00     0.161 A 
HETATM   19  O6  UNL     1     -13.838  47.425 -26.394  1.00  0.00    -0.365 OA
HETATM   20  C36 UNL     1     -12.709  46.544 -26.523  1.00  0.00     0.130 A 
HETATM   21  C37 UNL     1     -11.395  47.305 -26.651  1.00  0.00     0.190 C 
ENDROOT
BRANCH   1  22
HETATM   22  N2  UNL     1      -9.383  45.896 -25.841  1.00  0.00     0.091 N 
HETATM   23  H12 UNL     1      -9.766  45.004 -25.507  1.00  0.00     0.316 HD
BRANCH  22  24
HETATM   24  C9  UNL     1      -8.045  46.091 -25.262  1.00  0.00     0.275 C 
BRANCH  24  25
HETATM   25  C8  UNL     1      -7.718  47.593 -25.153  1.00  0.00     0.070 C 
BRANCH  25  26
HETATM   26  C7  UNL     1      -6.565  47.852 -24.231  1.00  0.00    -0.029 A 
HETATM   27  C6  UNL     1      -6.557  47.658 -22.865  1.00  0.00     0.096 A 
HETATM   28  N1  UNL     1      -5.304  47.951 -22.387  1.00  0.00    -0.365 N 
HETATM   29  C5  UNL     1      -4.485  48.329 -23.420  1.00  0.00     0.043 A 
HETATM   30  H6  UNL     1      -5.020  47.885 -21.417  1.00  0.00     0.165 HD
HETATM   31  C4  UNL     1      -3.131  48.692 -23.416  1.00  0.00     0.033 A 
HETATM   32  C38 UNL     1      -5.257  48.302 -24.588  1.00  0.00     0.001 A 
HETATM   33  C3  UNL     1      -2.553  49.039 -24.644  1.00  0.00     0.039 A 
HETATM   34  C2  UNL     1      -3.300  49.060 -25.823  1.00  0.00     0.069 A 
HETATM   35  C39 UNL     1      -4.647  48.676 -25.804  1.00  0.00     0.051 A 
BRANCH  34  36
HETATM   36  O1  UNL     1      -2.599  49.423 -26.945  1.00  0.00    -0.356 OA
HETATM   37  C1  UNL     1      -1.667  50.481 -26.790  1.00  0.00     0.210 C 
ENDBRANCH  34  36
ENDBRANCH  25  26
ENDBRANCH  24  25
ENDBRANCH  22  24
ENDBRANCH   1  22
BRANCH  21  38
HETATM   38  O7  UNL     1     -11.644  48.716 -26.547  1.00  0.00    -0.390 OA
HETATM   39  H51 UNL     1     -11.758  49.072 -27.449  1.00  0.00     0.210 HD
ENDBRANCH  21  38
BRANCH  12  40
HETATM   40  C21 UNL     1     -18.443  44.141 -23.004  1.00  0.00     0.016 C 
HETATM   41  C22 UNL     1     -19.969  44.317 -23.126  1.00  0.00     0.013 C 
BRANCH  40  42
HETATM   42  C23 UNL     1     -17.894  45.199 -21.999  1.00  0.00     0.140 C 
HETATM   43  C24 UNL     1     -18.827  45.640 -20.875  1.00  0.00     0.067 C 
HETATM   44  C25 UNL     1     -18.134  46.720 -20.081  1.00  0.00    -0.067 C 
HETATM   45  C26 UNL     1     -19.034  47.761 -19.472  1.00  0.00     0.044 C 
HETATM   46  C27 UNL     1     -16.786  46.691 -19.934  1.00  0.00     0.042 C 
HETATM   47  C29 UNL     1     -16.002  45.577 -20.543  1.00  0.00     0.292 C 
HETATM   48  O4  UNL     1     -14.831  45.374 -20.249  1.00  0.00    -0.260 OA
HETATM   49  O5  UNL     1     -16.634  44.793 -21.456  1.00  0.00    -0.311 OA
BRANCH  46  50
HETATM   50  C28 UNL     1     -15.981  47.659 -19.118  1.00  0.00     0.209 C 
BRANCH  50  51
HETATM   51  O3  UNL     1     -15.278  46.971 -18.081  1.00  0.00    -0.396 OA
HETATM   52  H40 UNL     1     -14.497  47.514 -17.878  1.00  0.00     0.209 HD
ENDBRANCH  50  51
ENDBRANCH  46  50
ENDBRANCH  40  42
ENDBRANCH  12  40
TORSDOF 10
ENDMDL
MODEL 3
REMARK minimizedAffinity -8.69085789
REMARK CNNscore 0.207455456
REMARK CNNaffinity 5.8830266
REMARK  10 active torsions:
REMARK  status: ('A' for Active; 'I' for Inactive)
REMARK    1  A    between atoms: O1_2  and  C2_3 
REMARK    2  A    between atoms: C7_9  and  C8_10 
REMARK    3  A    between atoms: C8_10  and  C9_11 
REMARK    4  A    between atoms: C9_11  and  N2_12 
REMARK    5  A    between atoms: N2_12  and  C10_13 
REMARK    6  A    between atoms: C20_24  and  C21_25 
REMARK    7  A    between atoms: C21_25  and  C23_27 
REMARK    8  A    between atoms: C27_31  and  C28_32 
REMARK    9  A    between atoms: C28_32  and  O3_33 
REMARK   10  A    between atoms: C37_45  and  O7_46 
ROOT
HETATM    1  C10 UNL     1      -5.867  50.230 -20.985  1.00  0.00     0.259 C 
HETATM    2  C11 UNL     1      -7.008  49.634 -20.151  1.00  0.00     0.117 C 
HETATM    3  C12 UNL     1      -7.114  48.133 -20.327  1.00  0.00     0.141 C 
HETATM    4  O2  UNL     1      -7.414  47.411 -19.371  1.00  0.00    -0.297 OA
HETATM    5  C13 UNL     1      -6.856  47.555 -21.728  1.00  0.00     0.057 C 
HETATM    6  C14 UNL     1      -5.453  46.891 -21.691  1.00  0.00     0.027 C 
HETATM    7  C15 UNL     1      -7.901  46.427 -22.050  1.00  0.00     0.009 C 
HETATM    8  C16 UNL     1      -9.379  46.816 -21.830  1.00  0.00     0.007 C 
HETATM    9  C17 UNL     1     -10.318  46.454 -22.977  1.00  0.00     0.010 C 
HETATM   10  C18 UNL     1     -10.169  45.029 -23.541  1.00  0.00    -0.036 C 
HETATM   11  C19 UNL     1     -10.880  45.024 -24.919  1.00  0.00     0.016 C 
HETATM   12  C20 UNL     1     -10.705  43.843 -22.648  1.00  0.00     0.000 C 
HETATM   13  C30 UNL     1      -9.484  43.367 -21.868  1.00  0.00     0.006 C 
HETATM   14  C31 UNL     1      -8.390  43.399 -22.920  1.00  0.00     0.006 C 
HETATM   15  C32 UNL     1      -8.651  44.663 -23.767  1.00  0.00    -0.001 C 
HETATM   16  C33 UNL     1      -7.637  45.791 -23.434  1.00  0.00    -0.002 C 
HETATM   17  C34 UNL     1      -7.514  46.804 -24.599  1.00  0.00     0.040 C 
HETATM   18  C35 UNL     1      -7.093  48.194 -24.220  1.00  0.00     0.161 A 
HETATM   19  O6  UNL     1      -8.111  48.857 -23.474  1.00  0.00    -0.365 OA
HETATM   20  C36 UNL     1      -6.868  48.649 -22.782  1.00  0.00     0.130 A 
HETATM   21  C37 UNL     1      -6.142  49.958 -22.494  1.00  0.00     0.190 C 
ENDROOT
BRANCH   1  22
HETATM   22  N2  UNL     1      -4.572  49.758 -20.447  1.00  0.00     0.091 N 
HETATM   23  H12 UNL     1      -4.671  49.573 -19.443  1.00  0.00     0.316 HD
BRANCH  22  24
HETATM   24  C9  UNL     1      -3.448  50.683 -20.658  1.00  0.00     0.275 C 
BRANCH  24  25
HETATM   25  C8  UNL     1      -2.388  50.043 -21.574  1.00  0.00     0.070 C 
BRANCH  25  26
HETATM   26  C7  UNL     1      -1.329  51.023 -21.980  1.00  0.00    -0.029 A 
HETATM   27  C6  UNL     1      -1.033  51.411 -23.271  1.00  0.00     0.096 A 
HETATM   28  N1  UNL     1      -0.047  52.366 -23.227  1.00  0.00    -0.365 N 
HETATM   29  C5  UNL     1       0.306  52.617 -21.925  1.00  0.00     0.043 A 
HETATM   30  H6  UNL     1       0.353  52.829 -24.034  1.00  0.00     0.165 HD
HETATM   31  C4  UNL     1       1.239  53.519 -21.397  1.00  0.00     0.033 A 
HETATM   32  C38 UNL     1      -0.465  51.769 -21.120  1.00  0.00     0.001 A 
HETATM   33  C3  UNL     1       1.388  53.552 -20.005  1.00  0.00     0.039 A 
HETATM   34  C2  UNL     1       0.665  52.696 -19.173  1.00  0.00     0.069 A 
HETATM   35  C39 UNL     1      -0.275  51.815 -19.723  1.00  0.00     0.051 A 
BRANCH  34  36
HETATM   36  O1  UNL     1       0.919  52.840 -17.832  1.00  0.00    -0.356 OA
HETATM   37  C1  UNL     1       0.909  51.651 -17.059  1.00  0.00     0.210 C 
ENDBRANCH  34  36
ENDBRANCH  25  26
ENDBRANCH  24  25
ENDBRANCH  22  24
ENDBRANCH   1  22
BRANCH  21  38
HETATM   38  O7  UNL     1      -6.940  51.061 -22.949  1.00  0.00    -0.390 OA
HETATM   39  H51 UNL     1      -6.659  51.286 -23.856  1.00  0.00     0.210 HD
ENDBRANCH  21  38
BRANCH  12  40
HETATM   40  C21 UNL     1     -12.059  43.828 -21.861  1.00  0.00     0.016 C 
HETATM   41  C22 UNL     1     -13.183  43.267 -22.755  1.00  0.00     0.013 C 
BRANCH  40  42
HETATM   42  C23 UNL     1     -12.619  45.035 -21.049  1.00  0.00     0.140 C 
HETATM   43  C24 UNL     1     -11.680  45.688 -20.040  1.00  0.00     0.067 C 
HETATM   44  C25 UNL     1     -12.444  46.767 -19.310  1.00  0.00    -0.067 C 
HETATM   45  C26 UNL     1     -12.034  47.005 -17.883  1.00  0.00     0.044 C 
HETATM   46  C27 UNL     1     -13.411  47.464 -19.958  1.00  0.00     0.042 C 
HETATM   47  C29 UNL     1     -13.696  47.171 -21.392  1.00  0.00     0.292 C 
HETATM   48  O4  UNL     1     -14.382  47.916 -22.081  1.00  0.00    -0.260 OA
HETATM   49  O5  UNL     1     -13.174  46.030 -21.914  1.00  0.00    -0.311 OA
BRANCH  46  50
HETATM   50  C28 UNL     1     -14.197  48.602 -19.375  1.00  0.00     0.209 C 
BRANCH  50  51
HETATM   51  O3  UNL     1     -13.830  49.832 -20.003  1.00  0.00    -0.396 OA
HETATM   52  H40 UNL     1     -14.602  50.417 -19.922  1.00  0.00     0.209 HD
ENDBRANCH  50  51
ENDBRANCH  46  50
ENDBRANCH  40  42
ENDBRANCH  12  40
TORSDOF 10
ENDMDL
MODEL 4
REMARK minimizedAffinity -9.38669014
REMARK CNNscore 0.179986164
REMARK CNNaffinity 6.42260742
REMARK  10 active torsions:
REMARK  status: ('A' for Active; 'I' for Inactive)
REMARK    1  A    between atoms: O1_2  and  C2_3 
REMARK    2  A    between atoms: C7_9  and  C8_10 
REMARK    3  A    between atoms: C8_10  and  C9_11 
REMARK    4  A    between atoms: C9_11  and  N2_12 
REMARK    5  A    between atoms: N2_12  and  C10_13 
REMARK    6  A    between atoms: C20_24  and  C21_25 
REMARK    7  A    between atoms: C21_25  and  C23_27 
REMARK    8  A    between atoms: C27_31  and  C28_32 
REMARK    9  A    between atoms: C28_32  and  O3_33 
REMARK   10  A    between atoms: C37_45  and  O7_46 
ROOT
HETATM    1  C10 UNL     1      -9.166  47.536 -18.979  1.00  0.00     0.259 C 
HETATM    2  C11 UNL     1      -8.882  48.724 -19.906  1.00  0.00     0.117 C 
HETATM    3  C12 UNL     1      -7.760  48.427 -20.879  1.00  0.00     0.141 C 
HETATM    4  O2  UNL     1      -7.806  48.857 -22.036  1.00  0.00    -0.297 OA
HETATM    5  C13 UNL     1      -6.569  47.600 -20.370  1.00  0.00     0.057 C 
HETATM    6  C14 UNL     1      -6.717  46.177 -20.973  1.00  0.00     0.027 C 
HETATM    7  C15 UNL     1      -5.221  48.201 -20.910  1.00  0.00     0.009 C 
HETATM    8  C16 UNL     1      -5.035  49.716 -20.678  1.00  0.00     0.007 C 
HETATM    9  C17 UNL     1      -3.679  50.118 -20.105  1.00  0.00     0.010 C 
HETATM   10  C18 UNL     1      -2.450  49.477 -20.776  1.00  0.00    -0.036 C 
HETATM   11  C19 UNL     1      -1.262  49.673 -19.800  1.00  0.00     0.016 C 
HETATM   12  C20 UNL     1      -2.065  49.998 -22.215  1.00  0.00     0.000 C 
HETATM   13  C30 UNL     1      -2.751  49.028 -23.172  1.00  0.00     0.006 C 
HETATM   14  C31 UNL     1      -2.509  47.686 -22.507  1.00  0.00     0.006 C 
HETATM   15  C32 UNL     1      -2.663  47.928 -20.991  1.00  0.00    -0.001 C 
HETATM   16  C33 UNL     1      -4.006  47.360 -20.455  1.00  0.00    -0.002 C 
HETATM   17  C34 UNL     1      -3.940  47.089 -18.932  1.00  0.00     0.040 C 
HETATM   18  C35 UNL     1      -5.248  47.139 -18.198  1.00  0.00     0.161 A 
HETATM   19  O6  UNL     1      -5.765  48.467 -18.152  1.00  0.00    -0.365 OA
HETATM   20  C36 UNL     1      -6.575  47.508 -18.853  1.00  0.00     0.130 A 
HETATM   21  C37 UNL     1      -7.891  47.230 -18.137  1.00  0.00     0.190 C 
ENDROOT
BRANCH   1  22
HETATM   22  N2  UNL     1      -9.724  46.420 -19.773  1.00  0.00     0.091 N 
HETATM   23  H12 UNL     1      -8.955  45.886 -20.192  1.00  0.00     0.316 HD
BRANCH  22  24
HETATM   24  C9  UNL     1     -10.658  46.829 -20.832  1.00  0.00     0.275 C 
BRANCH  24  25
HETATM   25  C8  UNL     1     -12.076  47.017 -20.259  1.00  0.00     0.070 C 
BRANCH  25  26
HETATM   26  C7  UNL     1     -13.132  46.871 -21.312  1.00  0.00    -0.029 A 
HETATM   27  C6  UNL     1     -12.915  46.710 -22.665  1.00  0.00     0.096 A 
HETATM   28  N1  UNL     1     -14.128  46.552 -23.289  1.00  0.00    -0.365 N 
HETATM   29  C5  UNL     1     -15.141  46.600 -22.365  1.00  0.00     0.043 A 
HETATM   30  H6  UNL     1     -14.258  46.406 -24.283  1.00  0.00     0.165 HD
HETATM   31  C4  UNL     1     -16.525  46.464 -22.532  1.00  0.00     0.033 A 
HETATM   32  C38 UNL     1     -14.547  46.826 -21.117  1.00  0.00     0.001 A 
HETATM   33  C3  UNL     1     -17.325  46.564 -21.386  1.00  0.00     0.039 A 
HETATM   34  C2  UNL     1     -16.774  46.826 -20.131  1.00  0.00     0.069 A 
HETATM   35  C39 UNL     1     -15.385  46.941 -19.987  1.00  0.00     0.051 A 
BRANCH  34  36
HETATM   36  O1  UNL     1     -17.680  46.900 -19.104  1.00  0.00    -0.356 OA
HETATM   37  C1  UNL     1     -19.014  47.224 -19.465  1.00  0.00     0.210 C 
ENDBRANCH  34  36
ENDBRANCH  25  26
ENDBRANCH  24  25
ENDBRANCH  22  24
ENDBRANCH   1  22
BRANCH  21  38
HETATM   38  O7  UNL     1      -7.987  48.058 -16.969  1.00  0.00    -0.390 OA
HETATM   39  H51 UNL     1      -7.646  47.552 -16.208  1.00  0.00     0.210 HD
ENDBRANCH  21  38
BRANCH  12  40
HETATM   40  C21 UNL     1      -2.040  51.496 -22.672  1.00  0.00     0.016 C 
HETATM   41  C22 UNL     1      -3.454  52.102 -22.574  1.00  0.00     0.013 C 
BRANCH  40  42
HETATM   42  C23 UNL     1      -1.364  52.006 -23.981  1.00  0.00     0.140 C 
HETATM   43  C24 UNL     1      -0.192  51.192 -24.520  1.00  0.00     0.067 C 
HETATM   44  C25 UNL     1       0.362  51.903 -25.731  1.00  0.00    -0.067 C 
HETATM   45  C26 UNL     1       1.841  51.749 -25.958  1.00  0.00     0.044 C 
HETATM   46  C27 UNL     1      -0.471  52.601 -26.543  1.00  0.00     0.042 C 
HETATM   47  C29 UNL     1      -1.931  52.642 -26.243  1.00  0.00     0.292 C 
HETATM   48  O4  UNL     1      -2.749  53.052 -27.057  1.00  0.00    -0.260 OA
HETATM   49  O5  UNL     1      -2.330  52.215 -25.016  1.00  0.00    -0.311 OA
BRANCH  46  50
HETATM   50  C28 UNL     1      -0.065  53.296 -27.810  1.00  0.00     0.209 C 
BRANCH  50  51
HETATM   51  O3  UNL     1      -0.353  54.693 -27.724  1.00  0.00    -0.396 OA
HETATM   52  H40 UNL     1       0.272  55.135 -28.324  1.00  0.00     0.209 HD
ENDBRANCH  50  51
ENDBRANCH  46  50
ENDBRANCH  40  42
ENDBRANCH  12  40
TORSDOF 10
ENDMDL
MODEL 5
REMARK minimizedAffinity -9.32285118
REMARK CNNscore 0.174302787
REMARK CNNaffinity 6.98747683
REMARK  10 active torsions:
REMARK  status: ('A' for Active; 'I' for Inactive)
REMARK    1  A    between atoms: O1_2  and  C2_3 
REMARK    2  A    between atoms: C7_9  and  C8_10 
REMARK    3  A    between atoms: C8_10  and  C9_11 
REMARK    4  A    between atoms: C9_11  and  N2_12 
REMARK    5  A    between atoms: N2_12  and  C10_13 
REMARK    6  A    between atoms: C20_24  and  C21_25 
REMARK    7  A    between atoms: C21_25  and  C23_27 
REMARK    8  A    between atoms: C27_31  and  C28_32 
REMARK    9  A    between atoms: C28_32  and  O3_33 
REMARK   10  A    between atoms: C37_45  and  O7_46 
ROOT
HETATM    1  C10 UNL     1      -0.929  51.386 -19.176  1.00  0.00     0.259 C 
HETATM    2  C11 UNL     1       0.007  52.251 -18.323  1.00  0.00     0.117 C 
HETATM    3  C12 UNL     1       0.584  51.478 -17.154  1.00  0.00     0.141 C 
HETATM    4  O2  UNL     1       1.748  51.674 -16.789  1.00  0.00    -0.297 OA
HETATM    5  C13 UNL     1      -0.331  50.471 -16.439  1.00  0.00     0.057 C 
HETATM    6  C14 UNL     1       0.126  49.054 -16.880  1.00  0.00     0.027 C 
HETATM    7  C15 UNL     1      -0.130  50.566 -14.883  1.00  0.00     0.009 C 
HETATM    8  C16 UNL     1      -0.234  51.989 -14.291  1.00  0.00     0.007 C 
HETATM    9  C17 UNL     1      -1.118  52.108 -13.053  1.00  0.00     0.010 C 
HETATM   10  C18 UNL     1      -0.897  51.040 -11.966  1.00  0.00    -0.036 C 
HETATM   11  C19 UNL     1      -2.141  51.088 -11.042  1.00  0.00     0.016 C 
HETATM   12  C20 UNL     1       0.423  51.149 -11.109  1.00  0.00     0.000 C 
HETATM   13  C30 UNL     1       1.419  50.239 -11.819  1.00  0.00     0.006 C 
HETATM   14  C31 UNL     1       0.567  49.035 -12.175  1.00  0.00     0.006 C 
HETATM   15  C32 UNL     1      -0.807  49.596 -12.598  1.00  0.00    -0.001 C 
HETATM   16  C33 UNL     1      -1.001  49.529 -14.137  1.00  0.00    -0.002 C 
HETATM   17  C34 UNL     1      -2.501  49.549 -14.521  1.00  0.00     0.040 C 
HETATM   18  C35 UNL     1      -2.825  50.093 -15.882  1.00  0.00     0.161 A 
HETATM   19  O6  UNL     1      -2.574  51.495 -15.951  1.00  0.00    -0.365 OA
HETATM   20  C36 UNL     1      -1.784  50.677 -16.831  1.00  0.00     0.130 A 
HETATM   21  C37 UNL     1      -2.125  50.911 -18.298  1.00  0.00     0.190 C 
ENDROOT
BRANCH   1  22
HETATM   22  N2  UNL     1      -0.140  50.333 -19.852  1.00  0.00     0.091 N 
HETATM   23  H12 UNL     1       0.850  50.444 -19.608  1.00  0.00     0.316 HD
BRANCH  22  24
HETATM   24  C9  UNL     1      -0.274  50.313 -21.317  1.00  0.00     0.275 C 
BRANCH  24  25
HETATM   25  C8  UNL     1      -0.943  51.608 -21.815  1.00  0.00     0.070 C 
BRANCH  25  26
HETATM   26  C7  UNL     1      -0.336  52.099 -23.094  1.00  0.00    -0.029 A 
HETATM   27  C6  UNL     1       0.649  53.059 -23.211  1.00  0.00     0.096 A 
HETATM   28  N1  UNL     1       0.980  53.189 -24.537  1.00  0.00    -0.365 N 
HETATM   29  C5  UNL     1       0.232  52.324 -25.295  1.00  0.00     0.043 A 
HETATM   30  H6  UNL     1       1.683  53.819 -24.903  1.00  0.00     0.165 HD
HETATM   31  C4  UNL     1       0.241  52.090 -26.676  1.00  0.00     0.033 A 
HETATM   32  C38 UNL     1      -0.623  51.645 -24.418  1.00  0.00     0.001 A 
HETATM   33  C3  UNL     1      -0.653  51.133 -27.174  1.00  0.00     0.039 A 
HETATM   34  C2  UNL     1      -1.546  50.463 -26.337  1.00  0.00     0.069 A 
HETATM   35  C39 UNL     1      -1.524  50.702 -24.957  1.00  0.00     0.051 A 
BRANCH  34  36
HETATM   36  O1  UNL     1      -2.362  49.558 -26.967  1.00  0.00    -0.356 OA
HETATM   37  C1  UNL     1      -3.009  48.609 -26.134  1.00  0.00     0.210 C 
ENDBRANCH  34  36
ENDBRANCH  25  26
ENDBRANCH  24  25
ENDBRANCH  22  24
ENDBRANCH   1  22
BRANCH  21  38
HETATM   38  O7  UNL     1      -3.119  51.942 -18.402  1.00  0.00    -0.390 OA
HETATM   39  H51 UNL     1      -3.997  51.518 -18.427  1.00  0.00     0.210 HD
ENDBRANCH  21  38
BRANCH  12  40
HETATM   40  C21 UNL     1       1.019  52.468 -10.508  1.00  0.00     0.016 C 
HETATM   41  C22 UNL     1       0.472  53.690 -11.271  1.00  0.00     0.013 C 
BRANCH  40  42
HETATM   42  C23 UNL     1       2.533  52.695 -10.213  1.00  0.00     0.140 C 
HETATM   43  C24 UNL     1       2.975  54.123  -9.911  1.00  0.00     0.067 C 
HETATM   44  C25 UNL     1       4.475  54.130  -9.745  1.00  0.00    -0.067 C 
HETATM   45  C26 UNL     1       5.173  55.392 -10.173  1.00  0.00     0.044 C 
HETATM   46  C27 UNL     1       5.100  53.050  -9.213  1.00  0.00     0.042 C 
HETATM   47  C29 UNL     1       4.294  51.872  -8.778  1.00  0.00     0.292 C 
HETATM   48  O4  UNL     1       4.771  50.981  -8.086  1.00  0.00    -0.260 OA
HETATM   49  O5  UNL     1       3.001  51.812  -9.189  1.00  0.00    -0.311 OA
BRANCH  46  50
HETATM   50  C28 UNL     1       6.570  52.950  -8.931  1.00  0.00     0.209 C 
BRANCH  50  51
HETATM   51  O3  UNL     1       6.812  53.029  -7.524  1.00  0.00    -0.396 OA
HETATM   52  H40 UNL     1       7.649  52.557  -7.368  1.00  0.00     0.209 HD
ENDBRANCH  50  51
ENDBRANCH  46  50
ENDBRANCH  40  42
ENDBRANCH  12  40
TORSDOF 10
ENDMDL
MODEL 6
REMARK minimizedAffinity -9.12481976
REMARK CNNscore 0.163640767
REMARK CNNaffinity 6.11030149
REMARK  10 active torsions:
REMARK  status: ('A' for Active; 'I' for Inactive)
REMARK    1  A    between atoms: O1_2  and  C2_3 
REMARK    2  A    between atoms: C7_9  and  C8_10 
REMARK    3  A    between atoms: C8_10  and  C9_11 
REMARK    4  A    between atoms: C9_11  and  N2_12 
REMARK    5  A    between atoms: N2_12  and  C10_13 
REMARK    6  A    between atoms: C20_24  and  C21_25 
REMARK    7  A    between atoms: C21_25  and  C23_27 
REMARK    8  A    between atoms: C27_31  and  C28_32 
REMARK    9  A    between atoms: C28_32  and  O3_33 
REMARK   10  A    between atoms: C37_45  and  O7_46 
ROOT
HETATM    1  C10 UNL     1     -10.112  46.758 -18.673  1.00  0.00     0.259 C 
HETATM    2  C11 UNL     1     -10.077  47.690 -19.890  1.00  0.00     0.117 C 
HETATM    3  C12 UNL     1      -8.823  47.493 -20.718  1.00  0.00     0.141 C 
HETATM    4  O2  UNL     1      -8.869  47.571 -21.949  1.00  0.00    -0.297 OA
HETATM    5  C13 UNL     1      -7.508  47.218 -19.972  1.00  0.00     0.057 C 
HETATM    6  C14 UNL     1      -7.193  45.709 -20.154  1.00  0.00     0.027 C 
HETATM    7  C15 UNL     1      -6.331  48.026 -20.631  1.00  0.00     0.009 C 
HETATM    8  C16 UNL     1      -6.598  49.534 -20.829  1.00  0.00     0.007 C 
HETATM    9  C17 UNL     1      -5.473  50.453 -20.364  1.00  0.00     0.010 C 
HETATM   10  C18 UNL     1      -4.053  50.050 -20.803  1.00  0.00    -0.036 C 
HETATM   11  C19 UNL     1      -3.071  50.837 -19.897  1.00  0.00     0.016 C 
HETATM   12  C20 UNL     1      -3.683  50.265 -22.322  1.00  0.00     0.000 C 
HETATM   13  C30 UNL     1      -3.972  48.921 -22.982  1.00  0.00     0.006 C 
HETATM   14  C31 UNL     1      -3.436  47.933 -21.963  1.00  0.00     0.006 C 
HETATM   15  C32 UNL     1      -3.805  48.508 -20.579  1.00  0.00    -0.001 C 
HETATM   16  C33 UNL     1      -4.984  47.731 -19.934  1.00  0.00    -0.002 C 
HETATM   17  C34 UNL     1      -5.001  47.901 -18.395  1.00  0.00     0.040 C 
HETATM   18  C35 UNL     1      -6.339  47.753 -17.731  1.00  0.00     0.161 A 
HETATM   19  O6  UNL     1      -7.206  48.833 -18.070  1.00  0.00    -0.365 OA
HETATM   20  C36 UNL     1      -7.642  47.529 -18.491  1.00  0.00     0.130 A 
HETATM   21  C37 UNL     1      -8.895  47.073 -17.753  1.00  0.00     0.190 C 
ENDROOT
BRANCH   1  22
HETATM   22  N2  UNL     1     -10.255  45.359 -19.133  1.00  0.00     0.091 N 
HETATM   23  H12 UNL     1      -9.554  45.169 -19.858  1.00  0.00     0.316 HD
BRANCH  22  24
HETATM   24  C9  UNL     1     -11.588  45.019 -19.653  1.00  0.00     0.275 C 
BRANCH  24  25
HETATM   25  C8  UNL     1     -12.537  44.641 -18.499  1.00  0.00     0.070 C 
BRANCH  25  26
HETATM   26  C7  UNL     1     -13.975  44.860 -18.858  1.00  0.00    -0.029 A 
HETATM   27  C6  UNL     1     -14.870  43.889 -19.258  1.00  0.00     0.096 A 
HETATM   28  N1  UNL     1     -16.100  44.472 -19.438  1.00  0.00    -0.365 N 
HETATM   29  C5  UNL     1     -16.029  45.813 -19.158  1.00  0.00     0.043 A 
HETATM   30  H6  UNL     1     -16.941  43.985 -19.723  1.00  0.00     0.165 HD
HETATM   31  C4  UNL     1     -17.026  46.796 -19.179  1.00  0.00     0.033 A 
HETATM   32  C38 UNL     1     -14.700  46.091 -18.815  1.00  0.00     0.001 A 
HETATM   33  C3  UNL     1     -16.651  48.103 -18.841  1.00  0.00     0.039 A 
HETATM   34  C2  UNL     1     -15.329  48.426 -18.531  1.00  0.00     0.069 A 
HETATM   35  C39 UNL     1     -14.353  47.422 -18.500  1.00  0.00     0.051 A 
BRANCH  34  36
HETATM   36  O1  UNL     1     -15.111  49.745 -18.225  1.00  0.00    -0.356 OA
HETATM   37  C1  UNL     1     -16.107  50.381 -17.438  1.00  0.00     0.210 C 
ENDBRANCH  34  36
ENDBRANCH  25  26
ENDBRANCH  24  25
ENDBRANCH  22  24
ENDBRANCH   1  22
BRANCH  21  38
HETATM   38  O7  UNL     1      -9.336  48.112 -16.866  1.00  0.00    -0.390 OA
HETATM   39  H51 UNL     1      -8.947  47.947 -15.987  1.00  0.00     0.210 HD
ENDBRANCH  21  38
BRANCH  12  40
HETATM   40  C21 UNL     1      -4.028  51.530 -23.180  1.00  0.00     0.016 C 
HETATM   41  C22 UNL     1      -5.461  51.414 -23.737  1.00  0.00     0.013 C 
BRANCH  40  42
HETATM   42  C23 UNL     1      -3.104  52.121 -24.288  1.00  0.00     0.140 C 
HETATM   43  C24 UNL     1      -1.602  52.099 -24.024  1.00  0.00     0.067 C 
HETATM   44  C25 UNL     1      -0.909  52.791 -25.172  1.00  0.00    -0.067 C 
HETATM   45  C26 UNL     1       0.359  53.521 -24.824  1.00  0.00     0.044 C 
HETATM   46  C27 UNL     1      -1.426  52.705 -26.423  1.00  0.00     0.042 C 
HETATM   47  C29 UNL     1      -2.666  51.909 -26.656  1.00  0.00     0.292 C 
HETATM   48  O4  UNL     1      -3.040  51.606 -27.782  1.00  0.00    -0.260 OA
HETATM   49  O5  UNL     1      -3.384  51.536 -25.564  1.00  0.00    -0.311 OA
BRANCH  46  50
HETATM   50  C28 UNL     1      -0.806  53.286 -27.660  1.00  0.00     0.209 C 
BRANCH  50  51
HETATM   51  O3  UNL     1      -1.769  54.055 -28.385  1.00  0.00    -0.396 OA
HETATM   52  H40 UNL     1      -1.262  54.715 -28.888  1.00  0.00     0.209 HD
ENDBRANCH  50  51
ENDBRANCH  46  50
ENDBRANCH  40  42
ENDBRANCH  12  40
TORSDOF 10
ENDMDL
MODEL 7
REMARK minimizedAffinity -9.84542561
REMARK CNNscore 0.160084903
REMARK CNNaffinity 6.52539301
REMARK  10 active torsions:
REMARK  status: ('A' for Active; 'I' for Inactive)
REMARK    1  A    between atoms: O1_2  and  C2_3 
REMARK    2  A    between atoms: C7_9  and  C8_10 
REMARK    3  A    between atoms: C8_10  and  C9_11 
REMARK    4  A    between atoms: C9_11  and  N2_12 
REMARK    5  A    between atoms: N2_12  and  C10_13 
REMARK    6  A    between atoms: C20_24  and  C21_25 
REMARK    7  A    between atoms: C21_25  and  C23_27 
REMARK    8  A    between atoms: C27_31  and  C28_32 
REMARK    9  A    between atoms: C28_32  and  O3_33 
REMARK   10  A    between atoms: C37_45  and  O7_46 
ROOT
HETATM    1  C10 UNL     1      -3.748  51.166 -22.896  1.00  0.00     0.259 C 
HETATM    2  C11 UNL     1      -4.394  51.183 -21.505  1.00  0.00     0.117 C 
HETATM    3  C12 UNL     1      -4.689  49.785 -21.001  1.00  0.00     0.141 C 
HETATM    4  O2  UNL     1      -4.551  49.511 -19.804  1.00  0.00    -0.297 OA
HETATM    5  C13 UNL     1      -5.179  48.744 -22.019  1.00  0.00     0.057 C 
HETATM    6  C14 UNL     1      -3.986  47.789 -22.297  1.00  0.00     0.027 C 
HETATM    7  C15 UNL     1      -6.336  47.880 -21.398  1.00  0.00     0.009 C 
HETATM    8  C16 UNL     1      -7.493  48.686 -20.768  1.00  0.00     0.007 C 
HETATM    9  C17 UNL     1      -8.891  48.229 -21.173  1.00  0.00     0.010 C 
HETATM   10  C18 UNL     1      -9.143  46.711 -21.121  1.00  0.00    -0.036 C 
HETATM   11  C19 UNL     1     -10.424  46.448 -21.954  1.00  0.00     0.016 C 
HETATM   12  C20 UNL     1      -9.277  46.054 -19.692  1.00  0.00     0.000 C 
HETATM   13  C30 UNL     1      -7.873  45.556 -19.365  1.00  0.00     0.006 C 
HETATM   14  C31 UNL     1      -7.417  44.966 -20.687  1.00  0.00     0.006 C 
HETATM   15  C32 UNL     1      -7.951  45.915 -21.782  1.00  0.00    -0.001 C 
HETATM   16  C33 UNL     1      -6.817  46.789 -22.381  1.00  0.00    -0.002 C 
HETATM   17  C34 UNL     1      -7.186  47.308 -23.793  1.00  0.00     0.040 C 
HETATM   18  C35 UNL     1      -6.528  48.588 -24.216  1.00  0.00     0.161 A 
HETATM   19  O6  UNL     1      -7.009  49.694 -23.455  1.00  0.00    -0.365 OA
HETATM   20  C36 UNL     1      -5.607  49.406 -23.317  1.00  0.00     0.130 A 
HETATM   21  C37 UNL     1      -4.732  50.505 -23.907  1.00  0.00     0.190 C 
ENDROOT
BRANCH   1  22
HETATM   22  N2  UNL     1      -2.396  50.575 -22.799  1.00  0.00     0.091 N 
HETATM   23  H12 UNL     1      -1.872  51.050 -22.055  1.00  0.00     0.316 HD
BRANCH  22  24
HETATM   24  C9  UNL     1      -1.614  50.625 -24.043  1.00  0.00     0.275 C 
BRANCH  24  25
HETATM   25  C8  UNL     1      -1.602  52.055 -24.616  1.00  0.00     0.070 C 
BRANCH  25  26
HETATM   26  C7  UNL     1      -0.442  52.855 -24.105  1.00  0.00    -0.029 A 
HETATM   27  C6  UNL     1       0.396  53.648 -24.864  1.00  0.00     0.096 A 
HETATM   28  N1  UNL     1       1.295  54.262 -24.028  1.00  0.00    -0.365 N 
HETATM   29  C5  UNL     1       1.059  53.890 -22.729  1.00  0.00     0.043 A 
HETATM   30  H6  UNL     1       2.020  54.906 -24.323  1.00  0.00     0.165 HD
HETATM   31  C4  UNL     1       1.700  54.278 -21.545  1.00  0.00     0.033 A 
HETATM   32  C38 UNL     1      -0.011  52.987 -22.749  1.00  0.00     0.001 A 
HETATM   33  C3  UNL     1       1.233  53.721 -20.347  1.00  0.00     0.039 A 
HETATM   34  C2  UNL     1       0.195  52.789 -20.331  1.00  0.00     0.069 A 
HETATM   35  C39 UNL     1      -0.442  52.431 -21.526  1.00  0.00     0.051 A 
BRANCH  34  36
HETATM   36  O1  UNL     1      -0.152  52.330 -19.086  1.00  0.00    -0.356 OA
HETATM   37  C1  UNL     1      -1.484  51.868 -18.934  1.00  0.00     0.210 C 
ENDBRANCH  34  36
ENDBRANCH  25  26
ENDBRANCH  24  25
ENDBRANCH  22  24
ENDBRANCH   1  22
BRANCH  21  38
HETATM   38  O7  UNL     1      -5.561  51.570 -24.397  1.00  0.00    -0.390 OA
HETATM   39  H51 UNL     1      -5.732  51.412 -25.344  1.00  0.00     0.210 HD
ENDBRANCH  21  38
BRANCH  12  40
HETATM   40  C21 UNL     1     -10.086  46.640 -18.486  1.00  0.00     0.016 C 
HETATM   41  C22 UNL     1      -9.922  45.735 -17.250  1.00  0.00     0.013 C 
BRANCH  40  42
HETATM   42  C23 UNL     1     -11.569  47.113 -18.569  1.00  0.00     0.140 C 
HETATM   43  C24 UNL     1     -12.385  46.637 -19.767  1.00  0.00     0.067 C 
HETATM   44  C25 UNL     1     -13.750  47.276 -19.696  1.00  0.00    -0.067 C 
HETATM   45  C26 UNL     1     -14.405  47.565 -21.019  1.00  0.00     0.044 C 
HETATM   46  C27 UNL     1     -14.315  47.527 -18.488  1.00  0.00     0.042 C 
HETATM   47  C29 UNL     1     -13.589  47.150 -17.241  1.00  0.00     0.292 C 
HETATM   48  O4  UNL     1     -14.142  47.137 -16.149  1.00  0.00    -0.260 OA
HETATM   49  O5  UNL     1     -12.273  46.829 -17.356  1.00  0.00    -0.311 OA
BRANCH  46  50
HETATM   50  C28 UNL     1     -15.688  48.094 -18.275  1.00  0.00     0.209 C 
BRANCH  50  51
HETATM   51  O3  UNL     1     -15.615  49.293 -17.499  1.00  0.00    -0.396 OA
HETATM   52  H40 UNL     1     -16.398  49.817 -17.740  1.00  0.00     0.209 HD
ENDBRANCH  50  51
ENDBRANCH  46  50
ENDBRANCH  40  42
ENDBRANCH  12  40
TORSDOF 10
ENDMDL
MODEL 8
REMARK minimizedAffinity -9.74653339
REMARK CNNscore 0.146493167
REMARK CNNaffinity 5.32841492
REMARK  10 active torsions:
REMARK  status: ('A' for Active; 'I' for Inactive)
REMARK    1  A    between atoms: O1_2  and  C2_3 
REMARK    2  A    between atoms: C7_9  and  C8_10 
REMARK    3  A    between atoms: C8_10  and  C9_11 
REMARK    4  A    between atoms: C9_11  and  N2_12 
REMARK    5  A    between atoms: N2_12  and  C10_13 
REMARK    6  A    between atoms: C20_24  and  C21_25 
REMARK    7  A    between atoms: C21_25  and  C23_27 
REMARK    8  A    between atoms: C27_31  and  C28_32 
REMARK    9  A    between atoms: C28_32  and  O3_33 
REMARK   10  A    between atoms: C37_45  and  O7_46 
ROOT
HETATM    1  C10 UNL     1     -10.108  46.995 -25.728  1.00  0.00     0.259 C 
HETATM    2  C11 UNL     1     -10.543  47.003 -24.257  1.00  0.00     0.117 C 
HETATM    3  C12 UNL     1     -11.557  45.917 -23.961  1.00  0.00     0.141 C 
HETATM    4  O2  UNL     1     -11.531  45.315 -22.882  1.00  0.00    -0.297 OA
HETATM    5  C13 UNL     1     -12.617  45.613 -25.033  1.00  0.00     0.057 C 
HETATM    6  C14 UNL     1     -12.209  44.274 -25.703  1.00  0.00     0.027 C 
HETATM    7  C15 UNL     1     -14.020  45.394 -24.361  1.00  0.00     0.009 C 
HETATM    8  C16 UNL     1     -14.464  46.504 -23.384  1.00  0.00     0.007 C 
HETATM    9  C17 UNL     1     -15.891  47.005 -23.583  1.00  0.00     0.010 C 
HETATM   10  C18 UNL     1     -16.967  45.915 -23.753  1.00  0.00    -0.036 C 
HETATM   11  C19 UNL     1     -18.213  46.616 -24.353  1.00  0.00     0.016 C 
HETATM   12  C20 UNL     1     -17.369  45.097 -22.466  1.00  0.00     0.000 C 
HETATM   13  C30 UNL     1     -16.491  43.850 -22.512  1.00  0.00     0.006 C 
HETATM   14  C31 UNL     1     -16.536  43.472 -23.981  1.00  0.00     0.006 C 
HETATM   15  C32 UNL     1     -16.491  44.801 -24.764  1.00  0.00    -0.001 C 
HETATM   16  C33 UNL     1     -15.099  45.037 -25.409  1.00  0.00    -0.002 C 
HETATM   17  C34 UNL     1     -15.186  46.015 -26.606  1.00  0.00     0.040 C 
HETATM   18  C35 UNL     1     -13.937  46.788 -26.916  1.00  0.00     0.161 A 
HETATM   19  O6  UNL     1     -13.649  47.738 -25.892  1.00  0.00    -0.365 OA
HETATM   20  C36 UNL     1     -12.662  46.709 -26.083  1.00  0.00     0.130 A 
HETATM   21  C37 UNL     1     -11.351  47.262 -26.628  1.00  0.00     0.190 C 
ENDROOT
BRANCH   1  22
HETATM   22  N2  UNL     1      -9.339  45.762 -26.003  1.00  0.00     0.091 N 
HETATM   23  H12 UNL     1      -9.347  45.166 -25.168  1.00  0.00     0.316 HD
BRANCH  22  24
HETATM   24  C9  UNL     1      -7.947  45.989 -26.418  1.00  0.00     0.275 C 
BRANCH  24  25
HETATM   25  C8  UNL     1      -7.795  47.381 -27.060  1.00  0.00     0.070 C 
BRANCH  25  26
HETATM   26  C7  UNL     1      -6.367  47.697 -27.387  1.00  0.00    -0.029 A 
HETATM   27  C6  UNL     1      -5.811  47.736 -28.650  1.00  0.00     0.096 A 
HETATM   28  N1  UNL     1      -4.498  48.120 -28.540  1.00  0.00    -0.365 N 
HETATM   29  C5  UNL     1      -4.182  48.341 -27.224  1.00  0.00     0.043 A 
HETATM   30  H6  UNL     1      -3.858  48.238 -29.316  1.00  0.00     0.165 HD
HETATM   31  C4  UNL     1      -2.981  48.765 -26.639  1.00  0.00     0.033 A 
HETATM   32  C38 UNL     1      -5.329  48.058 -26.473  1.00  0.00     0.001 A 
HETATM   33  C3  UNL     1      -2.955  48.902 -25.245  1.00  0.00     0.039 A 
HETATM   34  C2  UNL     1      -4.067  48.593 -24.460  1.00  0.00     0.069 A 
HETATM   35  C39 UNL     1      -5.262  48.187 -25.069  1.00  0.00     0.051 A 
BRANCH  34  36
HETATM   36  O1  UNL     1      -3.891  48.771 -23.112  1.00  0.00    -0.356 OA
HETATM   37  C1  UNL     1      -3.408  50.041 -22.703  1.00  0.00     0.210 C 
ENDBRANCH  34  36
ENDBRANCH  25  26
ENDBRANCH  24  25
ENDBRANCH  22  24
ENDBRANCH   1  22
BRANCH  21  38
HETATM   38  O7  UNL     1     -11.445  48.690 -26.749  1.00  0.00    -0.390 OA
HETATM   39  H51 UNL     1     -11.731  48.901 -27.658  1.00  0.00     0.210 HD
ENDBRANCH  21  38
BRANCH  12  40
HETATM   40  C21 UNL     1     -17.621  45.695 -21.040  1.00  0.00     0.016 C 
HETATM   41  C22 UNL     1     -18.835  46.644 -21.073  1.00  0.00     0.013 C 
BRANCH  40  42
HETATM   42  C23 UNL     1     -16.514  46.326 -20.142  1.00  0.00     0.140 C 
HETATM   43  C24 UNL     1     -16.954  47.387 -19.138  1.00  0.00     0.067 C 
HETATM   44  C25 UNL     1     -15.726  47.921 -18.444  1.00  0.00    -0.067 C 
HETATM   45  C26 UNL     1     -15.791  49.364 -18.022  1.00  0.00     0.044 C 
HETATM   46  C27 UNL     1     -14.670  47.102 -18.215  1.00  0.00     0.042 C 
HETATM   47  C29 UNL     1     -14.741  45.672 -18.636  1.00  0.00     0.292 C 
HETATM   48  O4  UNL     1     -13.926  44.842 -18.251  1.00  0.00    -0.260 OA
HETATM   49  O5  UNL     1     -15.744  45.318 -19.480  1.00  0.00    -0.311 OA
BRANCH  46  50
HETATM   50  C28 UNL     1     -13.419  47.483 -17.478  1.00  0.00     0.209 C 
BRANCH  50  51
HETATM   51  O3  UNL     1     -13.458  46.980 -16.141  1.00  0.00    -0.396 OA
HETATM   52  H40 UNL     1     -12.530  46.873 -15.866  1.00  0.00     0.209 HD
ENDBRANCH  50  51
ENDBRANCH  46  50
ENDBRANCH  40  42
ENDBRANCH  12  40
TORSDOF 10
ENDMDL
MODEL 9
REMARK minimizedAffinity -9.92097759
REMARK CNNscore 0.143157929
REMARK CNNaffinity 6.30265093
REMARK  10 active torsions:
REMARK  status: ('A' for Active; 'I' for Inactive)
REMARK    1  A    between atoms: O1_2  and  C2_3 
REMARK    2  A    between atoms: C7_9  and  C8_10 
REMARK    3  A    between atoms: C8_10  and  C9_11 
REMARK    4  A    between atoms: C9_11  and  N2_12 
REMARK    5  A    between atoms: N2_12  and  C10_13 
REMARK    6  A    between atoms: C20_24  and  C21_25 
REMARK    7  A    between atoms: C21_25  and  C23_27 
REMARK    8  A    between atoms: C27_31  and  C28_32 
REMARK    9  A    between atoms: C28_32  and  O3_33 
REMARK   10  A    between atoms: C37_45  and  O7_46 
ROOT
HETATM    1  C10 UNL     1      -3.506  51.925 -23.149  1.00  0.00     0.259 C 
HETATM    2  C11 UNL     1      -4.201  52.012 -21.784  1.00  0.00     0.117 C 
HETATM    3  C12 UNL     1      -4.351  50.649 -21.138  1.00  0.00     0.141 C 
HETATM    4  O2  UNL     1      -4.227  50.521 -19.916  1.00  0.00    -0.297 OA
HETATM    5  C13 UNL     1      -4.680  49.456 -22.049  1.00  0.00     0.057 C 
HETATM    6  C14 UNL     1      -3.377  48.625 -22.192  1.00  0.00     0.027 C 
HETATM    7  C15 UNL     1      -5.753  48.532 -21.366  1.00  0.00     0.009 C 
HETATM    8  C16 UNL     1      -7.017  49.257 -20.856  1.00  0.00     0.007 C 
HETATM    9  C17 UNL     1      -8.338  48.598 -21.244  1.00  0.00     0.010 C 
HETATM   10  C18 UNL     1      -8.415  47.075 -21.033  1.00  0.00    -0.036 C 
HETATM   11  C19 UNL     1      -9.626  46.576 -21.864  1.00  0.00     0.016 C 
HETATM   12  C20 UNL     1      -8.526  46.561 -19.545  1.00  0.00     0.000 C 
HETATM   13  C30 UNL     1      -7.087  46.269 -19.131  1.00  0.00     0.006 C 
HETATM   14  C31 UNL     1      -6.519  45.602 -20.369  1.00  0.00     0.006 C 
HETATM   15  C32 UNL     1      -7.116  46.360 -21.574  1.00  0.00    -0.001 C 
HETATM   16  C33 UNL     1      -6.069  47.294 -22.237  1.00  0.00    -0.002 C 
HETATM   17  C34 UNL     1      -6.443  47.614 -23.705  1.00  0.00     0.040 C 
HETATM   18  C35 UNL     1      -5.920  48.912 -24.249  1.00  0.00     0.161 A 
HETATM   19  O6  UNL     1      -6.554  50.027 -23.625  1.00  0.00    -0.365 OA
HETATM   20  C36 UNL     1      -5.134  49.923 -23.421  1.00  0.00     0.130 A 
HETATM   21  C37 UNL     1      -4.369  51.050 -24.106  1.00  0.00     0.190 C 
ENDROOT
BRANCH   1  22
HETATM   22  N2  UNL     1      -2.099  51.511 -22.954  1.00  0.00     0.091 N 
HETATM   23  H12 UNL     1      -1.932  51.343 -21.956  1.00  0.00     0.316 HD
BRANCH  22  24
HETATM   24  C9  UNL     1      -1.104  52.472 -23.453  1.00  0.00     0.275 C 
BRANCH  24  25
HETATM   25  C8  UNL     1       0.312  52.064 -23.004  1.00  0.00     0.070 C 
BRANCH  25  26
HETATM   26  C7  UNL     1       0.637  52.573 -21.632  1.00  0.00    -0.029 A 
HETATM   27  C6  UNL     1       1.242  53.777 -21.334  1.00  0.00     0.096 A 
HETATM   28  N1  UNL     1       1.313  53.907 -19.970  1.00  0.00    -0.365 N 
HETATM   29  C5  UNL     1       0.756  52.810 -19.364  1.00  0.00     0.043 A 
HETATM   30  H6  UNL     1       1.704  54.702 -19.479  1.00  0.00     0.165 HD
HETATM   31  C4  UNL     1       0.584  52.515 -18.005  1.00  0.00     0.033 A 
HETATM   32  C38 UNL     1       0.346  51.942 -20.384  1.00  0.00     0.001 A 
HETATM   33  C3  UNL     1      -0.024  51.295 -17.682  1.00  0.00     0.039 A 
HETATM   34  C2  UNL     1      -0.412  50.388 -18.669  1.00  0.00     0.069 A 
HETATM   35  C39 UNL     1      -0.245  50.713 -20.021  1.00  0.00     0.051 A 
BRANCH  34  36
HETATM   36  O1  UNL     1      -0.991  49.236 -18.201  1.00  0.00    -0.356 OA
HETATM   37  C1  UNL     1      -0.690  48.880 -16.861  1.00  0.00     0.210 C 
ENDBRANCH  34  36
ENDBRANCH  25  26
ENDBRANCH  24  25
ENDBRANCH  22  24
ENDBRANCH   1  22
BRANCH  21  38
HETATM   38  O7  UNL     1      -5.296  51.952 -24.728  1.00  0.00    -0.390 OA
HETATM   39  H51 UNL     1      -5.412  51.676 -25.657  1.00  0.00     0.210 HD
ENDBRANCH  21  38
BRANCH  12  40
HETATM   40  C21 UNL     1      -9.442  47.170 -18.430  1.00  0.00     0.016 C 
HETATM   41  C22 UNL     1      -8.929  46.752 -17.039  1.00  0.00     0.013 C 
BRANCH  40  42
HETATM   42  C23 UNL     1     -10.999  47.099 -18.434  1.00  0.00     0.140 C 
HETATM   43  C24 UNL     1     -11.698  47.100 -17.078  1.00  0.00     0.067 C 
HETATM   44  C25 UNL     1     -13.181  46.937 -17.309  1.00  0.00    -0.067 C 
HETATM   45  C26 UNL     1     -13.931  46.200 -16.234  1.00  0.00     0.044 C 
HETATM   46  C27 UNL     1     -13.753  47.467 -18.419  1.00  0.00     0.042 C 
HETATM   47  C29 UNL     1     -12.912  48.223 -19.393  1.00  0.00     0.292 C 
HETATM   48  O4  UNL     1     -13.406  48.912 -20.277  1.00  0.00    -0.260 OA
HETATM   49  O5  UNL     1     -11.563  48.111 -19.274  1.00  0.00    -0.311 OA
BRANCH  46  50
HETATM   50  C28 UNL     1     -15.219  47.438 -18.738  1.00  0.00     0.209 C 
BRANCH  50  51
HETATM   51  O3  UNL     1     -15.830  48.678 -18.376  1.00  0.00    -0.396 OA
HETATM   52  H40 UNL     1     -16.608  48.774 -18.953  1.00  0.00     0.209 HD
ENDBRANCH  50  51
ENDBRANCH  46  50
ENDBRANCH  40  42
ENDBRANCH  12  40
TORSDOF 10
ENDMDL
