MODEL 1
REMARK minimizedAffinity -8.6132803
REMARK CNNscore 0.672702193
REMARK CNNaffinity 7.17382956
REMARK  13 active torsions:
REMARK  status: ('A' for Active; 'I' for Inactive)
REMARK    1  A    between atoms: C19_21  and  O3_22 
REMARK    2  A    between atoms: C19_21  and  C20_23 
REMARK    3  A    between atoms: C20_23  and  C21_25 
REMARK    4  A    between atoms: C21_25  and  O5_26 
REMARK    5  A    between atoms: O5_26  and  C22_27 
REMARK    6  A    between atoms: C22_27  and  C23_29 
REMARK    7  A    between atoms: C23_29  and  C24_30 
REMARK    8  A    between atoms: C24_30  and  C25_31 
REMARK       I    between atoms: C25_31  and  N1_33 
REMARK    9  A    between atoms: N1_33  and  C26_34 
REMARK   10  A    between atoms: C26_34  and  C27_35 
REMARK   11  A    between atoms: C27_35  and  C28_36 
REMARK   12  A    between atoms: C27_35  and  C29_39 
REMARK   13  A    between atoms: C28_36  and  O9_38 
ROOT
HETATM    1  C20 UNL     1      -7.446   5.563  15.042  1.00  0.00     0.185 C 
HETATM    2  O4  UNL     1      -7.308   4.341  15.131  1.00  0.00    -0.292 OA
ENDROOT
BRANCH   1   3
HETATM    3  C19 UNL     1      -6.624   6.418  14.032  1.00  0.00     0.128 C 
HETATM    4  C14 UNL     1      -5.087   6.153  14.038  1.00  0.00     0.005 C 
HETATM    5  C13 UNL     1      -4.603   4.956  13.210  1.00  0.00     0.091 C 
HETATM    6  C15 UNL     1      -4.554   6.021  15.490  1.00  0.00     0.019 C 
HETATM    7  C16 UNL     1      -4.583   7.432  13.316  1.00  0.00     0.002 C 
HETATM    8  C12 UNL     1      -3.088   5.008  13.072  1.00  0.00     0.133 C 
HETATM    9  C11 UNL     1      -2.491   6.299  12.482  1.00  0.00     0.072 C 
HETATM   10  O2  UNL     1      -2.416   4.025  13.380  1.00  0.00    -0.297 OA
HETATM   11  C2  UNL     1      -0.927   6.317  12.341  1.00  0.00    -0.009 C 
HETATM   12  C10 UNL     1      -3.052   7.534  13.246  1.00  0.00     0.003 C 
HETATM   13  C1  UNL     1      -0.207   6.107  13.694  1.00  0.00     0.021 C 
HETATM   14  C3  UNL     1      -0.501   5.200  11.340  1.00  0.00     0.022 C 
HETATM   15  C7  UNL     1      -0.490   7.689  11.794  1.00  0.00    -0.067 C 
HETATM   16  C4  UNL     1       0.926   5.341  10.827  1.00  0.00     0.084 C 
HETATM   17  C5  UNL     1       1.127   6.698  10.208  1.00  0.00     0.149 C 
HETATM   18  O1  UNL     1       1.911   6.890   9.282  1.00  0.00    -0.293 OA
HETATM   19  C6  UNL     1       0.407   7.846  10.803  1.00  0.00     0.053 C 
HETATM   20  C8  UNL     1      -1.091   8.911  12.448  1.00  0.00     0.035 C 
HETATM   21  C9  UNL     1      -2.609   8.824  12.544  1.00  0.00     0.010 C 
HETATM   22  C17 UNL     1      -5.346   8.557  14.002  1.00  0.00     0.009 C 
HETATM   23  C18 UNL     1      -6.703   7.934  14.382  1.00  0.00     0.047 C 
BRANCH   3  24
HETATM   24  O3  UNL     1      -7.126   6.313  12.695  1.00  0.00    -0.381 OA
HETATM   25  H25 UNL     1      -7.580   5.454  12.597  1.00  0.00     0.211 HD
ENDBRANCH   3  24
ENDBRANCH   1   3
BRANCH   1  26
HETATM   26  C21 UNL     1      -8.502   6.271  15.884  1.00  0.00     0.260 C 
BRANCH  26  27
HETATM   27  O5  UNL     1      -9.638   6.604  15.088  1.00  0.00    -0.314 OA
BRANCH  27  28
HETATM   28  C22 UNL     1     -10.137   7.848  15.333  1.00  0.00     0.259 C 
HETATM   29  O6  UNL     1     -10.034   8.451  16.391  1.00  0.00    -0.265 OA
BRANCH  28  30
HETATM   30  C23 UNL     1     -10.862   8.373  14.118  1.00  0.00     0.120 C 
BRANCH  30  31
HETATM   31  C24 UNL     1     -11.968   7.417  13.694  1.00  0.00     0.112 C 
BRANCH  31  32
HETATM   32  C25 UNL     1     -13.293   7.778  14.335  1.00  0.00     0.218 C 
HETATM   33  O7  UNL     1     -13.441   7.908  15.546  1.00  0.00    -0.274 OA
HETATM   34  N1  UNL     1     -14.317   7.925  13.427  1.00  0.00    -0.360 N 
HETATM   35  H32 UNL     1     -14.079   8.047  12.445  1.00  0.00     0.162 HD
BRANCH  34  36
HETATM   36  C26 UNL     1     -15.647   8.328  13.863  1.00  0.00     0.142 C 
BRANCH  36  37
HETATM   37  C27 UNL     1     -16.800   7.518  13.244  1.00  0.00     0.134 C 
BRANCH  37  38
HETATM   38  C28 UNL     1     -16.802   7.838  11.761  1.00  0.00     0.150 C 
HETATM   39  O8  UNL     1     -17.658   8.461  11.150  1.00  0.00    -0.649 OA
BRANCH  38  40
HETATM   40  O9  UNL     1     -15.729   7.341  11.111  1.00  0.00    -0.776 OA
HETATM   41  H36 UNL     1     -15.856   7.620  10.179  1.00  0.00     0.167 HD
ENDBRANCH  38  40
ENDBRANCH  37  38
BRANCH  37  42
HETATM   42  C29 UNL     1     -16.835   6.016  13.508  1.00  0.00    -0.042 A 
HETATM   43  C30 UNL     1     -17.577   5.116  12.727  1.00  0.00     0.008 A 
HETATM   44  C31 UNL     1     -17.557   3.744  12.999  1.00  0.00     0.001 A 
HETATM   45  C32 UNL     1     -16.788   3.245  14.046  1.00  0.00     0.000 A 
HETATM   46  C33 UNL     1     -16.025   4.115  14.817  1.00  0.00     0.001 A 
HETATM   47  C34 UNL     1     -16.043   5.486  14.545  1.00  0.00     0.008 A 
ENDBRANCH  37  42
ENDBRANCH  36  37
ENDBRANCH  34  36
ENDBRANCH  31  32
ENDBRANCH  30  31
ENDBRANCH  28  30
ENDBRANCH  27  28
ENDBRANCH  26  27
ENDBRANCH   1  26
TORSDOF 13
ENDMDL
MODEL 2
REMARK minimizedAffinity -8.43434143
REMARK CNNscore 0.56222856
REMARK CNNaffinity 7.29783964
REMARK  13 active torsions:
REMARK  status: ('A' for Active; 'I' for Inactive)
REMARK    1  A    between atoms: C19_21  and  O3_22 
REMARK    2  A    between atoms: C19_21  and  C20_23 
REMARK    3  A    between atoms: C20_23  and  C21_25 
REMARK    4  A    between atoms: C21_25  and  O5_26 
REMARK    5  A    between atoms: O5_26  and  C22_27 
REMARK    6  A    between atoms: C22_27  and  C23_29 
REMARK    7  A    between atoms: C23_29  and  C24_30 
REMARK    8  A    between atoms: C24_30  and  C25_31 
REMARK       I    between atoms: C25_31  and  N1_33 
REMARK    9  A    between atoms: N1_33  and  C26_34 
REMARK   10  A    between atoms: C26_34  and  C27_35 
REMARK   11  A    between atoms: C27_35  and  C28_36 
REMARK   12  A    between atoms: C27_35  and  C29_39 
REMARK   13  A    between atoms: C28_36  and  O9_38 
ROOT
HETATM    1  C20 UNL     1      -6.046   7.643  15.414  1.00  0.00     0.185 C 
HETATM    2  O4  UNL     1      -6.154   8.792  14.979  1.00  0.00    -0.292 OA
ENDROOT
BRANCH   1   3
HETATM    3  C19 UNL     1      -4.839   6.728  15.051  1.00  0.00     0.128 C 
HETATM    4  C14 UNL     1      -3.780   7.375  14.106  1.00  0.00     0.005 C 
HETATM    5  C13 UNL     1      -2.729   8.268  14.777  1.00  0.00     0.091 C 
HETATM    6  C15 UNL     1      -4.469   8.166  12.962  1.00  0.00     0.019 C 
HETATM    7  C16 UNL     1      -3.039   6.104  13.611  1.00  0.00     0.002 C 
HETATM    8  C12 UNL     1      -1.611   8.573  13.790  1.00  0.00     0.133 C 
HETATM    9  C11 UNL     1      -0.905   7.364  13.148  1.00  0.00     0.072 C 
HETATM   10  O2  UNL     1      -1.285   9.741  13.583  1.00  0.00    -0.297 OA
HETATM   11  C2  UNL     1       0.251   7.711  12.144  1.00  0.00    -0.009 C 
HETATM   12  C10 UNL     1      -1.966   6.394  12.551  1.00  0.00     0.003 C 
HETATM   13  C1  UNL     1      -0.232   8.584  10.963  1.00  0.00     0.021 C 
HETATM   14  C3  UNL     1       1.383   8.454  12.919  1.00  0.00     0.022 C 
HETATM   15  C7  UNL     1       0.809   6.404  11.553  1.00  0.00    -0.067 C 
HETATM   16  C4  UNL     1       2.706   8.519  12.170  1.00  0.00     0.084 C 
HETATM   17  C5  UNL     1       3.159   7.135  11.788  1.00  0.00     0.149 C 
HETATM   18  O1  UNL     1       4.346   6.833  11.696  1.00  0.00    -0.293 OA
HETATM   19  C6  UNL     1       2.123   6.139  11.436  1.00  0.00     0.053 C 
HETATM   20  C8  UNL     1      -0.196   5.393  11.052  1.00  0.00     0.035 C 
HETATM   21  C9  UNL     1      -1.282   5.103  12.080  1.00  0.00     0.010 C 
HETATM   22  C17 UNL     1      -4.168   5.149  13.245  1.00  0.00     0.009 C 
HETATM   23  C18 UNL     1      -5.299   5.484  14.236  1.00  0.00     0.047 C 
BRANCH   3  24
HETATM   24  O3  UNL     1      -4.188   6.200  16.213  1.00  0.00    -0.381 OA
HETATM   25  H25 UNL     1      -4.338   6.809  16.961  1.00  0.00     0.211 HD
ENDBRANCH   3  24
ENDBRANCH   1   3
BRANCH   1  26
HETATM   26  C21 UNL     1      -7.078   7.105  16.400  1.00  0.00     0.260 C 
BRANCH  26  27
HETATM   27  O5  UNL     1      -7.897   6.115  15.779  1.00  0.00    -0.314 OA
BRANCH  27  28
HETATM   28  C22 UNL     1      -8.836   6.627  14.935  1.00  0.00     0.259 C 
HETATM   29  O6  UNL     1      -8.936   6.355  13.747  1.00  0.00    -0.265 OA
BRANCH  28  30
HETATM   30  C23 UNL     1      -9.727   7.600  15.667  1.00  0.00     0.120 C 
BRANCH  30  31
HETATM   31  C24 UNL     1      -9.799   8.929  14.927  1.00  0.00     0.112 C 
BRANCH  31  32
HETATM   32  C25 UNL     1     -11.057   9.033  14.090  1.00  0.00     0.218 C 
HETATM   33  O7  UNL     1     -11.422  10.073  13.551  1.00  0.00    -0.274 OA
HETATM   34  N1  UNL     1     -11.763   7.854  14.013  1.00  0.00    -0.360 N 
HETATM   35  H32 UNL     1     -11.288   6.989  14.269  1.00  0.00     0.162 HD
BRANCH  34  36
HETATM   36  C26 UNL     1     -12.969   7.758  13.203  1.00  0.00     0.142 C 
BRANCH  36  37
HETATM   37  C27 UNL     1     -14.277   8.042  13.961  1.00  0.00     0.134 C 
BRANCH  37  38
HETATM   38  C28 UNL     1     -15.143   8.870  13.028  1.00  0.00     0.150 C 
HETATM   39  O8  UNL     1     -15.027   8.962  11.815  1.00  0.00    -0.649 OA
BRANCH  38  40
HETATM   40  O9  UNL     1     -16.106   9.559  13.674  1.00  0.00    -0.776 OA
HETATM   41  H36 UNL     1     -16.583  10.039  12.963  1.00  0.00     0.167 HD
ENDBRANCH  38  40
ENDBRANCH  37  38
BRANCH  37  42
HETATM   42  C29 UNL     1     -15.035   6.853  14.544  1.00  0.00    -0.042 A 
HETATM   43  C30 UNL     1     -14.731   5.520  14.228  1.00  0.00     0.008 A 
HETATM   44  C31 UNL     1     -15.444   4.465  14.808  1.00  0.00     0.001 A 
HETATM   45  C32 UNL     1     -16.462   4.722  15.722  1.00  0.00     0.000 A 
HETATM   46  C33 UNL     1     -16.762   6.034  16.069  1.00  0.00     0.001 A 
HETATM   47  C34 UNL     1     -16.050   7.089  15.491  1.00  0.00     0.008 A 
ENDBRANCH  37  42
ENDBRANCH  36  37
ENDBRANCH  34  36
ENDBRANCH  31  32
ENDBRANCH  30  31
ENDBRANCH  28  30
ENDBRANCH  27  28
ENDBRANCH  26  27
ENDBRANCH   1  26
TORSDOF 13
ENDMDL
MODEL 3
REMARK minimizedAffinity -8.8484745
REMARK CNNscore 0.479427785
REMARK CNNaffinity 6.57636976
REMARK  13 active torsions:
REMARK  status: ('A' for Active; 'I' for Inactive)
REMARK    1  A    between atoms: C19_21  and  O3_22 
REMARK    2  A    between atoms: C19_21  and  C20_23 
REMARK    3  A    between atoms: C20_23  and  C21_25 
REMARK    4  A    between atoms: C21_25  and  O5_26 
REMARK    5  A    between atoms: O5_26  and  C22_27 
REMARK    6  A    between atoms: C22_27  and  C23_29 
REMARK    7  A    between atoms: C23_29  and  C24_30 
REMARK    8  A    between atoms: C24_30  and  C25_31 
REMARK       I    between atoms: C25_31  and  N1_33 
REMARK    9  A    between atoms: N1_33  and  C26_34 
REMARK   10  A    between atoms: C26_34  and  C27_35 
REMARK   11  A    between atoms: C27_35  and  C28_36 
REMARK   12  A    between atoms: C27_35  and  C29_39 
REMARK   13  A    between atoms: C28_36  and  O9_38 
ROOT
HETATM    1  C20 UNL     1      -4.576   8.619  15.772  1.00  0.00     0.185 C 
HETATM    2  O4  UNL     1      -5.778   8.505  15.523  1.00  0.00    -0.292 OA
ENDROOT
BRANCH   1   3
HETATM    3  C19 UNL     1      -3.546   7.504  15.420  1.00  0.00     0.128 C 
HETATM    4  C14 UNL     1      -2.714   7.757  14.125  1.00  0.00     0.005 C 
HETATM    5  C13 UNL     1      -1.483   8.659  14.277  1.00  0.00     0.091 C 
HETATM    6  C15 UNL     1      -3.616   8.307  12.987  1.00  0.00     0.019 C 
HETATM    7  C16 UNL     1      -2.189   6.323  13.850  1.00  0.00     0.002 C 
HETATM    8  C12 UNL     1      -0.624   8.567  13.023  1.00  0.00     0.133 C 
HETATM    9  C11 UNL     1      -0.165   7.159  12.601  1.00  0.00     0.072 C 
HETATM   10  O2  UNL     1      -0.293   9.596  12.436  1.00  0.00    -0.297 OA
HETATM   11  C2  UNL     1       0.730   7.098  11.312  1.00  0.00    -0.009 C 
HETATM   12  C10 UNL     1      -1.391   6.202  12.542  1.00  0.00     0.003 C 
HETATM   13  C1  UNL     1       0.024   7.692  10.072  1.00  0.00     0.021 C 
HETATM   14  C3  UNL     1       2.056   7.873  11.585  1.00  0.00     0.022 C 
HETATM   15  C7  UNL     1       1.053   5.626  10.997  1.00  0.00    -0.067 C 
HETATM   16  C4  UNL     1       3.159   7.586  10.575  1.00  0.00     0.084 C 
HETATM   17  C5  UNL     1       3.427   6.107  10.500  1.00  0.00     0.149 C 
HETATM   18  O1  UNL     1       4.537   5.651  10.237  1.00  0.00    -0.293 OA
HETATM   19  C6  UNL     1       2.282   5.184  10.673  1.00  0.00     0.053 C 
HETATM   20  C8  UNL     1      -0.099   4.649  11.028  1.00  0.00     0.035 C 
HETATM   21  C9  UNL     1      -0.916   4.762  12.308  1.00  0.00     0.010 C 
HETATM   22  C17 UNL     1      -3.425   5.448  14.019  1.00  0.00     0.009 C 
HETATM   23  C18 UNL     1      -4.260   6.157  15.102  1.00  0.00     0.047 C 
BRANCH   3  24
HETATM   24  O3  UNL     1      -2.663   7.215  16.510  1.00  0.00    -0.381 OA
HETATM   25  H25 UNL     1      -2.592   8.008  17.076  1.00  0.00     0.211 HD
ENDBRANCH   3  24
ENDBRANCH   1   3
BRANCH   1  26
HETATM   26  C21 UNL     1      -4.046   9.914  16.378  1.00  0.00     0.260 C 
BRANCH  26  27
HETATM   27  O5  UNL     1      -4.250  11.007  15.484  1.00  0.00    -0.314 OA
BRANCH  27  28
HETATM   28  C22 UNL     1      -3.563  12.133  15.824  1.00  0.00     0.259 C 
HETATM   29  O6  UNL     1      -4.018  13.266  15.806  1.00  0.00    -0.265 OA
BRANCH  28  30
HETATM   30  C23 UNL     1      -2.144  11.788  16.205  1.00  0.00     0.120 C 
BRANCH  30  31
HETATM   31  C24 UNL     1      -1.444  12.989  16.825  1.00  0.00     0.112 C 
BRANCH  31  32
HETATM   32  C25 UNL     1      -1.128  12.755  18.289  1.00  0.00     0.218 C 
HETATM   33  O7  UNL     1      -1.971  12.824  19.178  1.00  0.00    -0.274 OA
HETATM   34  N1  UNL     1       0.199  12.478  18.525  1.00  0.00    -0.360 N 
HETATM   35  H32 UNL     1       0.782  12.196  17.738  1.00  0.00     0.162 HD
BRANCH  34  36
HETATM   36  C26 UNL     1       0.669  12.170  19.868  1.00  0.00     0.142 C 
BRANCH  36  37
HETATM   37  C27 UNL     1       1.221  10.745  20.046  1.00  0.00     0.134 C 
BRANCH  37  38
HETATM   38  C28 UNL     1       1.967  10.410  18.766  1.00  0.00     0.150 C 
HETATM   39  O8  UNL     1       3.164  10.544  18.564  1.00  0.00    -0.649 OA
BRANCH  38  40
HETATM   40  O9  UNL     1       1.161   9.937  17.794  1.00  0.00    -0.776 OA
HETATM   41  H36 UNL     1       1.763   9.762  17.039  1.00  0.00     0.167 HD
ENDBRANCH  38  40
ENDBRANCH  37  38
BRANCH  37  42
HETATM   42  C29 UNL     1       2.055  10.454  21.290  1.00  0.00    -0.042 A 
HETATM   43  C30 UNL     1       2.253   9.161  21.797  1.00  0.00     0.008 A 
HETATM   44  C31 UNL     1       3.045   8.948  22.930  1.00  0.00     0.001 A 
HETATM   45  C32 UNL     1       3.664  10.020  23.568  1.00  0.00     0.000 A 
HETATM   46  C33 UNL     1       3.502  11.306  23.068  1.00  0.00     0.001 A 
HETATM   47  C34 UNL     1       2.711  11.520  21.935  1.00  0.00     0.008 A 
ENDBRANCH  37  42
ENDBRANCH  36  37
ENDBRANCH  34  36
ENDBRANCH  31  32
ENDBRANCH  30  31
ENDBRANCH  28  30
ENDBRANCH  27  28
ENDBRANCH  26  27
ENDBRANCH   1  26
TORSDOF 13
ENDMDL
MODEL 4
REMARK minimizedAffinity -9.44532204
REMARK CNNscore 0.472674042
REMARK CNNaffinity 7.29485893
REMARK  13 active torsions:
REMARK  status: ('A' for Active; 'I' for Inactive)
REMARK    1  A    between atoms: C19_21  and  O3_22 
REMARK    2  A    between atoms: C19_21  and  C20_23 
REMARK    3  A    between atoms: C20_23  and  C21_25 
REMARK    4  A    between atoms: C21_25  and  O5_26 
REMARK    5  A    between atoms: O5_26  and  C22_27 
REMARK    6  A    between atoms: C22_27  and  C23_29 
REMARK    7  A    between atoms: C23_29  and  C24_30 
REMARK    8  A    between atoms: C24_30  and  C25_31 
REMARK       I    between atoms: C25_31  and  N1_33 
REMARK    9  A    between atoms: N1_33  and  C26_34 
REMARK   10  A    between atoms: C26_34  and  C27_35 
REMARK   11  A    between atoms: C27_35  and  C28_36 
REMARK   12  A    between atoms: C27_35  and  C29_39 
REMARK   13  A    between atoms: C28_36  and  O9_38 
ROOT
HETATM    1  C20 UNL     1      -0.219   6.366  13.691  1.00  0.00     0.185 C 
HETATM    2  O4  UNL     1      -0.122   6.650  14.887  1.00  0.00    -0.292 OA
ENDROOT
BRANCH   1   3
HETATM    3  C19 UNL     1      -1.598   6.203  12.987  1.00  0.00     0.128 C 
HETATM    4  C14 UNL     1      -2.838   6.304  13.929  1.00  0.00     0.005 C 
HETATM    5  C13 UNL     1      -3.325   7.721  14.258  1.00  0.00     0.091 C 
HETATM    6  C15 UNL     1      -2.594   5.526  15.250  1.00  0.00     0.019 C 
HETATM    7  C16 UNL     1      -3.923   5.654  13.028  1.00  0.00     0.002 C 
HETATM    8  C12 UNL     1      -4.692   7.651  14.923  1.00  0.00     0.133 C 
HETATM    9  C11 UNL     1      -5.799   6.907  14.154  1.00  0.00     0.072 C 
HETATM   10  O2  UNL     1      -4.874   8.219  15.999  1.00  0.00    -0.297 OA
HETATM   11  C2  UNL     1      -7.200   6.862  14.860  1.00  0.00    -0.009 C 
HETATM   12  C10 UNL     1      -5.285   5.502  13.722  1.00  0.00     0.003 C 
HETATM   13  C1  UNL     1      -7.141   6.192  16.252  1.00  0.00     0.021 C 
HETATM   14  C3  UNL     1      -7.738   8.319  15.001  1.00  0.00     0.022 C 
HETATM   15  C7  UNL     1      -8.172   6.039  13.994  1.00  0.00    -0.067 C 
HETATM   16  C4  UNL     1      -9.224   8.402  15.321  1.00  0.00     0.084 C 
HETATM   17  C5  UNL     1     -10.024   7.649  14.292  1.00  0.00     0.149 C 
HETATM   18  O1  UNL     1     -11.165   7.977  13.975  1.00  0.00    -0.293 OA
HETATM   19  C6  UNL     1      -9.429   6.425  13.710  1.00  0.00     0.053 C 
HETATM   20  C8  UNL     1      -7.670   4.712  13.473  1.00  0.00     0.035 C 
HETATM   21  C9  UNL     1      -6.311   4.835  12.796  1.00  0.00     0.010 C 
HETATM   22  C17 UNL     1      -3.244   4.398  12.497  1.00  0.00     0.009 C 
HETATM   23  C18 UNL     1      -1.756   4.779  12.379  1.00  0.00     0.047 C 
BRANCH   3  24
HETATM   24  O3  UNL     1      -1.756   7.104  11.885  1.00  0.00    -0.381 OA
HETATM   25  H25 UNL     1      -1.196   7.889  12.038  1.00  0.00     0.211 HD
ENDBRANCH   3  24
ENDBRANCH   1   3
BRANCH   1  26
HETATM   26  C21 UNL     1       1.038   6.238  12.837  1.00  0.00     0.260 C 
BRANCH  26  27
HETATM   27  O5  UNL     1       0.795   6.708  11.513  1.00  0.00    -0.314 OA
BRANCH  27  28
HETATM   28  C22 UNL     1       1.231   5.861  10.539  1.00  0.00     0.259 C 
HETATM   29  O6  UNL     1       1.324   4.648  10.653  1.00  0.00    -0.265 OA
BRANCH  28  30
HETATM   30  C23 UNL     1       1.609   6.634   9.299  1.00  0.00     0.120 C 
BRANCH  30  31
HETATM   31  C24 UNL     1       3.102   6.519   9.025  1.00  0.00     0.112 C 
BRANCH  31  32
HETATM   32  C25 UNL     1       3.910   7.385   9.971  1.00  0.00     0.218 C 
HETATM   33  O7  UNL     1       4.299   8.512   9.684  1.00  0.00    -0.274 OA
HETATM   34  N1  UNL     1       4.182   6.773  11.173  1.00  0.00    -0.360 N 
HETATM   35  H32 UNL     1       3.632   5.957  11.437  1.00  0.00     0.162 HD
BRANCH  34  36
HETATM   36  C26 UNL     1       4.900   7.482  12.224  1.00  0.00     0.142 C 
BRANCH  36  37
HETATM   37  C27 UNL     1       6.343   7.001  12.454  1.00  0.00     0.134 C 
BRANCH  37  38
HETATM   38  C28 UNL     1       6.815   6.411  11.137  1.00  0.00     0.150 C 
HETATM   39  O8  UNL     1       6.859   5.225  10.844  1.00  0.00    -0.649 OA
BRANCH  38  40
HETATM   40  O9  UNL     1       7.225   7.346  10.256  1.00  0.00    -0.776 OA
HETATM   41  H36 UNL     1       7.495   6.834   9.463  1.00  0.00     0.167 HD
ENDBRANCH  38  40
ENDBRANCH  37  38
BRANCH  37  42
HETATM   42  C29 UNL     1       7.344   8.000  13.026  1.00  0.00    -0.042 A 
HETATM   43  C30 UNL     1       7.094   9.380  13.102  1.00  0.00     0.008 A 
HETATM   44  C31 UNL     1       8.038  10.250  13.657  1.00  0.00     0.001 A 
HETATM   45  C32 UNL     1       9.241   9.758  14.157  1.00  0.00     0.000 A 
HETATM   46  C33 UNL     1       9.498   8.393  14.116  1.00  0.00     0.001 A 
HETATM   47  C34 UNL     1       8.555   7.522  13.563  1.00  0.00     0.008 A 
ENDBRANCH  37  42
ENDBRANCH  36  37
ENDBRANCH  34  36
ENDBRANCH  31  32
ENDBRANCH  30  31
ENDBRANCH  28  30
ENDBRANCH  27  28
ENDBRANCH  26  27
ENDBRANCH   1  26
TORSDOF 13
ENDMDL
MODEL 5
REMARK minimizedAffinity -9.71737194
REMARK CNNscore 0.414022803
REMARK CNNaffinity 7.21577072
REMARK  13 active torsions:
REMARK  status: ('A' for Active; 'I' for Inactive)
REMARK    1  A    between atoms: C19_21  and  O3_22 
REMARK    2  A    between atoms: C19_21  and  C20_23 
REMARK    3  A    between atoms: C20_23  and  C21_25 
REMARK    4  A    between atoms: C21_25  and  O5_26 
REMARK    5  A    between atoms: O5_26  and  C22_27 
REMARK    6  A    between atoms: C22_27  and  C23_29 
REMARK    7  A    between atoms: C23_29  and  C24_30 
REMARK    8  A    between atoms: C24_30  and  C25_31 
REMARK       I    between atoms: C25_31  and  N1_33 
REMARK    9  A    between atoms: N1_33  and  C26_34 
REMARK   10  A    between atoms: C26_34  and  C27_35 
REMARK   11  A    between atoms: C27_35  and  C28_36 
REMARK   12  A    between atoms: C27_35  and  C29_39 
REMARK   13  A    between atoms: C28_36  and  O9_38 
ROOT
HETATM    1  C20 UNL     1      -0.714   6.528  14.005  1.00  0.00     0.185 C 
HETATM    2  O4  UNL     1      -0.617   7.158  15.060  1.00  0.00    -0.292 OA
ENDROOT
BRANCH   1   3
HETATM    3  C19 UNL     1      -2.070   6.373  13.254  1.00  0.00     0.128 C 
HETATM    4  C14 UNL     1      -3.341   6.535  14.143  1.00  0.00     0.005 C 
HETATM    5  C13 UNL     1      -3.805   7.973  14.405  1.00  0.00     0.091 C 
HETATM    6  C15 UNL     1      -3.166   5.797  15.498  1.00  0.00     0.019 C 
HETATM    7  C16 UNL     1      -4.407   5.879  13.224  1.00  0.00     0.002 C 
HETATM    8  C12 UNL     1      -5.198   7.957  15.020  1.00  0.00     0.133 C 
HETATM    9  C11 UNL     1      -6.293   7.213  14.234  1.00  0.00     0.072 C 
HETATM   10  O2  UNL     1      -5.407   8.565  16.068  1.00  0.00    -0.297 OA
HETATM   11  C2  UNL     1      -7.721   7.224  14.887  1.00  0.00    -0.009 C 
HETATM   12  C10 UNL     1      -5.797   5.783  13.869  1.00  0.00     0.003 C 
HETATM   13  C1  UNL     1      -7.730   6.601  16.302  1.00  0.00     0.021 C 
HETATM   14  C3  UNL     1      -8.228   8.698  14.958  1.00  0.00     0.022 C 
HETATM   15  C7  UNL     1      -8.678   6.395  14.012  1.00  0.00    -0.067 C 
HETATM   16  C4  UNL     1      -9.722   8.826  15.218  1.00  0.00     0.084 C 
HETATM   17  C5  UNL     1     -10.501   8.057  14.185  1.00  0.00     0.149 C 
HETATM   18  O1  UNL     1     -11.620   8.400  13.813  1.00  0.00    -0.293 OA
HETATM   19  C6  UNL     1      -9.915   6.800  13.667  1.00  0.00     0.053 C 
HETATM   20  C8  UNL     1      -8.190   5.039  13.556  1.00  0.00     0.035 C 
HETATM   21  C9  UNL     1      -6.804   5.108  12.928  1.00  0.00     0.010 C 
HETATM   22  C17 UNL     1      -3.740   4.590  12.761  1.00  0.00     0.009 C 
HETATM   23  C18 UNL     1      -2.239   4.932  12.687  1.00  0.00     0.047 C 
BRANCH   3  24
HETATM   24  O3  UNL     1      -2.164   7.239  12.117  1.00  0.00    -0.381 OA
HETATM   25  H25 UNL     1      -1.591   8.015  12.265  1.00  0.00     0.211 HD
ENDBRANCH   3  24
ENDBRANCH   1   3
BRANCH   1  26
HETATM   26  C21 UNL     1       0.533   5.936  13.356  1.00  0.00     0.260 C 
BRANCH  26  27
HETATM   27  O5  UNL     1       0.543   6.200  11.954  1.00  0.00    -0.314 OA
BRANCH  27  28
HETATM   28  C22 UNL     1       1.637   5.708  11.309  1.00  0.00     0.259 C 
HETATM   29  O6  UNL     1       1.660   4.681  10.647  1.00  0.00    -0.265 OA
BRANCH  28  30
HETATM   30  C23 UNL     1       2.832   6.599  11.546  1.00  0.00     0.120 C 
BRANCH  30  31
HETATM   31  C24 UNL     1       3.877   6.402  10.457  1.00  0.00     0.112 C 
BRANCH  31  32
HETATM   32  C25 UNL     1       5.280   6.380  11.028  1.00  0.00     0.218 C 
HETATM   33  O7  UNL     1       6.265   6.031  10.384  1.00  0.00    -0.274 OA
HETATM   34  N1  UNL     1       5.340   6.768  12.348  1.00  0.00    -0.360 N 
HETATM   35  H32 UNL     1       4.545   7.271  12.740  1.00  0.00     0.162 HD
BRANCH  34  36
HETATM   36  C26 UNL     1       6.617   6.861  13.041  1.00  0.00     0.142 C 
BRANCH  36  37
HETATM   37  C27 UNL     1       6.876   8.210  13.733  1.00  0.00     0.134 C 
BRANCH  37  38
HETATM   38  C28 UNL     1       6.236   8.118  15.107  1.00  0.00     0.150 C 
HETATM   39  O8  UNL     1       6.219   8.990  15.963  1.00  0.00    -0.649 OA
BRANCH  38  40
HETATM   40  O9  UNL     1       5.661   6.921  15.343  1.00  0.00    -0.776 OA
HETATM   41  H36 UNL     1       5.291   7.001  16.248  1.00  0.00     0.167 HD
ENDBRANCH  38  40
ENDBRANCH  37  38
BRANCH  37  42
HETATM   42  C29 UNL     1       8.316   8.709  13.803  1.00  0.00    -0.042 A 
HETATM   43  C30 UNL     1       8.658  10.071  13.814  1.00  0.00     0.008 A 
HETATM   44  C31 UNL     1       9.994  10.474  13.901  1.00  0.00     0.001 A 
HETATM   45  C32 UNL     1      11.011   9.527  13.991  1.00  0.00     0.000 A 
HETATM   46  C33 UNL     1      10.694   8.174  14.007  1.00  0.00     0.001 A 
HETATM   47  C34 UNL     1       9.359   7.770  13.922  1.00  0.00     0.008 A 
ENDBRANCH  37  42
ENDBRANCH  36  37
ENDBRANCH  34  36
ENDBRANCH  31  32
ENDBRANCH  30  31
ENDBRANCH  28  30
ENDBRANCH  27  28
ENDBRANCH  26  27
ENDBRANCH   1  26
TORSDOF 13
ENDMDL
MODEL 6
REMARK minimizedAffinity -9.47037411
REMARK CNNscore 0.362765163
REMARK CNNaffinity 6.41679335
REMARK  13 active torsions:
REMARK  status: ('A' for Active; 'I' for Inactive)
REMARK    1  A    between atoms: C19_21  and  O3_22 
REMARK    2  A    between atoms: C19_21  and  C20_23 
REMARK    3  A    between atoms: C20_23  and  C21_25 
REMARK    4  A    between atoms: C21_25  and  O5_26 
REMARK    5  A    between atoms: O5_26  and  C22_27 
REMARK    6  A    between atoms: C22_27  and  C23_29 
REMARK    7  A    between atoms: C23_29  and  C24_30 
REMARK    8  A    between atoms: C24_30  and  C25_31 
REMARK       I    between atoms: C25_31  and  N1_33 
REMARK    9  A    between atoms: N1_33  and  C26_34 
REMARK   10  A    between atoms: C26_34  and  C27_35 
REMARK   11  A    between atoms: C27_35  and  C28_36 
REMARK   12  A    between atoms: C27_35  and  C29_39 
REMARK   13  A    between atoms: C28_36  and  O9_38 
ROOT
HETATM    1  C20 UNL     1      -0.784  10.566  14.103  1.00  0.00     0.185 C 
HETATM    2  O4  UNL     1      -1.420  11.623  14.116  1.00  0.00    -0.292 OA
ENDROOT
BRANCH   1   3
HETATM    3  C19 UNL     1      -1.277   9.311  13.323  1.00  0.00     0.128 C 
HETATM    4  C14 UNL     1      -2.490   8.568  13.963  1.00  0.00     0.005 C 
HETATM    5  C13 UNL     1      -3.878   9.141  13.649  1.00  0.00     0.091 C 
HETATM    6  C15 UNL     1      -2.318   8.452  15.501  1.00  0.00     0.019 C 
HETATM    7  C16 UNL     1      -2.393   7.201  13.233  1.00  0.00     0.002 C 
HETATM    8  C12 UNL     1      -4.950   8.152  14.085  1.00  0.00     0.133 C 
HETATM    9  C11 UNL     1      -4.854   6.728  13.507  1.00  0.00     0.072 C 
HETATM   10  O2  UNL     1      -5.860   8.529  14.823  1.00  0.00    -0.297 OA
HETATM   11  C2  UNL     1      -5.981   5.736  13.965  1.00  0.00    -0.009 C 
HETATM   12  C10 UNL     1      -3.418   6.169  13.726  1.00  0.00     0.003 C 
HETATM   13  C1  UNL     1      -6.026   5.558  15.501  1.00  0.00     0.021 C 
HETATM   14  C3  UNL     1      -7.356   6.269  13.457  1.00  0.00     0.022 C 
HETATM   15  C7  UNL     1      -5.710   4.351  13.349  1.00  0.00    -0.067 C 
HETATM   16  C4  UNL     1      -8.474   5.237  13.502  1.00  0.00     0.084 C 
HETATM   17  C5  UNL     1      -8.079   4.003  12.735  1.00  0.00     0.149 C 
HETATM   18  O1  UNL     1      -8.900   3.297  12.155  1.00  0.00    -0.293 OA
HETATM   19  C6  UNL     1      -6.656   3.598  12.760  1.00  0.00     0.053 C 
HETATM   20  C8  UNL     1      -4.300   3.818  13.455  1.00  0.00     0.035 C 
HETATM   21  C9  UNL     1      -3.264   4.832  12.988  1.00  0.00     0.010 C 
HETATM   22  C17 UNL     1      -0.915   6.846  13.327  1.00  0.00     0.009 C 
HETATM   23  C18 UNL     1      -0.185   8.202  13.290  1.00  0.00     0.047 C 
BRANCH   3  24
HETATM   24  O3  UNL     1      -1.561   9.602  11.949  1.00  0.00    -0.381 OA
HETATM   25  H25 UNL     1      -1.794  10.547  11.870  1.00  0.00     0.211 HD
ENDBRANCH   3  24
ENDBRANCH   1   3
BRANCH   1  26
HETATM   26  C21 UNL     1       0.567  10.484  14.806  1.00  0.00     0.260 C 
BRANCH  26  27
HETATM   27  O5  UNL     1       0.584  11.324  15.959  1.00  0.00    -0.314 OA
BRANCH  27  28
HETATM   28  C22 UNL     1       0.328  10.665  17.124  1.00  0.00     0.259 C 
HETATM   29  O6  UNL     1       0.617   9.500  17.351  1.00  0.00    -0.265 OA
BRANCH  28  30
HETATM   30  C23 UNL     1      -0.390  11.572  18.094  1.00  0.00     0.120 C 
BRANCH  30  31
HETATM   31  C24 UNL     1      -0.303  11.022  19.511  1.00  0.00     0.112 C 
BRANCH  31  32
HETATM   32  C25 UNL     1       1.085  11.196  20.093  1.00  0.00     0.218 C 
HETATM   33  O7  UNL     1       1.646  12.284  20.182  1.00  0.00    -0.274 OA
HETATM   34  N1  UNL     1       1.663  10.013  20.492  1.00  0.00    -0.360 N 
HETATM   35  H32 UNL     1       1.063   9.200  20.619  1.00  0.00     0.162 HD
BRANCH  34  36
HETATM   36  C26 UNL     1       2.974  10.000  21.127  1.00  0.00     0.142 C 
BRANCH  36  37
HETATM   37  C27 UNL     1       3.044  10.744  22.472  1.00  0.00     0.134 C 
BRANCH  37  38
HETATM   38  C28 UNL     1       2.973   9.682  23.555  1.00  0.00     0.150 C 
HETATM   39  O8  UNL     1       2.726   9.863  24.738  1.00  0.00    -0.649 OA
BRANCH  38  40
HETATM   40  O9  UNL     1       3.235   8.441  23.096  1.00  0.00    -0.776 OA
HETATM   41  H36 UNL     1       3.153   7.865  23.885  1.00  0.00     0.167 HD
ENDBRANCH  38  40
ENDBRANCH  37  38
BRANCH  37  42
HETATM   42  C29 UNL     1       4.204  11.711  22.690  1.00  0.00    -0.042 A 
HETATM   43  C30 UNL     1       4.040  13.103  22.768  1.00  0.00     0.008 A 
HETATM   44  C31 UNL     1       5.135  13.943  22.992  1.00  0.00     0.001 A 
HETATM   45  C32 UNL     1       6.411  13.409  23.153  1.00  0.00     0.000 A 
HETATM   46  C33 UNL     1       6.593  12.032  23.105  1.00  0.00     0.001 A 
HETATM   47  C34 UNL     1       5.499  11.191  22.883  1.00  0.00     0.008 A 
ENDBRANCH  37  42
ENDBRANCH  36  37
ENDBRANCH  34  36
ENDBRANCH  31  32
ENDBRANCH  30  31
ENDBRANCH  28  30
ENDBRANCH  27  28
ENDBRANCH  26  27
ENDBRANCH   1  26
TORSDOF 13
ENDMDL
MODEL 7
REMARK minimizedAffinity -8.54552078
REMARK CNNscore 0.352407783
REMARK CNNaffinity 6.96896601
REMARK  13 active torsions:
REMARK  status: ('A' for Active; 'I' for Inactive)
REMARK    1  A    between atoms: C19_21  and  O3_22 
REMARK    2  A    between atoms: C19_21  and  C20_23 
REMARK    3  A    between atoms: C20_23  and  C21_25 
REMARK    4  A    between atoms: C21_25  and  O5_26 
REMARK    5  A    between atoms: O5_26  and  C22_27 
REMARK    6  A    between atoms: C22_27  and  C23_29 
REMARK    7  A    between atoms: C23_29  and  C24_30 
REMARK    8  A    between atoms: C24_30  and  C25_31 
REMARK       I    between atoms: C25_31  and  N1_33 
REMARK    9  A    between atoms: N1_33  and  C26_34 
REMARK   10  A    between atoms: C26_34  and  C27_35 
REMARK   11  A    between atoms: C27_35  and  C28_36 
REMARK   12  A    between atoms: C27_35  and  C29_39 
REMARK   13  A    between atoms: C28_36  and  O9_38 
ROOT
HETATM    1  C20 UNL     1       0.264   6.668  13.456  1.00  0.00     0.185 C 
HETATM    2  O4  UNL     1       1.155   5.836  13.640  1.00  0.00    -0.292 OA
ENDROOT
BRANCH   1   3
HETATM    3  C19 UNL     1      -1.061   6.317  12.717  1.00  0.00     0.128 C 
HETATM    4  C14 UNL     1      -2.330   6.267  13.622  1.00  0.00     0.005 C 
HETATM    5  C13 UNL     1      -3.008   7.612  13.913  1.00  0.00     0.091 C 
HETATM    6  C15 UNL     1      -2.026   5.545  14.962  1.00  0.00     0.019 C 
HETATM    7  C16 UNL     1      -3.293   5.468  12.702  1.00  0.00     0.002 C 
HETATM    8  C12 UNL     1      -4.373   7.371  14.541  1.00  0.00     0.133 C 
HETATM    9  C11 UNL     1      -5.350   6.478  13.754  1.00  0.00     0.072 C 
HETATM   10  O2  UNL     1      -4.660   7.925  15.602  1.00  0.00    -0.297 OA
HETATM   11  C2  UNL     1      -6.754   6.259  14.422  1.00  0.00    -0.009 C 
HETATM   12  C10 UNL     1      -4.644   5.148  13.360  1.00  0.00     0.003 C 
HETATM   13  C1  UNL     1      -6.649   5.621  15.826  1.00  0.00     0.021 C 
HETATM   14  C3  UNL     1      -7.481   7.636  14.522  1.00  0.00     0.022 C 
HETATM   15  C7  UNL     1      -7.583   5.305  13.543  1.00  0.00    -0.067 C 
HETATM   16  C4  UNL     1      -8.974   7.527  14.800  1.00  0.00     0.084 C 
HETATM   17  C5  UNL     1      -9.638   6.662  13.762  1.00  0.00     0.149 C 
HETATM   18  O1  UNL     1     -10.802   6.833  13.408  1.00  0.00    -0.293 OA
HETATM   19  C6  UNL     1      -8.871   5.519  13.218  1.00  0.00     0.053 C 
HETATM   20  C8  UNL     1      -6.897   4.048  13.059  1.00  0.00     0.035 C 
HETATM   21  C9  UNL     1      -5.546   4.339  12.418  1.00  0.00     0.010 C 
HETATM   22  C17 UNL     1      -2.441   4.305  12.212  1.00  0.00     0.009 C 
HETATM   23  C18 UNL     1      -1.012   4.876  12.128  1.00  0.00     0.047 C 
BRANCH   3  24
HETATM   24  O3  UNL     1      -1.302   7.174  11.595  1.00  0.00    -0.381 OA
HETATM   25  H25 UNL     1      -0.854   8.028  11.751  1.00  0.00     0.211 HD
ENDBRANCH   3  24
ENDBRANCH   1   3
BRANCH   1  26
HETATM   26  C21 UNL     1       0.411   8.075  14.027  1.00  0.00     0.260 C 
BRANCH  26  27
HETATM   27  O5  UNL     1       1.644   8.660  13.609  1.00  0.00    -0.314 OA
BRANCH  27  28
HETATM   28  C22 UNL     1       2.476   8.986  14.637  1.00  0.00     0.259 C 
HETATM   29  O6  UNL     1       2.288   9.895  15.432  1.00  0.00    -0.265 OA
BRANCH  28  30
HETATM   30  C23 UNL     1       3.682   8.079  14.645  1.00  0.00     0.120 C 
BRANCH  30  31
HETATM   31  C24 UNL     1       4.322   8.019  13.265  1.00  0.00     0.112 C 
BRANCH  31  32
HETATM   32  C25 UNL     1       5.796   7.678  13.349  1.00  0.00     0.218 C 
HETATM   33  O7  UNL     1       6.337   6.848  12.624  1.00  0.00    -0.274 OA
HETATM   34  N1  UNL     1       6.464   8.373  14.331  1.00  0.00    -0.360 N 
HETATM   35  H32 UNL     1       6.023   9.205  14.719  1.00  0.00     0.162 HD
BRANCH  34  36
HETATM   36  C26 UNL     1       7.900   8.211  14.514  1.00  0.00     0.142 C 
BRANCH  36  37
HETATM   37  C27 UNL     1       8.591   9.379  15.238  1.00  0.00     0.134 C 
BRANCH  37  38
HETATM   38  C28 UNL     1       8.450   9.107  16.725  1.00  0.00     0.150 C 
HETATM   39  O8  UNL     1       7.427   9.191  17.388  1.00  0.00    -0.649 OA
BRANCH  38  40
HETATM   40  O9  UNL     1       9.614   8.757  17.310  1.00  0.00    -0.776 OA
HETATM   41  H36 UNL     1       9.381   8.610  18.252  1.00  0.00     0.167 HD
ENDBRANCH  38  40
ENDBRANCH  37  38
BRANCH  37  42
HETATM   42  C29 UNL     1      10.029   9.708  14.848  1.00  0.00    -0.042 A 
HETATM   43  C30 UNL     1      10.826   8.856  14.067  1.00  0.00     0.008 A 
HETATM   44  C31 UNL     1      12.132   9.216  13.719  1.00  0.00     0.001 A 
HETATM   45  C32 UNL     1      12.661  10.436  14.133  1.00  0.00     0.000 A 
HETATM   46  C33 UNL     1      11.880  11.305  14.885  1.00  0.00     0.001 A 
HETATM   47  C34 UNL     1      10.574  10.948  15.233  1.00  0.00     0.008 A 
ENDBRANCH  37  42
ENDBRANCH  36  37
ENDBRANCH  34  36
ENDBRANCH  31  32
ENDBRANCH  30  31
ENDBRANCH  28  30
ENDBRANCH  27  28
ENDBRANCH  26  27
ENDBRANCH   1  26
TORSDOF 13
ENDMDL
MODEL 8
REMARK minimizedAffinity -8.24830151
REMARK CNNscore 0.337678492
REMARK CNNaffinity 6.8651619
REMARK  13 active torsions:
REMARK  status: ('A' for Active; 'I' for Inactive)
REMARK    1  A    between atoms: C19_21  and  O3_22 
REMARK    2  A    between atoms: C19_21  and  C20_23 
REMARK    3  A    between atoms: C20_23  and  C21_25 
REMARK    4  A    between atoms: C21_25  and  O5_26 
REMARK    5  A    between atoms: O5_26  and  C22_27 
REMARK    6  A    between atoms: C22_27  and  C23_29 
REMARK    7  A    between atoms: C23_29  and  C24_30 
REMARK    8  A    between atoms: C24_30  and  C25_31 
REMARK       I    between atoms: C25_31  and  N1_33 
REMARK    9  A    between atoms: N1_33  and  C26_34 
REMARK   10  A    between atoms: C26_34  and  C27_35 
REMARK   11  A    between atoms: C27_35  and  C28_36 
REMARK   12  A    between atoms: C27_35  and  C29_39 
REMARK   13  A    between atoms: C28_36  and  O9_38 
ROOT
HETATM    1  C20 UNL     1      -7.589   5.947  15.199  1.00  0.00     0.185 C 
HETATM    2  O4  UNL     1      -7.460   4.735  15.386  1.00  0.00    -0.292 OA
ENDROOT
BRANCH   1   3
HETATM    3  C19 UNL     1      -6.704   6.729  14.183  1.00  0.00     0.128 C 
HETATM    4  C14 UNL     1      -5.194   6.337  14.184  1.00  0.00     0.005 C 
HETATM    5  C13 UNL     1      -4.814   5.102  13.358  1.00  0.00     0.091 C 
HETATM    6  C15 UNL     1      -4.668   6.167  15.634  1.00  0.00     0.019 C 
HETATM    7  C16 UNL     1      -4.590   7.568  13.454  1.00  0.00     0.002 C 
HETATM    8  C12 UNL     1      -3.300   5.028  13.214  1.00  0.00     0.133 C 
HETATM    9  C11 UNL     1      -2.601   6.264  12.617  1.00  0.00     0.072 C 
HETATM   10  O2  UNL     1      -2.710   3.994  13.523  1.00  0.00    -0.297 OA
HETATM   11  C2  UNL     1      -1.042   6.152  12.470  1.00  0.00    -0.009 C 
HETATM   12  C10 UNL     1      -3.056   7.543  13.379  1.00  0.00     0.003 C 
HETATM   13  C1  UNL     1      -0.337   5.889  13.820  1.00  0.00     0.021 C 
HETATM   14  C3  UNL     1      -0.714   5.000  11.471  1.00  0.00     0.022 C 
HETATM   15  C7  UNL     1      -0.496   7.481  11.916  1.00  0.00    -0.067 C 
HETATM   16  C4  UNL     1       0.717   5.022  10.952  1.00  0.00     0.084 C 
HETATM   17  C5  UNL     1       1.027   6.356  10.327  1.00  0.00     0.149 C 
HETATM   18  O1  UNL     1       1.821   6.479   9.397  1.00  0.00    -0.293 OA
HETATM   19  C6  UNL     1       0.407   7.561  10.921  1.00  0.00     0.053 C 
HETATM   20  C8  UNL     1      -0.992   8.751  12.568  1.00  0.00     0.035 C 
HETATM   21  C9  UNL     1      -2.511   8.791  12.670  1.00  0.00     0.010 C 
HETATM   22  C17 UNL     1      -5.255   8.755  14.139  1.00  0.00     0.009 C 
HETATM   23  C18 UNL     1      -6.657   8.246  14.527  1.00  0.00     0.047 C 
BRANCH   3  24
HETATM   24  O3  UNL     1      -7.218   6.660  12.848  1.00  0.00    -0.381 OA
HETATM   25  H25 UNL     1      -7.743   5.841  12.755  1.00  0.00     0.211 HD
ENDBRANCH   3  24
ENDBRANCH   1   3
BRANCH   1  26
HETATM   26  C21 UNL     1      -8.695   6.713  15.919  1.00  0.00     0.260 C 
BRANCH  26  27
HETATM   27  O5  UNL     1      -9.873   6.766  15.116  1.00  0.00    -0.314 OA
BRANCH  27  28
HETATM   28  C22 UNL     1     -10.392   8.019  14.983  1.00  0.00     0.259 C 
HETATM   29  O6  UNL     1      -9.737   9.050  14.940  1.00  0.00    -0.265 OA
BRANCH  28  30
HETATM   30  C23 UNL     1     -11.899   7.960  14.920  1.00  0.00     0.120 C 
BRANCH  30  31
HETATM   31  C24 UNL     1     -12.365   6.602  14.417  1.00  0.00     0.112 C 
BRANCH  31  32
HETATM   32  C25 UNL     1     -13.863   6.433  14.574  1.00  0.00     0.218 C 
HETATM   33  O7  UNL     1     -14.625   7.368  14.800  1.00  0.00    -0.274 OA
HETATM   34  N1  UNL     1     -14.282   5.127  14.461  1.00  0.00    -0.360 N 
HETATM   35  H32 UNL     1     -13.649   4.451  14.036  1.00  0.00     0.162 HD
BRANCH  34  36
HETATM   36  C26 UNL     1     -15.697   4.789  14.528  1.00  0.00     0.142 C 
BRANCH  36  37
HETATM   37  C27 UNL     1     -16.073   3.822  15.664  1.00  0.00     0.134 C 
BRANCH  37  38
HETATM   38  C28 UNL     1     -17.427   4.273  16.182  1.00  0.00     0.150 C 
HETATM   39  O8  UNL     1     -18.450   4.409  15.527  1.00  0.00    -0.649 OA
BRANCH  38  40
HETATM   40  O9  UNL     1     -17.422   4.550  17.502  1.00  0.00    -0.776 OA
HETATM   41  H36 UNL     1     -18.344   4.822  17.700  1.00  0.00     0.167 HD
ENDBRANCH  38  40
ENDBRANCH  37  38
BRANCH  37  42
HETATM   42  C29 UNL     1     -16.042   2.326  15.365  1.00  0.00    -0.042 A 
HETATM   43  C30 UNL     1     -15.727   1.802  14.101  1.00  0.00     0.008 A 
HETATM   44  C31 UNL     1     -15.691   0.421  13.886  1.00  0.00     0.001 A 
HETATM   45  C32 UNL     1     -15.957  -0.461  14.930  1.00  0.00     0.000 A 
HETATM   46  C33 UNL     1     -16.246   0.035  16.196  1.00  0.00     0.001 A 
HETATM   47  C34 UNL     1     -16.280   1.416  16.412  1.00  0.00     0.008 A 
ENDBRANCH  37  42
ENDBRANCH  36  37
ENDBRANCH  34  36
ENDBRANCH  31  32
ENDBRANCH  30  31
ENDBRANCH  28  30
ENDBRANCH  27  28
ENDBRANCH  26  27
ENDBRANCH   1  26
TORSDOF 13
ENDMDL
MODEL 9
REMARK minimizedAffinity -8.81422806
REMARK CNNscore 0.317749292
REMARK CNNaffinity 6.89954185
REMARK  13 active torsions:
REMARK  status: ('A' for Active; 'I' for Inactive)
REMARK    1  A    between atoms: C19_21  and  O3_22 
REMARK    2  A    between atoms: C19_21  and  C20_23 
REMARK    3  A    between atoms: C20_23  and  C21_25 
REMARK    4  A    between atoms: C21_25  and  O5_26 
REMARK    5  A    between atoms: O5_26  and  C22_27 
REMARK    6  A    between atoms: C22_27  and  C23_29 
REMARK    7  A    between atoms: C23_29  and  C24_30 
REMARK    8  A    between atoms: C24_30  and  C25_31 
REMARK       I    between atoms: C25_31  and  N1_33 
REMARK    9  A    between atoms: N1_33  and  C26_34 
REMARK   10  A    between atoms: C26_34  and  C27_35 
REMARK   11  A    between atoms: C27_35  and  C28_36 
REMARK   12  A    between atoms: C27_35  and  C29_39 
REMARK   13  A    between atoms: C28_36  and  O9_38 
ROOT
HETATM    1  C20 UNL     1      -0.620   7.529  14.117  1.00  0.00     0.185 C 
HETATM    2  O4  UNL     1      -0.669   8.023  15.246  1.00  0.00    -0.292 OA
ENDROOT
BRANCH   1   3
HETATM    3  C19 UNL     1      -1.905   7.194  13.303  1.00  0.00     0.128 C 
HETATM    4  C14 UNL     1      -3.214   7.091  14.145  1.00  0.00     0.005 C 
HETATM    5  C13 UNL     1      -3.922   8.415  14.460  1.00  0.00     0.091 C 
HETATM    6  C15 UNL     1      -2.962   6.316  15.467  1.00  0.00     0.019 C 
HETATM    7  C16 UNL     1      -4.123   6.321  13.149  1.00  0.00     0.002 C 
HETATM    8  C12 UNL     1      -5.312   8.132  15.013  1.00  0.00     0.133 C 
HETATM    9  C11 UNL     1      -6.239   7.262  14.145  1.00  0.00     0.072 C 
HETATM   10  O2  UNL     1      -5.655   8.636  16.082  1.00  0.00    -0.297 OA
HETATM   11  C2  UNL     1      -7.669   6.999  14.737  1.00  0.00    -0.009 C 
HETATM   12  C10 UNL     1      -5.498   5.958  13.729  1.00  0.00     0.003 C 
HETATM   13  C1  UNL     1      -7.621   6.303  16.117  1.00  0.00     0.021 C 
HETATM   14  C3  UNL     1      -8.419   8.361  14.861  1.00  0.00     0.022 C 
HETATM   15  C7  UNL     1      -8.444   6.073  13.781  1.00  0.00    -0.067 C 
HETATM   16  C4  UNL     1      -9.922   8.224  15.064  1.00  0.00     0.084 C 
HETATM   17  C5  UNL     1     -10.525   7.396  13.961  1.00  0.00     0.149 C 
HETATM   18  O1  UNL     1     -11.674   7.569  13.561  1.00  0.00    -0.293 OA
HETATM   19  C6  UNL     1      -9.719   6.286  13.406  1.00  0.00     0.053 C 
HETATM   20  C8  UNL     1      -7.720   4.846  13.278  1.00  0.00     0.035 C 
HETATM   21  C9  UNL     1      -6.345   5.180  12.713  1.00  0.00     0.010 C 
HETATM   22  C17 UNL     1      -3.233   5.190  12.650  1.00  0.00     0.009 C 
HETATM   23  C18 UNL     1      -1.810   5.780  12.657  1.00  0.00     0.047 C 
BRANCH   3  24
HETATM   24  O3  UNL     1      -2.106   8.095  12.208  1.00  0.00    -0.381 OA
HETATM   25  H25 UNL     1      -1.677   8.947  12.420  1.00  0.00     0.211 HD
ENDBRANCH   3  24
ENDBRANCH   1   3
BRANCH   1  26
HETATM   26  C21 UNL     1       0.730   7.299  13.447  1.00  0.00     0.260 C 
BRANCH  26  27
HETATM   27  O5  UNL     1       1.214   8.509  12.866  1.00  0.00    -0.314 OA
BRANCH  27  28
HETATM   28  C22 UNL     1       1.929   9.286  13.727  1.00  0.00     0.259 C 
HETATM   29  O6  UNL     1       1.513  10.298  14.271  1.00  0.00    -0.265 OA
BRANCH  28  30
HETATM   30  C23 UNL     1       3.324   8.736  13.898  1.00  0.00     0.120 C 
BRANCH  30  31
HETATM   31  C24 UNL     1       4.304   9.451  12.979  1.00  0.00     0.112 C 
BRANCH  31  32
HETATM   32  C25 UNL     1       4.698   8.584  11.801  1.00  0.00     0.218 C 
HETATM   33  O7  UNL     1       5.417   8.976  10.888  1.00  0.00    -0.274 OA
HETATM   34  N1  UNL     1       4.152   7.321  11.845  1.00  0.00    -0.360 N 
HETATM   35  H32 UNL     1       3.778   6.986  12.731  1.00  0.00     0.162 HD
BRANCH  34  36
HETATM   36  C26 UNL     1       4.471   6.335  10.822  1.00  0.00     0.142 C 
BRANCH  36  37
HETATM   37  C27 UNL     1       3.261   5.828  10.017  1.00  0.00     0.134 C 
BRANCH  37  38
HETATM   38  C28 UNL     1       2.432   7.051   9.672  1.00  0.00     0.150 C 
HETATM   39  O8  UNL     1       1.253   7.232   9.939  1.00  0.00    -0.649 OA
BRANCH  38  40
HETATM   40  O9  UNL     1       3.126   7.985   8.989  1.00  0.00    -0.776 OA
HETATM   41  H36 UNL     1       2.480   8.708   8.837  1.00  0.00     0.167 HD
ENDBRANCH  38  40
ENDBRANCH  37  38
BRANCH  37  42
HETATM   42  C29 UNL     1       3.534   4.955   8.796  1.00  0.00    -0.042 A 
HETATM   43  C30 UNL     1       3.006   5.227   7.524  1.00  0.00     0.008 A 
HETATM   44  C31 UNL     1       3.306   4.406   6.433  1.00  0.00     0.001 A 
HETATM   45  C32 UNL     1       4.147   3.307   6.588  1.00  0.00     0.000 A 
HETATM   46  C33 UNL     1       4.702   3.034   7.833  1.00  0.00     0.001 A 
HETATM   47  C34 UNL     1       4.404   3.855   8.925  1.00  0.00     0.008 A 
ENDBRANCH  37  42
ENDBRANCH  36  37
ENDBRANCH  34  36
ENDBRANCH  31  32
ENDBRANCH  30  31
ENDBRANCH  28  30
ENDBRANCH  27  28
ENDBRANCH  26  27
ENDBRANCH   1  26
TORSDOF 13
ENDMDL
