MODEL 1
REMARK minimizedAffinity -8.38522053
REMARK CNNscore 0.799105227
REMARK CNNaffinity 6.73802757
REMARK  11 active torsions:
REMARK  status: ('A' for Active; 'I' for Inactive)
REMARK    1  A    between atoms: C2_2  and  C3_3 
REMARK    2  A    between atoms: C2_2  and  C10_11 
REMARK    3  A    between atoms: C4_4  and  C5_5 
REMARK    4  A    between atoms: C5_5  and  C7_7 
REMARK    5  A    between atoms: C7_7  and  C9_9 
REMARK    6  A    between atoms: C9_9  and  O1_10 
REMARK    7  A    between atoms: C11_12  and  O2_13 
REMARK    8  A    between atoms: C12_14  and  O3_15 
REMARK    9  A    between atoms: C23_26  and  O4_27 
REMARK   10  A    between atoms: C26_30  and  O5_31 
REMARK   11  A    between atoms: C28_33  and  O6_34 
ROOT
HETATM    1  C10 UNL     1      -4.416   6.542  14.669  1.00  0.00     0.033 C 
HETATM    2  C11 UNL     1      -3.009   5.869  14.615  1.00  0.00     0.152 C 
HETATM    3  C12 UNL     1      -2.013   6.902  15.218  1.00  0.00     0.155 C 
HETATM    4  C13 UNL     1      -2.908   8.041  15.711  1.00  0.00     0.060 C 
HETATM    5  C14 UNL     1      -4.091   8.072  14.692  1.00  0.00    -0.028 C 
HETATM    6  C15 UNL     1      -3.754   8.619  13.283  1.00  0.00     0.016 C 
HETATM    7  C16 UNL     1      -5.191   8.958  15.303  1.00  0.00     0.011 C 
HETATM    8  C17 UNL     1      -4.665  10.367  15.644  1.00  0.00     0.009 C 
HETATM    9  C18 UNL     1      -3.439  10.328  16.598  1.00  0.00     0.029 C 
HETATM   10  C19 UNL     1      -2.956  11.746  17.099  1.00  0.00    -0.031 C 
HETATM   11  C20 UNL     1      -2.544  12.653  15.909  1.00  0.00     0.016 C 
HETATM   12  C21 UNL     1      -4.119  12.468  17.861  1.00  0.00     0.012 C 
HETATM   13  C22 UNL     1      -3.724  13.125  19.193  1.00  0.00     0.032 C 
HETATM   14  C23 UNL     1      -2.355  13.795  19.167  1.00  0.00     0.118 C 
HETATM   15  C24 UNL     1      -1.240  12.867  18.663  1.00  0.00     0.039 C 
HETATM   16  C25 UNL     1      -1.774  11.533  18.097  1.00  0.00     0.025 C 
HETATM   17  C26 UNL     1      -0.642  10.662  17.522  1.00  0.00     0.126 C 
HETATM   18  C27 UNL     1      -1.162   9.297  17.063  1.00  0.00     0.071 C 
HETATM   19  C28 UNL     1      -2.294   9.418  16.036  1.00  0.00     0.071 C 
ENDROOT
BRANCH   1  20
HETATM   20  C2  UNL     1      -5.549   5.977  13.766  1.00  0.00     0.011 C 
HETATM   21  C1  UNL     1      -6.744   5.522  14.623  1.00  0.00     0.015 C 
BRANCH  20  22
HETATM   22  C3  UNL     1      -5.184   4.962  12.707  1.00  0.00    -0.026 C 
HETATM   23  C4  UNL     1      -5.311   3.629  12.790  1.00  0.00    -0.026 C 
BRANCH  23  24
HETATM   24  C5  UNL     1      -4.876   2.671  11.705  1.00  0.00     0.009 C 
HETATM   25  C6  UNL     1      -5.487   3.131  10.376  1.00  0.00     0.014 C 
BRANCH  24  26
HETATM   26  C7  UNL     1      -3.335   2.486  11.662  1.00  0.00     0.012 C 
HETATM   27  C8  UNL     1      -2.641   3.277  10.544  1.00  0.00     0.012 C 
BRANCH  26  28
HETATM   28  C9  UNL     1      -2.959   0.999  11.570  1.00  0.00     0.168 C 
BRANCH  28  29
HETATM   29  O1  UNL     1      -1.806   0.837  10.753  1.00  0.00    -0.400 OA
HETATM   30  H17 UNL     1      -1.623  -0.115  10.704  1.00  0.00     0.209 HD
ENDBRANCH  28  29
ENDBRANCH  26  28
ENDBRANCH  24  26
ENDBRANCH  23  24
ENDBRANCH  20  22
ENDBRANCH   1  20
BRANCH   2  31
HETATM   31  O2  UNL     1      -2.598   5.469  13.321  1.00  0.00    -0.393 OA
HETATM   32  H20 UNL     1      -1.915   6.112  13.034  1.00  0.00     0.210 HD
ENDBRANCH   2  31
BRANCH   3  33
HETATM   33  O3  UNL     1      -1.078   7.353  14.234  1.00  0.00    -0.392 OA
HETATM   34  H22 UNL     1      -0.212   6.995  14.487  1.00  0.00     0.210 HD
ENDBRANCH   3  33
BRANCH  19  35
HETATM   35  O6  UNL     1      -1.711   9.987  14.872  1.00  0.00    -0.389 OA
HETATM   36  H48 UNL     1      -1.279   9.262  14.371  1.00  0.00     0.210 HD
ENDBRANCH  19  35
BRANCH  17  37
HETATM   37  O5  UNL     1       0.357  10.430  18.523  1.00  0.00    -0.395 OA
HETATM   38  H45 UNL     1      -0.086  10.061  19.310  1.00  0.00     0.210 HD
ENDBRANCH  17  37
BRANCH  14  39
HETATM   39  O4  UNL     1      -2.407  14.960  18.345  1.00  0.00    -0.396 OA
HETATM   40  H40 UNL     1      -3.098  15.547  18.702  1.00  0.00     0.210 HD
ENDBRANCH  14  39
TORSDOF 11
ENDMDL
MODEL 2
REMARK minimizedAffinity -8.25210381
REMARK CNNscore 0.748663425
REMARK CNNaffinity 6.69676256
REMARK  11 active torsions:
REMARK  status: ('A' for Active; 'I' for Inactive)
REMARK    1  A    between atoms: C2_2  and  C3_3 
REMARK    2  A    between atoms: C2_2  and  C10_11 
REMARK    3  A    between atoms: C4_4  and  C5_5 
REMARK    4  A    between atoms: C5_5  and  C7_7 
REMARK    5  A    between atoms: C7_7  and  C9_9 
REMARK    6  A    between atoms: C9_9  and  O1_10 
REMARK    7  A    between atoms: C11_12  and  O2_13 
REMARK    8  A    between atoms: C12_14  and  O3_15 
REMARK    9  A    between atoms: C23_26  and  O4_27 
REMARK   10  A    between atoms: C26_30  and  O5_31 
REMARK   11  A    between atoms: C28_33  and  O6_34 
ROOT
HETATM    1  C10 UNL     1      -4.638   7.306  15.262  1.00  0.00     0.033 C 
HETATM    2  C11 UNL     1      -3.748   6.320  14.443  1.00  0.00     0.152 C 
HETATM    3  C12 UNL     1      -2.282   6.811  14.624  1.00  0.00     0.155 C 
HETATM    4  C13 UNL     1      -2.392   7.951  15.638  1.00  0.00     0.060 C 
HETATM    5  C14 UNL     1      -3.775   8.609  15.333  1.00  0.00    -0.028 C 
HETATM    6  C15 UNL     1      -3.856   9.435  14.027  1.00  0.00     0.016 C 
HETATM    7  C16 UNL     1      -4.104   9.539  16.514  1.00  0.00     0.011 C 
HETATM    8  C17 UNL     1      -2.991  10.581  16.746  1.00  0.00     0.009 C 
HETATM    9  C18 UNL     1      -1.601   9.924  16.974  1.00  0.00     0.029 C 
HETATM   10  C19 UNL     1      -0.455  10.938  17.366  1.00  0.00    -0.031 C 
HETATM   11  C20 UNL     1      -0.248  12.008  16.261  1.00  0.00     0.016 C 
HETATM   12  C21 UNL     1      -0.838  11.691  18.686  1.00  0.00     0.012 C 
HETATM   13  C22 UNL     1       0.280  11.786  19.736  1.00  0.00     0.032 C 
HETATM   14  C23 UNL     1       1.663  12.029  19.143  1.00  0.00     0.118 C 
HETATM   15  C24 UNL     1       2.031  11.024  18.042  1.00  0.00     0.039 C 
HETATM   16  C25 UNL     1       0.849  10.121  17.628  1.00  0.00     0.025 C 
HETATM   17  C26 UNL     1       1.225   9.185  16.466  1.00  0.00     0.126 C 
HETATM   18  C27 UNL     1       0.085   8.216  16.134  1.00  0.00     0.071 C 
HETATM   19  C28 UNL     1      -1.224   8.944  15.809  1.00  0.00     0.071 C 
ENDROOT
BRANCH   1  20
HETATM   20  C2  UNL     1      -6.161   7.370  14.952  1.00  0.00     0.011 C 
HETATM   21  C1  UNL     1      -6.973   7.454  16.256  1.00  0.00     0.015 C 
BRANCH  20  22
HETATM   22  C3  UNL     1      -6.739   6.365  13.981  1.00  0.00    -0.026 C 
HETATM   23  C4  UNL     1      -7.295   5.182  14.282  1.00  0.00    -0.026 C 
BRANCH  23  24
HETATM   24  C5  UNL     1      -7.808   4.205  13.249  1.00  0.00     0.009 C 
HETATM   25  C6  UNL     1      -8.347   4.999  12.053  1.00  0.00     0.014 C 
BRANCH  24  26
HETATM   26  C7  UNL     1      -6.749   3.133  12.871  1.00  0.00     0.012 C 
HETATM   27  C8  UNL     1      -5.855   3.527  11.688  1.00  0.00     0.012 C 
BRANCH  26  28
HETATM   28  C9  UNL     1      -7.412   1.772  12.604  1.00  0.00     0.168 C 
BRANCH  28  29
HETATM   29  O1  UNL     1      -6.645   1.033  11.662  1.00  0.00    -0.400 OA
HETATM   30  H17 UNL     1      -7.113   0.197  11.507  1.00  0.00     0.209 HD
ENDBRANCH  28  29
ENDBRANCH  26  28
ENDBRANCH  24  26
ENDBRANCH  23  24
ENDBRANCH  20  22
ENDBRANCH   1  20
BRANCH   2  31
HETATM   31  O2  UNL     1      -4.083   6.227  13.071  1.00  0.00    -0.393 OA
HETATM   32  H20 UNL     1      -3.386   6.712  12.580  1.00  0.00     0.210 HD
ENDBRANCH   2  31
BRANCH   3  33
HETATM   33  O3  UNL     1      -1.731   7.260  13.382  1.00  0.00    -0.392 OA
HETATM   34  H22 UNL     1      -1.046   6.618  13.133  1.00  0.00     0.210 HD
ENDBRANCH   3  33
BRANCH  19  35
HETATM   35  O6  UNL     1      -0.994   9.651  14.599  1.00  0.00    -0.389 OA
HETATM   36  H48 UNL     1      -1.114   9.019  13.858  1.00  0.00     0.210 HD
ENDBRANCH  19  35
BRANCH  17  37
HETATM   37  O5  UNL     1       2.371   8.399  16.816  1.00  0.00    -0.395 OA
HETATM   38  H45 UNL     1       2.180   7.949  17.660  1.00  0.00     0.210 HD
ENDBRANCH  17  37
BRANCH  14  39
HETATM   39  O4  UNL     1       1.732  13.354  18.616  1.00  0.00    -0.396 OA
HETATM   40  H40 UNL     1       1.527  13.973  19.339  1.00  0.00     0.210 HD
ENDBRANCH  14  39
TORSDOF 11
ENDMDL
MODEL 3
REMARK minimizedAffinity -9.61338806
REMARK CNNscore 0.741615355
REMARK CNNaffinity 7.50253868
REMARK  11 active torsions:
REMARK  status: ('A' for Active; 'I' for Inactive)
REMARK    1  A    between atoms: C2_2  and  C3_3 
REMARK    2  A    between atoms: C2_2  and  C10_11 
REMARK    3  A    between atoms: C4_4  and  C5_5 
REMARK    4  A    between atoms: C5_5  and  C7_7 
REMARK    5  A    between atoms: C7_7  and  C9_9 
REMARK    6  A    between atoms: C9_9  and  O1_10 
REMARK    7  A    between atoms: C11_12  and  O2_13 
REMARK    8  A    between atoms: C12_14  and  O3_15 
REMARK    9  A    between atoms: C23_26  and  O4_27 
REMARK   10  A    between atoms: C26_30  and  O5_31 
REMARK   11  A    between atoms: C28_33  and  O6_34 
ROOT
HETATM    1  C10 UNL     1      -2.681   8.597  14.909  1.00  0.00     0.033 C 
HETATM    2  C11 UNL     1      -1.864   8.607  16.239  1.00  0.00     0.152 C 
HETATM    3  C12 UNL     1      -0.433   8.121  15.869  1.00  0.00     0.155 C 
HETATM    4  C13 UNL     1      -0.462   7.995  14.345  1.00  0.00     0.060 C 
HETATM    5  C14 UNL     1      -1.925   7.555  14.020  1.00  0.00    -0.028 C 
HETATM    6  C15 UNL     1      -2.289   6.097  14.393  1.00  0.00     0.016 C 
HETATM    7  C16 UNL     1      -2.125   7.731  12.505  1.00  0.00     0.011 C 
HETATM    8  C17 UNL     1      -1.076   6.942  11.696  1.00  0.00     0.009 C 
HETATM    9  C18 UNL     1       0.380   7.329  12.076  1.00  0.00     0.029 C 
HETATM   10  C19 UNL     1       1.491   6.662  11.173  1.00  0.00    -0.031 C 
HETATM   11  C20 UNL     1       1.425   5.114  11.251  1.00  0.00     0.016 C 
HETATM   12  C21 UNL     1       1.276   7.068   9.675  1.00  0.00     0.012 C 
HETATM   13  C22 UNL     1       2.542   7.510   8.925  1.00  0.00     0.032 C 
HETATM   14  C23 UNL     1       3.782   6.699   9.279  1.00  0.00     0.118 C 
HETATM   15  C24 UNL     1       4.040   6.624  10.791  1.00  0.00     0.039 C 
HETATM   16  C25 UNL     1       2.882   7.203  11.632  1.00  0.00     0.025 C 
HETATM   17  C26 UNL     1       3.131   7.036  13.141  1.00  0.00     0.126 C 
HETATM   18  C27 UNL     1       2.034   7.709  13.970  1.00  0.00     0.071 C 
HETATM   19  C28 UNL     1       0.635   7.192  13.617  1.00  0.00     0.071 C 
ENDROOT
BRANCH   1  20
HETATM   20  C2  UNL     1      -4.234   8.606  14.987  1.00  0.00     0.011 C 
HETATM   21  C1  UNL     1      -4.716   9.626  16.034  1.00  0.00     0.015 C 
BRANCH  20  22
HETATM   22  C3  UNL     1      -4.955   7.282  15.105  1.00  0.00    -0.026 C 
HETATM   23  C4  UNL     1      -5.769   6.724  14.196  1.00  0.00    -0.026 C 
BRANCH  23  24
HETATM   24  C5  UNL     1      -6.496   5.415  14.407  1.00  0.00     0.009 C 
HETATM   25  C6  UNL     1      -7.447   5.573  15.599  1.00  0.00     0.014 C 
BRANCH  24  26
HETATM   26  C7  UNL     1      -7.185   4.906  13.111  1.00  0.00     0.012 C 
HETATM   27  C8  UNL     1      -8.532   5.578  12.813  1.00  0.00     0.012 C 
BRANCH  26  28
HETATM   28  C9  UNL     1      -7.350   3.378  13.138  1.00  0.00     0.168 C 
BRANCH  28  29
HETATM   29  O1  UNL     1      -8.718   3.033  12.957  1.00  0.00    -0.400 OA
HETATM   30  H17 UNL     1      -8.776   2.065  13.007  1.00  0.00     0.209 HD
ENDBRANCH  28  29
ENDBRANCH  26  28
ENDBRANCH  24  26
ENDBRANCH  23  24
ENDBRANCH  20  22
ENDBRANCH   1  20
BRANCH   2  31
HETATM   31  O2  UNL     1      -2.415   7.813  17.273  1.00  0.00    -0.393 OA
HETATM   32  H20 UNL     1      -1.851   7.014  17.341  1.00  0.00     0.210 HD
ENDBRANCH   2  31
BRANCH   3  33
HETATM   33  O3  UNL     1      -0.135   6.870  16.497  1.00  0.00    -0.392 OA
HETATM   34  H22 UNL     1       0.548   7.048  17.163  1.00  0.00     0.210 HD
ENDBRANCH   3  33
BRANCH  19  35
HETATM   35  O6  UNL     1       0.602   5.831  14.023  1.00  0.00    -0.389 OA
HETATM   36  H48 UNL     1       0.411   5.812  14.984  1.00  0.00     0.210 HD
ENDBRANCH  19  35
BRANCH  17  37
HETATM   37  O5  UNL     1       4.379   7.640  13.504  1.00  0.00    -0.395 OA
HETATM   38  H45 UNL     1       4.369   8.563  13.190  1.00  0.00     0.210 HD
ENDBRANCH  17  37
BRANCH  14  39
HETATM   39  O4  UNL     1       3.656   5.377   8.755  1.00  0.00    -0.396 OA
HETATM   40  H40 UNL     1       3.526   5.450   7.792  1.00  0.00     0.210 HD
ENDBRANCH  14  39
TORSDOF 11
ENDMDL
MODEL 4
REMARK minimizedAffinity -8.27655029
REMARK CNNscore 0.690851867
REMARK CNNaffinity 6.54521561
REMARK  11 active torsions:
REMARK  status: ('A' for Active; 'I' for Inactive)
REMARK    1  A    between atoms: C2_2  and  C3_3 
REMARK    2  A    between atoms: C2_2  and  C10_11 
REMARK    3  A    between atoms: C4_4  and  C5_5 
REMARK    4  A    between atoms: C5_5  and  C7_7 
REMARK    5  A    between atoms: C7_7  and  C9_9 
REMARK    6  A    between atoms: C9_9  and  O1_10 
REMARK    7  A    between atoms: C11_12  and  O2_13 
REMARK    8  A    between atoms: C12_14  and  O3_15 
REMARK    9  A    between atoms: C23_26  and  O4_27 
REMARK   10  A    between atoms: C26_30  and  O5_31 
REMARK   11  A    between atoms: C28_33  and  O6_34 
ROOT
HETATM    1  C10 UNL     1      -2.530   5.762  14.281  1.00  0.00     0.033 C 
HETATM    2  C11 UNL     1      -0.995   5.510  14.168  1.00  0.00     0.152 C 
HETATM    3  C12 UNL     1      -0.305   6.772  14.762  1.00  0.00     0.155 C 
HETATM    4  C13 UNL     1      -1.463   7.610  15.307  1.00  0.00     0.060 C 
HETATM    5  C14 UNL     1      -2.644   7.322  14.326  1.00  0.00    -0.028 C 
HETATM    6  C15 UNL     1      -2.524   7.958  12.920  1.00  0.00     0.016 C 
HETATM    7  C16 UNL     1      -3.924   7.858  14.991  1.00  0.00     0.011 C 
HETATM    8  C17 UNL     1      -3.799   9.354  15.346  1.00  0.00     0.009 C 
HETATM    9  C18 UNL     1      -2.577   9.647  16.260  1.00  0.00     0.029 C 
HETATM   10  C19 UNL     1      -2.490  11.138  16.775  1.00  0.00    -0.031 C 
HETATM   11  C20 UNL     1      -2.390  12.137  15.593  1.00  0.00     0.016 C 
HETATM   12  C21 UNL     1      -3.779  11.497  17.589  1.00  0.00     0.012 C 
HETATM   13  C22 UNL     1      -3.535  12.222  18.922  1.00  0.00     0.032 C 
HETATM   14  C23 UNL     1      -2.409  13.248  18.868  1.00  0.00     0.118 C 
HETATM   15  C24 UNL     1      -1.099  12.673  18.309  1.00  0.00     0.039 C 
HETATM   16  C25 UNL     1      -1.260  11.251  17.731  1.00  0.00     0.025 C 
HETATM   17  C26 UNL     1       0.048  10.737  17.102  1.00  0.00     0.126 C 
HETATM   18  C27 UNL     1      -0.088   9.286  16.630  1.00  0.00     0.071 C 
HETATM   19  C28 UNL     1      -1.245   9.100  15.642  1.00  0.00     0.071 C 
ENDROOT
BRANCH   1  20
HETATM   20  C2  UNL     1      -3.493   4.915  13.402  1.00  0.00     0.011 C 
HETATM   21  C1  UNL     1      -2.840   4.589  12.047  1.00  0.00     0.015 C 
BRANCH  20  22
HETATM   22  C3  UNL     1      -4.924   5.380  13.251  1.00  0.00    -0.026 C 
HETATM   23  C4  UNL     1      -6.033   4.683  13.539  1.00  0.00    -0.026 C 
BRANCH  23  24
HETATM   24  C5  UNL     1      -7.436   5.198  13.313  1.00  0.00     0.009 C 
HETATM   25  C6  UNL     1      -8.306   4.039  12.815  1.00  0.00     0.014 C 
BRANCH  24  26
HETATM   26  C7  UNL     1      -8.006   5.928  14.559  1.00  0.00     0.012 C 
HETATM   27  C8  UNL     1      -7.711   7.434  14.591  1.00  0.00     0.012 C 
BRANCH  26  28
HETATM   28  C9  UNL     1      -7.520   5.266  15.858  1.00  0.00     0.168 C 
BRANCH  28  29
HETATM   29  O1  UNL     1      -6.773   6.197  16.630  1.00  0.00    -0.400 OA
HETATM   30  H17 UNL     1      -6.467   5.729  17.423  1.00  0.00     0.209 HD
ENDBRANCH  28  29
ENDBRANCH  26  28
ENDBRANCH  24  26
ENDBRANCH  23  24
ENDBRANCH  20  22
ENDBRANCH   1  20
BRANCH   2  31
HETATM   31  O2  UNL     1      -0.536   5.255  12.853  1.00  0.00    -0.393 OA
HETATM   32  H20 UNL     1      -0.070   6.067  12.559  1.00  0.00     0.210 HD
ENDBRANCH   2  31
BRANCH   3  33
HETATM   33  O3  UNL     1       0.431   7.478  13.758  1.00  0.00    -0.392 OA
HETATM   34  H22 UNL     1       1.371   7.372  13.976  1.00  0.00     0.210 HD
ENDBRANCH   3  33
BRANCH  19  35
HETATM   35  O6  UNL     1      -0.886   9.822  14.473  1.00  0.00    -0.389 OA
HETATM   36  H48 UNL     1      -0.289   9.253  13.943  1.00  0.00     0.210 HD
ENDBRANCH  19  35
BRANCH  17  37
HETATM   37  O5  UNL     1       1.108  10.781  18.066  1.00  0.00    -0.395 OA
HETATM   38  H45 UNL     1       0.814  10.293  18.858  1.00  0.00     0.210 HD
ENDBRANCH  17  37
BRANCH  14  39
HETATM   39  O4  UNL     1      -2.813  14.362  18.073  1.00  0.00    -0.396 OA
HETATM   40  H40 UNL     1      -3.626  14.728  18.465  1.00  0.00     0.210 HD
ENDBRANCH  14  39
TORSDOF 11
ENDMDL
MODEL 5
REMARK minimizedAffinity -7.94436455
REMARK CNNscore 0.689440548
REMARK CNNaffinity 6.43157959
REMARK  11 active torsions:
REMARK  status: ('A' for Active; 'I' for Inactive)
REMARK    1  A    between atoms: C2_2  and  C3_3 
REMARK    2  A    between atoms: C2_2  and  C10_11 
REMARK    3  A    between atoms: C4_4  and  C5_5 
REMARK    4  A    between atoms: C5_5  and  C7_7 
REMARK    5  A    between atoms: C7_7  and  C9_9 
REMARK    6  A    between atoms: C9_9  and  O1_10 
REMARK    7  A    between atoms: C11_12  and  O2_13 
REMARK    8  A    between atoms: C12_14  and  O3_15 
REMARK    9  A    between atoms: C23_26  and  O4_27 
REMARK   10  A    between atoms: C26_30  and  O5_31 
REMARK   11  A    between atoms: C28_33  and  O6_34 
ROOT
HETATM    1  C10 UNL     1      -1.360   6.490  14.741  1.00  0.00     0.033 C 
HETATM    2  C11 UNL     1       0.195   6.495  14.870  1.00  0.00     0.152 C 
HETATM    3  C12 UNL     1       0.566   7.840  15.561  1.00  0.00     0.155 C 
HETATM    4  C13 UNL     1      -0.786   8.463  15.916  1.00  0.00     0.060 C 
HETATM    5  C14 UNL     1      -1.737   8.008  14.764  1.00  0.00    -0.028 C 
HETATM    6  C15 UNL     1      -1.508   8.687  13.392  1.00  0.00     0.016 C 
HETATM    7  C16 UNL     1      -3.176   8.310  15.219  1.00  0.00     0.011 C 
HETATM    8  C17 UNL     1      -3.357   9.798  15.584  1.00  0.00     0.009 C 
HETATM    9  C18 UNL     1      -2.357  10.267  16.677  1.00  0.00     0.029 C 
HETATM   10  C19 UNL     1      -2.599  11.739  17.196  1.00  0.00    -0.031 C 
HETATM   11  C20 UNL     1      -2.485  12.769  16.041  1.00  0.00     0.016 C 
HETATM   12  C21 UNL     1      -4.040  11.863  17.797  1.00  0.00     0.012 C 
HETATM   13  C22 UNL     1      -4.129  12.587  19.150  1.00  0.00     0.032 C 
HETATM   14  C23 UNL     1      -3.194  13.785  19.269  1.00  0.00     0.118 C 
HETATM   15  C24 UNL     1      -1.736  13.447  18.923  1.00  0.00     0.039 C 
HETATM   16  C25 UNL     1      -1.568  12.031  18.331  1.00  0.00     0.025 C 
HETATM   17  C26 UNL     1      -0.112  11.754  17.916  1.00  0.00     0.126 C 
HETATM   18  C27 UNL     1       0.070  10.312  17.432  1.00  0.00     0.071 C 
HETATM   19  C28 UNL     1      -0.873   9.961  16.277  1.00  0.00     0.071 C 
ENDROOT
BRANCH   1  20
HETATM   20  C2  UNL     1      -2.022   5.515  13.726  1.00  0.00     0.011 C 
HETATM   21  C1  UNL     1      -1.827   6.024  12.286  1.00  0.00     0.015 C 
BRANCH  20  22
HETATM   22  C3  UNL     1      -3.440   5.061  13.986  1.00  0.00    -0.026 C 
HETATM   23  C4  UNL     1      -4.532   5.380  13.274  1.00  0.00    -0.026 C 
BRANCH  23  24
HETATM   24  C5  UNL     1      -5.930   4.926  13.626  1.00  0.00     0.009 C 
HETATM   25  C6  UNL     1      -6.905   6.067  13.312  1.00  0.00     0.014 C 
BRANCH  24  26
HETATM   26  C7  UNL     1      -6.300   3.575  12.956  1.00  0.00     0.012 C 
HETATM   27  C8  UNL     1      -5.704   3.388  11.555  1.00  0.00     0.012 C 
BRANCH  26  28
HETATM   28  C9  UNL     1      -7.824   3.379  12.913  1.00  0.00     0.168 C 
BRANCH  28  29
HETATM   29  O1  UNL     1      -8.133   2.016  12.651  1.00  0.00    -0.400 OA
HETATM   30  H17 UNL     1      -9.100   1.947  12.607  1.00  0.00     0.209 HD
ENDBRANCH  28  29
ENDBRANCH  26  28
ENDBRANCH  24  26
ENDBRANCH  23  24
ENDBRANCH  20  22
ENDBRANCH   1  20
BRANCH   2  31
HETATM   31  O2  UNL     1       0.887   6.351  13.644  1.00  0.00    -0.393 OA
HETATM   32  H20 UNL     1       1.251   7.234  13.424  1.00  0.00     0.210 HD
ENDBRANCH   2  31
BRANCH   3  33
HETATM   33  O3  UNL     1       1.320   8.681  14.682  1.00  0.00    -0.392 OA
HETATM   34  H22 UNL     1       2.219   8.726  15.044  1.00  0.00     0.210 HD
ENDBRANCH   3  33
BRANCH  19  35
HETATM   35  O6  UNL     1      -0.463  10.759  15.176  1.00  0.00    -0.389 OA
HETATM   36  H48 UNL     1       0.295  10.309  14.747  1.00  0.00     0.210 HD
ENDBRANCH  19  35
BRANCH  17  37
HETATM   37  O5  UNL     1       0.765  11.950  19.033  1.00  0.00    -0.395 OA
HETATM   38  H45 UNL     1       0.437  11.402  19.771  1.00  0.00     0.210 HD
ENDBRANCH  17  37
BRANCH  14  39
HETATM   39  O4  UNL     1      -3.650  14.835  18.417  1.00  0.00    -0.396 OA
HETATM   40  H40 UNL     1      -4.563  15.054  18.677  1.00  0.00     0.210 HD
ENDBRANCH  14  39
TORSDOF 11
ENDMDL
MODEL 6
REMARK minimizedAffinity -9.67596436
REMARK CNNscore 0.648968577
REMARK CNNaffinity 6.75299835
REMARK  11 active torsions:
REMARK  status: ('A' for Active; 'I' for Inactive)
REMARK    1  A    between atoms: C2_2  and  C3_3 
REMARK    2  A    between atoms: C2_2  and  C10_11 
REMARK    3  A    between atoms: C4_4  and  C5_5 
REMARK    4  A    between atoms: C5_5  and  C7_7 
REMARK    5  A    between atoms: C7_7  and  C9_9 
REMARK    6  A    between atoms: C9_9  and  O1_10 
REMARK    7  A    between atoms: C11_12  and  O2_13 
REMARK    8  A    between atoms: C12_14  and  O3_15 
REMARK    9  A    between atoms: C23_26  and  O4_27 
REMARK   10  A    between atoms: C26_30  and  O5_31 
REMARK   11  A    between atoms: C28_33  and  O6_34 
ROOT
HETATM    1  C10 UNL     1      -2.284   7.684  13.119  1.00  0.00     0.033 C 
HETATM    2  C11 UNL     1      -2.272   6.216  12.589  1.00  0.00     0.152 C 
HETATM    3  C12 UNL     1      -3.686   5.638  12.887  1.00  0.00     0.155 C 
HETATM    4  C13 UNL     1      -4.470   6.832  13.435  1.00  0.00     0.060 C 
HETATM    5  C14 UNL     1      -3.406   7.673  14.210  1.00  0.00    -0.028 C 
HETATM    6  C15 UNL     1      -2.913   7.069  15.547  1.00  0.00     0.016 C 
HETATM    7  C16 UNL     1      -4.038   9.045  14.502  1.00  0.00     0.011 C 
HETATM    8  C17 UNL     1      -5.363   8.908  15.278  1.00  0.00     0.009 C 
HETATM    9  C18 UNL     1      -6.393   8.008  14.540  1.00  0.00     0.029 C 
HETATM   10  C19 UNL     1      -7.820   7.957  15.217  1.00  0.00    -0.031 C 
HETATM   11  C20 UNL     1      -7.736   7.412  16.667  1.00  0.00     0.016 C 
HETATM   12  C21 UNL     1      -8.427   9.400  15.290  1.00  0.00     0.012 C 
HETATM   13  C22 UNL     1      -9.894   9.518  14.850  1.00  0.00     0.032 C 
HETATM   14  C23 UNL     1     -10.766   8.347  15.288  1.00  0.00     0.118 C 
HETATM   15  C24 UNL     1     -10.184   6.983  14.891  1.00  0.00     0.039 C 
HETATM   16  C25 UNL     1      -8.751   7.078  14.323  1.00  0.00     0.025 C 
HETATM   17  C26 UNL     1      -8.164   5.689  14.015  1.00  0.00     0.126 C 
HETATM   18  C27 UNL     1      -6.788   5.796  13.351  1.00  0.00     0.071 C 
HETATM   19  C28 UNL     1      -5.793   6.602  14.194  1.00  0.00     0.071 C 
ENDROOT
BRANCH   1  20
HETATM   20  C2  UNL     1      -0.926   8.397  13.374  1.00  0.00     0.011 C 
HETATM   21  C1  UNL     1      -1.142   9.903  13.601  1.00  0.00     0.015 C 
BRANCH  20  22
HETATM   22  C3  UNL     1       0.220   8.119  12.428  1.00  0.00    -0.026 C 
HETATM   23  C4  UNL     1       0.191   8.177  11.088  1.00  0.00    -0.026 C 
BRANCH  23  24
HETATM   24  C5  UNL     1       1.368   7.835  10.203  1.00  0.00     0.009 C 
HETATM   25  C6  UNL     1       1.544   6.313  10.195  1.00  0.00     0.014 C 
BRANCH  24  26
HETATM   26  C7  UNL     1       1.249   8.466   8.789  1.00  0.00     0.012 C 
HETATM   27  C8  UNL     1      -0.088   8.184   8.089  1.00  0.00     0.012 C 
BRANCH  26  28
HETATM   28  C9  UNL     1       2.418   8.033   7.891  1.00  0.00     0.168 C 
BRANCH  28  29
HETATM   29  O1  UNL     1       3.254   9.148   7.607  1.00  0.00    -0.400 OA
HETATM   30  H17 UNL     1       3.959   8.833   7.020  1.00  0.00     0.209 HD
ENDBRANCH  28  29
ENDBRANCH  26  28
ENDBRANCH  24  26
ENDBRANCH  23  24
ENDBRANCH  20  22
ENDBRANCH   1  20
BRANCH   2  31
HETATM   31  O2  UNL     1      -1.264   5.397  13.151  1.00  0.00    -0.393 OA
HETATM   32  H20 UNL     1      -1.713   4.795  13.782  1.00  0.00     0.210 HD
ENDBRANCH   2  31
BRANCH   3  33
HETATM   33  O3  UNL     1      -3.618   4.570  13.837  1.00  0.00    -0.392 OA
HETATM   34  H22 UNL     1      -3.842   3.756  13.358  1.00  0.00     0.210 HD
ENDBRANCH   3  33
BRANCH  19  35
HETATM   35  O6  UNL     1      -5.563   5.839  15.370  1.00  0.00    -0.389 OA
HETATM   36  H48 UNL     1      -4.891   5.158  15.155  1.00  0.00     0.210 HD
ENDBRANCH  19  35
BRANCH  17  37
HETATM   37  O5  UNL     1      -9.025   4.980  13.115  1.00  0.00    -0.395 OA
HETATM   38  H45 UNL     1      -9.174   5.545  12.334  1.00  0.00     0.210 HD
ENDBRANCH  17  37
BRANCH  14  39
HETATM   39  O4  UNL     1     -10.948   8.389  16.703  1.00  0.00    -0.396 OA
HETATM   40  H40 UNL     1     -11.347   9.249  16.927  1.00  0.00     0.210 HD
ENDBRANCH  14  39
TORSDOF 11
ENDMDL
MODEL 7
REMARK minimizedAffinity -9.29817963
REMARK CNNscore 0.633043826
REMARK CNNaffinity 6.66987085
REMARK  11 active torsions:
REMARK  status: ('A' for Active; 'I' for Inactive)
REMARK    1  A    between atoms: C2_2  and  C3_3 
REMARK    2  A    between atoms: C2_2  and  C10_11 
REMARK    3  A    between atoms: C4_4  and  C5_5 
REMARK    4  A    between atoms: C5_5  and  C7_7 
REMARK    5  A    between atoms: C7_7  and  C9_9 
REMARK    6  A    between atoms: C9_9  and  O1_10 
REMARK    7  A    between atoms: C11_12  and  O2_13 
REMARK    8  A    between atoms: C12_14  and  O3_15 
REMARK    9  A    between atoms: C23_26  and  O4_27 
REMARK   10  A    between atoms: C26_30  and  O5_31 
REMARK   11  A    between atoms: C28_33  and  O6_34 
ROOT
HETATM    1  C10 UNL     1      -5.544   6.974  13.937  1.00  0.00     0.033 C 
HETATM    2  C11 UNL     1      -5.446   8.185  14.915  1.00  0.00     0.152 C 
HETATM    3  C12 UNL     1      -3.949   8.608  14.931  1.00  0.00     0.155 C 
HETATM    4  C13 UNL     1      -3.299   7.721  13.867  1.00  0.00     0.060 C 
HETATM    5  C14 UNL     1      -4.097   6.380  13.940  1.00  0.00    -0.028 C 
HETATM    6  C15 UNL     1      -3.828   5.503  15.187  1.00  0.00     0.016 C 
HETATM    7  C16 UNL     1      -3.729   5.565  12.688  1.00  0.00     0.011 C 
HETATM    8  C17 UNL     1      -2.206   5.344  12.579  1.00  0.00     0.009 C 
HETATM    9  C18 UNL     1      -1.411   6.679  12.583  1.00  0.00     0.029 C 
HETATM   10  C19 UNL     1       0.139   6.516  12.321  1.00  0.00    -0.031 C 
HETATM   11  C20 UNL     1       0.801   5.620  13.400  1.00  0.00     0.016 C 
HETATM   12  C21 UNL     1       0.377   5.835  10.931  1.00  0.00     0.012 C 
HETATM   13  C22 UNL     1       1.452   6.492  10.052  1.00  0.00     0.032 C 
HETATM   14  C23 UNL     1       2.667   6.985  10.829  1.00  0.00     0.118 C 
HETATM   15  C24 UNL     1       2.297   7.892  12.012  1.00  0.00     0.039 C 
HETATM   16  C25 UNL     1       0.778   7.941  12.284  1.00  0.00     0.025 C 
HETATM   17  C26 UNL     1       0.446   8.788  13.526  1.00  0.00     0.126 C 
HETATM   18  C27 UNL     1      -1.066   8.923  13.727  1.00  0.00     0.071 C 
HETATM   19  C28 UNL     1      -1.765   7.563  13.828  1.00  0.00     0.071 C 
ENDROOT
BRANCH   1  20
HETATM   20  C2  UNL     1      -6.790   6.046  14.019  1.00  0.00     0.011 C 
HETATM   21  C1  UNL     1      -6.677   4.901  12.997  1.00  0.00     0.015 C 
BRANCH  20  22
HETATM   22  C3  UNL     1      -8.161   6.683  14.016  1.00  0.00    -0.026 C 
HETATM   23  C4  UNL     1      -8.996   6.804  15.059  1.00  0.00    -0.026 C 
BRANCH  23  24
HETATM   24  C5  UNL     1     -10.378   7.410  14.967  1.00  0.00     0.009 C 
HETATM   25  C6  UNL     1     -10.236   8.935  14.892  1.00  0.00     0.014 C 
BRANCH  24  26
HETATM   26  C7  UNL     1     -11.219   6.796  13.816  1.00  0.00     0.012 C 
HETATM   27  C8  UNL     1     -11.301   7.676  12.562  1.00  0.00     0.012 C 
BRANCH  26  28
HETATM   28  C9  UNL     1     -12.631   6.429  14.298  1.00  0.00     0.168 C 
BRANCH  28  29
HETATM   29  O1  UNL     1     -13.585   6.731  13.288  1.00  0.00    -0.400 OA
HETATM   30  H17 UNL     1     -14.459   6.508  13.646  1.00  0.00     0.209 HD
ENDBRANCH  28  29
ENDBRANCH  26  28
ENDBRANCH  24  26
ENDBRANCH  23  24
ENDBRANCH  20  22
ENDBRANCH   1  20
BRANCH   2  31
HETATM   31  O2  UNL     1      -5.909   7.920  16.227  1.00  0.00    -0.393 OA
HETATM   32  H20 UNL     1      -5.112   7.847  16.794  1.00  0.00     0.210 HD
ENDBRANCH   2  31
BRANCH   3  33
HETATM   33  O3  UNL     1      -3.366   8.398  16.221  1.00  0.00    -0.392 OA
HETATM   34  H22 UNL     1      -3.188   9.277  16.592  1.00  0.00     0.210 HD
ENDBRANCH   3  33
BRANCH  19  35
HETATM   35  O6  UNL     1      -1.298   6.967  15.029  1.00  0.00    -0.389 OA
HETATM   36  H48 UNL     1      -1.824   7.338  15.769  1.00  0.00     0.210 HD
ENDBRANCH  19  35
BRANCH  17  37
HETATM   37  O5  UNL     1       0.983  10.109  13.378  1.00  0.00    -0.395 OA
HETATM   38  H45 UNL     1       0.656  10.473  12.533  1.00  0.00     0.210 HD
ENDBRANCH  17  37
BRANCH  14  39
HETATM   39  O4  UNL     1       3.415   5.867  11.307  1.00  0.00    -0.396 OA
HETATM   40  H40 UNL     1       3.665   5.325  10.538  1.00  0.00     0.210 HD
ENDBRANCH  14  39
TORSDOF 11
ENDMDL
MODEL 8
REMARK minimizedAffinity -7.78184175
REMARK CNNscore 0.615873694
REMARK CNNaffinity 6.41820717
REMARK  11 active torsions:
REMARK  status: ('A' for Active; 'I' for Inactive)
REMARK    1  A    between atoms: C2_2  and  C3_3 
REMARK    2  A    between atoms: C2_2  and  C10_11 
REMARK    3  A    between atoms: C4_4  and  C5_5 
REMARK    4  A    between atoms: C5_5  and  C7_7 
REMARK    5  A    between atoms: C7_7  and  C9_9 
REMARK    6  A    between atoms: C9_9  and  O1_10 
REMARK    7  A    between atoms: C11_12  and  O2_13 
REMARK    8  A    between atoms: C12_14  and  O3_15 
REMARK    9  A    between atoms: C23_26  and  O4_27 
REMARK   10  A    between atoms: C26_30  and  O5_31 
REMARK   11  A    between atoms: C28_33  and  O6_34 
ROOT
HETATM    1  C10 UNL     1      -1.778  10.105  14.885  1.00  0.00     0.033 C 
HETATM    2  C11 UNL     1      -0.493   9.220  14.918  1.00  0.00     0.152 C 
HETATM    3  C12 UNL     1      -0.972   7.756  14.698  1.00  0.00     0.155 C 
HETATM    4  C13 UNL     1      -2.469   7.890  14.413  1.00  0.00     0.060 C 
HETATM    5  C14 UNL     1      -2.920   9.110  15.278  1.00  0.00    -0.028 C 
HETATM    6  C15 UNL     1      -2.983   8.867  16.805  1.00  0.00     0.016 C 
HETATM    7  C16 UNL     1      -4.324   9.513  14.794  1.00  0.00     0.011 C 
HETATM    8  C17 UNL     1      -5.314   8.333  14.871  1.00  0.00     0.009 C 
HETATM    9  C18 UNL     1      -4.825   7.094  14.071  1.00  0.00     0.029 C 
HETATM   10  C19 UNL     1      -5.870   5.913  13.992  1.00  0.00    -0.031 C 
HETATM   11  C20 UNL     1      -6.238   5.391  15.406  1.00  0.00     0.016 C 
HETATM   12  C21 UNL     1      -7.192   6.414  13.316  1.00  0.00     0.012 C 
HETATM   13  C22 UNL     1      -7.772   5.484  12.238  1.00  0.00     0.032 C 
HETATM   14  C23 UNL     1      -7.651   4.002  12.572  1.00  0.00     0.118 C 
HETATM   15  C24 UNL     1      -6.221   3.584  12.944  1.00  0.00     0.039 C 
HETATM   16  C25 UNL     1      -5.262   4.783  13.102  1.00  0.00     0.025 C 
HETATM   17  C26 UNL     1      -3.860   4.338  13.557  1.00  0.00     0.126 C 
HETATM   18  C27 UNL     1      -2.885   5.518  13.606  1.00  0.00     0.071 C 
HETATM   19  C28 UNL     1      -3.385   6.653  14.507  1.00  0.00     0.071 C 
ENDROOT
BRANCH   1  20
HETATM   20  C2  UNL     1      -1.717  11.534  15.496  1.00  0.00     0.011 C 
HETATM   21  C1  UNL     1      -0.256  11.961  15.722  1.00  0.00     0.015 C 
BRANCH  20  22
HETATM   22  C3  UNL     1      -2.594  11.844  16.687  1.00  0.00    -0.026 C 
HETATM   23  C4  UNL     1      -3.655  12.665  16.715  1.00  0.00    -0.026 C 
BRANCH  23  24
HETATM   24  C5  UNL     1      -4.456  12.966  17.961  1.00  0.00     0.009 C 
HETATM   25  C6  UNL     1      -3.665  12.473  19.179  1.00  0.00     0.014 C 
BRANCH  24  26
HETATM   26  C7  UNL     1      -4.883  14.456  18.045  1.00  0.00     0.012 C 
HETATM   27  C8  UNL     1      -3.839  15.370  18.700  1.00  0.00     0.012 C 
BRANCH  26  28
HETATM   28  C9  UNL     1      -6.237  14.604  18.758  1.00  0.00     0.168 C 
BRANCH  28  29
HETATM   29  O1  UNL     1      -7.287  14.171  17.903  1.00  0.00    -0.400 OA
HETATM   30  H17 UNL     1      -8.120  14.306  18.384  1.00  0.00     0.209 HD
ENDBRANCH  28  29
ENDBRANCH  26  28
ENDBRANCH  24  26
ENDBRANCH  23  24
ENDBRANCH  20  22
ENDBRANCH   1  20
BRANCH   2  31
HETATM   31  O2  UNL     1       0.266   9.330  16.108  1.00  0.00    -0.393 OA
HETATM   32  H20 UNL     1       0.109   8.505  16.615  1.00  0.00     0.210 HD
ENDBRANCH   2  31
BRANCH   3  33
HETATM   33  O3  UNL     1      -0.725   6.953  15.857  1.00  0.00    -0.392 OA
HETATM   34  H22 UNL     1      -0.028   6.322  15.615  1.00  0.00     0.210 HD
ENDBRANCH   3  33
BRANCH  19  35
HETATM   35  O6  UNL     1      -3.385   6.137  15.830  1.00  0.00    -0.389 OA
HETATM   36  H48 UNL     1      -2.471   6.209  16.177  1.00  0.00     0.210 HD
ENDBRANCH  19  35
BRANCH  17  37
HETATM   37  O5  UNL     1      -3.328   3.374  12.641  1.00  0.00    -0.395 OA
HETATM   38  H45 UNL     1      -3.366   3.758  11.745  1.00  0.00     0.210 HD
ENDBRANCH  17  37
BRANCH  14  39
HETATM   39  O4  UNL     1      -8.532   3.681  13.649  1.00  0.00    -0.396 OA
HETATM   40  H40 UNL     1      -9.435   3.926  13.377  1.00  0.00     0.210 HD
ENDBRANCH  14  39
TORSDOF 11
ENDMDL
MODEL 9
REMARK minimizedAffinity -8.47845554
REMARK CNNscore 0.607256055
REMARK CNNaffinity 6.37927866
REMARK  11 active torsions:
REMARK  status: ('A' for Active; 'I' for Inactive)
REMARK    1  A    between atoms: C2_2  and  C3_3 
REMARK    2  A    between atoms: C2_2  and  C10_11 
REMARK    3  A    between atoms: C4_4  and  C5_5 
REMARK    4  A    between atoms: C5_5  and  C7_7 
REMARK    5  A    between atoms: C7_7  and  C9_9 
REMARK    6  A    between atoms: C9_9  and  O1_10 
REMARK    7  A    between atoms: C11_12  and  O2_13 
REMARK    8  A    between atoms: C12_14  and  O3_15 
REMARK    9  A    between atoms: C23_26  and  O4_27 
REMARK   10  A    between atoms: C26_30  and  O5_31 
REMARK   11  A    between atoms: C28_33  and  O6_34 
ROOT
HETATM    1  C10 UNL     1      -0.874   6.357  13.609  1.00  0.00     0.033 C 
HETATM    2  C11 UNL     1       0.478   6.849  13.007  1.00  0.00     0.152 C 
HETATM    3  C12 UNL     1       0.637   8.331  13.456  1.00  0.00     0.155 C 
HETATM    4  C13 UNL     1      -0.545   8.565  14.398  1.00  0.00     0.060 C 
HETATM    5  C14 UNL     1      -1.689   7.677  13.812  1.00  0.00    -0.028 C 
HETATM    6  C15 UNL     1      -2.324   8.180  12.493  1.00  0.00     0.016 C 
HETATM    7  C16 UNL     1      -2.793   7.598  14.881  1.00  0.00     0.011 C 
HETATM    8  C17 UNL     1      -3.285   8.999  15.298  1.00  0.00     0.009 C 
HETATM    9  C18 UNL     1      -2.131   9.905  15.809  1.00  0.00     0.029 C 
HETATM   10  C19 UNL     1      -2.601  11.297  16.390  1.00  0.00    -0.031 C 
HETATM   11  C20 UNL     1      -3.355  12.128  15.319  1.00  0.00     0.016 C 
HETATM   12  C21 UNL     1      -3.583  11.070  17.589  1.00  0.00     0.012 C 
HETATM   13  C22 UNL     1      -3.311  11.929  18.834  1.00  0.00     0.032 C 
HETATM   14  C23 UNL     1      -2.880  13.356  18.516  1.00  0.00     0.118 C 
HETATM   15  C24 UNL     1      -1.701  13.424  17.535  1.00  0.00     0.039 C 
HETATM   16  C25 UNL     1      -1.343  12.052  16.923  1.00  0.00     0.025 C 
HETATM   17  C26 UNL     1      -0.215  12.167  15.882  1.00  0.00     0.126 C 
HETATM   18  C27 UNL     1       0.210  10.791  15.360  1.00  0.00     0.071 C 
HETATM   19  C28 UNL     1      -0.963  10.003  14.767  1.00  0.00     0.071 C 
ENDROOT
BRANCH   1  20
HETATM   20  C2  UNL     1      -1.542   5.089  13.007  1.00  0.00     0.011 C 
HETATM   21  C1  UNL     1      -1.357   5.055  11.479  1.00  0.00     0.015 C 
BRANCH  20  22
HETATM   22  C3  UNL     1      -2.959   4.759  13.418  1.00  0.00    -0.026 C 
HETATM   23  C4  UNL     1      -4.056   4.815  12.648  1.00  0.00    -0.026 C 
BRANCH  23  24
HETATM   24  C5  UNL     1      -5.452   4.518  13.146  1.00  0.00     0.009 C 
HETATM   25  C6  UNL     1      -6.148   5.846  13.462  1.00  0.00     0.014 C 
BRANCH  24  26
HETATM   26  C7  UNL     1      -6.245   3.604  12.173  1.00  0.00     0.012 C 
HETATM   27  C8  UNL     1      -7.428   2.875  12.825  1.00  0.00     0.012 C 
BRANCH  26  28
HETATM   28  C9  UNL     1      -5.316   2.592  11.484  1.00  0.00     0.168 C 
BRANCH  28  29
HETATM   29  O1  UNL     1      -5.391   2.745  10.072  1.00  0.00    -0.400 OA
HETATM   30  H17 UNL     1      -4.811   2.072   9.681  1.00  0.00     0.209 HD
ENDBRANCH  28  29
ENDBRANCH  26  28
ENDBRANCH  24  26
ENDBRANCH  23  24
ENDBRANCH  20  22
ENDBRANCH   1  20
BRANCH   2  31
HETATM   31  O2  UNL     1       0.570   6.737  11.598  1.00  0.00    -0.393 OA
HETATM   32  H20 UNL     1       0.482   7.646  11.240  1.00  0.00     0.210 HD
ENDBRANCH   2  31
BRANCH   3  33
HETATM   33  O3  UNL     1       0.602   9.218  12.334  1.00  0.00    -0.392 OA
HETATM   34  H22 UNL     1       1.496   9.585  12.241  1.00  0.00     0.210 HD
ENDBRANCH   3  33
BRANCH  19  35
HETATM   35  O6  UNL     1      -1.370  10.713  13.607  1.00  0.00    -0.389 OA
HETATM   36  H48 UNL     1      -0.772  10.453  12.874  1.00  0.00     0.210 HD
ENDBRANCH  19  35
BRANCH  17  37
HETATM   37  O5  UNL     1       0.938  12.782  16.470  1.00  0.00    -0.395 OA
HETATM   38  H45 UNL     1       1.170  12.278  17.273  1.00  0.00     0.210 HD
ENDBRANCH  17  37
BRANCH  14  39
HETATM   39  O4  UNL     1      -3.985  14.080  17.977  1.00  0.00    -0.396 OA
HETATM   40  H40 UNL     1      -4.708  14.050  18.629  1.00  0.00     0.210 HD
ENDBRANCH  14  39
TORSDOF 11
ENDMDL
