MODEL 1
REMARK minimizedAffinity -7.50016356
REMARK CNNscore 0.597409666
REMARK CNNaffinity 6.81119108
REMARK  7 active torsions:
REMARK  status: ('A' for Active; 'I' for Inactive)
REMARK    1  A    between atoms: C2_2  and  C30_32 
REMARK    2  A    between atoms: C3_3  and  C4_4 
REMARK    3  A    between atoms: C4_4  and  O1_5 
REMARK    4  A    between atoms: C4_4  and  C5_6 
REMARK    5  A    between atoms: C5_6  and  C6_7 
REMARK    6  A    between atoms: C6_7  and  C8_9 
REMARK    7  A    between atoms: C30_32  and  O3_33 
ROOT
HETATM    1  C8  UNL     1      -1.173   7.103  12.961  1.00  0.00    -0.002 C 
HETATM    2  C9  UNL     1      -1.114   8.212  11.863  1.00  0.00     0.007 C 
HETATM    3  C10 UNL     1      -1.439   9.558  12.543  1.00  0.00     0.015 C 
HETATM    4  C11 UNL     1      -2.005   9.166  13.919  1.00  0.00    -0.013 C 
HETATM    5  C12 UNL     1      -3.512   8.799  13.679  1.00  0.00     0.021 C 
HETATM    6  C13 UNL     1      -2.017  10.218  15.033  1.00  0.00    -0.070 C 
HETATM    7  C14 UNL     1      -2.356  11.485  14.765  1.00  0.00    -0.022 C 
HETATM    8  C15 UNL     1      -2.675  12.493  15.808  1.00  0.00     0.034 C 
HETATM    9  C16 UNL     1      -3.173  11.878  17.146  1.00  0.00     0.013 C 
HETATM   10  C17 UNL     1      -3.475  13.039  18.182  1.00  0.00     0.018 C 
HETATM   11  C18 UNL     1      -4.237  14.211  17.512  1.00  0.00     0.023 C 
HETATM   12  C19 UNL     1      -4.360  12.591  19.367  1.00  0.00     0.023 C 
HETATM   13  C20 UNL     1      -2.145  13.571  18.737  1.00  0.00     0.135 C 
HETATM   14  O2  UNL     1      -1.949  14.774  18.924  1.00  0.00    -0.297 OA
HETATM   15  C21 UNL     1      -1.099  12.563  19.163  1.00  0.00     0.080 C 
HETATM   16  C22 UNL     1      -0.872  11.480  18.116  1.00  0.00     0.017 C 
HETATM   17  C23 UNL     1      -2.172  10.758  17.640  1.00  0.00    -0.031 C 
HETATM   18  C24 UNL     1      -2.733   9.957  18.837  1.00  0.00     0.016 C 
HETATM   19  C25 UNL     1      -1.762   9.736  16.463  1.00  0.00     0.024 C 
HETATM   20  C26 UNL     1      -2.232   8.264  16.609  1.00  0.00     0.010 C 
HETATM   21  C27 UNL     1      -1.662   7.278  15.552  1.00  0.00     0.011 C 
HETATM   22  C28 UNL     1      -1.093   7.944  14.281  1.00  0.00    -0.029 C 
HETATM   23  C29 UNL     1       0.409   8.318  14.505  1.00  0.00     0.016 C 
ENDROOT
BRANCH   1  24
HETATM   24  C6  UNL     1      -0.151   5.954  12.699  1.00  0.00    -0.011 C 
HETATM   25  C7  UNL     1       1.159   6.170  13.465  1.00  0.00     0.010 C 
BRANCH  24  26
HETATM   26  C5  UNL     1      -0.780   4.583  13.083  1.00  0.00     0.040 C 
BRANCH  26  27
HETATM   27  C4  UNL     1      -1.169   3.682  11.901  1.00  0.00     0.141 C 
BRANCH  27  28
HETATM   28  C3  UNL     1      -2.629   3.822  11.549  1.00  0.00     0.009 C 
HETATM   29  C2  UNL     1      -3.594   2.878  11.465  1.00  0.00    -0.062 C 
HETATM   30  C1  UNL     1      -3.356   1.403  11.663  1.00  0.00     0.045 C 
BRANCH  29  31
HETATM   31  C30 UNL     1      -5.039   3.200  11.148  1.00  0.00     0.198 C 
BRANCH  31  32
HETATM   32  O3  UNL     1      -5.493   2.533   9.980  1.00  0.00    -0.397 OA
HETATM   33  H48 UNL     1      -5.485   1.583  10.190  1.00  0.00     0.209 HD
ENDBRANCH  31  32
ENDBRANCH  29  31
ENDBRANCH  27  28
BRANCH  27  34
HETATM   34  O1  UNL     1      -0.353   3.960  10.771  1.00  0.00    -0.392 OA
HETATM   35  H6  UNL     1      -0.772   3.522  10.010  1.00  0.00     0.210 HD
ENDBRANCH  27  34
ENDBRANCH  26  27
ENDBRANCH  24  26
ENDBRANCH   1  24
TORSDOF 7
ENDMDL
MODEL 2
REMARK minimizedAffinity -7.82266283
REMARK CNNscore 0.534322798
REMARK CNNaffinity 7.08087492
REMARK  7 active torsions:
REMARK  status: ('A' for Active; 'I' for Inactive)
REMARK    1  A    between atoms: C2_2  and  C30_32 
REMARK    2  A    between atoms: C3_3  and  C4_4 
REMARK    3  A    between atoms: C4_4  and  O1_5 
REMARK    4  A    between atoms: C4_4  and  C5_6 
REMARK    5  A    between atoms: C5_6  and  C6_7 
REMARK    6  A    between atoms: C6_7  and  C8_9 
REMARK    7  A    between atoms: C30_32  and  O3_33 
ROOT
HETATM    1  C8  UNL     1      -5.070   5.563  14.240  1.00  0.00    -0.002 C 
HETATM    2  C9  UNL     1      -5.495   4.871  12.905  1.00  0.00     0.007 C 
HETATM    3  C10 UNL     1      -6.972   5.233  12.644  1.00  0.00     0.015 C 
HETATM    4  C11 UNL     1      -7.462   5.829  13.976  1.00  0.00    -0.013 C 
HETATM    5  C12 UNL     1      -7.811   4.605  14.895  1.00  0.00     0.021 C 
HETATM    6  C13 UNL     1      -8.722   6.701  13.968  1.00  0.00    -0.070 C 
HETATM    7  C14 UNL     1      -9.782   6.356  13.226  1.00  0.00    -0.022 C 
HETATM    8  C15 UNL     1     -11.128   6.965  13.374  1.00  0.00     0.034 C 
HETATM    9  C16 UNL     1     -11.395   7.565  14.784  1.00  0.00     0.013 C 
HETATM   10  C17 UNL     1     -12.851   8.191  14.825  1.00  0.00     0.018 C 
HETATM   11  C18 UNL     1     -13.887   7.258  14.146  1.00  0.00     0.023 C 
HETATM   12  C19 UNL     1     -13.378   8.426  16.257  1.00  0.00     0.023 C 
HETATM   13  C20 UNL     1     -12.838   9.535  14.080  1.00  0.00     0.135 C 
HETATM   14  O2  UNL     1     -13.762   9.881  13.341  1.00  0.00    -0.297 OA
HETATM   15  C21 UNL     1     -11.701  10.492  14.363  1.00  0.00     0.080 C 
HETATM   16  C22 UNL     1     -10.338   9.813  14.309  1.00  0.00     0.017 C 
HETATM   17  C23 UNL     1     -10.217   8.535  15.199  1.00  0.00    -0.031 C 
HETATM   18  C24 UNL     1     -10.316   8.977  16.677  1.00  0.00     0.016 C 
HETATM   19  C25 UNL     1      -8.765   7.889  14.933  1.00  0.00     0.024 C 
HETATM   20  C26 UNL     1      -7.889   7.581  16.177  1.00  0.00     0.010 C 
HETATM   21  C27 UNL     1      -6.433   7.134  15.869  1.00  0.00     0.011 C 
HETATM   22  C28 UNL     1      -6.197   6.635  14.427  1.00  0.00    -0.029 C 
HETATM   23  C29 UNL     1      -5.851   7.844  13.498  1.00  0.00     0.016 C 
ENDROOT
BRANCH   1  24
HETATM   24  C6  UNL     1      -3.570   5.993  14.232  1.00  0.00    -0.011 C 
HETATM   25  C7  UNL     1      -2.918   5.811  15.607  1.00  0.00     0.010 C 
BRANCH  24  26
HETATM   26  C5  UNL     1      -2.790   5.186  13.154  1.00  0.00     0.040 C 
BRANCH  26  27
HETATM   27  C4  UNL     1      -1.483   5.829  12.666  1.00  0.00     0.141 C 
BRANCH  27  28
HETATM   28  C3  UNL     1      -1.139   7.066  13.459  1.00  0.00     0.009 C 
HETATM   29  C2  UNL     1      -1.133   8.364  13.079  1.00  0.00    -0.062 C 
HETATM   30  C1  UNL     1      -1.431   8.839  11.679  1.00  0.00     0.045 C 
BRANCH  29  31
HETATM   31  C30 UNL     1      -0.811   9.501  14.026  1.00  0.00     0.198 C 
BRANCH  31  32
HETATM   32  O3  UNL     1      -1.733   9.578  15.103  1.00  0.00    -0.397 OA
HETATM   33  H48 UNL     1      -1.606   8.768  15.627  1.00  0.00     0.209 HD
ENDBRANCH  31  32
ENDBRANCH  29  31
ENDBRANCH  27  28
BRANCH  27  34
HETATM   34  O1  UNL     1      -0.416   4.891  12.714  1.00  0.00    -0.392 OA
HETATM   35  H6  UNL     1       0.406   5.399  12.599  1.00  0.00     0.210 HD
ENDBRANCH  27  34
ENDBRANCH  26  27
ENDBRANCH  24  26
ENDBRANCH   1  24
TORSDOF 7
ENDMDL
MODEL 3
REMARK minimizedAffinity -9.3530159
REMARK CNNscore 0.469411373
REMARK CNNaffinity 7.03562021
REMARK  7 active torsions:
REMARK  status: ('A' for Active; 'I' for Inactive)
REMARK    1  A    between atoms: C2_2  and  C30_32 
REMARK    2  A    between atoms: C3_3  and  C4_4 
REMARK    3  A    between atoms: C4_4  and  O1_5 
REMARK    4  A    between atoms: C4_4  and  C5_6 
REMARK    5  A    between atoms: C5_6  and  C6_7 
REMARK    6  A    between atoms: C6_7  and  C8_9 
REMARK    7  A    between atoms: C30_32  and  O3_33 
ROOT
HETATM    1  C8  UNL     1      -3.783   7.328  14.490  1.00  0.00    -0.002 C 
HETATM    2  C9  UNL     1      -3.312   6.083  15.308  1.00  0.00     0.007 C 
HETATM    3  C10 UNL     1      -1.992   5.587  14.682  1.00  0.00     0.015 C 
HETATM    4  C11 UNL     1      -1.907   6.324  13.334  1.00  0.00    -0.013 C 
HETATM    5  C12 UNL     1      -2.811   5.514  12.339  1.00  0.00     0.021 C 
HETATM    6  C13 UNL     1      -0.543   6.433  12.644  1.00  0.00    -0.070 C 
HETATM    7  C14 UNL     1       0.293   5.387  12.625  1.00  0.00    -0.022 C 
HETATM    8  C15 UNL     1       1.489   5.301  11.749  1.00  0.00     0.034 C 
HETATM    9  C16 UNL     1       1.393   6.175  10.466  1.00  0.00     0.013 C 
HETATM   10  C17 UNL     1       2.720   6.011   9.615  1.00  0.00     0.018 C 
HETATM   11  C18 UNL     1       3.163   4.527   9.537  1.00  0.00     0.023 C 
HETATM   12  C19 UNL     1       2.571   6.478   8.150  1.00  0.00     0.023 C 
HETATM   13  C20 UNL     1       3.843   6.824  10.278  1.00  0.00     0.135 C 
HETATM   14  O2  UNL     1       4.996   6.399  10.360  1.00  0.00    -0.297 OA
HETATM   15  C21 UNL     1       3.523   8.230  10.738  1.00  0.00     0.080 C 
HETATM   16  C22 UNL     1       2.234   8.303  11.544  1.00  0.00     0.017 C 
HETATM   17  C23 UNL     1       0.996   7.658  10.842  1.00  0.00    -0.031 C 
HETATM   18  C24 UNL     1       0.663   8.509   9.596  1.00  0.00     0.016 C 
HETATM   19  C25 UNL     1      -0.240   7.721  11.875  1.00  0.00     0.024 C 
HETATM   20  C26 UNL     1      -1.565   8.340  11.355  1.00  0.00     0.010 C 
HETATM   21  C27 UNL     1      -2.667   8.550  12.430  1.00  0.00     0.011 C 
HETATM   22  C28 UNL     1      -2.477   7.731  13.725  1.00  0.00    -0.029 C 
HETATM   23  C29 UNL     1      -1.574   8.524  14.726  1.00  0.00     0.016 C 
ENDROOT
BRANCH   1  24
HETATM   24  C6  UNL     1      -4.527   8.373  15.378  1.00  0.00    -0.011 C 
HETATM   25  C7  UNL     1      -3.822   9.734  15.369  1.00  0.00     0.010 C 
BRANCH  24  26
HETATM   26  C5  UNL     1      -6.000   8.526  14.898  1.00  0.00     0.040 C 
BRANCH  26  27
HETATM   27  C4  UNL     1      -6.972   7.448  15.400  1.00  0.00     0.141 C 
BRANCH  27  28
HETATM   28  C3  UNL     1      -7.156   6.345  14.388  1.00  0.00     0.009 C 
HETATM   29  C2  UNL     1      -8.254   5.993  13.681  1.00  0.00    -0.062 C 
HETATM   30  C1  UNL     1      -9.605   6.645  13.833  1.00  0.00     0.045 C 
BRANCH  29  31
HETATM   31  C30 UNL     1      -8.253   4.881  12.654  1.00  0.00     0.198 C 
BRANCH  31  32
HETATM   32  O3  UNL     1      -8.684   3.644  13.202  1.00  0.00    -0.397 OA
HETATM   33  H48 UNL     1      -9.619   3.765  13.443  1.00  0.00     0.209 HD
ENDBRANCH  31  32
ENDBRANCH  29  31
ENDBRANCH  27  28
BRANCH  27  34
HETATM   34  O1  UNL     1      -6.532   6.919  16.644  1.00  0.00    -0.392 OA
HETATM   35  H6  UNL     1      -7.055   6.115  16.805  1.00  0.00     0.210 HD
ENDBRANCH  27  34
ENDBRANCH  26  27
ENDBRANCH  24  26
ENDBRANCH   1  24
TORSDOF 7
ENDMDL
MODEL 4
REMARK minimizedAffinity -6.99135876
REMARK CNNscore 0.438223004
REMARK CNNaffinity 5.77078581
REMARK  7 active torsions:
REMARK  status: ('A' for Active; 'I' for Inactive)
REMARK    1  A    between atoms: C2_2  and  C30_32 
REMARK    2  A    between atoms: C3_3  and  C4_4 
REMARK    3  A    between atoms: C4_4  and  O1_5 
REMARK    4  A    between atoms: C4_4  and  C5_6 
REMARK    5  A    between atoms: C5_6  and  C6_7 
REMARK    6  A    between atoms: C6_7  and  C8_9 
REMARK    7  A    between atoms: C30_32  and  O3_33 
ROOT
HETATM    1  C8  UNL     1      -4.950 -10.456   7.222  1.00  0.00    -0.002 C 
HETATM    2  C9  UNL     1      -3.610  -9.714   6.920  1.00  0.00     0.007 C 
HETATM    3  C10 UNL     1      -3.466  -9.620   5.387  1.00  0.00     0.015 C 
HETATM    4  C11 UNL     1      -4.528 -10.590   4.841  1.00  0.00    -0.013 C 
HETATM    5  C12 UNL     1      -3.890 -12.022   4.923  1.00  0.00     0.021 C 
HETATM    6  C13 UNL     1      -4.986 -10.434   3.387  1.00  0.00    -0.070 C 
HETATM    7  C14 UNL     1      -4.097 -10.169   2.421  1.00  0.00    -0.022 C 
HETATM    8  C15 UNL     1      -4.394 -10.287   0.971  1.00  0.00     0.034 C 
HETATM    9  C16 UNL     1      -5.547 -11.277   0.643  1.00  0.00     0.013 C 
HETATM   10  C17 UNL     1      -5.780 -11.316  -0.924  1.00  0.00     0.018 C 
HETATM   11  C18 UNL     1      -4.436 -11.375  -1.695  1.00  0.00     0.023 C 
HETATM   12  C19 UNL     1      -6.584 -12.549  -1.395  1.00  0.00     0.023 C 
HETATM   13  C20 UNL     1      -6.535 -10.047  -1.349  1.00  0.00     0.135 C 
HETATM   14  O2  UNL     1      -6.256  -9.436  -2.383  1.00  0.00    -0.297 OA
HETATM   15  C21 UNL     1      -7.722  -9.616  -0.517  1.00  0.00     0.080 C 
HETATM   16  C22 UNL     1      -7.418  -9.608   0.975  1.00  0.00     0.017 C 
HETATM   17  C23 UNL     1      -6.820 -10.945   1.520  1.00  0.00    -0.031 C 
HETATM   18  C24 UNL     1      -7.911 -12.033   1.403  1.00  0.00     0.016 C 
HETATM   19  C25 UNL     1      -6.456 -10.722   3.074  1.00  0.00     0.024 C 
HETATM   20  C26 UNL     1      -7.011 -11.759   4.086  1.00  0.00     0.010 C 
HETATM   21  C27 UNL     1      -6.793 -11.406   5.584  1.00  0.00     0.011 C 
HETATM   22  C28 UNL     1      -5.702 -10.348   5.852  1.00  0.00    -0.029 C 
HETATM   23  C29 UNL     1      -6.322  -8.915   5.770  1.00  0.00     0.016 C 
ENDROOT
BRANCH   1  24
HETATM   24  C6  UNL     1      -5.628  -9.946   8.532  1.00  0.00    -0.011 C 
HETATM   25  C7  UNL     1      -7.043 -10.512   8.700  1.00  0.00     0.010 C 
BRANCH  24  26
HETATM   26  C5  UNL     1      -4.751 -10.314   9.763  1.00  0.00     0.040 C 
BRANCH  26  27
HETATM   27  C4  UNL     1      -4.647  -9.229  10.846  1.00  0.00     0.141 C 
BRANCH  27  28
HETATM   28  C3  UNL     1      -5.955  -9.039  11.574  1.00  0.00     0.009 C 
HETATM   29  C2  UNL     1      -6.727  -9.944  12.217  1.00  0.00    -0.062 C 
HETATM   30  C1  UNL     1      -6.431 -11.421  12.277  1.00  0.00     0.045 C 
BRANCH  29  31
HETATM   31  C30 UNL     1      -7.999  -9.572  12.951  1.00  0.00     0.198 C 
BRANCH  31  32
HETATM   32  O3  UNL     1      -8.526  -8.328  12.513  1.00  0.00    -0.397 OA
HETATM   33  H48 UNL     1      -8.796  -8.459  11.587  1.00  0.00     0.209 HD
ENDBRANCH  31  32
ENDBRANCH  29  31
ENDBRANCH  27  28
BRANCH  27  34
HETATM   34  O1  UNL     1      -3.605  -9.535  11.762  1.00  0.00    -0.392 OA
HETATM   35  H6  UNL     1      -3.721  -8.942  12.525  1.00  0.00     0.210 HD
ENDBRANCH  27  34
ENDBRANCH  26  27
ENDBRANCH  24  26
ENDBRANCH   1  24
TORSDOF 7
ENDMDL
MODEL 5
REMARK minimizedAffinity -7.05687428
REMARK CNNscore 0.429866731
REMARK CNNaffinity 6.40201139
REMARK  7 active torsions:
REMARK  status: ('A' for Active; 'I' for Inactive)
REMARK    1  A    between atoms: C2_2  and  C30_32 
REMARK    2  A    between atoms: C3_3  and  C4_4 
REMARK    3  A    between atoms: C4_4  and  O1_5 
REMARK    4  A    between atoms: C4_4  and  C5_6 
REMARK    5  A    between atoms: C5_6  and  C6_7 
REMARK    6  A    between atoms: C6_7  and  C8_9 
REMARK    7  A    between atoms: C30_32  and  O3_33 
ROOT
HETATM    1  C8  UNL     1      -3.067   8.737  14.157  1.00  0.00    -0.002 C 
HETATM    2  C9  UNL     1      -1.785   8.326  13.363  1.00  0.00     0.007 C 
HETATM    3  C10 UNL     1      -0.577   8.992  14.054  1.00  0.00     0.015 C 
HETATM    4  C11 UNL     1      -1.202  10.030  15.003  1.00  0.00    -0.013 C 
HETATM    5  C12 UNL     1      -1.528  11.285  14.119  1.00  0.00     0.021 C 
HETATM    6  C13 UNL     1      -0.357  10.562  16.166  1.00  0.00    -0.070 C 
HETATM    7  C14 UNL     1       0.936  10.858  15.985  1.00  0.00    -0.022 C 
HETATM    8  C15 UNL     1       1.749  11.638  16.952  1.00  0.00     0.034 C 
HETATM    9  C16 UNL     1       0.911  12.582  17.860  1.00  0.00     0.013 C 
HETATM   10  C17 UNL     1       1.876  13.355  18.852  1.00  0.00     0.018 C 
HETATM   11  C18 UNL     1       3.143  13.870  18.121  1.00  0.00     0.023 C 
HETATM   12  C19 UNL     1       1.227  14.603  19.490  1.00  0.00     0.023 C 
HETATM   13  C20 UNL     1       2.310  12.399  19.973  1.00  0.00     0.135 C 
HETATM   14  O2  UNL     1       3.463  12.382  20.408  1.00  0.00    -0.297 OA
HETATM   15  C21 UNL     1       1.247  11.539  20.623  1.00  0.00     0.080 C 
HETATM   16  C22 UNL     1       0.361  10.835  19.605  1.00  0.00     0.017 C 
HETATM   17  C23 UNL     1      -0.274  11.782  18.536  1.00  0.00    -0.031 C 
HETATM   18  C24 UNL     1      -1.270  12.714  19.263  1.00  0.00     0.016 C 
HETATM   19  C25 UNL     1      -1.077  10.863  17.483  1.00  0.00     0.024 C 
HETATM   20  C26 UNL     1      -2.553  11.244  17.194  1.00  0.00     0.010 C 
HETATM   21  C27 UNL     1      -3.341  10.230  16.320  1.00  0.00     0.011 C 
HETATM   22  C28 UNL     1      -2.465   9.251  15.509  1.00  0.00    -0.029 C 
HETATM   23  C29 UNL     1      -2.129   7.995  16.378  1.00  0.00     0.016 C 
ENDROOT
BRANCH   1  24
HETATM   24  C6  UNL     1      -4.150   7.614  14.156  1.00  0.00    -0.011 C 
HETATM   25  C7  UNL     1      -5.559   8.181  13.946  1.00  0.00     0.010 C 
BRANCH  24  26
HETATM   26  C5  UNL     1      -3.824   6.561  13.056  1.00  0.00     0.040 C 
BRANCH  26  27
HETATM   27  C4  UNL     1      -3.617   5.125  13.561  1.00  0.00     0.141 C 
BRANCH  27  28
HETATM   28  C3  UNL     1      -4.707   4.201  13.076  1.00  0.00     0.009 C 
HETATM   29  C2  UNL     1      -4.814   3.526  11.909  1.00  0.00    -0.062 C 
HETATM   30  C1  UNL     1      -3.824   3.630  10.776  1.00  0.00     0.045 C 
BRANCH  29  31
HETATM   31  C30 UNL     1      -5.961   2.586  11.600  1.00  0.00     0.198 C 
BRANCH  31  32
HETATM   32  O3  UNL     1      -5.571   1.531  10.734  1.00  0.00    -0.397 OA
HETATM   33  H48 UNL     1      -4.931   0.994  11.232  1.00  0.00     0.209 HD
ENDBRANCH  31  32
ENDBRANCH  29  31
ENDBRANCH  27  28
BRANCH  27  34
HETATM   34  O1  UNL     1      -2.339   4.638  13.174  1.00  0.00    -0.392 OA
HETATM   35  H6  UNL     1      -2.347   3.679  13.331  1.00  0.00     0.210 HD
ENDBRANCH  27  34
ENDBRANCH  26  27
ENDBRANCH  24  26
ENDBRANCH   1  24
TORSDOF 7
ENDMDL
MODEL 6
REMARK minimizedAffinity -9.31364536
REMARK CNNscore 0.428718179
REMARK CNNaffinity 7.02142
REMARK  7 active torsions:
REMARK  status: ('A' for Active; 'I' for Inactive)
REMARK    1  A    between atoms: C2_2  and  C30_32 
REMARK    2  A    between atoms: C3_3  and  C4_4 
REMARK    3  A    between atoms: C4_4  and  O1_5 
REMARK    4  A    between atoms: C4_4  and  C5_6 
REMARK    5  A    between atoms: C5_6  and  C6_7 
REMARK    6  A    between atoms: C6_7  and  C8_9 
REMARK    7  A    between atoms: C30_32  and  O3_33 
ROOT
HETATM    1  C8  UNL     1      -3.532   7.572  15.361  1.00  0.00    -0.002 C 
HETATM    2  C9  UNL     1      -3.124   9.030  15.745  1.00  0.00     0.007 C 
HETATM    3  C10 UNL     1      -1.844   9.377  14.957  1.00  0.00     0.015 C 
HETATM    4  C11 UNL     1      -1.351   8.026  14.411  1.00  0.00    -0.013 C 
HETATM    5  C12 UNL     1      -0.572   7.340  15.588  1.00  0.00     0.021 C 
HETATM    6  C13 UNL     1      -0.378   8.025  13.227  1.00  0.00    -0.070 C 
HETATM    7  C14 UNL     1       0.625   8.910  13.173  1.00  0.00    -0.022 C 
HETATM    8  C15 UNL     1       1.771   8.805  12.235  1.00  0.00     0.034 C 
HETATM    9  C16 UNL     1       2.060   7.354  11.755  1.00  0.00     0.013 C 
HETATM   10  C17 UNL     1       3.292   7.362  10.758  1.00  0.00     0.018 C 
HETATM   11  C18 UNL     1       4.435   8.271  11.279  1.00  0.00     0.023 C 
HETATM   12  C19 UNL     1       3.928   5.969  10.556  1.00  0.00     0.023 C 
HETATM   13  C20 UNL     1       2.826   7.891   9.393  1.00  0.00     0.135 C 
HETATM   14  O2  UNL     1       3.518   8.657   8.718  1.00  0.00    -0.297 OA
HETATM   15  C21 UNL     1       1.526   7.357   8.831  1.00  0.00     0.080 C 
HETATM   16  C22 UNL     1       0.396   7.379   9.851  1.00  0.00     0.017 C 
HETATM   17  C23 UNL     1       0.736   6.685  11.208  1.00  0.00    -0.031 C 
HETATM   18  C24 UNL     1       0.914   5.174  10.934  1.00  0.00     0.016 C 
HETATM   19  C25 UNL     1      -0.518   6.901  12.197  1.00  0.00     0.024 C 
HETATM   20  C26 UNL     1      -1.106   5.638  12.881  1.00  0.00     0.010 C 
HETATM   21  C27 UNL     1      -2.421   5.866  13.677  1.00  0.00     0.011 C 
HETATM   22  C28 UNL     1      -2.711   7.336  14.048  1.00  0.00    -0.029 C 
HETATM   23  C29 UNL     1      -3.485   8.035  12.882  1.00  0.00     0.016 C 
ENDROOT
BRANCH   1  24
HETATM   24  C6  UNL     1      -5.079   7.368  15.368  1.00  0.00    -0.011 C 
HETATM   25  C7  UNL     1      -5.805   8.485  14.612  1.00  0.00     0.010 C 
BRANCH  24  26
HETATM   26  C5  UNL     1      -5.435   5.982  14.755  1.00  0.00     0.040 C 
BRANCH  26  27
HETATM   27  C4  UNL     1      -6.914   5.577  14.858  1.00  0.00     0.141 C 
BRANCH  27  28
HETATM   28  C3  UNL     1      -7.268   4.497  13.867  1.00  0.00     0.009 C 
HETATM   29  C2  UNL     1      -6.468   3.781  13.044  1.00  0.00    -0.062 C 
HETATM   30  C1  UNL     1      -4.980   3.989  12.916  1.00  0.00     0.045 C 
BRANCH  29  31
HETATM   31  C30 UNL     1      -6.985   2.683  12.139  1.00  0.00     0.198 C 
BRANCH  31  32
HETATM   32  O3  UNL     1      -7.804   1.756  12.835  1.00  0.00    -0.397 OA
HETATM   33  H48 UNL     1      -8.596   2.248  13.113  1.00  0.00     0.209 HD
ENDBRANCH  31  32
ENDBRANCH  29  31
ENDBRANCH  27  28
BRANCH  27  34
HETATM   34  O1  UNL     1      -7.227   5.164  16.182  1.00  0.00    -0.392 OA
HETATM   35  H6  UNL     1      -8.097   4.729  16.139  1.00  0.00     0.210 HD
ENDBRANCH  27  34
ENDBRANCH  26  27
ENDBRANCH  24  26
ENDBRANCH   1  24
TORSDOF 7
ENDMDL
MODEL 7
REMARK minimizedAffinity -7.4802146
REMARK CNNscore 0.415273041
REMARK CNNaffinity 6.64147902
REMARK  7 active torsions:
REMARK  status: ('A' for Active; 'I' for Inactive)
REMARK    1  A    between atoms: C2_2  and  C30_32 
REMARK    2  A    between atoms: C3_3  and  C4_4 
REMARK    3  A    between atoms: C4_4  and  O1_5 
REMARK    4  A    between atoms: C4_4  and  C5_6 
REMARK    5  A    between atoms: C5_6  and  C6_7 
REMARK    6  A    between atoms: C6_7  and  C8_9 
REMARK    7  A    between atoms: C30_32  and  O3_33 
ROOT
HETATM    1  C8  UNL     1     -11.382 -14.160  25.757  1.00  0.00    -0.002 C 
HETATM    2  C9  UNL     1     -11.609 -13.478  24.370  1.00  0.00     0.007 C 
HETATM    3  C10 UNL     1     -12.298 -12.122  24.626  1.00  0.00     0.015 C 
HETATM    4  C11 UNL     1     -12.759 -12.196  26.092  1.00  0.00    -0.013 C 
HETATM    5  C12 UNL     1     -14.106 -13.003  26.082  1.00  0.00     0.021 C 
HETATM    6  C13 UNL     1     -13.075 -10.890  26.828  1.00  0.00    -0.070 C 
HETATM    7  C14 UNL     1     -13.741  -9.907  26.209  1.00  0.00    -0.022 C 
HETATM    8  C15 UNL     1     -14.339  -8.744  26.912  1.00  0.00     0.034 C 
HETATM    9  C16 UNL     1     -14.673  -9.016  28.407  1.00  0.00     0.013 C 
HETATM   10  C17 UNL     1     -15.296  -7.711  29.055  1.00  0.00     0.018 C 
HETATM   11  C18 UNL     1     -16.337  -7.052  28.113  1.00  0.00     0.023 C 
HETATM   12  C19 UNL     1     -16.045  -7.980  30.379  1.00  0.00     0.023 C 
HETATM   13  C20 UNL     1     -14.170  -6.701  29.325  1.00  0.00     0.135 C 
HETATM   14  O2  UNL     1     -14.312  -5.494  29.120  1.00  0.00    -0.297 OA
HETATM   15  C21 UNL     1     -12.897  -7.212  29.965  1.00  0.00     0.080 C 
HETATM   16  C22 UNL     1     -12.367  -8.469  29.288  1.00  0.00     0.017 C 
HETATM   17  C23 UNL     1     -13.414  -9.619  29.148  1.00  0.00    -0.031 C 
HETATM   18  C24 UNL     1     -13.756 -10.121  30.570  1.00  0.00     0.016 C 
HETATM   19  C25 UNL     1     -12.722 -10.813  28.316  1.00  0.00     0.024 C 
HETATM   20  C26 UNL     1     -12.777 -12.234  28.938  1.00  0.00     0.010 C 
HETATM   21  C27 UNL     1     -11.943 -13.316  28.197  1.00  0.00     0.011 C 
HETATM   22  C28 UNL     1     -11.555 -12.958  26.746  1.00  0.00    -0.029 C 
HETATM   23  C29 UNL     1     -10.216 -12.150  26.739  1.00  0.00     0.016 C 
ENDROOT
BRANCH   1  24
HETATM   24  C6  UNL     1     -10.082 -15.022  25.788  1.00  0.00    -0.011 C 
HETATM   25  C7  UNL     1     -10.164 -16.214  24.828  1.00  0.00     0.010 C 
BRANCH  24  26
HETATM   26  C5  UNL     1      -8.849 -14.137  25.443  1.00  0.00     0.040 C 
BRANCH  26  27
HETATM   27  C4  UNL     1      -8.178 -14.438  24.094  1.00  0.00     0.141 C 
BRANCH  27  28
HETATM   28  C3  UNL     1      -8.486 -13.376  23.068  1.00  0.00     0.009 C 
HETATM   29  C2  UNL     1      -8.201 -12.054  23.077  1.00  0.00    -0.062 C 
HETATM   30  C1  UNL     1      -7.530 -11.340  24.223  1.00  0.00     0.045 C 
BRANCH  29  31
HETATM   31  C30 UNL     1      -8.538 -11.128  21.927  1.00  0.00     0.198 C 
BRANCH  31  32
HETATM   32  O3  UNL     1      -7.392 -10.781  21.165  1.00  0.00    -0.397 OA
HETATM   33  H48 UNL     1      -7.085 -11.603  20.747  1.00  0.00     0.209 HD
ENDBRANCH  31  32
ENDBRANCH  29  31
ENDBRANCH  27  28
BRANCH  27  34
HETATM   34  O1  UNL     1      -6.774 -14.585  24.256  1.00  0.00    -0.392 OA
HETATM   35  H6  UNL     1      -6.387 -14.564  23.364  1.00  0.00     0.210 HD
ENDBRANCH  27  34
ENDBRANCH  26  27
ENDBRANCH  24  26
ENDBRANCH   1  24
TORSDOF 7
ENDMDL
MODEL 8
REMARK minimizedAffinity -8.53555107
REMARK CNNscore 0.407877654
REMARK CNNaffinity 6.67803812
REMARK  7 active torsions:
REMARK  status: ('A' for Active; 'I' for Inactive)
REMARK    1  A    between atoms: C2_2  and  C30_32 
REMARK    2  A    between atoms: C3_3  and  C4_4 
REMARK    3  A    between atoms: C4_4  and  O1_5 
REMARK    4  A    between atoms: C4_4  and  C5_6 
REMARK    5  A    between atoms: C5_6  and  C6_7 
REMARK    6  A    between atoms: C6_7  and  C8_9 
REMARK    7  A    between atoms: C30_32  and  O3_33 
ROOT
HETATM    1  C8  UNL     1      -2.566   5.531  13.211  1.00  0.00    -0.002 C 
HETATM    2  C9  UNL     1      -4.039   6.008  13.009  1.00  0.00     0.007 C 
HETATM    3  C10 UNL     1      -4.212   7.328  13.789  1.00  0.00     0.015 C 
HETATM    4  C11 UNL     1      -2.966   7.408  14.689  1.00  0.00    -0.013 C 
HETATM    5  C12 UNL     1      -3.273   6.504  15.934  1.00  0.00     0.021 C 
HETATM    6  C13 UNL     1      -2.566   8.770  15.265  1.00  0.00    -0.070 C 
HETATM    7  C14 UNL     1      -3.498   9.609  15.733  1.00  0.00    -0.022 C 
HETATM    8  C15 UNL     1      -3.195  10.803  16.562  1.00  0.00     0.034 C 
HETATM    9  C16 UNL     1      -1.854  10.701  17.344  1.00  0.00     0.013 C 
HETATM   10  C17 UNL     1      -1.630  12.027  18.184  1.00  0.00     0.018 C 
HETATM   11  C18 UNL     1      -2.934  12.474  18.893  1.00  0.00     0.023 C 
HETATM   12  C19 UNL     1      -0.578  11.873  19.305  1.00  0.00     0.023 C 
HETATM   13  C20 UNL     1      -1.177  13.148  17.236  1.00  0.00     0.135 C 
HETATM   14  O2  UNL     1      -1.592  14.304  17.346  1.00  0.00    -0.297 OA
HETATM   15  C21 UNL     1      -0.107  12.826  16.215  1.00  0.00     0.080 C 
HETATM   16  C22 UNL     1      -0.394  11.538  15.456  1.00  0.00     0.017 C 
HETATM   17  C23 UNL     1      -0.679  10.300  16.365  1.00  0.00    -0.031 C 
HETATM   18  C24 UNL     1       0.625   9.961  17.124  1.00  0.00     0.016 C 
HETATM   19  C25 UNL     1      -1.070   9.066  15.405  1.00  0.00     0.024 C 
HETATM   20  C26 UNL     1      -0.293   7.738  15.607  1.00  0.00     0.010 C 
HETATM   21  C27 UNL     1      -0.572   6.638  14.545  1.00  0.00     0.011 C 
HETATM   22  C28 UNL     1      -1.867   6.834  13.730  1.00  0.00    -0.029 C 
HETATM   23  C29 UNL     1      -1.579   7.737  12.485  1.00  0.00     0.016 C 
ENDROOT
BRANCH   1  24
HETATM   24  C6  UNL     1      -2.007   4.786  11.960  1.00  0.00    -0.011 C 
HETATM   25  C7  UNL     1      -0.479   4.876  11.877  1.00  0.00     0.010 C 
BRANCH  24  26
HETATM   26  C5  UNL     1      -2.458   3.296  11.982  1.00  0.00     0.040 C 
BRANCH  26  27
HETATM   27  C4  UNL     1      -3.589   2.935  11.007  1.00  0.00     0.141 C 
BRANCH  27  28
HETATM   28  C3  UNL     1      -4.946   3.259  11.581  1.00  0.00     0.009 C 
HETATM   29  C2  UNL     1      -6.038   2.474  11.718  1.00  0.00    -0.062 C 
HETATM   30  C1  UNL     1      -6.124   1.049  11.231  1.00  0.00     0.045 C 
BRANCH  29  31
HETATM   31  C30 UNL     1      -7.319   2.947  12.372  1.00  0.00     0.198 C 
BRANCH  31  32
HETATM   32  O3  UNL     1      -8.183   1.869  12.700  1.00  0.00    -0.397 OA
HETATM   33  H48 UNL     1      -7.725   1.352  13.385  1.00  0.00     0.209 HD
ENDBRANCH  31  32
ENDBRANCH  29  31
ENDBRANCH  27  28
BRANCH  27  34
HETATM   34  O1  UNL     1      -3.403   3.592   9.761  1.00  0.00    -0.392 OA
HETATM   35  H6  UNL     1      -4.237   3.498   9.269  1.00  0.00     0.210 HD
ENDBRANCH  27  34
ENDBRANCH  26  27
ENDBRANCH  24  26
ENDBRANCH   1  24
TORSDOF 7
ENDMDL
MODEL 9
REMARK minimizedAffinity -8.49109364
REMARK CNNscore 0.355163544
REMARK CNNaffinity 6.60501623
REMARK  7 active torsions:
REMARK  status: ('A' for Active; 'I' for Inactive)
REMARK    1  A    between atoms: C2_2  and  C30_32 
REMARK    2  A    between atoms: C3_3  and  C4_4 
REMARK    3  A    between atoms: C4_4  and  O1_5 
REMARK    4  A    between atoms: C4_4  and  C5_6 
REMARK    5  A    between atoms: C5_6  and  C6_7 
REMARK    6  A    between atoms: C6_7  and  C8_9 
REMARK    7  A    between atoms: C30_32  and  O3_33 
ROOT
HETATM    1  C8  UNL     1      -1.360   5.822  11.753  1.00  0.00    -0.002 C 
HETATM    2  C9  UNL     1       0.165   6.155  11.701  1.00  0.00     0.007 C 
HETATM    3  C10 UNL     1       0.412   7.352  12.642  1.00  0.00     0.015 C 
HETATM    4  C11 UNL     1      -0.994   7.897  12.947  1.00  0.00    -0.013 C 
HETATM    5  C12 UNL     1      -1.385   8.798  11.724  1.00  0.00     0.021 C 
HETATM    6  C13 UNL     1      -1.184   8.785  14.182  1.00  0.00    -0.070 C 
HETATM    7  C14 UNL     1      -0.276   9.720  14.491  1.00  0.00    -0.022 C 
HETATM    8  C15 UNL     1      -0.510  10.804  15.478  1.00  0.00     0.034 C 
HETATM    9  C16 UNL     1      -2.010  11.156  15.682  1.00  0.00     0.013 C 
HETATM   10  C17 UNL     1      -2.140  12.314  16.757  1.00  0.00     0.018 C 
HETATM   11  C18 UNL     1      -1.085  13.426  16.520  1.00  0.00     0.023 C 
HETATM   12  C19 UNL     1      -3.510  13.028  16.729  1.00  0.00     0.023 C 
HETATM   13  C20 UNL     1      -1.924  11.722  18.158  1.00  0.00     0.135 C 
HETATM   14  O2  UNL     1      -1.276  12.313  19.024  1.00  0.00    -0.297 OA
HETATM   15  C21 UNL     1      -2.628  10.426  18.497  1.00  0.00     0.080 C 
HETATM   16  C22 UNL     1      -2.459   9.368  17.414  1.00  0.00     0.017 C 
HETATM   17  C23 UNL     1      -2.845   9.846  15.978  1.00  0.00    -0.031 C 
HETATM   18  C24 UNL     1      -4.369  10.107  15.960  1.00  0.00     0.016 C 
HETATM   19  C25 UNL     1      -2.499   8.651  14.954  1.00  0.00     0.024 C 
HETATM   20  C26 UNL     1      -3.626   8.198  13.988  1.00  0.00     0.010 C 
HETATM   21  C27 UNL     1      -3.311   6.927  13.150  1.00  0.00     0.011 C 
HETATM   22  C28 UNL     1      -1.814   6.565  13.056  1.00  0.00    -0.029 C 
HETATM   23  C29 UNL     1      -1.407   5.668  14.271  1.00  0.00     0.016 C 
ENDROOT
BRANCH   1  24
HETATM   24  C6  UNL     1      -1.639   4.296  11.582  1.00  0.00    -0.011 C 
HETATM   25  C7  UNL     1      -0.379   3.456  11.817  1.00  0.00     0.010 C 
BRANCH  24  26
HETATM   26  C5  UNL     1      -2.773   3.850  12.551  1.00  0.00     0.040 C 
BRANCH  26  27
HETATM   27  C4  UNL     1      -3.999   3.212  11.881  1.00  0.00     0.141 C 
BRANCH  27  28
HETATM   28  C3  UNL     1      -5.271   3.944  12.230  1.00  0.00     0.009 C 
HETATM   29  C2  UNL     1      -6.525   3.468  12.403  1.00  0.00    -0.062 C 
HETATM   30  C1  UNL     1      -6.918   2.025  12.206  1.00  0.00     0.045 C 
BRANCH  29  31
HETATM   31  C30 UNL     1      -7.692   4.342  12.809  1.00  0.00     0.198 C 
BRANCH  31  32
HETATM   32  O3  UNL     1      -8.140   4.061  14.127  1.00  0.00    -0.397 OA
HETATM   33  H48 UNL     1      -7.414   4.316  14.721  1.00  0.00     0.209 HD
ENDBRANCH  31  32
ENDBRANCH  29  31
ENDBRANCH  27  28
BRANCH  27  34
HETATM   34  O1  UNL     1      -3.825   3.154  10.471  1.00  0.00    -0.392 OA
HETATM   35  H6  UNL     1      -4.695   2.942  10.092  1.00  0.00     0.210 HD
ENDBRANCH  27  34
ENDBRANCH  26  27
ENDBRANCH  24  26
ENDBRANCH   1  24
TORSDOF 7
ENDMDL
