MODEL 1
REMARK minimizedAffinity -7.4140954
REMARK CNNscore 0.81885767
REMARK CNNaffinity 6.51218224
REMARK  6 active torsions:
REMARK  status: ('A' for Active; 'I' for Inactive)
REMARK    1  A    between atoms: C4_4  and  C5_5 
REMARK    2  A    between atoms: C5_5  and  O1_6 
REMARK    3  A    between atoms: C5_5  and  C6_7 
REMARK    4  A    between atoms: C6_7  and  O2_10 
REMARK    5  A    between atoms: C29_33  and  O5_34 
REMARK    6  A    between atoms: C30_35  and  O6_36 
ROOT
HETATM    1  C1  UNL     1      -3.689  11.859  18.825  1.00  0.00     0.013 C 
HETATM    2  C2  UNL     1      -3.141  12.481  17.544  1.00  0.00     0.024 C 
HETATM    3  C3  UNL     1      -3.859  11.883  16.287  1.00  0.00     0.042 C 
HETATM    4  C4  UNL     1      -3.261  10.580  15.682  1.00  0.00     0.154 C 
HETATM    5  O3  UNL     1      -1.791  10.527  15.728  1.00  0.00    -0.375 OA
HETATM    6  C9  UNL     1      -1.303  10.885  17.008  1.00  0.00     0.160 C 
HETATM    7  C10 UNL     1       0.215  10.786  17.243  1.00  0.00     0.048 C 
HETATM    8  C11 UNL     1       0.370  11.578  18.581  1.00  0.00     0.000 C 
HETATM    9  C12 UNL     1      -0.329  10.709  19.696  1.00  0.00     0.019 C 
HETATM   10  C13 UNL     1       1.846  11.983  19.075  1.00  0.00    -0.029 C 
HETATM   11  C14 UNL     1       2.695  12.610  17.932  1.00  0.00     0.016 C 
HETATM   12  C15 UNL     1       2.612  10.738  19.597  1.00  0.00     0.011 C 
HETATM   13  C16 UNL     1       3.973  11.070  20.207  1.00  0.00     0.007 C 
HETATM   14  C17 UNL     1       3.949  12.131  21.336  1.00  0.00     0.009 C 
HETATM   15  C18 UNL     1       5.424  12.503  21.805  1.00  0.00     0.017 C 
HETATM   16  C19 UNL     1       6.537  12.242  20.767  1.00  0.00     0.023 C 
HETATM   17  C20 UNL     1       5.750  11.662  23.059  1.00  0.00     0.023 C 
HETATM   18  C21 UNL     1       5.575  13.990  22.155  1.00  0.00     0.135 C 
HETATM   19  O4  UNL     1       6.251  14.367  23.118  1.00  0.00    -0.297 OA
HETATM   20  C22 UNL     1       4.974  15.017  21.218  1.00  0.00     0.080 C 
HETATM   21  C23 UNL     1       3.842  14.463  20.358  1.00  0.00     0.017 C 
HETATM   22  C24 UNL     1       3.016  13.373  21.072  1.00  0.00    -0.035 C 
HETATM   23  C25 UNL     1       2.553  13.936  22.464  1.00  0.00     0.016 C 
HETATM   24  C26 UNL     1       1.687  12.961  20.312  1.00  0.00     0.003 C 
HETATM   25  C27 UNL     1       0.684  14.135  20.053  1.00  0.00     0.009 C 
HETATM   26  C28 UNL     1      -0.695  13.697  19.473  1.00  0.00     0.042 C 
HETATM   27  C29 UNL     1      -0.481  12.853  18.230  1.00  0.00     0.100 C 
HETATM   28  C30 UNL     1      -1.639  12.363  17.291  1.00  0.00     0.119 C 
ENDROOT
BRANCH   4  29
HETATM   29  C5  UNL     1      -3.817   9.228  16.225  1.00  0.00     0.180 C 
BRANCH  29  30
HETATM   30  O1  UNL     1      -2.667   8.455  16.642  1.00  0.00    -0.390 OA
HETATM   31  H9  UNL     1      -1.966   9.109  16.870  1.00  0.00     0.210 HD
ENDBRANCH  29  30
BRANCH  29  32
HETATM   32  C6  UNL     1      -4.691   8.383  15.234  1.00  0.00     0.079 C 
HETATM   33  C7  UNL     1      -6.163   8.823  15.253  1.00  0.00     0.048 C 
HETATM   34  C8  UNL     1      -4.191   8.502  13.786  1.00  0.00     0.048 C 
BRANCH  32  35
HETATM   35  O2  UNL     1      -4.689   7.005  15.633  1.00  0.00    -0.388 OA
HETATM   36  H16 UNL     1      -4.463   6.441  14.869  1.00  0.00     0.210 HD
ENDBRANCH  32  35
ENDBRANCH  29  32
ENDBRANCH   4  29
BRANCH  28  37
HETATM   37  O6  UNL     1      -1.477  13.131  16.038  1.00  0.00    -0.384 OA
HETATM   38  H50 UNL     1      -0.780  12.659  15.528  1.00  0.00     0.210 HD
ENDBRANCH  28  37
BRANCH  27  39
HETATM   39  O5  UNL     1       0.312  13.716  17.372  1.00  0.00    -0.386 OA
HETATM   40  H49 UNL     1      -0.339  14.215  16.828  1.00  0.00     0.210 HD
ENDBRANCH  27  39
TORSDOF 6
ENDMDL
MODEL 2
REMARK minimizedAffinity -7.5709343
REMARK CNNscore 0.553370357
REMARK CNNaffinity 6.3100419
REMARK  6 active torsions:
REMARK  status: ('A' for Active; 'I' for Inactive)
REMARK    1  A    between atoms: C4_4  and  C5_5 
REMARK    2  A    between atoms: C5_5  and  O1_6 
REMARK    3  A    between atoms: C5_5  and  C6_7 
REMARK    4  A    between atoms: C6_7  and  O2_10 
REMARK    5  A    between atoms: C29_33  and  O5_34 
REMARK    6  A    between atoms: C30_35  and  O6_36 
ROOT
HETATM    1  C1  UNL     1      -4.395   8.687  12.808  1.00  0.00     0.013 C 
HETATM    2  C2  UNL     1      -3.265   7.726  13.165  1.00  0.00     0.024 C 
HETATM    3  C3  UNL     1      -3.793   6.253  13.238  1.00  0.00     0.042 C 
HETATM    4  C4  UNL     1      -4.371   5.774  14.601  1.00  0.00     0.154 C 
HETATM    5  O3  UNL     1      -3.652   6.310  15.768  1.00  0.00    -0.375 OA
HETATM    6  C9  UNL     1      -3.445   7.705  15.650  1.00  0.00     0.160 C 
HETATM    7  C10 UNL     1      -2.790   8.429  16.839  1.00  0.00     0.048 C 
HETATM    8  C11 UNL     1      -2.422   9.805  16.195  1.00  0.00     0.000 C 
HETATM    9  C12 UNL     1      -3.787  10.538  15.902  1.00  0.00     0.019 C 
HETATM   10  C13 UNL     1      -1.449  10.802  16.999  1.00  0.00    -0.029 C 
HETATM   11  C14 UNL     1      -0.193  10.072  17.555  1.00  0.00     0.016 C 
HETATM   12  C15 UNL     1      -2.191  11.441  18.203  1.00  0.00     0.011 C 
HETATM   13  C16 UNL     1      -1.368  12.502  18.934  1.00  0.00     0.007 C 
HETATM   14  C17 UNL     1      -0.823  13.645  18.040  1.00  0.00     0.009 C 
HETATM   15  C18 UNL     1       0.130  14.615  18.868  1.00  0.00     0.017 C 
HETATM   16  C19 UNL     1       0.780  13.995  20.125  1.00  0.00     0.023 C 
HETATM   17  C20 UNL     1      -0.710  15.827  19.327  1.00  0.00     0.023 C 
HETATM   18  C21 UNL     1       1.318  15.124  18.040  1.00  0.00     0.135 C 
HETATM   19  O4  UNL     1       1.723  16.288  18.129  1.00  0.00    -0.297 OA
HETATM   20  C22 UNL     1       2.080  14.132  17.186  1.00  0.00     0.080 C 
HETATM   21  C23 UNL     1       1.266  12.896  16.820  1.00  0.00     0.017 C 
HETATM   22  C24 UNL     1      -0.239  13.190  16.648  1.00  0.00    -0.035 C 
HETATM   23  C25 UNL     1      -0.397  14.388  15.643  1.00  0.00     0.016 C 
HETATM   24  C26 UNL     1      -1.070  11.993  16.024  1.00  0.00     0.003 C 
HETATM   25  C27 UNL     1      -0.581  11.513  14.616  1.00  0.00     0.009 C 
HETATM   26  C28 UNL     1      -1.506  10.466  13.927  1.00  0.00     0.042 C 
HETATM   27  C29 UNL     1      -1.747   9.300  14.868  1.00  0.00     0.100 C 
HETATM   28  C30 UNL     1      -2.502   7.986  14.463  1.00  0.00     0.119 C 
ENDROOT
BRANCH   4  29
HETATM   29  C5  UNL     1      -5.900   5.977  14.831  1.00  0.00     0.180 C 
BRANCH  29  30
HETATM   30  O1  UNL     1      -6.116   5.845  16.256  1.00  0.00    -0.390 OA
HETATM   31  H9  UNL     1      -5.266   6.096  16.686  1.00  0.00     0.210 HD
ENDBRANCH  29  30
BRANCH  29  32
HETATM   32  C6  UNL     1      -6.858   5.006  14.059  1.00  0.00     0.079 C 
HETATM   33  C7  UNL     1      -7.770   5.762  13.080  1.00  0.00     0.048 C 
HETATM   34  C8  UNL     1      -6.079   3.959  13.248  1.00  0.00     0.048 C 
BRANCH  32  35
HETATM   35  O2  UNL     1      -7.735   4.346  14.983  1.00  0.00    -0.388 OA
HETATM   36  H16 UNL     1      -7.714   3.382  14.827  1.00  0.00     0.210 HD
ENDBRANCH  32  35
ENDBRANCH  29  32
ENDBRANCH   4  29
BRANCH  28  37
HETATM   37  O6  UNL     1      -1.465   6.934  14.426  1.00  0.00    -0.384 OA
HETATM   38  H50 UNL     1      -1.345   6.650  15.361  1.00  0.00     0.210 HD
ENDBRANCH  28  37
BRANCH  27  39
HETATM   39  O5  UNL     1      -0.405   8.839  15.179  1.00  0.00    -0.386 OA
HETATM   40  H49 UNL     1      -0.200   8.153  14.504  1.00  0.00     0.210 HD
ENDBRANCH  27  39
TORSDOF 6
ENDMDL
MODEL 3
REMARK minimizedAffinity -10.2515717
REMARK CNNscore 0.493213803
REMARK CNNaffinity 6.55596924
REMARK  6 active torsions:
REMARK  status: ('A' for Active; 'I' for Inactive)
REMARK    1  A    between atoms: C4_4  and  C5_5 
REMARK    2  A    between atoms: C5_5  and  O1_6 
REMARK    3  A    between atoms: C5_5  and  C6_7 
REMARK    4  A    between atoms: C6_7  and  O2_10 
REMARK    5  A    between atoms: C29_33  and  O5_34 
REMARK    6  A    between atoms: C30_35  and  O6_36 
ROOT
HETATM    1  C1  UNL     1       0.865  10.358  13.904  1.00  0.00     0.013 C 
HETATM    2  C2  UNL     1       1.252   9.312  14.946  1.00  0.00     0.024 C 
HETATM    3  C3  UNL     1       2.760   8.917  14.799  1.00  0.00     0.042 C 
HETATM    4  C4  UNL     1       3.099   7.769  13.804  1.00  0.00     0.154 C 
HETATM    5  O3  UNL     1       2.096   6.692  13.781  1.00  0.00    -0.375 OA
HETATM    6  C9  UNL     1       0.783   7.213  13.688  1.00  0.00     0.160 C 
HETATM    7  C10 UNL     1      -0.372   6.205  13.557  1.00  0.00     0.048 C 
HETATM    8  C11 UNL     1      -1.608   7.118  13.841  1.00  0.00     0.000 C 
HETATM    9  C12 UNL     1      -1.719   8.111  12.620  1.00  0.00     0.019 C 
HETATM   10  C13 UNL     1      -3.040   6.429  14.092  1.00  0.00    -0.029 C 
HETATM   11  C14 UNL     1      -2.952   5.248  15.100  1.00  0.00     0.016 C 
HETATM   12  C15 UNL     1      -3.620   5.870  12.766  1.00  0.00     0.011 C 
HETATM   13  C16 UNL     1      -5.040   5.320  12.905  1.00  0.00     0.007 C 
HETATM   14  C17 UNL     1      -6.073   6.305  13.508  1.00  0.00     0.009 C 
HETATM   15  C18 UNL     1      -7.478   5.593  13.737  1.00  0.00     0.017 C 
HETATM   16  C19 UNL     1      -7.428   4.056  13.884  1.00  0.00     0.023 C 
HETATM   17  C20 UNL     1      -8.378   5.916  12.525  1.00  0.00     0.023 C 
HETATM   18  C21 UNL     1      -8.181   6.071  15.015  1.00  0.00     0.135 C 
HETATM   19  O4  UNL     1      -9.402   6.260  15.055  1.00  0.00    -0.297 OA
HETATM   20  C22 UNL     1      -7.365   6.195  16.285  1.00  0.00     0.080 C 
HETATM   21  C23 UNL     1      -5.872   6.364  16.031  1.00  0.00     0.017 C 
HETATM   22  C24 UNL     1      -5.561   7.148  14.738  1.00  0.00    -0.035 C 
HETATM   23  C25 UNL     1      -6.367   8.496  14.770  1.00  0.00     0.016 C 
HETATM   24  C26 UNL     1      -4.039   7.560  14.577  1.00  0.00     0.003 C 
HETATM   25  C27 UNL     1      -3.467   8.440  15.738  1.00  0.00     0.009 C 
HETATM   26  C28 UNL     1      -2.033   8.996  15.489  1.00  0.00     0.042 C 
HETATM   27  C29 UNL     1      -1.098   7.854  15.133  1.00  0.00     0.100 C 
HETATM   28  C30 UNL     1       0.455   8.009  14.966  1.00  0.00     0.119 C 
ENDROOT
BRANCH   4  29
HETATM   29  C5  UNL     1       3.412   8.180  12.332  1.00  0.00     0.180 C 
BRANCH  29  30
HETATM   30  O1  UNL     1       2.153   8.129  11.621  1.00  0.00    -0.390 OA
HETATM   31  H9  UNL     1       1.452   8.281  12.296  1.00  0.00     0.210 HD
ENDBRANCH  29  30
BRANCH  29  32
HETATM   32  C6  UNL     1       4.481   7.316  11.577  1.00  0.00     0.079 C 
HETATM   33  C7  UNL     1       3.828   6.218  10.723  1.00  0.00     0.048 C 
HETATM   34  C8  UNL     1       5.351   8.170  10.643  1.00  0.00     0.048 C 
BRANCH  32  35
HETATM   35  O2  UNL     1       5.315   6.633  12.523  1.00  0.00    -0.388 OA
HETATM   36  H16 UNL     1       6.255   6.786  12.305  1.00  0.00     0.210 HD
ENDBRANCH  32  35
ENDBRANCH  29  32
ENDBRANCH   4  29
BRANCH  28  37
HETATM   37  O6  UNL     1       1.045   7.306  16.125  1.00  0.00    -0.384 OA
HETATM   38  H50 UNL     1       1.052   6.354  15.878  1.00  0.00     0.210 HD
ENDBRANCH  28  37
BRANCH  27  39
HETATM   39  O5  UNL     1      -1.230   6.950  16.262  1.00  0.00    -0.386 OA
HETATM   40  H49 UNL     1      -0.531   7.222  16.900  1.00  0.00     0.210 HD
ENDBRANCH  27  39
TORSDOF 6
ENDMDL
MODEL 4
REMARK minimizedAffinity -7.42931366
REMARK CNNscore 0.487045854
REMARK CNNaffinity 5.42455673
REMARK  6 active torsions:
REMARK  status: ('A' for Active; 'I' for Inactive)
REMARK    1  A    between atoms: C4_4  and  C5_5 
REMARK    2  A    between atoms: C5_5  and  O1_6 
REMARK    3  A    between atoms: C5_5  and  C6_7 
REMARK    4  A    between atoms: C6_7  and  O2_10 
REMARK    5  A    between atoms: C29_33  and  O5_34 
REMARK    6  A    between atoms: C30_35  and  O6_36 
ROOT
HETATM    1  C1  UNL     1     -16.744  -4.532  13.445  1.00  0.00     0.013 C 
HETATM    2  C2  UNL     1     -15.439  -4.382  14.223  1.00  0.00     0.024 C 
HETATM    3  C3  UNL     1     -15.114  -5.692  15.018  1.00  0.00     0.042 C 
HETATM    4  C4  UNL     1     -15.724  -5.827  16.443  1.00  0.00     0.154 C 
HETATM    5  O3  UNL     1     -15.768  -4.559  17.189  1.00  0.00    -0.375 OA
HETATM    6  C9  UNL     1     -16.297  -3.513  16.396  1.00  0.00     0.160 C 
HETATM    7  C10 UNL     1     -16.496  -2.143  17.068  1.00  0.00     0.048 C 
HETATM    8  C11 UNL     1     -16.733  -1.224  15.827  1.00  0.00     0.000 C 
HETATM    9  C12 UNL     1     -18.125  -1.648  15.218  1.00  0.00     0.019 C 
HETATM   10  C13 UNL     1     -16.709   0.372  16.028  1.00  0.00    -0.029 C 
HETATM   11  C14 UNL     1     -15.483   0.838  16.864  1.00  0.00     0.016 C 
HETATM   12  C15 UNL     1     -17.987   0.853  16.764  1.00  0.00     0.011 C 
HETATM   13  C16 UNL     1     -18.095   2.374  16.870  1.00  0.00     0.007 C 
HETATM   14  C17 UNL     1     -17.995   3.137  15.526  1.00  0.00     0.009 C 
HETATM   15  C18 UNL     1     -17.980   4.712  15.760  1.00  0.00     0.017 C 
HETATM   16  C19 UNL     1     -17.501   5.171  17.156  1.00  0.00     0.023 C 
HETATM   17  C20 UNL     1     -19.420   5.236  15.567  1.00  0.00     0.023 C 
HETATM   18  C21 UNL     1     -17.052   5.446  14.782  1.00  0.00     0.135 C 
HETATM   19  O4  UNL     1     -17.362   6.533  14.283  1.00  0.00    -0.297 OA
HETATM   20  C22 UNL     1     -15.675   4.872  14.525  1.00  0.00     0.080 C 
HETATM   21  C23 UNL     1     -15.575   3.380  14.822  1.00  0.00     0.017 C 
HETATM   22  C24 UNL     1     -16.885   2.615  14.536  1.00  0.00    -0.035 C 
HETATM   23  C25 UNL     1     -17.345   2.952  13.071  1.00  0.00     0.016 C 
HETATM   24  C26 UNL     1     -16.743   1.037  14.589  1.00  0.00     0.003 C 
HETATM   25  C27 UNL     1     -15.690   0.435  13.599  1.00  0.00     0.009 C 
HETATM   26  C28 UNL     1     -15.684  -1.121  13.522  1.00  0.00     0.042 C 
HETATM   27  C29 UNL     1     -15.542  -1.700  14.918  1.00  0.00     0.100 C 
HETATM   28  C30 UNL     1     -15.343  -3.227  15.219  1.00  0.00     0.119 C 
ENDROOT
BRANCH   4  29
HETATM   29  C5  UNL     1     -17.123  -6.509  16.552  1.00  0.00     0.180 C 
BRANCH  29  30
HETATM   30  O1  UNL     1     -18.055  -5.628  15.882  1.00  0.00    -0.390 OA
HETATM   31  H9  UNL     1     -17.529  -5.127  15.217  1.00  0.00     0.210 HD
ENDBRANCH  29  30
BRANCH  29  32
HETATM   32  C6  UNL     1     -17.637  -6.822  17.999  1.00  0.00     0.079 C 
HETATM   33  C7  UNL     1     -18.749  -5.854  18.432  1.00  0.00     0.048 C 
HETATM   34  C8  UNL     1     -18.199  -8.248  18.110  1.00  0.00     0.048 C 
BRANCH  32  35
HETATM   35  O2  UNL     1     -16.573  -6.648  18.945  1.00  0.00    -0.388 OA
HETATM   36  H16 UNL     1     -16.505  -7.438  19.514  1.00  0.00     0.210 HD
ENDBRANCH  32  35
ENDBRANCH  29  32
ENDBRANCH   4  29
BRANCH  28  37
HETATM   37  O6  UNL     1     -13.950  -3.352  15.700  1.00  0.00    -0.384 OA
HETATM   38  H50 UNL     1     -13.979  -3.105  16.652  1.00  0.00     0.210 HD
ENDBRANCH  28  37
BRANCH  27  39
HETATM   39  O5  UNL     1     -14.316  -1.094  15.408  1.00  0.00    -0.386 OA
HETATM   40  H49 UNL     1     -13.596  -1.718  15.158  1.00  0.00     0.210 HD
ENDBRANCH  27  39
TORSDOF 6
ENDMDL
MODEL 5
REMARK minimizedAffinity -7.35568857
REMARK CNNscore 0.482732564
REMARK CNNaffinity 5.07530785
REMARK  6 active torsions:
REMARK  status: ('A' for Active; 'I' for Inactive)
REMARK    1  A    between atoms: C4_4  and  C5_5 
REMARK    2  A    between atoms: C5_5  and  O1_6 
REMARK    3  A    between atoms: C5_5  and  C6_7 
REMARK    4  A    between atoms: C6_7  and  O2_10 
REMARK    5  A    between atoms: C29_33  and  O5_34 
REMARK    6  A    between atoms: C30_35  and  O6_36 
ROOT
HETATM    1  C1  UNL     1     -13.474  -5.367  12.196  1.00  0.00     0.013 C 
HETATM    2  C2  UNL     1     -14.937  -5.801  12.250  1.00  0.00     0.024 C 
HETATM    3  C3  UNL     1     -15.251  -6.831  11.112  1.00  0.00     0.042 C 
HETATM    4  C4  UNL     1     -15.675  -6.254   9.731  1.00  0.00     0.154 C 
HETATM    5  O3  UNL     1     -16.516  -5.050   9.826  1.00  0.00    -0.375 OA
HETATM    6  C9  UNL     1     -15.974  -4.114  10.738  1.00  0.00     0.160 C 
HETATM    7  C10 UNL     1     -16.692  -2.759  10.876  1.00  0.00     0.048 C 
HETATM    8  C11 UNL     1     -16.033  -2.195  12.176  1.00  0.00     0.000 C 
HETATM    9  C12 UNL     1     -14.529  -1.887  11.816  1.00  0.00     0.019 C 
HETATM   10  C13 UNL     1     -16.684  -0.900  12.875  1.00  0.00    -0.029 C 
HETATM   11  C14 UNL     1     -18.227  -1.027  13.019  1.00  0.00     0.016 C 
HETATM   12  C15 UNL     1     -16.395   0.377  12.043  1.00  0.00     0.011 C 
HETATM   13  C16 UNL     1     -16.868   1.665  12.718  1.00  0.00     0.007 C 
HETATM   14  C17 UNL     1     -16.334   1.892  14.154  1.00  0.00     0.009 C 
HETATM   15  C18 UNL     1     -16.993   3.182  14.814  1.00  0.00     0.017 C 
HETATM   16  C19 UNL     1     -18.358   3.606  14.226  1.00  0.00     0.023 C 
HETATM   17  C20 UNL     1     -16.017   4.364  14.624  1.00  0.00     0.023 C 
HETATM   18  C21 UNL     1     -17.267   3.005  16.314  1.00  0.00     0.135 C 
HETATM   19  O4  UNL     1     -17.078   3.920  17.123  1.00  0.00    -0.297 OA
HETATM   20  C22 UNL     1     -17.898   1.711  16.785  1.00  0.00     0.080 C 
HETATM   21  C23 UNL     1     -17.682   0.547  15.824  1.00  0.00     0.017 C 
HETATM   22  C24 UNL     1     -16.331   0.616  15.081  1.00  0.00    -0.035 C 
HETATM   23  C25 UNL     1     -15.189   0.794  16.146  1.00  0.00     0.016 C 
HETATM   24  C26 UNL     1     -15.964  -0.697  14.273  1.00  0.00     0.003 C 
HETATM   25  C27 UNL     1     -15.895  -2.004  15.133  1.00  0.00     0.009 C 
HETATM   26  C28 UNL     1     -15.357  -3.254  14.376  1.00  0.00     0.042 C 
HETATM   27  C29 UNL     1     -16.153  -3.461  13.101  1.00  0.00     0.100 C 
HETATM   28  C30 UNL     1     -15.999  -4.708  12.161  1.00  0.00     0.119 C 
ENDROOT
BRANCH   4  29
HETATM   29  C5  UNL     1     -14.536  -5.976   8.701  1.00  0.00     0.180 C 
BRANCH  29  30
HETATM   30  O1  UNL     1     -13.936  -4.719   9.093  1.00  0.00    -0.390 OA
HETATM   31  H9  UNL     1     -14.092  -4.631  10.061  1.00  0.00     0.210 HD
ENDBRANCH  29  30
BRANCH  29  32
HETATM   32  C6  UNL     1     -14.957  -5.913   7.193  1.00  0.00     0.079 C 
HETATM   33  C7  UNL     1     -16.262  -6.681   6.931  1.00  0.00     0.048 C 
HETATM   34  C8  UNL     1     -15.169  -4.468   6.717  1.00  0.00     0.048 C 
BRANCH  32  35
HETATM   35  O2  UNL     1     -13.959  -6.547   6.380  1.00  0.00    -0.388 OA
HETATM   36  H16 UNL     1     -13.705  -5.954   5.647  1.00  0.00     0.210 HD
ENDBRANCH  32  35
ENDBRANCH  29  32
ENDBRANCH   4  29
BRANCH  28  37
HETATM   37  O6  UNL     1     -17.249  -5.479  12.327  1.00  0.00    -0.384 OA
HETATM   38  H50 UNL     1     -17.908  -5.042  11.741  1.00  0.00     0.210 HD
ENDBRANCH  28  37
BRANCH  27  39
HETATM   39  O5  UNL     1     -17.523  -3.559  13.574  1.00  0.00    -0.386 OA
HETATM   40  H49 UNL     1     -17.677  -4.517  13.735  1.00  0.00     0.210 HD
ENDBRANCH  27  39
TORSDOF 6
ENDMDL
MODEL 6
REMARK minimizedAffinity -9.19137478
REMARK CNNscore 0.479157299
REMARK CNNaffinity 6.87039375
REMARK  6 active torsions:
REMARK  status: ('A' for Active; 'I' for Inactive)
REMARK    1  A    between atoms: C4_4  and  C5_5 
REMARK    2  A    between atoms: C5_5  and  O1_6 
REMARK    3  A    between atoms: C5_5  and  C6_7 
REMARK    4  A    between atoms: C6_7  and  O2_10 
REMARK    5  A    between atoms: C29_33  and  O5_34 
REMARK    6  A    between atoms: C30_35  and  O6_36 
ROOT
HETATM    1  C1  UNL     1      -1.931   8.440  13.555  1.00  0.00     0.013 C 
HETATM    2  C2  UNL     1      -1.952   7.325  14.597  1.00  0.00     0.024 C 
HETATM    3  C3  UNL     1      -0.815   6.285  14.319  1.00  0.00     0.042 C 
HETATM    4  C4  UNL     1      -1.146   5.117  13.345  1.00  0.00     0.154 C 
HETATM    5  O3  UNL     1      -2.525   4.618  13.467  1.00  0.00    -0.375 OA
HETATM    6  C9  UNL     1      -3.458   5.682  13.483  1.00  0.00     0.160 C 
HETATM    7  C10 UNL     1      -4.952   5.316  13.510  1.00  0.00     0.048 C 
HETATM    8  C11 UNL     1      -5.598   6.691  13.876  1.00  0.00     0.000 C 
HETATM    9  C12 UNL     1      -5.375   7.633  12.631  1.00  0.00     0.019 C 
HETATM   10  C13 UNL     1      -7.150   6.731  14.296  1.00  0.00    -0.029 C 
HETATM   11  C14 UNL     1      -7.502   5.633  15.340  1.00  0.00     0.016 C 
HETATM   12  C15 UNL     1      -8.061   6.509  13.059  1.00  0.00     0.011 C 
HETATM   13  C16 UNL     1      -9.551   6.668  13.362  1.00  0.00     0.007 C 
HETATM   14  C17 UNL     1      -9.950   8.012  14.022  1.00  0.00     0.009 C 
HETATM   15  C18 UNL     1     -11.491   8.020  14.419  1.00  0.00     0.017 C 
HETATM   16  C19 UNL     1     -12.132   6.629  14.626  1.00  0.00     0.023 C 
HETATM   17  C20 UNL     1     -12.270   8.728  13.289  1.00  0.00     0.023 C 
HETATM   18  C21 UNL     1     -11.758   8.758  15.739  1.00  0.00     0.135 C 
HETATM   19  O4  UNL     1     -12.746   9.484  15.891  1.00  0.00    -0.297 OA
HETATM   20  C22 UNL     1     -10.843   8.486  16.916  1.00  0.00     0.080 C 
HETATM   21  C23 UNL     1      -9.474   7.955  16.508  1.00  0.00     0.017 C 
HETATM   22  C24 UNL     1      -8.981   8.518  15.158  1.00  0.00    -0.035 C 
HETATM   23  C25 UNL     1      -9.076  10.086  15.212  1.00  0.00     0.016 C 
HETATM   24  C26 UNL     1      -7.466   8.191  14.829  1.00  0.00     0.003 C 
HETATM   25  C27 UNL     1      -6.434   8.703  15.890  1.00  0.00     0.009 C 
HETATM   26  C28 UNL     1      -4.941   8.542  15.476  1.00  0.00     0.042 C 
HETATM   27  C29 UNL     1      -4.673   7.102  15.079  1.00  0.00     0.100 C 
HETATM   28  C30 UNL     1      -3.248   6.532  14.752  1.00  0.00     0.119 C 
ENDROOT
BRANCH   4  29
HETATM   29  C5  UNL     1      -0.840   5.349  11.833  1.00  0.00     0.180 C 
BRANCH  29  30
HETATM   30  O1  UNL     1      -1.411   4.223  11.128  1.00  0.00    -0.390 OA
HETATM   31  H9  UNL     1      -2.152   3.896  11.688  1.00  0.00     0.210 HD
ENDBRANCH  29  30
BRANCH  29  32
HETATM   32  C6  UNL     1       0.669   5.509  11.441  1.00  0.00     0.079 C 
HETATM   33  C7  UNL     1       0.849   6.425  10.221  1.00  0.00     0.048 C 
HETATM   34  C8  UNL     1       1.499   6.103  12.590  1.00  0.00     0.048 C 
BRANCH  32  35
HETATM   35  O2  UNL     1       1.213   4.237  11.061  1.00  0.00    -0.388 OA
HETATM   36  H16 UNL     1       2.043   4.074  11.548  1.00  0.00     0.210 HD
ENDBRANCH  32  35
ENDBRANCH  29  32
ENDBRANCH   4  29
BRANCH  28  37
HETATM   37  O6  UNL     1      -2.922   5.628  15.875  1.00  0.00    -0.384 OA
HETATM   38  H50 UNL     1      -3.377   4.779  15.670  1.00  0.00     0.210 HD
ENDBRANCH  28  37
BRANCH  27  39
HETATM   39  O5  UNL     1      -5.080   6.350  16.253  1.00  0.00    -0.386 OA
HETATM   40  H49 UNL     1      -4.270   6.268  16.806  1.00  0.00     0.210 HD
ENDBRANCH  27  39
TORSDOF 6
ENDMDL
MODEL 7
REMARK minimizedAffinity -7.82181931
REMARK CNNscore 0.472219735
REMARK CNNaffinity 6.37013626
REMARK  6 active torsions:
REMARK  status: ('A' for Active; 'I' for Inactive)
REMARK    1  A    between atoms: C4_4  and  C5_5 
REMARK    2  A    between atoms: C5_5  and  O1_6 
REMARK    3  A    between atoms: C5_5  and  C6_7 
REMARK    4  A    between atoms: C6_7  and  O2_10 
REMARK    5  A    between atoms: C29_33  and  O5_34 
REMARK    6  A    between atoms: C30_35  and  O6_36 
ROOT
HETATM    1  C1  UNL     1     -10.875  -1.235  -7.742  1.00  0.00     0.013 C 
HETATM    2  C2  UNL     1     -10.975  -1.355  -6.224  1.00  0.00     0.024 C 
HETATM    3  C3  UNL     1      -9.707  -0.745  -5.536  1.00  0.00     0.042 C 
HETATM    4  C4  UNL     1      -8.485  -1.688  -5.337  1.00  0.00     0.154 C 
HETATM    5  O3  UNL     1      -8.856  -3.072  -5.001  1.00  0.00    -0.375 OA
HETATM    6  C9  UNL     1      -9.868  -3.558  -5.863  1.00  0.00     0.160 C 
HETATM    7  C10 UNL     1     -10.296  -5.027  -5.698  1.00  0.00     0.048 C 
HETATM    8  C11 UNL     1     -11.615  -5.057  -6.536  1.00  0.00     0.000 C 
HETATM    9  C12 UNL     1     -11.189  -4.865  -8.043  1.00  0.00     0.019 C 
HETATM   10  C13 UNL     1     -12.578  -6.340  -6.419  1.00  0.00    -0.029 C 
HETATM   11  C14 UNL     1     -12.825  -6.753  -4.940  1.00  0.00     0.016 C 
HETATM   12  C15 UNL     1     -11.958  -7.562  -7.149  1.00  0.00     0.011 C 
HETATM   13  C16 UNL     1     -12.881  -8.779  -7.193  1.00  0.00     0.007 C 
HETATM   14  C17 UNL     1     -14.286  -8.520  -7.793  1.00  0.00     0.009 C 
HETATM   15  C18 UNL     1     -15.210  -9.810  -7.667  1.00  0.00     0.017 C 
HETATM   16  C19 UNL     1     -14.819 -10.801  -6.547  1.00  0.00     0.023 C 
HETATM   17  C20 UNL     1     -15.146 -10.574  -9.007  1.00  0.00     0.023 C 
HETATM   18  C21 UNL     1     -16.674  -9.461  -7.367  1.00  0.00     0.135 C 
HETATM   19  O4  UNL     1     -17.610 -10.074  -7.892  1.00  0.00    -0.297 OA
HETATM   20  C22 UNL     1     -16.966  -8.417  -6.309  1.00  0.00     0.080 C 
HETATM   21  C23 UNL     1     -15.804  -7.460  -6.066  1.00  0.00     0.017 C 
HETATM   22  C24 UNL     1     -14.975  -7.178  -7.337  1.00  0.00    -0.035 C 
HETATM   23  C25 UNL     1     -15.956  -6.726  -8.478  1.00  0.00     0.016 C 
HETATM   24  C26 UNL     1     -13.925  -6.000  -7.182  1.00  0.00     0.003 C 
HETATM   25  C27 UNL     1     -14.539  -4.618  -6.776  1.00  0.00     0.009 C 
HETATM   26  C28 UNL     1     -13.536  -3.427  -6.803  1.00  0.00     0.042 C 
HETATM   27  C29 UNL     1     -12.314  -3.768  -5.970  1.00  0.00     0.100 C 
HETATM   28  C30 UNL     1     -11.164  -2.753  -5.639  1.00  0.00     0.119 C 
ENDROOT
BRANCH   4  29
HETATM   29  C5  UNL     1      -7.429  -1.728  -6.483  1.00  0.00     0.180 C 
BRANCH  29  30
HETATM   30  O1  UNL     1      -6.237  -2.320  -5.915  1.00  0.00    -0.390 OA
HETATM   31  H9  UNL     1      -6.543  -2.892  -5.174  1.00  0.00     0.210 HD
ENDBRANCH  29  30
BRANCH  29  32
HETATM   32  C6  UNL     1      -7.070  -0.356  -7.152  1.00  0.00     0.079 C 
HETATM   33  C7  UNL     1      -7.119  -0.438  -8.685  1.00  0.00     0.048 C 
HETATM   34  C8  UNL     1      -8.033   0.761  -6.719  1.00  0.00     0.048 C 
BRANCH  32  35
HETATM   35  O2  UNL     1      -5.724   0.013  -6.821  1.00  0.00    -0.388 OA
HETATM   36  H16 UNL     1      -5.706   0.928  -6.482  1.00  0.00     0.210 HD
ENDBRANCH  32  35
ENDBRANCH  29  32
ENDBRANCH   4  29
BRANCH  28  37
HETATM   37  O6  UNL     1     -11.298  -2.467  -4.195  1.00  0.00    -0.384 OA
HETATM   38  H50 UNL     1     -10.853  -3.216  -3.737  1.00  0.00     0.210 HD
ENDBRANCH  28  37
BRANCH  27  39
HETATM   39  O5  UNL     1     -12.876  -4.082  -4.667  1.00  0.00    -0.386 OA
HETATM   40  H49 UNL     1     -12.881  -3.231  -4.172  1.00  0.00     0.210 HD
ENDBRANCH  27  39
TORSDOF 6
ENDMDL
MODEL 8
REMARK minimizedAffinity -6.79292679
REMARK CNNscore 0.46743241
REMARK CNNaffinity 5.86616373
REMARK  6 active torsions:
REMARK  status: ('A' for Active; 'I' for Inactive)
REMARK    1  A    between atoms: C4_4  and  C5_5 
REMARK    2  A    between atoms: C5_5  and  O1_6 
REMARK    3  A    between atoms: C5_5  and  C6_7 
REMARK    4  A    between atoms: C6_7  and  O2_10 
REMARK    5  A    between atoms: C29_33  and  O5_34 
REMARK    6  A    between atoms: C30_35  and  O6_36 
ROOT
HETATM    1  C1  UNL     1     -18.213  -2.939  14.764  1.00  0.00     0.013 C 
HETATM    2  C2  UNL     1     -17.018  -2.045  15.086  1.00  0.00     0.024 C 
HETATM    3  C3  UNL     1     -17.243  -0.598  14.532  1.00  0.00     0.042 C 
HETATM    4  C4  UNL     1     -16.806  -0.325  13.064  1.00  0.00     0.154 C 
HETATM    5  O3  UNL     1     -15.575  -1.031  12.673  1.00  0.00    -0.375 OA
HETATM    6  C9  UNL     1     -15.620  -2.394  13.053  1.00  0.00     0.160 C 
HETATM    7  C10 UNL     1     -14.443  -3.289  12.628  1.00  0.00     0.048 C 
HETATM    8  C11 UNL     1     -14.687  -4.555  13.511  1.00  0.00     0.000 C 
HETATM    9  C12 UNL     1     -16.004  -5.232  12.966  1.00  0.00     0.019 C 
HETATM   10  C13 UNL     1     -13.526  -5.664  13.612  1.00  0.00    -0.029 C 
HETATM   11  C14 UNL     1     -12.133  -5.030  13.885  1.00  0.00     0.016 C 
HETATM   12  C15 UNL     1     -13.422  -6.472  12.291  1.00  0.00     0.011 C 
HETATM   13  C16 UNL     1     -12.430  -7.633  12.363  1.00  0.00     0.007 C 
HETATM   14  C17 UNL     1     -12.667  -8.632  13.523  1.00  0.00     0.009 C 
HETATM   15  C18 UNL     1     -11.505  -9.719  13.591  1.00  0.00     0.017 C 
HETATM   16  C19 UNL     1     -10.161  -9.295  12.957  1.00  0.00     0.023 C 
HETATM   17  C20 UNL     1     -11.992 -10.983  12.848  1.00  0.00     0.023 C 
HETATM   18  C21 UNL     1     -11.138 -10.103  15.031  1.00  0.00     0.135 C 
HETATM   19  O4  UNL     1     -10.879 -11.269  15.348  1.00  0.00    -0.297 OA
HETATM   20  C22 UNL     1     -10.977  -8.998  16.054  1.00  0.00     0.080 C 
HETATM   21  C23 UNL     1     -11.720  -7.718  15.686  1.00  0.00     0.017 C 
HETATM   22  C24 UNL     1     -13.029  -7.978  14.911  1.00  0.00    -0.035 C 
HETATM   23  C25 UNL     1     -13.888  -9.012  15.724  1.00  0.00     0.016 C 
HETATM   24  C26 UNL     1     -13.948  -6.699  14.737  1.00  0.00     0.003 C 
HETATM   25  C27 UNL     1     -14.390  -6.017  16.076  1.00  0.00     0.009 C 
HETATM   26  C28 UNL     1     -15.437  -4.875  15.910  1.00  0.00     0.042 C 
HETATM   27  C29 UNL     1     -14.932  -3.861  14.900  1.00  0.00     0.100 C 
HETATM   28  C30 UNL     1     -15.646  -2.498  14.591  1.00  0.00     0.119 C 
ENDROOT
BRANCH   4  29
HETATM   29  C5  UNL     1     -17.876  -0.554  11.953  1.00  0.00     0.180 C 
BRANCH  29  30
HETATM   30  O1  UNL     1     -17.145  -0.721  10.715  1.00  0.00    -0.390 OA
HETATM   31  H9  UNL     1     -16.258  -1.067  10.966  1.00  0.00     0.210 HD
ENDBRANCH  29  30
BRANCH  29  32
HETATM   32  C6  UNL     1     -18.957   0.569  11.781  1.00  0.00     0.079 C 
HETATM   33  C7  UNL     1     -20.223   0.273  12.599  1.00  0.00     0.048 C 
HETATM   34  C8  UNL     1     -18.430   1.942  12.225  1.00  0.00     0.048 C 
BRANCH  32  35
HETATM   35  O2  UNL     1     -19.381   0.635  10.412  1.00  0.00    -0.388 OA
HETATM   36  H16 UNL     1     -19.331   1.557  10.095  1.00  0.00     0.210 HD
ENDBRANCH  32  35
ENDBRANCH  29  32
ENDBRANCH   4  29
BRANCH  28  37
HETATM   37  O6  UNL     1     -14.758  -1.456  15.149  1.00  0.00    -0.384 OA
HETATM   38  H50 UNL     1     -14.060  -1.315  14.470  1.00  0.00     0.210 HD
ENDBRANCH  28  37
BRANCH  27  39
HETATM   39  O5  UNL     1     -13.648  -3.456  15.447  1.00  0.00    -0.386 OA
HETATM   40  H49 UNL     1     -13.840  -2.678  16.019  1.00  0.00     0.210 HD
ENDBRANCH  27  39
TORSDOF 6
ENDMDL
MODEL 9
REMARK minimizedAffinity -7.38857841
REMARK CNNscore 0.466391772
REMARK CNNaffinity 5.42312765
REMARK  6 active torsions:
REMARK  status: ('A' for Active; 'I' for Inactive)
REMARK    1  A    between atoms: C4_4  and  C5_5 
REMARK    2  A    between atoms: C5_5  and  O1_6 
REMARK    3  A    between atoms: C5_5  and  C6_7 
REMARK    4  A    between atoms: C6_7  and  O2_10 
REMARK    5  A    between atoms: C29_33  and  O5_34 
REMARK    6  A    between atoms: C30_35  and  O6_36 
ROOT
HETATM    1  C1  UNL     1     -17.414  -4.156  13.355  1.00  0.00     0.013 C 
HETATM    2  C2  UNL     1     -15.977  -3.747  13.042  1.00  0.00     0.024 C 
HETATM    3  C3  UNL     1     -14.973  -4.856  13.503  1.00  0.00     0.042 C 
HETATM    4  C4  UNL     1     -14.467  -4.790  14.972  1.00  0.00     0.154 C 
HETATM    5  O3  UNL     1     -14.254  -3.418  15.462  1.00  0.00    -0.375 OA
HETATM    6  C9  UNL     1     -15.357  -2.585  15.158  1.00  0.00     0.160 C 
HETATM    7  C10 UNL     1     -15.325  -1.142  15.690  1.00  0.00     0.048 C 
HETATM    8  C11 UNL     1     -16.483  -0.487  14.869  1.00  0.00     0.000 C 
HETATM    9  C12 UNL     1     -17.821  -1.142  15.386  1.00  0.00     0.019 C 
HETATM   10  C13 UNL     1     -16.636   1.114  14.888  1.00  0.00    -0.029 C 
HETATM   11  C14 UNL     1     -15.279   1.835  14.647  1.00  0.00     0.016 C 
HETATM   12  C15 UNL     1     -17.188   1.597  16.255  1.00  0.00     0.011 C 
HETATM   13  C16 UNL     1     -17.486   3.096  16.298  1.00  0.00     0.007 C 
HETATM   14  C17 UNL     1     -18.433   3.611  15.185  1.00  0.00     0.009 C 
HETATM   15  C18 UNL     1     -18.568   5.197  15.236  1.00  0.00     0.017 C 
HETATM   16  C19 UNL     1     -17.394   5.942  15.910  1.00  0.00     0.023 C 
HETATM   17  C20 UNL     1     -19.852   5.540  16.024  1.00  0.00     0.023 C 
HETATM   18  C21 UNL     1     -18.663   5.827  13.840  1.00  0.00     0.135 C 
HETATM   19  O4  UNL     1     -19.422   6.772  13.602  1.00  0.00    -0.297 OA
HETATM   20  C22 UNL     1     -17.710   5.347  12.765  1.00  0.00     0.080 C 
HETATM   21  C23 UNL     1     -17.160   3.949  13.023  1.00  0.00     0.017 C 
HETATM   22  C24 UNL     1     -18.164   3.026  13.747  1.00  0.00    -0.035 C 
HETATM   23  C25 UNL     1     -19.519   3.050  12.952  1.00  0.00     0.016 C 
HETATM   24  C26 UNL     1     -17.725   1.504  13.803  1.00  0.00     0.003 C 
HETATM   25  C27 UNL     1     -17.482   0.835  12.408  1.00  0.00     0.009 C 
HETATM   26  C28 UNL     1     -17.232  -0.702  12.458  1.00  0.00     0.042 C 
HETATM   27  C29 UNL     1     -16.109  -1.006  13.432  1.00  0.00     0.100 C 
HETATM   28  C30 UNL     1     -15.477  -2.428  13.629  1.00  0.00     0.119 C 
ENDROOT
BRANCH   4  29
HETATM   29  C5  UNL     1     -15.294  -5.569  16.041  1.00  0.00     0.180 C 
BRANCH  29  30
HETATM   30  O1  UNL     1     -15.553  -4.633  17.113  1.00  0.00    -0.390 OA
HETATM   31  H9  UNL     1     -15.535  -3.737  16.705  1.00  0.00     0.210 HD
ENDBRANCH  29  30
BRANCH  29  32
HETATM   32  C6  UNL     1     -14.638  -6.869  16.622  1.00  0.00     0.079 C 
HETATM   33  C7  UNL     1     -15.490  -7.489  17.739  1.00  0.00     0.048 C 
HETATM   34  C8  UNL     1     -14.443  -7.943  15.540  1.00  0.00     0.048 C 
BRANCH  32  35
HETATM   35  O2  UNL     1     -13.373  -6.554  17.221  1.00  0.00    -0.388 OA
HETATM   36  H16 UNL     1     -12.686  -7.157  16.879  1.00  0.00     0.210 HD
ENDBRANCH  32  35
ENDBRANCH  29  32
ENDBRANCH   4  29
BRANCH  28  37
HETATM   37  O6  UNL     1     -14.117  -2.334  13.057  1.00  0.00    -0.384 OA
HETATM   38  H50 UNL     1     -13.564  -1.924  13.761  1.00  0.00     0.210 HD
ENDBRANCH  28  37
BRANCH  27  39
HETATM   39  O5  UNL     1     -15.004  -0.209  12.927  1.00  0.00    -0.386 OA
HETATM   40  H49 UNL     1     -14.520  -0.798  12.304  1.00  0.00     0.210 HD
ENDBRANCH  27  39
TORSDOF 6
ENDMDL
