MODEL 1
REMARK minimizedAffinity -8.45026779
REMARK CNNscore 0.72150588
REMARK CNNaffinity 8.11820698
REMARK  13 active torsions:
REMARK  status: ('A' for Active; 'I' for Inactive)
REMARK    1  A    between atoms: C3_3  and  C4_4 
REMARK    2  A    between atoms: C5_6  and  O2_7 
REMARK    3  A    between atoms: C5_6  and  C6_8 
REMARK    4  A    between atoms: C6_8  and  C8_10 
REMARK    5  A    between atoms: C8_10  and  O3_11 
REMARK    6  A    between atoms: C8_10  and  C9_12 
REMARK    7  A    between atoms: C9_12  and  C11_14 
REMARK    8  A    between atoms: C12_15  and  O4_16 
REMARK    9  A    between atoms: C22_26  and  O5_27 
REMARK   10  A    between atoms: C23_28  and  C24_29 
REMARK   11  A    between atoms: C26_31  and  O6_32 
REMARK   12  A    between atoms: C33_39  and  O7_40 
REMARK   13  A    between atoms: C39_48  and  O10_49 
ROOT
HETATM    1  C11 UNL     1      -4.489  48.907 -22.634  1.00  0.00     0.032 C 
HETATM    2  C12 UNL     1      -3.881  48.529 -21.227  1.00  0.00     0.154 C 
HETATM    3  C14 UNL     1      -4.929  48.571 -20.114  1.00  0.00    -0.051 C 
HETATM    4  C15 UNL     1      -5.116  47.611 -19.184  1.00  0.00     0.006 C 
HETATM    5  C16 UNL     1      -6.137  47.583 -18.156  1.00  0.00     0.003 C 
HETATM    6  C17 UNL     1      -6.349  46.603 -17.252  1.00  0.00    -0.083 C 
HETATM    7  C18 UNL     1      -5.522  45.352 -17.125  1.00  0.00     0.043 C 
HETATM    8  C19 UNL     1      -7.442  46.783 -16.209  1.00  0.00     0.040 C 
HETATM    9  C20 UNL     1      -8.810  46.093 -16.467  1.00  0.00     0.014 C 
HETATM   10  C21 UNL     1      -8.685  44.573 -16.357  1.00  0.00     0.012 C 
HETATM   11  C22 UNL     1      -9.515  46.590 -17.771  1.00  0.00     0.128 C 
HETATM   12  C23 UNL     1     -11.000  46.098 -17.926  1.00  0.00     0.044 C 
HETATM   13  C26 UNL     1     -11.118  44.689 -18.602  1.00  0.00     0.132 C 
HETATM   14  C27 UNL     1     -11.170  44.631 -20.160  1.00  0.00     0.034 C 
HETATM   15  C28 UNL     1     -11.422  43.193 -20.642  1.00  0.00     0.017 C 
HETATM   16  C29 UNL     1      -9.895  45.116 -20.810  1.00  0.00    -0.013 C 
HETATM   17  C30 UNL     1      -9.749  46.029 -21.794  1.00  0.00    -0.062 C 
HETATM   18  C31 UNL     1     -10.903  46.715 -22.477  1.00  0.00     0.048 C 
HETATM   19  C32 UNL     1      -8.388  46.349 -22.236  1.00  0.00     0.047 C 
HETATM   20  C33 UNL     1      -7.949  47.359 -23.015  1.00  0.00     0.123 C 
HETATM   21  C35 UNL     1      -6.517  47.595 -23.173  1.00  0.00     0.257 C 
HETATM   22  O8  UNL     1      -5.984  46.995 -24.139  1.00  0.00    -0.281 OA
HETATM   23  O9  UNL     1      -5.934  48.777 -22.602  1.00  0.00     0.000 OA
HETATM   24  C36 UNL     1      -6.653  49.460 -21.560  1.00  0.00     0.005 C 
HETATM   25  C37 UNL     1      -5.823  49.758 -20.318  1.00  0.00     0.037 C 
ENDROOT
BRANCH   1  26
HETATM   26  C9  UNL     1      -4.078  50.337 -23.170  1.00  0.00     0.018 C 
HETATM   27  C10 UNL     1      -4.586  51.476 -22.239  1.00  0.00     0.013 C 
BRANCH  26  28
HETATM   28  C8  UNL     1      -4.633  50.676 -24.597  1.00  0.00     0.131 C 
BRANCH  28  29
HETATM   29  C6  UNL     1      -3.649  50.675 -25.800  1.00  0.00     0.073 C 
HETATM   30  C7  UNL     1      -2.882  49.348 -25.879  1.00  0.00     0.018 C 
BRANCH  29  31
HETATM   31  C5  UNL     1      -2.677  51.908 -25.746  1.00  0.00     0.170 C 
HETATM   32  O1  UNL     1      -1.596  51.592 -24.860  1.00  0.00    -0.345 OA
HETATM   33  C4  UNL     1      -0.471  52.458 -25.023  1.00  0.00     0.153 C 
HETATM   34  C40 UNL     1       0.238  52.135 -26.357  1.00  0.00     0.043 C 
HETATM   35  C39 UNL     1      -0.791  51.790 -27.449  1.00  0.00     0.129 C 
HETATM   36  C41 UNL     1       1.244  50.976 -26.259  1.00  0.00     0.015 C 
HETATM   37  C38 UNL     1      -2.176  52.347 -27.138  1.00  0.00     0.101 C 
BRANCH  33  38
HETATM   38  C3  UNL     1       0.435  52.409 -23.817  1.00  0.00     0.001 C 
HETATM   39  C2  UNL     1       0.067  52.380 -22.525  1.00  0.00    -0.033 C 
HETATM   40  C1  UNL     1       1.030  52.336 -21.382  1.00  0.00     0.036 C 
ENDBRANCH  33  38
BRANCH  35  41
HETATM   41  O10 UNL     1      -0.335  52.334 -28.691  1.00  0.00    -0.395 OA
HETATM   42  H63 UNL     1      -0.879  51.955 -29.399  1.00  0.00     0.210 HD
ENDBRANCH  35  41
BRANCH  31  43
HETATM   43  O2  UNL     1      -3.449  52.966 -25.182  1.00  0.00    -0.365 OA
HETATM   44  H7  UNL     1      -3.021  53.814 -25.376  1.00  0.00     0.213 HD
ENDBRANCH  31  43
ENDBRANCH  29  31
ENDBRANCH  28  29
BRANCH  28  45
HETATM   45  O3  UNL     1      -5.219  51.985 -24.512  1.00  0.00    -0.395 OA
HETATM   46  H13 UNL     1      -5.608  52.158 -25.394  1.00  0.00     0.210 HD
ENDBRANCH  28  45
ENDBRANCH  26  28
ENDBRANCH   1  26
BRANCH   2  47
HETATM   47  O4  UNL     1      -3.270  47.235 -21.302  1.00  0.00    -0.386 OA
HETATM   48  C13 UNL     1      -1.860  47.264 -21.497  1.00  0.00     0.202 C 
ENDBRANCH   2  47
BRANCH  20  49
HETATM   49  O7  UNL     1      -8.780  48.360 -23.495  1.00  0.00    -0.352 OA
HETATM   50  C34 UNL     1      -8.759  48.398 -24.924  1.00  0.00     0.210 C 
ENDBRANCH  20  49
BRANCH  11  51
HETATM   51  O5  UNL     1      -9.479  48.026 -17.738  1.00  0.00    -0.395 OA
HETATM   52  H35 UNL     1      -9.956  48.314 -16.938  1.00  0.00     0.210 HD
ENDBRANCH  11  51
BRANCH  13  53
HETATM   53  O6  UNL     1     -12.305  44.055 -18.091  1.00  0.00    -0.394 OA
HETATM   54  H43 UNL     1     -12.179  43.916 -17.136  1.00  0.00     0.210 HD
ENDBRANCH  13  53
BRANCH  12  55
HETATM   55  C24 UNL     1     -11.928  47.169 -18.566  1.00  0.00     0.005 C 
HETATM   56  C25 UNL     1     -11.208  48.215 -19.410  1.00  0.00     0.005 C 
ENDBRANCH  12  55
TORSDOF 13
ENDMDL
MODEL 2
REMARK minimizedAffinity -8.03457451
REMARK CNNscore 0.58227092
REMARK CNNaffinity 7.31029892
REMARK  13 active torsions:
REMARK  status: ('A' for Active; 'I' for Inactive)
REMARK    1  A    between atoms: C3_3  and  C4_4 
REMARK    2  A    between atoms: C5_6  and  O2_7 
REMARK    3  A    between atoms: C5_6  and  C6_8 
REMARK    4  A    between atoms: C6_8  and  C8_10 
REMARK    5  A    between atoms: C8_10  and  O3_11 
REMARK    6  A    between atoms: C8_10  and  C9_12 
REMARK    7  A    between atoms: C9_12  and  C11_14 
REMARK    8  A    between atoms: C12_15  and  O4_16 
REMARK    9  A    between atoms: C22_26  and  O5_27 
REMARK   10  A    between atoms: C23_28  and  C24_29 
REMARK   11  A    between atoms: C26_31  and  O6_32 
REMARK   12  A    between atoms: C33_39  and  O7_40 
REMARK   13  A    between atoms: C39_48  and  O10_49 
ROOT
HETATM    1  C11 UNL     1      -4.056  48.842 -20.259  1.00  0.00     0.032 C 
HETATM    2  C12 UNL     1      -5.035  47.609 -20.143  1.00  0.00     0.154 C 
HETATM    3  C14 UNL     1      -4.333  46.365 -19.597  1.00  0.00    -0.051 C 
HETATM    4  C15 UNL     1      -4.807  45.571 -18.613  1.00  0.00     0.006 C 
HETATM    5  C16 UNL     1      -4.146  44.424 -18.025  1.00  0.00     0.003 C 
HETATM    6  C17 UNL     1      -4.603  43.656 -17.014  1.00  0.00    -0.083 C 
HETATM    7  C18 UNL     1      -5.928  43.837 -16.324  1.00  0.00     0.043 C 
HETATM    8  C19 UNL     1      -3.784  42.454 -16.570  1.00  0.00     0.040 C 
HETATM    9  C20 UNL     1      -2.882  42.615 -15.315  1.00  0.00     0.014 C 
HETATM   10  C21 UNL     1      -3.727  42.752 -14.048  1.00  0.00     0.012 C 
HETATM   11  C22 UNL     1      -1.785  43.716 -15.481  1.00  0.00     0.128 C 
HETATM   12  C23 UNL     1      -0.709  43.730 -14.335  1.00  0.00     0.044 C 
HETATM   13  C26 UNL     1      -1.138  44.586 -13.094  1.00  0.00     0.132 C 
HETATM   14  C27 UNL     1      -0.814  46.111 -13.113  1.00  0.00     0.034 C 
HETATM   15  C28 UNL     1      -1.180  46.762 -11.770  1.00  0.00     0.017 C 
HETATM   16  C29 UNL     1      -1.554  46.856 -14.201  1.00  0.00    -0.013 C 
HETATM   17  C30 UNL     1      -1.055  47.703 -15.126  1.00  0.00    -0.062 C 
HETATM   18  C31 UNL     1       0.394  48.104 -15.199  1.00  0.00     0.048 C 
HETATM   19  C32 UNL     1      -1.987  48.281 -16.099  1.00  0.00     0.047 C 
HETATM   20  C33 UNL     1      -1.736  48.955 -17.240  1.00  0.00     0.123 C 
HETATM   21  C35 UNL     1      -2.824  49.278 -18.157  1.00  0.00     0.257 C 
HETATM   22  O8  UNL     1      -3.375  50.389 -17.956  1.00  0.00    -0.281 OA
HETATM   23  O9  UNL     1      -2.881  48.625 -19.436  1.00  0.00     0.000 OA
HETATM   24  C36 UNL     1      -2.146  47.401 -19.613  1.00  0.00     0.005 C 
HETATM   25  C37 UNL     1      -2.965  46.260 -20.202  1.00  0.00     0.037 C 
ENDROOT
BRANCH   1  26
HETATM   26  C9  UNL     1      -3.630  49.212 -21.737  1.00  0.00     0.018 C 
HETATM   27  C10 UNL     1      -2.668  48.152 -22.348  1.00  0.00     0.013 C 
BRANCH  26  28
HETATM   28  C8  UNL     1      -2.887  50.587 -21.871  1.00  0.00     0.131 C 
BRANCH  28  29
HETATM   29  C6  UNL     1      -1.423  50.596 -22.392  1.00  0.00     0.073 C 
HETATM   30  C7  UNL     1      -0.428  50.610 -21.224  1.00  0.00     0.018 C 
BRANCH  29  31
HETATM   31  C5  UNL     1      -1.176  51.789 -23.384  1.00  0.00     0.170 C 
HETATM   32  O1  UNL     1      -0.455  51.291 -24.517  1.00  0.00    -0.345 OA
HETATM   33  C4  UNL     1      -0.508  52.171 -25.642  1.00  0.00     0.153 C 
HETATM   34  C40 UNL     1      -1.926  52.141 -26.253  1.00  0.00     0.043 C 
HETATM   35  C39 UNL     1      -2.992  52.038 -25.147  1.00  0.00     0.129 C 
HETATM   36  C41 UNL     1      -2.148  50.988 -27.246  1.00  0.00     0.015 C 
HETATM   37  C38 UNL     1      -2.473  52.516 -23.795  1.00  0.00     0.101 C 
BRANCH  33  38
HETATM   38  C3  UNL     1       0.594  51.866 -26.627  1.00  0.00     0.001 C 
HETATM   39  C2  UNL     1       1.917  51.853 -26.388  1.00  0.00    -0.033 C 
HETATM   40  C1  UNL     1       2.949  51.542 -27.424  1.00  0.00     0.036 C 
ENDBRANCH  33  38
BRANCH  35  41
HETATM   41  O10 UNL     1      -4.118  52.835 -25.526  1.00  0.00    -0.395 OA
HETATM   42  H63 UNL     1      -4.851  52.615 -24.929  1.00  0.00     0.210 HD
ENDBRANCH  35  41
BRANCH  31  43
HETATM   43  O2  UNL     1      -0.346  52.702 -22.667  1.00  0.00    -0.365 OA
HETATM   44  H7  UNL     1      -0.385  53.572 -23.094  1.00  0.00     0.213 HD
ENDBRANCH  31  43
ENDBRANCH  29  31
ENDBRANCH  28  29
BRANCH  28  45
HETATM   45  O3  UNL     1      -2.891  51.186 -20.565  1.00  0.00    -0.395 OA
HETATM   46  H13 UNL     1      -2.474  52.066 -20.677  1.00  0.00     0.210 HD
ENDBRANCH  28  45
ENDBRANCH  26  28
ENDBRANCH   1  26
BRANCH   2  47
HETATM   47  O4  UNL     1      -6.155  47.963 -19.322  1.00  0.00    -0.386 OA
HETATM   48  C13 UNL     1      -5.844  48.114 -17.941  1.00  0.00     0.202 C 
ENDBRANCH   2  47
BRANCH  20  49
HETATM   49  O7  UNL     1      -0.455  49.156 -17.733  1.00  0.00    -0.352 OA
HETATM   50  C34 UNL     1      -0.068  50.526 -17.600  1.00  0.00     0.210 C 
ENDBRANCH  20  49
BRANCH  11  51
HETATM   51  O5  UNL     1      -1.145  43.474 -16.745  1.00  0.00    -0.395 OA
HETATM   52  H35 UNL     1      -0.758  42.580 -16.712  1.00  0.00     0.210 HD
ENDBRANCH  11  51
BRANCH  13  53
HETATM   53  O6  UNL     1      -0.517  44.011 -11.929  1.00  0.00    -0.394 OA
HETATM   54  H43 UNL     1      -0.879  43.115 -11.811  1.00  0.00     0.210 HD
ENDBRANCH  13  53
BRANCH  12  55
HETATM   55  C24 UNL     1       0.720  44.064 -14.850  1.00  0.00     0.005 C 
HETATM   56  C25 UNL     1       1.754  42.970 -14.613  1.00  0.00     0.005 C 
ENDBRANCH  12  55
TORSDOF 13
ENDMDL
MODEL 3
REMARK minimizedAffinity -7.79224682
REMARK CNNscore 0.505942464
REMARK CNNaffinity 7.42103386
REMARK  13 active torsions:
REMARK  status: ('A' for Active; 'I' for Inactive)
REMARK    1  A    between atoms: C3_3  and  C4_4 
REMARK    2  A    between atoms: C5_6  and  O2_7 
REMARK    3  A    between atoms: C5_6  and  C6_8 
REMARK    4  A    between atoms: C6_8  and  C8_10 
REMARK    5  A    between atoms: C8_10  and  O3_11 
REMARK    6  A    between atoms: C8_10  and  C9_12 
REMARK    7  A    between atoms: C9_12  and  C11_14 
REMARK    8  A    between atoms: C12_15  and  O4_16 
REMARK    9  A    between atoms: C22_26  and  O5_27 
REMARK   10  A    between atoms: C23_28  and  C24_29 
REMARK   11  A    between atoms: C26_31  and  O6_32 
REMARK   12  A    between atoms: C33_39  and  O7_40 
REMARK   13  A    between atoms: C39_48  and  O10_49 
ROOT
HETATM    1  C11 UNL     1      -0.190  53.012 -10.211  1.00  0.00     0.032 C 
HETATM    2  C12 UNL     1       1.221  52.730 -10.860  1.00  0.00     0.154 C 
HETATM    3  C14 UNL     1       2.254  53.792 -10.478  1.00  0.00    -0.051 C 
HETATM    4  C15 UNL     1       3.507  53.540 -10.044  1.00  0.00     0.006 C 
HETATM    5  C16 UNL     1       4.491  54.512  -9.612  1.00  0.00     0.003 C 
HETATM    6  C17 UNL     1       5.729  54.256  -9.139  1.00  0.00    -0.083 C 
HETATM    7  C18 UNL     1       6.335  52.885  -9.005  1.00  0.00     0.043 C 
HETATM    8  C19 UNL     1       6.642  55.421  -8.788  1.00  0.00     0.040 C 
HETATM    9  C20 UNL     1       6.748  55.833  -7.294  1.00  0.00     0.014 C 
HETATM   10  C21 UNL     1       7.479  54.762  -6.483  1.00  0.00     0.012 C 
HETATM   11  C22 UNL     1       5.384  56.288  -6.681  1.00  0.00     0.128 C 
HETATM   12  C23 UNL     1       5.506  56.942  -5.257  1.00  0.00     0.044 C 
HETATM   13  C26 UNL     1       5.485  55.895  -4.091  1.00  0.00     0.132 C 
HETATM   14  C27 UNL     1       4.098  55.459  -3.528  1.00  0.00     0.034 C 
HETATM   15  C28 UNL     1       4.270  54.538  -2.309  1.00  0.00     0.017 C 
HETATM   16  C29 UNL     1       3.256  54.721  -4.544  1.00  0.00    -0.013 C 
HETATM   17  C30 UNL     1       1.976  54.956  -4.902  1.00  0.00    -0.062 C 
HETATM   18  C31 UNL     1       1.114  56.021  -4.278  1.00  0.00     0.048 C 
HETATM   19  C32 UNL     1       1.389  54.107  -5.944  1.00  0.00     0.047 C 
HETATM   20  C33 UNL     1       0.243  54.261  -6.639  1.00  0.00     0.123 C 
HETATM   21  C35 UNL     1      -0.054  53.386  -7.768  1.00  0.00     0.257 C 
HETATM   22  O8  UNL     1      -0.700  52.348  -7.480  1.00  0.00    -0.281 OA
HETATM   23  O9  UNL     1      -0.052  53.932  -9.098  1.00  0.00     0.000 OA
HETATM   24  C36 UNL     1       0.636  55.174  -9.327  1.00  0.00     0.005 C 
HETATM   25  C37 UNL     1       1.607  55.145 -10.500  1.00  0.00     0.037 C 
ENDROOT
BRANCH   1  26
HETATM   26  C9  UNL     1      -1.290  53.533 -11.221  1.00  0.00     0.018 C 
HETATM   27  C10 UNL     1      -2.387  54.373 -10.504  1.00  0.00     0.013 C 
BRANCH  26  28
HETATM   28  C8  UNL     1      -2.057  52.398 -11.984  1.00  0.00     0.131 C 
BRANCH  28  29
HETATM   29  C6  UNL     1      -3.505  52.047 -11.541  1.00  0.00     0.073 C 
HETATM   30  C7  UNL     1      -4.183  53.256 -10.882  1.00  0.00     0.018 C 
BRANCH  29  31
HETATM   31  C5  UNL     1      -3.529  50.783 -10.608  1.00  0.00     0.170 C 
HETATM   32  O1  UNL     1      -4.895  50.413 -10.386  1.00  0.00    -0.345 OA
HETATM   33  C4  UNL     1      -5.036  49.082  -9.885  1.00  0.00     0.153 C 
HETATM   34  C40 UNL     1      -4.716  48.072 -11.009  1.00  0.00     0.043 C 
HETATM   35  C39 UNL     1      -3.553  48.581 -11.881  1.00  0.00     0.129 C 
HETATM   36  C41 UNL     1      -5.910  47.769 -11.928  1.00  0.00     0.015 C 
HETATM   37  C38 UNL     1      -2.691  49.609 -11.155  1.00  0.00     0.101 C 
BRANCH  33  38
HETATM   38  C3  UNL     1      -6.387  48.880  -9.244  1.00  0.00     0.001 C 
HETATM   39  C2  UNL     1      -7.450  49.700  -9.313  1.00  0.00    -0.033 C 
HETATM   40  C1  UNL     1      -8.759  49.429  -8.643  1.00  0.00     0.036 C 
ENDBRANCH  33  38
BRANCH  35  41
HETATM   41  O10 UNL     1      -2.740  47.464 -12.250  1.00  0.00    -0.395 OA
HETATM   42  H63 UNL     1      -2.130  47.757 -12.947  1.00  0.00     0.210 HD
ENDBRANCH  35  41
BRANCH  31  43
HETATM   43  O2  UNL     1      -2.957  51.220  -9.376  1.00  0.00    -0.365 OA
HETATM   44  H7  UNL     1      -2.679  50.447  -8.860  1.00  0.00     0.213 HD
ENDBRANCH  31  43
ENDBRANCH  29  31
ENDBRANCH  28  29
BRANCH  28  45
HETATM   45  O3  UNL     1      -1.262  51.207 -11.860  1.00  0.00    -0.395 OA
HETATM   46  H13 UNL     1      -1.725  50.524 -12.387  1.00  0.00     0.210 HD
ENDBRANCH  28  45
ENDBRANCH  26  28
ENDBRANCH   1  26
BRANCH   2  47
HETATM   47  O4  UNL     1       1.671  51.424 -10.480  1.00  0.00    -0.386 OA
HETATM   48  C13 UNL     1       2.085  50.608 -11.570  1.00  0.00     0.202 C 
ENDBRANCH   2  47
BRANCH  20  49
HETATM   49  O7  UNL     1      -0.579  55.370  -6.505  1.00  0.00    -0.352 OA
HETATM   50  C34 UNL     1       0.006  56.516  -7.128  1.00  0.00     0.210 C 
ENDBRANCH  20  49
BRANCH  11  51
HETATM   51  O5  UNL     1       4.812  57.232  -7.602  1.00  0.00    -0.395 OA
HETATM   52  H35 UNL     1       5.437  57.976  -7.687  1.00  0.00     0.210 HD
ENDBRANCH  11  51
BRANCH  13  53
HETATM   53  O6  UNL     1       6.260  56.434  -3.004  1.00  0.00    -0.394 OA
HETATM   54  H43 UNL     1       7.180  56.520  -3.309  1.00  0.00     0.210 HD
ENDBRANCH  13  53
BRANCH  12  55
HETATM   55  C24 UNL     1       4.513  58.121  -5.046  1.00  0.00     0.005 C 
HETATM   56  C25 UNL     1       3.311  58.117  -5.983  1.00  0.00     0.005 C 
ENDBRANCH  12  55
TORSDOF 13
ENDMDL
MODEL 4
REMARK minimizedAffinity -7.97540569
REMARK CNNscore 0.495631605
REMARK CNNaffinity 7.65054274
REMARK  13 active torsions:
REMARK  status: ('A' for Active; 'I' for Inactive)
REMARK    1  A    between atoms: C3_3  and  C4_4 
REMARK    2  A    between atoms: C5_6  and  O2_7 
REMARK    3  A    between atoms: C5_6  and  C6_8 
REMARK    4  A    between atoms: C6_8  and  C8_10 
REMARK    5  A    between atoms: C8_10  and  O3_11 
REMARK    6  A    between atoms: C8_10  and  C9_12 
REMARK    7  A    between atoms: C9_12  and  C11_14 
REMARK    8  A    between atoms: C12_15  and  O4_16 
REMARK    9  A    between atoms: C22_26  and  O5_27 
REMARK   10  A    between atoms: C23_28  and  C24_29 
REMARK   11  A    between atoms: C26_31  and  O6_32 
REMARK   12  A    between atoms: C33_39  and  O7_40 
REMARK   13  A    between atoms: C39_48  and  O10_49 
ROOT
HETATM    1  C11 UNL     1     -10.464  45.926 -25.229  1.00  0.00     0.032 C 
HETATM    2  C12 UNL     1     -10.888  45.692 -23.726  1.00  0.00     0.154 C 
HETATM    3  C14 UNL     1      -9.683  45.456 -22.815  1.00  0.00    -0.051 C 
HETATM    4  C15 UNL     1      -9.476  46.060 -21.626  1.00  0.00     0.006 C 
HETATM    5  C16 UNL     1      -8.319  45.914 -20.765  1.00  0.00     0.003 C 
HETATM    6  C17 UNL     1      -8.094  46.549 -19.596  1.00  0.00    -0.083 C 
HETATM    7  C18 UNL     1      -9.042  47.520 -18.945  1.00  0.00     0.043 C 
HETATM    8  C19 UNL     1      -6.838  46.218 -18.804  1.00  0.00     0.040 C 
HETATM    9  C20 UNL     1      -5.625  47.180 -18.933  1.00  0.00     0.014 C 
HETATM   10  C21 UNL     1      -5.923  48.526 -18.272  1.00  0.00     0.012 C 
HETATM   11  C22 UNL     1      -5.075  47.286 -20.393  1.00  0.00     0.128 C 
HETATM   12  C23 UNL     1      -3.707  48.050 -20.510  1.00  0.00     0.044 C 
HETATM   13  C26 UNL     1      -3.874  49.603 -20.643  1.00  0.00     0.132 C 
HETATM   14  C27 UNL     1      -4.072  50.195 -22.071  1.00  0.00     0.034 C 
HETATM   15  C28 UNL     1      -4.082  51.731 -22.027  1.00  0.00     0.017 C 
HETATM   16  C29 UNL     1      -5.362  49.746 -22.720  1.00  0.00    -0.013 C 
HETATM   17  C30 UNL     1      -5.543  49.212 -23.947  1.00  0.00    -0.062 C 
HETATM   18  C31 UNL     1      -4.432  49.009 -24.943  1.00  0.00     0.048 C 
HETATM   19  C32 UNL     1      -6.904  48.830 -24.334  1.00  0.00     0.047 C 
HETATM   20  C33 UNL     1      -7.329  48.085 -25.375  1.00  0.00     0.123 C 
HETATM   21  C35 UNL     1      -8.726  47.673 -25.462  1.00  0.00     0.257 C 
HETATM   22  O8  UNL     1      -9.474  48.464 -26.089  1.00  0.00    -0.281 OA
HETATM   23  O9  UNL     1      -9.059  46.285 -25.299  1.00  0.00     0.000 OA
HETATM   24  C36 UNL     1      -8.107  45.424 -24.651  1.00  0.00     0.005 C 
HETATM   25  C37 UNL     1      -8.689  44.583 -23.522  1.00  0.00     0.037 C 
ENDROOT
BRANCH   1  26
HETATM   26  C9  UNL     1     -10.769  44.715 -26.199  1.00  0.00     0.018 C 
HETATM   27  C10 UNL     1     -10.300  43.356 -25.601  1.00  0.00     0.013 C 
BRANCH  26  28
HETATM   28  C8  UNL     1     -10.079  44.821 -27.603  1.00  0.00     0.131 C 
BRANCH  28  29
HETATM   29  C6  UNL     1     -10.829  44.270 -28.848  1.00  0.00     0.073 C 
HETATM   30  C7  UNL     1      -9.853  44.010 -30.003  1.00  0.00     0.018 C 
BRANCH  29  31
HETATM   31  C5  UNL     1     -12.003  45.222 -29.278  1.00  0.00     0.170 C 
HETATM   32  O1  UNL     1     -13.212  44.749 -28.674  1.00  0.00    -0.345 OA
HETATM   33  C4  UNL     1     -14.253  45.728 -28.671  1.00  0.00     0.153 C 
HETATM   34  C40 UNL     1     -13.917  46.835 -27.648  1.00  0.00     0.043 C 
HETATM   35  C39 UNL     1     -12.406  47.136 -27.652  1.00  0.00     0.129 C 
HETATM   36  C41 UNL     1     -14.338  46.498 -26.209  1.00  0.00     0.015 C 
HETATM   37  C38 UNL     1     -11.732  46.706 -28.949  1.00  0.00     0.101 C 
BRANCH  33  38
HETATM   38  C3  UNL     1     -15.604  45.088 -28.462  1.00  0.00     0.001 C 
HETATM   39  C2  UNL     1     -15.881  43.774 -28.408  1.00  0.00    -0.033 C 
HETATM   40  C1  UNL     1     -17.253  43.217 -28.201  1.00  0.00     0.036 C 
ENDBRANCH  33  38
BRANCH  35  41
HETATM   41  O10 UNL     1     -12.223  48.543 -27.472  1.00  0.00    -0.395 OA
HETATM   42  H63 UNL     1     -11.283  48.699 -27.283  1.00  0.00     0.210 HD
ENDBRANCH  35  41
BRANCH  31  43
HETATM   43  O2  UNL     1     -12.099  45.077 -30.694  1.00  0.00    -0.365 OA
HETATM   44  H7  UNL     1     -12.594  45.826 -31.060  1.00  0.00     0.213 HD
ENDBRANCH  31  43
ENDBRANCH  29  31
ENDBRANCH  28  29
BRANCH  28  45
HETATM   45  O3  UNL     1      -8.828  44.122 -27.502  1.00  0.00    -0.395 OA
HETATM   46  H13 UNL     1      -8.386  44.246 -28.368  1.00  0.00     0.210 HD
ENDBRANCH  28  45
ENDBRANCH  26  28
ENDBRANCH   1  26
BRANCH   2  47
HETATM   47  O4  UNL     1     -11.662  46.808 -23.269  1.00  0.00    -0.386 OA
HETATM   48  C13 UNL     1     -12.936  46.459 -22.739  1.00  0.00     0.202 C 
ENDBRANCH   2  47
BRANCH  20  49
HETATM   49  O7  UNL     1      -6.463  47.466 -26.264  1.00  0.00    -0.352 OA
HETATM   50  C34 UNL     1      -6.874  47.690 -27.615  1.00  0.00     0.210 C 
ENDBRANCH  20  49
BRANCH  11  51
HETATM   51  O5  UNL     1      -4.924  45.941 -20.875  1.00  0.00    -0.395 OA
HETATM   52  H35 UNL     1      -4.296  45.485 -20.284  1.00  0.00     0.210 HD
ENDBRANCH  11  51
BRANCH  13  53
HETATM   53  O6  UNL     1      -2.711  50.221 -20.060  1.00  0.00    -0.394 OA
HETATM   54  H43 UNL     1      -2.703  50.003 -19.112  1.00  0.00     0.210 HD
ENDBRANCH  13  53
BRANCH  12  55
HETATM   55  C24 UNL     1      -2.761  47.437 -21.582  1.00  0.00     0.005 C 
HETATM   56  C25 UNL     1      -1.275  47.566 -21.270  1.00  0.00     0.005 C 
ENDBRANCH  12  55
TORSDOF 13
ENDMDL
MODEL 5
REMARK minimizedAffinity -7.9622035
REMARK CNNscore 0.46030736
REMARK CNNaffinity 7.26509905
REMARK  13 active torsions:
REMARK  status: ('A' for Active; 'I' for Inactive)
REMARK    1  A    between atoms: C3_3  and  C4_4 
REMARK    2  A    between atoms: C5_6  and  O2_7 
REMARK    3  A    between atoms: C5_6  and  C6_8 
REMARK    4  A    between atoms: C6_8  and  C8_10 
REMARK    5  A    between atoms: C8_10  and  O3_11 
REMARK    6  A    between atoms: C8_10  and  C9_12 
REMARK    7  A    between atoms: C9_12  and  C11_14 
REMARK    8  A    between atoms: C12_15  and  O4_16 
REMARK    9  A    between atoms: C22_26  and  O5_27 
REMARK   10  A    between atoms: C23_28  and  C24_29 
REMARK   11  A    between atoms: C26_31  and  O6_32 
REMARK   12  A    between atoms: C33_39  and  O7_40 
REMARK   13  A    between atoms: C39_48  and  O10_49 
ROOT
HETATM    1  C11 UNL     1      -1.219  50.437 -13.130  1.00  0.00     0.032 C 
HETATM    2  C12 UNL     1       0.150  49.650 -13.138  1.00  0.00     0.154 C 
HETATM    3  C14 UNL     1       1.327  50.536 -12.726  1.00  0.00    -0.051 C 
HETATM    4  C15 UNL     1       2.277  50.200 -11.828  1.00  0.00     0.006 C 
HETATM    5  C16 UNL     1       3.368  51.032 -11.363  1.00  0.00     0.003 C 
HETATM    6  C17 UNL     1       4.294  50.710 -10.435  1.00  0.00    -0.083 C 
HETATM    7  C18 UNL     1       4.381  49.386  -9.725  1.00  0.00     0.043 C 
HETATM    8  C19 UNL     1       5.402  51.704 -10.120  1.00  0.00     0.040 C 
HETATM    9  C20 UNL     1       5.239  52.596  -8.858  1.00  0.00     0.014 C 
HETATM   10  C21 UNL     1       5.357  51.763  -7.582  1.00  0.00     0.012 C 
HETATM   11  C22 UNL     1       3.978  53.517  -8.914  1.00  0.00     0.128 C 
HETATM   12  C23 UNL     1       3.923  54.601  -7.776  1.00  0.00     0.044 C 
HETATM   13  C26 UNL     1       3.270  54.075  -6.452  1.00  0.00     0.132 C 
HETATM   14  C27 UNL     1       1.719  54.174  -6.315  1.00  0.00     0.034 C 
HETATM   15  C28 UNL     1       1.269  53.742  -4.910  1.00  0.00     0.017 C 
HETATM   16  C29 UNL     1       0.984  53.313  -7.317  1.00  0.00    -0.013 C 
HETATM   17  C30 UNL     1      -0.016  53.667  -8.152  1.00  0.00    -0.062 C 
HETATM   18  C31 UNL     1      -0.631  55.041  -8.188  1.00  0.00     0.048 C 
HETATM   19  C32 UNL     1      -0.547  52.643  -9.057  1.00  0.00     0.047 C 
HETATM   20  C33 UNL     1      -1.363  52.772 -10.124  1.00  0.00     0.123 C 
HETATM   21  C35 UNL     1      -1.615  51.631 -10.999  1.00  0.00     0.257 C 
HETATM   22  O8  UNL     1      -2.607  50.929 -10.682  1.00  0.00    -0.281 OA
HETATM   23  O9  UNL     1      -1.094  51.646 -12.338  1.00  0.00     0.000 OA
HETATM   24  C36 UNL     1      -0.015  52.548 -12.643  1.00  0.00     0.005 C 
HETATM   25  C37 UNL     1       1.168  51.893 -13.344  1.00  0.00     0.037 C 
ENDROOT
BRANCH   1  26
HETATM   26  C9  UNL     1      -1.795  50.777 -14.563  1.00  0.00     0.018 C 
HETATM   27  C10 UNL     1      -3.171  51.500 -14.482  1.00  0.00     0.013 C 
BRANCH  26  28
HETATM   28  C8  UNL     1      -2.027  49.526 -15.480  1.00  0.00     0.131 C 
BRANCH  28  29
HETATM   29  C6  UNL     1      -1.283  49.450 -16.842  1.00  0.00     0.073 C 
HETATM   30  C7  UNL     1       0.211  49.753 -16.666  1.00  0.00     0.018 C 
BRANCH  29  31
HETATM   31  C5  UNL     1      -1.947  50.389 -17.912  1.00  0.00     0.170 C 
HETATM   32  O1  UNL     1      -0.939  50.792 -18.845  1.00  0.00    -0.345 OA
HETATM   33  C4  UNL     1      -1.481  51.319 -20.058  1.00  0.00     0.153 C 
HETATM   34  C40 UNL     1      -2.099  50.171 -20.887  1.00  0.00     0.043 C 
HETATM   35  C39 UNL     1      -2.792  49.150 -19.966  1.00  0.00     0.129 C 
HETATM   36  C41 UNL     1      -1.082  49.421 -21.761  1.00  0.00     0.015 C 
HETATM   37  C38 UNL     1      -3.162  49.746 -18.612  1.00  0.00     0.101 C 
BRANCH  33  38
HETATM   38  C3  UNL     1      -0.456  52.135 -20.807  1.00  0.00     0.001 C 
HETATM   39  C2  UNL     1       0.240  53.188 -20.344  1.00  0.00    -0.033 C 
HETATM   40  C1  UNL     1       1.240  53.949 -21.154  1.00  0.00     0.036 C 
ENDBRANCH  33  38
BRANCH  35  41
HETATM   41  O10 UNL     1      -3.980  48.686 -20.614  1.00  0.00    -0.395 OA
HETATM   42  H63 UNL     1      -4.303  47.912 -20.125  1.00  0.00     0.210 HD
ENDBRANCH  35  41
BRANCH  31  43
HETATM   43  O2  UNL     1      -2.391  51.530 -17.180  1.00  0.00    -0.365 OA
HETATM   44  H7  UNL     1      -3.048  52.012 -17.706  1.00  0.00     0.213 HD
ENDBRANCH  31  43
ENDBRANCH  29  31
ENDBRANCH  28  29
BRANCH  28  45
HETATM   45  O3  UNL     1      -3.438  49.467 -15.749  1.00  0.00    -0.395 OA
HETATM   46  H13 UNL     1      -3.572  48.651 -16.274  1.00  0.00     0.210 HD
ENDBRANCH  28  45
ENDBRANCH  26  28
ENDBRANCH   1  26
BRANCH   2  47
HETATM   47  O4  UNL     1       0.049  48.506 -12.281  1.00  0.00    -0.386 OA
HETATM   48  C13 UNL     1      -0.051  48.819 -10.896  1.00  0.00     0.202 C 
ENDBRANCH   2  47
BRANCH  20  49
HETATM   49  O7  UNL     1      -1.799  54.000 -10.597  1.00  0.00    -0.352 OA
HETATM   50  C34 UNL     1      -3.224  54.094 -10.536  1.00  0.00     0.210 C 
ENDBRANCH  20  49
BRANCH  11  51
HETATM   51  O5  UNL     1       3.994  54.162 -10.199  1.00  0.00    -0.395 OA
HETATM   52  H35 UNL     1       4.820  54.676 -10.259  1.00  0.00     0.210 HD
ENDBRANCH  11  51
BRANCH  13  53
HETATM   53  O6  UNL     1       3.863  54.795  -5.355  1.00  0.00    -0.394 OA
HETATM   54  H43 UNL     1       4.809  54.570  -5.329  1.00  0.00     0.210 HD
ENDBRANCH  13  53
BRANCH  12  55
HETATM   55  C24 UNL     1       3.333  55.956  -8.260  1.00  0.00     0.005 C 
HETATM   56  C25 UNL     1       4.189  57.176  -7.936  1.00  0.00     0.005 C 
ENDBRANCH  12  55
TORSDOF 13
ENDMDL
MODEL 6
REMARK minimizedAffinity -8.73957062
REMARK CNNscore 0.445949018
REMARK CNNaffinity 7.72068787
REMARK  13 active torsions:
REMARK  status: ('A' for Active; 'I' for Inactive)
REMARK    1  A    between atoms: C3_3  and  C4_4 
REMARK    2  A    between atoms: C5_6  and  O2_7 
REMARK    3  A    between atoms: C5_6  and  C6_8 
REMARK    4  A    between atoms: C6_8  and  C8_10 
REMARK    5  A    between atoms: C8_10  and  O3_11 
REMARK    6  A    between atoms: C8_10  and  C9_12 
REMARK    7  A    between atoms: C9_12  and  C11_14 
REMARK    8  A    between atoms: C12_15  and  O4_16 
REMARK    9  A    between atoms: C22_26  and  O5_27 
REMARK   10  A    between atoms: C23_28  and  C24_29 
REMARK   11  A    between atoms: C26_31  and  O6_32 
REMARK   12  A    between atoms: C33_39  and  O7_40 
REMARK   13  A    between atoms: C39_48  and  O10_49 
ROOT
HETATM    1  C11 UNL     1      -2.575  50.317 -22.258  1.00  0.00     0.032 C 
HETATM    2  C12 UNL     1      -1.689  50.921 -21.100  1.00  0.00     0.154 C 
HETATM    3  C14 UNL     1      -2.262  50.618 -19.715  1.00  0.00    -0.051 C 
HETATM    4  C15 UNL     1      -1.556  50.147 -18.665  1.00  0.00     0.006 C 
HETATM    5  C16 UNL     1      -2.073  49.788 -17.360  1.00  0.00     0.003 C 
HETATM    6  C17 UNL     1      -1.373  49.279 -16.324  1.00  0.00    -0.083 C 
HETATM    7  C18 UNL     1       0.110  49.020 -16.328  1.00  0.00     0.043 C 
HETATM    8  C19 UNL     1      -2.087  49.016 -15.007  1.00  0.00     0.040 C 
HETATM    9  C20 UNL     1      -2.542  47.561 -14.707  1.00  0.00     0.014 C 
HETATM   10  C21 UNL     1      -1.338  46.652 -14.459  1.00  0.00     0.012 C 
HETATM   11  C22 UNL     1      -3.565  47.007 -15.752  1.00  0.00     0.128 C 
HETATM   12  C23 UNL     1      -4.227  45.642 -15.340  1.00  0.00     0.044 C 
HETATM   13  C26 UNL     1      -3.381  44.391 -15.760  1.00  0.00     0.132 C 
HETATM   14  C27 UNL     1      -3.599  43.811 -17.191  1.00  0.00     0.034 C 
HETATM   15  C28 UNL     1      -2.793  42.516 -17.382  1.00  0.00     0.017 C 
HETATM   16  C29 UNL     1      -3.188  44.772 -18.285  1.00  0.00    -0.013 C 
HETATM   17  C30 UNL     1      -3.896  45.165 -19.365  1.00  0.00    -0.062 C 
HETATM   18  C31 UNL     1      -5.268  44.645 -19.702  1.00  0.00     0.048 C 
HETATM   19  C32 UNL     1      -3.279  46.138 -20.271  1.00  0.00     0.047 C 
HETATM   20  C33 UNL     1      -3.830  46.859 -21.270  1.00  0.00     0.123 C 
HETATM   21  C35 UNL     1      -3.062  47.914 -21.924  1.00  0.00     0.257 C 
HETATM   22  O8  UNL     1      -2.408  47.546 -22.932  1.00  0.00    -0.281 OA
HETATM   23  O9  UNL     1      -3.447  49.284 -21.730  1.00  0.00     0.000 OA
HETATM   24  C36 UNL     1      -4.276  49.609 -20.600  1.00  0.00     0.005 C 
HETATM   25  C37 UNL     1      -3.754  50.763 -19.753  1.00  0.00     0.037 C 
ENDROOT
BRANCH   1  26
HETATM   26  C9  UNL     1      -3.416  51.382 -23.072  1.00  0.00     0.018 C 
HETATM   27  C10 UNL     1      -4.487  52.080 -22.184  1.00  0.00     0.013 C 
BRANCH  26  28
HETATM   28  C8  UNL     1      -4.199  50.789 -24.294  1.00  0.00     0.131 C 
BRANCH  28  29
HETATM   29  C6  UNL     1      -3.481  50.702 -25.670  1.00  0.00     0.073 C 
HETATM   30  C7  UNL     1      -2.678  49.399 -25.786  1.00  0.00     0.018 C 
BRANCH  29  31
HETATM   31  C5  UNL     1      -2.584  51.965 -25.929  1.00  0.00     0.170 C 
HETATM   32  O1  UNL     1      -1.500  51.949 -24.993  1.00  0.00    -0.345 OA
HETATM   33  C4  UNL     1      -0.425  52.812 -25.370  1.00  0.00     0.153 C 
HETATM   34  C40 UNL     1       0.321  52.207 -26.580  1.00  0.00     0.043 C 
HETATM   35  C39 UNL     1      -0.670  51.537 -27.549  1.00  0.00     0.129 C 
HETATM   36  C41 UNL     1       1.392  51.174 -26.194  1.00  0.00     0.015 C 
HETATM   37  C38 UNL     1      -2.090  52.069 -27.387  1.00  0.00     0.101 C 
BRANCH  33  38
HETATM   38  C3  UNL     1       0.464  53.124 -24.192  1.00  0.00     0.001 C 
HETATM   39  C2  UNL     1       0.757  54.338 -23.693  1.00  0.00    -0.033 C 
HETATM   40  C1  UNL     1       1.654  54.565 -22.519  1.00  0.00     0.036 C 
ENDBRANCH  33  38
BRANCH  35  41
HETATM   41  O10 UNL     1      -0.229  51.777 -28.888  1.00  0.00    -0.395 OA
HETATM   42  H63 UNL     1      -0.739  51.199 -29.478  1.00  0.00     0.210 HD
ENDBRANCH  35  41
BRANCH  31  43
HETATM   43  O2  UNL     1      -3.426  53.082 -25.650  1.00  0.00    -0.365 OA
HETATM   44  H7  UNL     1      -3.046  53.878 -26.052  1.00  0.00     0.213 HD
ENDBRANCH  31  43
ENDBRANCH  29  31
ENDBRANCH  28  29
BRANCH  28  45
HETATM   45  O3  UNL     1      -5.373  51.599 -24.465  1.00  0.00    -0.395 OA
HETATM   46  H13 UNL     1      -5.877  51.183 -25.194  1.00  0.00     0.210 HD
ENDBRANCH  28  45
ENDBRANCH  26  28
ENDBRANCH   1  26
BRANCH   2  47
HETATM   47  O4  UNL     1      -0.349  50.426 -21.215  1.00  0.00    -0.386 OA
HETATM   48  C13 UNL     1       0.659  51.407 -20.997  1.00  0.00     0.202 C 
ENDBRANCH   2  47
BRANCH  20  49
HETATM   49  O7  UNL     1      -5.185  46.831 -21.563  1.00  0.00    -0.352 OA
HETATM   50  C34 UNL     1      -5.939  47.506 -20.554  1.00  0.00     0.210 C 
ENDBRANCH  20  49
BRANCH  11  51
HETATM   51  O5  UNL     1      -4.580  48.012 -15.909  1.00  0.00    -0.395 OA
HETATM   52  H35 UNL     1      -4.993  48.151 -15.037  1.00  0.00     0.210 HD
ENDBRANCH  11  51
BRANCH  13  53
HETATM   53  O6  UNL     1      -3.644  43.344 -14.808  1.00  0.00    -0.394 OA
HETATM   54  H43 UNL     1      -3.321  43.643 -13.941  1.00  0.00     0.210 HD
ENDBRANCH  13  53
BRANCH  12  55
HETATM   55  C24 UNL     1      -5.722  45.545 -15.760  1.00  0.00     0.005 C 
HETATM   56  C25 UNL     1      -6.669  45.113 -14.647  1.00  0.00     0.005 C 
ENDBRANCH  12  55
TORSDOF 13
ENDMDL
MODEL 7
REMARK minimizedAffinity -8.30173779
REMARK CNNscore 0.310507059
REMARK CNNaffinity 6.40937805
REMARK  13 active torsions:
REMARK  status: ('A' for Active; 'I' for Inactive)
REMARK    1  A    between atoms: C3_3  and  C4_4 
REMARK    2  A    between atoms: C5_6  and  O2_7 
REMARK    3  A    between atoms: C5_6  and  C6_8 
REMARK    4  A    between atoms: C6_8  and  C8_10 
REMARK    5  A    between atoms: C8_10  and  O3_11 
REMARK    6  A    between atoms: C8_10  and  C9_12 
REMARK    7  A    between atoms: C9_12  and  C11_14 
REMARK    8  A    between atoms: C12_15  and  O4_16 
REMARK    9  A    between atoms: C22_26  and  O5_27 
REMARK   10  A    between atoms: C23_28  and  C24_29 
REMARK   11  A    between atoms: C26_31  and  O6_32 
REMARK   12  A    between atoms: C33_39  and  O7_40 
REMARK   13  A    between atoms: C39_48  and  O10_49 
ROOT
HETATM    1  C11 UNL     1     -13.122  45.762 -25.589  1.00  0.00     0.032 C 
HETATM    2  C12 UNL     1     -12.097  46.962 -25.543  1.00  0.00     0.154 C 
HETATM    3  C14 UNL     1     -10.712  46.557 -26.049  1.00  0.00    -0.051 C 
HETATM    4  C15 UNL     1      -9.971  47.256 -26.934  1.00  0.00     0.006 C 
HETATM    5  C16 UNL     1      -8.686  46.877 -27.486  1.00  0.00     0.003 C 
HETATM    6  C17 UNL     1      -7.965  47.557 -28.402  1.00  0.00    -0.083 C 
HETATM    7  C18 UNL     1      -8.359  48.880 -29.002  1.00  0.00     0.043 C 
HETATM    8  C19 UNL     1      -6.604  47.020 -28.819  1.00  0.00     0.040 C 
HETATM    9  C20 UNL     1      -6.516  46.218 -30.146  1.00  0.00     0.014 C 
HETATM   10  C21 UNL     1      -6.743  47.130 -31.352  1.00  0.00     0.012 C 
HETATM   11  C22 UNL     1      -7.393  44.923 -30.143  1.00  0.00     0.128 C 
HETATM   12  C23 UNL     1      -7.134  43.969 -31.365  1.00  0.00     0.044 C 
HETATM   13  C26 UNL     1      -7.985  44.335 -32.628  1.00  0.00     0.132 C 
HETATM   14  C27 UNL     1      -9.417  43.730 -32.743  1.00  0.00     0.034 C 
HETATM   15  C28 UNL     1     -10.050  44.083 -34.099  1.00  0.00     0.017 C 
HETATM   16  C29 UNL     1     -10.352  44.218 -31.660  1.00  0.00    -0.013 C 
HETATM   17  C30 UNL     1     -11.137  43.490 -30.838  1.00  0.00    -0.062 C 
HETATM   18  C31 UNL     1     -11.253  41.990 -30.903  1.00  0.00     0.048 C 
HETATM   19  C32 UNL     1     -11.938  44.208 -29.842  1.00  0.00     0.047 C 
HETATM   20  C33 UNL     1     -12.614  43.736 -28.774  1.00  0.00     0.123 C 
HETATM   21  C35 UNL     1     -13.192  44.659 -27.803  1.00  0.00     0.257 C 
HETATM   22  O8  UNL     1     -14.376  45.007 -28.042  1.00  0.00    -0.281 OA
HETATM   23  O9  UNL     1     -12.636  44.726 -26.480  1.00  0.00     0.000 OA
HETATM   24  C36 UNL     1     -11.305  44.222 -26.271  1.00  0.00     0.005 C 
HETATM   25  C37 UNL     1     -10.378  45.186 -25.542  1.00  0.00     0.037 C 
ENDROOT
BRANCH   1  26
HETATM   26  C9  UNL     1     -13.485  45.147 -24.178  1.00  0.00     0.018 C 
HETATM   27  C10 UNL     1     -14.190  43.766 -24.309  1.00  0.00     0.013 C 
BRANCH  26  28
HETATM   28  C8  UNL     1     -14.448  46.034 -23.314  1.00  0.00     0.131 C 
BRANCH  28  29
HETATM   29  C6  UNL     1     -15.906  45.548 -23.085  1.00  0.00     0.073 C 
HETATM   30  C7  UNL     1     -16.913  46.532 -23.697  1.00  0.00     0.018 C 
BRANCH  29  31
HETATM   31  C5  UNL     1     -16.192  45.293 -21.562  1.00  0.00     0.170 C 
HETATM   32  O1  UNL     1     -16.247  46.559 -20.895  1.00  0.00    -0.345 OA
HETATM   33  C4  UNL     1     -16.872  46.486 -19.611  1.00  0.00     0.153 C 
HETATM   34  C40 UNL     1     -18.390  46.267 -19.789  1.00  0.00     0.043 C 
HETATM   35  C39 UNL     1     -18.667  45.322 -20.974  1.00  0.00     0.129 C 
HETATM   36  C41 UNL     1     -19.181  47.565 -20.012  1.00  0.00     0.015 C 
HETATM   37  C38 UNL     1     -17.462  44.452 -21.316  1.00  0.00     0.101 C 
BRANCH  33  38
HETATM   38  C3  UNL     1     -16.518  47.682 -18.762  1.00  0.00     0.001 C 
HETATM   39  C2  UNL     1     -15.464  48.502 -18.913  1.00  0.00    -0.033 C 
HETATM   40  C1  UNL     1     -15.180  49.670 -18.024  1.00  0.00     0.036 C 
ENDBRANCH  33  38
BRANCH  35  41
HETATM   41  O10 UNL     1     -19.773  44.481 -20.635  1.00  0.00    -0.395 OA
HETATM   42  H63 UNL     1     -20.062  44.030 -21.445  1.00  0.00     0.210 HD
ENDBRANCH  35  41
BRANCH  31  43
HETATM   43  O2  UNL     1     -15.061  44.563 -21.088  1.00  0.00    -0.365 OA
HETATM   44  H7  UNL     1     -15.287  44.130 -20.251  1.00  0.00     0.213 HD
ENDBRANCH  31  43
ENDBRANCH  29  31
ENDBRANCH  28  29
BRANCH  28  45
HETATM   45  O3  UNL     1     -14.511  47.319 -23.955  1.00  0.00    -0.395 OA
HETATM   46  H13 UNL     1     -15.070  47.876 -23.375  1.00  0.00     0.210 HD
ENDBRANCH  28  45
ENDBRANCH  26  28
ENDBRANCH   1  26
BRANCH   2  47
HETATM   47  O4  UNL     1     -12.614  48.063 -26.300  1.00  0.00    -0.386 OA
HETATM   48  C13 UNL     1     -12.657  47.837 -27.705  1.00  0.00     0.202 C 
ENDBRANCH   2  47
BRANCH  20  49
HETATM   49  O7  UNL     1     -12.591  42.402 -28.395  1.00  0.00    -0.352 OA
HETATM   50  C34 UNL     1     -13.917  41.879 -28.292  1.00  0.00     0.210 C 
ENDBRANCH  20  49
BRANCH  11  51
HETATM   51  O5  UNL     1      -7.103  44.232 -28.916  1.00  0.00    -0.395 OA
HETATM   52  H35 UNL     1      -6.151  44.024 -28.914  1.00  0.00     0.210 HD
ENDBRANCH  11  51
BRANCH  13  53
HETATM   53  O6  UNL     1      -7.236  43.938 -33.792  1.00  0.00    -0.394 OA
HETATM   54  H43 UNL     1      -6.422  44.470 -33.817  1.00  0.00     0.210 HD
ENDBRANCH  13  53
BRANCH  12  55
HETATM   55  C24 UNL     1      -7.213  42.463 -30.983  1.00  0.00     0.005 C 
HETATM   56  C25 UNL     1      -6.569  41.516 -31.989  1.00  0.00     0.005 C 
ENDBRANCH  12  55
TORSDOF 13
ENDMDL
MODEL 8
REMARK minimizedAffinity -8.42891693
REMARK CNNscore 0.284015059
REMARK CNNaffinity 7.43315506
REMARK  13 active torsions:
REMARK  status: ('A' for Active; 'I' for Inactive)
REMARK    1  A    between atoms: C3_3  and  C4_4 
REMARK    2  A    between atoms: C5_6  and  O2_7 
REMARK    3  A    between atoms: C5_6  and  C6_8 
REMARK    4  A    between atoms: C6_8  and  C8_10 
REMARK    5  A    between atoms: C8_10  and  O3_11 
REMARK    6  A    between atoms: C8_10  and  C9_12 
REMARK    7  A    between atoms: C9_12  and  C11_14 
REMARK    8  A    between atoms: C12_15  and  O4_16 
REMARK    9  A    between atoms: C22_26  and  O5_27 
REMARK   10  A    between atoms: C23_28  and  C24_29 
REMARK   11  A    between atoms: C26_31  and  O6_32 
REMARK   12  A    between atoms: C33_39  and  O7_40 
REMARK   13  A    between atoms: C39_48  and  O10_49 
ROOT
HETATM    1  C11 UNL     1      -2.288  48.687 -15.464  1.00  0.00     0.032 C 
HETATM    2  C12 UNL     1      -0.722  48.508 -15.542  1.00  0.00     0.154 C 
HETATM    3  C14 UNL     1       0.026  49.726 -14.996  1.00  0.00    -0.051 C 
HETATM    4  C15 UNL     1       1.058  49.681 -14.127  1.00  0.00     0.006 C 
HETATM    5  C16 UNL     1       1.750  50.810 -13.538  1.00  0.00     0.003 C 
HETATM    6  C17 UNL     1       2.755  50.764 -12.639  1.00  0.00    -0.083 C 
HETATM    7  C18 UNL     1       3.375  49.503 -12.100  1.00  0.00     0.043 C 
HETATM    8  C19 UNL     1       3.394  52.065 -12.177  1.00  0.00     0.040 C 
HETATM    9  C20 UNL     1       2.933  52.657 -10.817  1.00  0.00     0.014 C 
HETATM   10  C21 UNL     1       3.406  51.785  -9.653  1.00  0.00     0.012 C 
HETATM   11  C22 UNL     1       1.410  53.008 -10.782  1.00  0.00     0.128 C 
HETATM   12  C23 UNL     1       0.969  53.832  -9.518  1.00  0.00     0.044 C 
HETATM   13  C26 UNL     1       0.615  52.932  -8.285  1.00  0.00     0.132 C 
HETATM   14  C27 UNL     1      -0.845  52.396  -8.170  1.00  0.00     0.034 C 
HETATM   15  C28 UNL     1      -1.048  51.651  -6.841  1.00  0.00     0.017 C 
HETATM   16  C29 UNL     1      -1.214  51.448  -9.288  1.00  0.00    -0.013 C 
HETATM   17  C30 UNL     1      -2.298  51.482 -10.093  1.00  0.00    -0.062 C 
HETATM   18  C31 UNL     1      -3.402  52.497  -9.968  1.00  0.00     0.048 C 
HETATM   19  C32 UNL     1      -2.412  50.453 -11.131  1.00  0.00     0.047 C 
HETATM   20  C33 UNL     1      -3.245  50.383 -12.190  1.00  0.00     0.123 C 
HETATM   21  C35 UNL     1      -3.056  49.354 -13.207  1.00  0.00     0.257 C 
HETATM   22  O8  UNL     1      -3.683  48.285 -13.003  1.00  0.00    -0.281 OA
HETATM   23  O9  UNL     1      -2.623  49.739 -14.522  1.00  0.00     0.000 OA
HETATM   24  C36 UNL     1      -1.994  51.022 -14.688  1.00  0.00     0.005 C 
HETATM   25  C37 UNL     1      -0.670  50.977 -15.441  1.00  0.00     0.037 C 
ENDROOT
BRANCH   1  26
HETATM   26  C9  UNL     1      -2.994  48.949 -16.854  1.00  0.00     0.018 C 
HETATM   27  C10 UNL     1      -4.198  47.990 -17.086  1.00  0.00     0.013 C 
BRANCH  26  28
HETATM   28  C8  UNL     1      -2.059  48.764 -18.099  1.00  0.00     0.131 C 
BRANCH  28  29
HETATM   29  C6  UNL     1      -2.489  49.387 -19.456  1.00  0.00     0.073 C 
HETATM   30  C7  UNL     1      -1.808  48.668 -20.628  1.00  0.00     0.018 C 
BRANCH  29  31
HETATM   31  C5  UNL     1      -2.224  50.935 -19.486  1.00  0.00     0.170 C 
HETATM   32  O1  UNL     1      -0.865  51.167 -19.097  1.00  0.00    -0.345 OA
HETATM   33  C4  UNL     1      -0.399  52.470 -19.452  1.00  0.00     0.153 C 
HETATM   34  C40 UNL     1      -0.204  52.549 -20.982  1.00  0.00     0.043 C 
HETATM   35  C39 UNL     1      -1.312  51.766 -21.711  1.00  0.00     0.129 C 
HETATM   36  C41 UNL     1       1.157  52.018 -21.461  1.00  0.00     0.015 C 
HETATM   37  C38 UNL     1      -2.555  51.581 -20.848  1.00  0.00     0.101 C 
BRANCH  33  38
HETATM   38  C3  UNL     1       0.826  52.848 -18.656  1.00  0.00     0.001 C 
HETATM   39  C2  UNL     1       1.340  52.198 -17.597  1.00  0.00    -0.033 C 
HETATM   40  C1  UNL     1       2.561  52.640 -16.857  1.00  0.00     0.036 C 
ENDBRANCH  33  38
BRANCH  35  41
HETATM   41  O10 UNL     1      -1.667  52.480 -22.898  1.00  0.00    -0.395 OA
HETATM   42  H63 UNL     1      -2.217  51.895 -23.444  1.00  0.00     0.210 HD
ENDBRANCH  35  41
BRANCH  31  43
HETATM   43  O2  UNL     1      -3.094  51.481 -18.496  1.00  0.00    -0.365 OA
HETATM   44  H7  UNL     1      -3.196  52.433 -18.649  1.00  0.00     0.213 HD
ENDBRANCH  31  43
ENDBRANCH  29  31
ENDBRANCH  28  29
BRANCH  28  45
HETATM   45  O3  UNL     1      -1.908  47.348 -18.296  1.00  0.00    -0.395 OA
HETATM   46  H13 UNL     1      -1.279  47.250 -19.040  1.00  0.00     0.210 HD
ENDBRANCH  28  45
ENDBRANCH  26  28
ENDBRANCH   1  26
BRANCH   2  47
HETATM   47  O4  UNL     1      -0.340  47.319 -14.839  1.00  0.00    -0.386 OA
HETATM   48  C13 UNL     1      -1.370  46.343 -14.738  1.00  0.00     0.202 C 
ENDBRANCH   2  47
BRANCH  20  49
HETATM   49  O7  UNL     1      -4.141  51.390 -12.514  1.00  0.00    -0.352 OA
HETATM   50  C34 UNL     1      -3.462  52.514 -13.080  1.00  0.00     0.210 C 
ENDBRANCH  20  49
BRANCH  11  51
HETATM   51  O5  UNL     1       1.133  53.762 -11.974  1.00  0.00    -0.395 OA
HETATM   52  H35 UNL     1       1.690  54.562 -11.952  1.00  0.00     0.210 HD
ENDBRANCH  11  51
BRANCH  13  53
HETATM   53  O6  UNL     1       0.911  53.684  -7.093  1.00  0.00    -0.394 OA
HETATM   54  H43 UNL     1       1.870  53.847  -7.076  1.00  0.00     0.210 HD
ENDBRANCH  13  53
BRANCH  12  55
HETATM   55  C24 UNL     1      -0.119  54.896  -9.839  1.00  0.00     0.005 C 
HETATM   56  C25 UNL     1      -0.377  55.901  -8.722  1.00  0.00     0.005 C 
ENDBRANCH  12  55
TORSDOF 13
ENDMDL
MODEL 9
REMARK minimizedAffinity -9.04550838
REMARK CNNscore 0.270984739
REMARK CNNaffinity 7.20500517
REMARK  13 active torsions:
REMARK  status: ('A' for Active; 'I' for Inactive)
REMARK    1  A    between atoms: C3_3  and  C4_4 
REMARK    2  A    between atoms: C5_6  and  O2_7 
REMARK    3  A    between atoms: C5_6  and  C6_8 
REMARK    4  A    between atoms: C6_8  and  C8_10 
REMARK    5  A    between atoms: C8_10  and  O3_11 
REMARK    6  A    between atoms: C8_10  and  C9_12 
REMARK    7  A    between atoms: C9_12  and  C11_14 
REMARK    8  A    between atoms: C12_15  and  O4_16 
REMARK    9  A    between atoms: C22_26  and  O5_27 
REMARK   10  A    between atoms: C23_28  and  C24_29 
REMARK   11  A    between atoms: C26_31  and  O6_32 
REMARK   12  A    between atoms: C33_39  and  O7_40 
REMARK   13  A    between atoms: C39_48  and  O10_49 
ROOT
HETATM    1  C11 UNL     1      -4.335  49.464 -21.826  1.00  0.00     0.032 C 
HETATM    2  C12 UNL     1      -5.407  48.408 -21.347  1.00  0.00     0.154 C 
HETATM    3  C14 UNL     1      -4.864  47.489 -20.253  1.00  0.00    -0.051 C 
HETATM    4  C15 UNL     1      -5.503  47.183 -19.104  1.00  0.00     0.006 C 
HETATM    5  C16 UNL     1      -4.998  46.370 -18.017  1.00  0.00     0.003 C 
HETATM    6  C17 UNL     1      -5.621  46.098 -16.851  1.00  0.00    -0.083 C 
HETATM    7  C18 UNL     1      -7.000  46.573 -16.478  1.00  0.00     0.043 C 
HETATM    8  C19 UNL     1      -4.947  45.173 -15.849  1.00  0.00     0.040 C 
HETATM    9  C20 UNL     1      -4.184  45.822 -14.661  1.00  0.00     0.014 C 
HETATM   10  C21 UNL     1      -5.157  46.487 -13.686  1.00  0.00     0.012 C 
HETATM   11  C22 UNL     1      -2.999  46.735 -15.115  1.00  0.00     0.128 C 
HETATM   12  C23 UNL     1      -2.063  47.202 -13.941  1.00  0.00     0.044 C 
HETATM   13  C26 UNL     1      -2.567  48.502 -13.227  1.00  0.00     0.132 C 
HETATM   14  C27 UNL     1      -2.133  49.876 -13.824  1.00  0.00     0.034 C 
HETATM   15  C28 UNL     1      -2.602  51.032 -12.926  1.00  0.00     0.017 C 
HETATM   16  C29 UNL     1      -2.689  50.118 -15.209  1.00  0.00    -0.013 C 
HETATM   17  C30 UNL     1      -2.028  50.496 -16.324  1.00  0.00    -0.062 C 
HETATM   18  C31 UNL     1      -0.555  50.804 -16.360  1.00  0.00     0.048 C 
HETATM   19  C32 UNL     1      -2.799  50.637 -17.563  1.00  0.00     0.047 C 
HETATM   20  C33 UNL     1      -2.372  50.773 -18.835  1.00  0.00     0.123 C 
HETATM   21  C35 UNL     1      -3.323  50.708 -19.941  1.00  0.00     0.257 C 
HETATM   22  O8  UNL     1      -3.811  51.812 -20.286  1.00  0.00    -0.281 OA
HETATM   23  O9  UNL     1      -3.281  49.585 -20.836  1.00  0.00     0.000 OA
HETATM   24  C36 UNL     1      -2.621  48.384 -20.399  1.00  0.00     0.005 C 
HETATM   25  C37 UNL     1      -3.447  47.117 -20.574  1.00  0.00     0.037 C 
ENDROOT
BRANCH   1  26
HETATM   26  C9  UNL     1      -3.719  49.180 -23.254  1.00  0.00     0.018 C 
HETATM   27  C10 UNL     1      -2.724  47.983 -23.232  1.00  0.00     0.013 C 
BRANCH  26  28
HETATM   28  C8  UNL     1      -2.920  50.384 -23.863  1.00  0.00     0.131 C 
BRANCH  28  29
HETATM   29  C6  UNL     1      -2.936  50.588 -25.404  1.00  0.00     0.073 C 
HETATM   30  C7  UNL     1      -2.290  49.394 -26.120  1.00  0.00     0.018 C 
BRANCH  29  31
HETATM   31  C5  UNL     1      -2.261  51.947 -25.810  1.00  0.00     0.170 C 
HETATM   32  O1  UNL     1      -1.177  52.198 -24.910  1.00  0.00    -0.345 OA
HETATM   33  C4  UNL     1      -0.262  53.182 -25.399  1.00  0.00     0.153 C 
HETATM   34  C40 UNL     1       0.556  52.588 -26.567  1.00  0.00     0.043 C 
HETATM   35  C39 UNL     1      -0.326  51.674 -27.437  1.00  0.00     0.129 C 
HETATM   36  C41 UNL     1       1.786  51.784 -26.115  1.00  0.00     0.015 C 
HETATM   37  C38 UNL     1      -1.811  51.984 -27.286  1.00  0.00     0.101 C 
BRANCH  33  38
HETATM   38  C3  UNL     1       0.580  53.749 -24.283  1.00  0.00     0.001 C 
HETATM   39  C2  UNL     1       0.603  53.350 -23.000  1.00  0.00    -0.033 C 
HETATM   40  C1  UNL     1       1.468  53.968 -21.948  1.00  0.00     0.036 C 
ENDBRANCH  33  38
BRANCH  35  41
HETATM   41  O10 UNL     1       0.052  51.847 -28.806  1.00  0.00    -0.395 OA
HETATM   42  H63 UNL     1      -0.365  51.139 -29.322  1.00  0.00     0.210 HD
ENDBRANCH  35  41
BRANCH  31  43
HETATM   43  O2  UNL     1      -3.270  52.936 -25.615  1.00  0.00    -0.365 OA
HETATM   44  H7  UNL     1      -3.031  53.739 -26.103  1.00  0.00     0.213 HD
ENDBRANCH  31  43
ENDBRANCH  29  31
ENDBRANCH  28  29
BRANCH  28  45
HETATM   45  O3  UNL     1      -1.551  50.218 -23.459  1.00  0.00    -0.395 OA
HETATM   46  H13 UNL     1      -1.077  51.005 -23.800  1.00  0.00     0.210 HD
ENDBRANCH  28  45
ENDBRANCH  26  28
ENDBRANCH   1  26
BRANCH   2  47
HETATM   47  O4  UNL     1      -6.585  49.091 -20.900  1.00  0.00    -0.386 OA
HETATM   48  C13 UNL     1      -7.656  49.086 -21.837  1.00  0.00     0.202 C 
ENDBRANCH   2  47
BRANCH  20  49
HETATM   49  O7  UNL     1      -1.032  50.728 -19.191  1.00  0.00    -0.352 OA
HETATM   50  C34 UNL     1      -0.585  52.005 -19.652  1.00  0.00     0.210 C 
ENDBRANCH  20  49
BRANCH  11  51
HETATM   51  O5  UNL     1      -2.239  45.979 -16.072  1.00  0.00    -0.395 OA
HETATM   52  H35 UNL     1      -1.923  45.172 -15.626  1.00  0.00     0.210 HD
ENDBRANCH  11  51
BRANCH  13  53
HETATM   53  O6  UNL     1      -2.126  48.450 -11.858  1.00  0.00    -0.394 OA
HETATM   54  H43 UNL     1      -2.562  47.690 -11.434  1.00  0.00     0.210 HD
ENDBRANCH  13  53
BRANCH  12  55
HETATM   55  C24 UNL     1      -0.564  47.265 -14.353  1.00  0.00     0.005 C 
HETATM   56  C25 UNL     1       0.329  46.238 -13.666  1.00  0.00     0.005 C 
ENDBRANCH  12  55
TORSDOF 13
ENDMDL
