MODEL 1
REMARK minimizedAffinity -9.93401241
REMARK  7 active torsions:
REMARK  status: ('A' for Active; 'I' for Inactive)
REMARK    1  A    between atoms: C2_2  and  C30_33 
REMARK    2  A    between atoms: C3_3  and  C4_4 
REMARK    3  A    between atoms: C4_4  and  C5_5 
REMARK    4  A    between atoms: C5_5  and  C6_6 
REMARK    5  A    between atoms: C6_6  and  C8_8 
REMARK    6  A    between atoms: C10_10  and  O1_11 
REMARK    7  A    between atoms: C30_33  and  O5_35 
ROOT
HETATM    1  C8  UNL     1      -0.915  49.861 -18.025  1.00  0.00     0.001 C 
HETATM    2  C9  UNL     1      -1.910  48.673 -18.023  1.00  0.00     0.038 C 
HETATM    3  C10 UNL     1      -2.427  48.524 -19.476  1.00  0.00     0.131 C 
HETATM    4  C11 UNL     1      -1.440  49.366 -20.333  1.00  0.00     0.014 C 
HETATM    5  C12 UNL     1      -0.175  48.490 -20.621  1.00  0.00     0.023 C 
HETATM    6  C13 UNL     1      -1.847  49.897 -21.708  1.00  0.00    -0.058 C 
HETATM    7  C14 UNL     1      -1.232  50.986 -22.248  1.00  0.00    -0.000 C 
HETATM    8  C15 UNL     1      -0.322  51.836 -21.362  1.00  0.00     0.157 C 
HETATM    9  O2  UNL     1       0.191  52.867 -21.796  1.00  0.00    -0.293 OA
HETATM   10  C16 UNL     1      -0.061  51.425 -19.917  1.00  0.00     0.094 C 
HETATM   11  C17 UNL     1      -1.213  50.583 -19.371  1.00  0.00    -0.019 C 
HETATM   12  C18 UNL     1      -2.463  51.508 -19.233  1.00  0.00     0.017 C 
HETATM   13  C19 UNL     1      -1.446  51.439 -23.722  1.00  0.00    -0.008 C 
HETATM   14  C20 UNL     1      -2.353  52.690 -23.651  1.00  0.00     0.021 C 
HETATM   15  C21 UNL     1      -0.106  51.832 -24.435  1.00  0.00     0.022 C 
HETATM   16  C22 UNL     1       0.224  51.052 -25.701  1.00  0.00     0.080 C 
HETATM   17  C23 UNL     1      -0.956  50.991 -26.639  1.00  0.00     0.135 C 
HETATM   18  O3  UNL     1      -0.824  51.276 -27.836  1.00  0.00    -0.297 OA
HETATM   19  C24 UNL     1      -2.276  50.459 -26.059  1.00  0.00     0.018 C 
HETATM   20  C25 UNL     1      -3.412  51.416 -26.461  1.00  0.00     0.023 C 
HETATM   21  C26 UNL     1      -2.533  49.090 -26.740  1.00  0.00     0.023 C 
HETATM   22  C27 UNL     1      -2.091  50.247 -24.521  1.00  0.00     0.014 C 
HETATM   23  C28 UNL     1      -3.327  49.708 -23.790  1.00  0.00     0.011 C 
HETATM   24  C29 UNL     1      -2.900  49.104 -22.453  1.00  0.00     0.036 C 
ENDROOT
BRANCH   1  25
HETATM   25  C6  UNL     1      -0.833  50.707 -16.720  1.00  0.00    -0.013 C 
HETATM   26  C7  UNL     1       0.601  50.619 -16.159  1.00  0.00     0.010 C 
BRANCH  25  27
HETATM   27  C5  UNL     1      -1.831  50.309 -15.606  1.00  0.00     0.008 C 
BRANCH  27  28
HETATM   28  C4  UNL     1      -1.423  50.820 -14.217  1.00  0.00     0.028 C 
BRANCH  28  29
HETATM   29  C3  UNL     1      -2.382  51.870 -13.725  1.00  0.00    -0.013 C 
HETATM   30  C2  UNL     1      -2.986  51.925 -12.519  1.00  0.00     0.008 C 
HETATM   31  C1  UNL     1      -2.839  50.920 -11.418  1.00  0.00     0.055 C 
BRANCH  30  32
HETATM   32  C30 UNL     1      -3.890  53.055 -12.171  1.00  0.00     0.171 C 
HETATM   33  O4  UNL     1      -4.273  53.328 -11.048  1.00  0.00    -0.646 OA
BRANCH  32  34
HETATM   34  O5  UNL     1      -4.263  53.803 -13.226  1.00  0.00    -0.773 OA
HETATM   35  H44 UNL     1      -4.837  54.486 -12.823  1.00  0.00     0.167 HD
ENDBRANCH  32  34
ENDBRANCH  30  32
ENDBRANCH  28  29
ENDBRANCH  27  28
ENDBRANCH  25  27
ENDBRANCH   1  25
BRANCH   3  36
HETATM   36  O1  UNL     1      -2.483  47.144 -19.807  1.00  0.00    -0.394 OA
HETATM   37  H17 UNL     1      -2.848  47.056 -20.703  1.00  0.00     0.210 HD
ENDBRANCH   3  36
TORSDOF 7
ENDMDL
MODEL 2
REMARK minimizedAffinity -9.81455135
REMARK  7 active torsions:
REMARK  status: ('A' for Active; 'I' for Inactive)
REMARK    1  A    between atoms: C2_2  and  C30_33 
REMARK    2  A    between atoms: C3_3  and  C4_4 
REMARK    3  A    between atoms: C4_4  and  C5_5 
REMARK    4  A    between atoms: C5_5  and  C6_6 
REMARK    5  A    between atoms: C6_6  and  C8_8 
REMARK    6  A    between atoms: C10_10  and  O1_11 
REMARK    7  A    between atoms: C30_33  and  O5_35 
ROOT
HETATM    1  C8  UNL     1      -4.023  50.373 -24.646  1.00  0.00     0.001 C 
HETATM    2  C9  UNL     1      -5.491  50.163 -24.197  1.00  0.00     0.038 C 
HETATM    3  C10 UNL     1      -5.471  50.040 -22.653  1.00  0.00     0.131 C 
HETATM    4  C11 UNL     1      -4.067  50.561 -22.235  1.00  0.00     0.014 C 
HETATM    5  C12 UNL     1      -4.123  52.124 -22.179  1.00  0.00     0.023 C 
HETATM    6  C13 UNL     1      -3.445  50.161 -20.896  1.00  0.00    -0.058 C 
HETATM    7  C14 UNL     1      -2.095  50.190 -20.716  1.00  0.00    -0.000 C 
HETATM    8  C15 UNL     1      -1.189  50.364 -21.934  1.00  0.00     0.157 C 
HETATM    9  O2  UNL     1       0.036  50.323 -21.816  1.00  0.00    -0.293 OA
HETATM   10  C16 UNL     1      -1.798  50.569 -23.316  1.00  0.00     0.094 C 
HETATM   11  C17 UNL     1      -3.197  49.959 -23.394  1.00  0.00    -0.019 C 
HETATM   12  C18 UNL     1      -3.052  48.407 -23.320  1.00  0.00     0.017 C 
HETATM   13  C19 UNL     1      -1.420  50.009 -19.325  1.00  0.00    -0.008 C 
HETATM   14  C20 UNL     1      -0.822  48.582 -19.330  1.00  0.00     0.021 C 
HETATM   15  C21 UNL     1      -0.264  51.037 -19.073  1.00  0.00     0.022 C 
HETATM   16  C22 UNL     1      -0.422  51.923 -17.844  1.00  0.00     0.080 C 
HETATM   17  C23 UNL     1      -0.780  51.118 -16.620  1.00  0.00     0.135 C 
HETATM   18  O3  UNL     1      -0.157  51.269 -15.562  1.00  0.00    -0.297 OA
HETATM   19  C24 UNL     1      -2.008  50.199 -16.730  1.00  0.00     0.018 C 
HETATM   20  C25 UNL     1      -1.636  48.811 -16.179  1.00  0.00     0.023 C 
HETATM   21  C26 UNL     1      -3.094  50.811 -15.808  1.00  0.00     0.023 C 
HETATM   22  C27 UNL     1      -2.511  50.221 -18.210  1.00  0.00     0.014 C 
HETATM   23  C28 UNL     1      -3.746  49.353 -18.485  1.00  0.00     0.011 C 
HETATM   24  C29 UNL     1      -4.409  49.814 -19.782  1.00  0.00     0.036 C 
ENDROOT
BRANCH   1  25
HETATM   25  C6  UNL     1      -3.626  49.790 -26.035  1.00  0.00    -0.013 C 
HETATM   26  C7  UNL     1      -4.354  48.446 -26.236  1.00  0.00     0.010 C 
BRANCH  25  27
HETATM   27  C5  UNL     1      -2.111  49.577 -26.258  1.00  0.00     0.008 C 
BRANCH  27  28
HETATM   28  C4  UNL     1      -1.414  50.791 -26.888  1.00  0.00     0.028 C 
BRANCH  28  29
HETATM   29  C3  UNL     1       0.065  50.769 -26.612  1.00  0.00    -0.013 C 
HETATM   30  C2  UNL     1       1.023  51.497 -27.224  1.00  0.00     0.008 C 
HETATM   31  C1  UNL     1       0.803  52.475 -28.338  1.00  0.00     0.055 C 
BRANCH  30  32
HETATM   32  C30 UNL     1       2.448  51.381 -26.811  1.00  0.00     0.171 C 
HETATM   33  O4  UNL     1       2.864  50.671 -25.914  1.00  0.00    -0.646 OA
BRANCH  32  34
HETATM   34  O5  UNL     1       3.292  52.136 -27.538  1.00  0.00    -0.773 OA
HETATM   35  H44 UNL     1       4.165  51.938 -27.143  1.00  0.00     0.167 HD
ENDBRANCH  32  34
ENDBRANCH  30  32
ENDBRANCH  28  29
ENDBRANCH  27  28
ENDBRANCH  25  27
ENDBRANCH   1  25
BRANCH   3  36
HETATM   36  O1  UNL     1      -6.565  50.770 -22.117  1.00  0.00    -0.394 OA
HETATM   37  H17 UNL     1      -6.571  50.653 -21.153  1.00  0.00     0.210 HD
ENDBRANCH   3  36
TORSDOF 7
ENDMDL
MODEL 3
REMARK minimizedAffinity -9.69608212
REMARK  7 active torsions:
REMARK  status: ('A' for Active; 'I' for Inactive)
REMARK    1  A    between atoms: C2_2  and  C30_33 
REMARK    2  A    between atoms: C3_3  and  C4_4 
REMARK    3  A    between atoms: C4_4  and  C5_5 
REMARK    4  A    between atoms: C5_5  and  C6_6 
REMARK    5  A    between atoms: C6_6  and  C8_8 
REMARK    6  A    between atoms: C10_10  and  O1_11 
REMARK    7  A    between atoms: C30_33  and  O5_35 
ROOT
HETATM    1  C8  UNL     1      -0.826  49.407 -18.309  1.00  0.00     0.001 C 
HETATM    2  C9  UNL     1      -2.045  48.450 -18.332  1.00  0.00     0.038 C 
HETATM    3  C10 UNL     1      -2.628  48.506 -19.767  1.00  0.00     0.131 C 
HETATM    4  C11 UNL     1      -1.515  49.183 -20.617  1.00  0.00     0.014 C 
HETATM    5  C12 UNL     1      -0.468  48.089 -21.010  1.00  0.00     0.023 C 
HETATM    6  C13 UNL     1      -1.848  49.876 -21.939  1.00  0.00    -0.058 C 
HETATM    7  C14 UNL     1      -1.038  50.850 -22.441  1.00  0.00    -0.000 C 
HETATM    8  C15 UNL     1       0.055  51.436 -21.548  1.00  0.00     0.157 C 
HETATM    9  O2  UNL     1       0.757  52.367 -21.945  1.00  0.00    -0.293 OA
HETATM   10  C16 UNL     1       0.272  50.886 -20.143  1.00  0.00     0.094 C 
HETATM   11  C17 UNL     1      -1.012  50.262 -19.596  1.00  0.00    -0.019 C 
HETATM   12  C18 UNL     1      -2.039  51.412 -19.349  1.00  0.00     0.017 C 
HETATM   13  C19 UNL     1      -1.200  51.434 -23.875  1.00  0.00    -0.008 C 
HETATM   14  C20 UNL     1      -1.827  52.835 -23.691  1.00  0.00     0.021 C 
HETATM   15  C21 UNL     1       0.169  51.590 -24.624  1.00  0.00     0.022 C 
HETATM   16  C22 UNL     1       0.290  50.845 -25.946  1.00  0.00     0.080 C 
HETATM   17  C23 UNL     1      -0.906  51.088 -26.833  1.00  0.00     0.135 C 
HETATM   18  O3  UNL     1      -0.756  51.419 -28.016  1.00  0.00    -0.297 OA
HETATM   19  C24 UNL     1      -2.289  50.800 -26.226  1.00  0.00     0.018 C 
HETATM   20  C25 UNL     1      -3.214  51.993 -26.521  1.00  0.00     0.023 C 
HETATM   21  C26 UNL     1      -2.844  49.560 -26.973  1.00  0.00     0.023 C 
HETATM   22  C27 UNL     1      -2.102  50.453 -24.713  1.00  0.00     0.014 C 
HETATM   23  C28 UNL     1      -3.400  50.131 -23.960  1.00  0.00     0.011 C 
HETATM   24  C29 UNL     1      -3.064  49.365 -22.681  1.00  0.00     0.036 C 
ENDROOT
BRANCH   1  25
HETATM   25  C6  UNL     1      -0.531  50.130 -16.962  1.00  0.00    -0.013 C 
HETATM   26  C7  UNL     1      -1.840  50.751 -16.433  1.00  0.00     0.010 C 
BRANCH  25  27
HETATM   27  C5  UNL     1       0.556  51.229 -17.021  1.00  0.00     0.008 C 
BRANCH  27  28
HETATM   28  C4  UNL     1       0.812  51.901 -15.664  1.00  0.00     0.028 C 
BRANCH  28  29
HETATM   29  C3  UNL     1       1.710  51.054 -14.803  1.00  0.00    -0.013 C 
HETATM   30  C2  UNL     1       3.054  51.121 -14.707  1.00  0.00     0.008 C 
HETATM   31  C1  UNL     1       3.941  52.055 -15.474  1.00  0.00     0.055 C 
BRANCH  30  32
HETATM   32  C30 UNL     1       3.798  50.228 -13.778  1.00  0.00     0.171 C 
HETATM   33  O4  UNL     1       4.870  49.701 -14.017  1.00  0.00    -0.646 OA
BRANCH  32  34
HETATM   34  O5  UNL     1       3.190  50.043 -12.592  1.00  0.00    -0.773 OA
HETATM   35  H44 UNL     1       3.805  49.448 -12.117  1.00  0.00     0.167 HD
ENDBRANCH  32  34
ENDBRANCH  30  32
ENDBRANCH  28  29
ENDBRANCH  27  28
ENDBRANCH  25  27
ENDBRANCH   1  25
BRANCH   3  36
HETATM   36  O1  UNL     1      -2.977  47.191 -20.175  1.00  0.00    -0.394 OA
HETATM   37  H17 UNL     1      -3.381  47.240 -21.056  1.00  0.00     0.210 HD
ENDBRANCH   3  36
TORSDOF 7
ENDMDL
MODEL 4
REMARK minimizedAffinity -9.55465031
REMARK  7 active torsions:
REMARK  status: ('A' for Active; 'I' for Inactive)
REMARK    1  A    between atoms: C2_2  and  C30_33 
REMARK    2  A    between atoms: C3_3  and  C4_4 
REMARK    3  A    between atoms: C4_4  and  C5_5 
REMARK    4  A    between atoms: C5_5  and  C6_6 
REMARK    5  A    between atoms: C6_6  and  C8_8 
REMARK    6  A    between atoms: C10_10  and  O1_11 
REMARK    7  A    between atoms: C30_33  and  O5_35 
ROOT
HETATM    1  C8  UNL     1      -0.820  50.357 -22.174  1.00  0.00     0.001 C 
HETATM    2  C9  UNL     1      -0.424  50.025 -20.713  1.00  0.00     0.038 C 
HETATM    3  C10 UNL     1      -1.629  49.284 -20.082  1.00  0.00     0.131 C 
HETATM    4  C11 UNL     1      -2.517  48.876 -21.293  1.00  0.00     0.014 C 
HETATM    5  C12 UNL     1      -1.936  47.556 -21.901  1.00  0.00     0.023 C 
HETATM    6  C13 UNL     1      -4.006  48.579 -21.111  1.00  0.00    -0.058 C 
HETATM    7  C14 UNL     1      -4.874  48.694 -22.156  1.00  0.00    -0.000 C 
HETATM    8  C15 UNL     1      -4.402  49.377 -23.439  1.00  0.00     0.157 C 
HETATM    9  O2  UNL     1      -5.181  49.562 -24.374  1.00  0.00    -0.293 OA
HETATM   10  C16 UNL     1      -2.961  49.860 -23.562  1.00  0.00     0.094 C 
HETATM   11  C17 UNL     1      -2.363  50.155 -22.187  1.00  0.00    -0.019 C 
HETATM   12  C18 UNL     1      -3.087  51.411 -21.606  1.00  0.00     0.017 C 
HETATM   13  C19 UNL     1      -6.349  48.199 -22.093  1.00  0.00    -0.008 C 
HETATM   14  C20 UNL     1      -7.216  49.474 -21.966  1.00  0.00     0.021 C 
HETATM   15  C21 UNL     1      -6.784  47.423 -23.383  1.00  0.00     0.022 C 
HETATM   16  C22 UNL     1      -7.274  45.998 -23.166  1.00  0.00     0.080 C 
HETATM   17  C23 UNL     1      -8.292  45.924 -22.054  1.00  0.00     0.135 C 
HETATM   18  O3  UNL     1      -9.364  45.330 -22.222  1.00  0.00    -0.297 OA
HETATM   19  C24 UNL     1      -7.881  46.520 -20.698  1.00  0.00     0.018 C 
HETATM   20  C25 UNL     1      -9.021  47.419 -20.189  1.00  0.00     0.023 C 
HETATM   21  C26 UNL     1      -7.735  45.324 -19.722  1.00  0.00     0.023 C 
HETATM   22  C27 UNL     1      -6.495  47.224 -20.866  1.00  0.00     0.014 C 
HETATM   23  C28 UNL     1      -5.939  47.868 -19.590  1.00  0.00     0.011 C 
HETATM   24  C29 UNL     1      -4.435  48.083 -19.747  1.00  0.00     0.036 C 
ENDROOT
BRANCH   1  25
HETATM   25  C6  UNL     1      -0.228  51.664 -22.780  1.00  0.00    -0.013 C 
HETATM   26  C7  UNL     1       0.401  52.497 -21.645  1.00  0.00     0.010 C 
BRANCH  25  27
HETATM   27  C5  UNL     1      -1.229  52.551 -23.556  1.00  0.00     0.008 C 
BRANCH  27  28
HETATM   28  C4  UNL     1      -0.683  53.045 -24.903  1.00  0.00     0.028 C 
BRANCH  28  29
HETATM   29  C3  UNL     1       0.662  52.438 -25.196  1.00  0.00    -0.013 C 
HETATM   30  C2  UNL     1       1.112  51.977 -26.382  1.00  0.00     0.008 C 
HETATM   31  C1  UNL     1       0.336  51.954 -27.664  1.00  0.00     0.055 C 
BRANCH  30  32
HETATM   32  C30 UNL     1       2.489  51.431 -26.514  1.00  0.00     0.171 C 
HETATM   33  O4  UNL     1       2.927  50.472 -25.904  1.00  0.00    -0.646 OA
BRANCH  32  34
HETATM   34  O5  UNL     1       3.254  52.084 -27.408  1.00  0.00    -0.773 OA
HETATM   35  H44 UNL     1       4.104  51.600 -27.371  1.00  0.00     0.167 HD
ENDBRANCH  32  34
ENDBRANCH  30  32
ENDBRANCH  28  29
ENDBRANCH  27  28
ENDBRANCH  25  27
ENDBRANCH   1  25
BRANCH   3  36
HETATM   36  O1  UNL     1      -1.148  48.201 -19.300  1.00  0.00    -0.394 OA
HETATM   37  H17 UNL     1      -1.905  47.769 -18.874  1.00  0.00     0.210 HD
ENDBRANCH   3  36
TORSDOF 7
ENDMDL
MODEL 5
REMARK minimizedAffinity -9.39252186
REMARK  7 active torsions:
REMARK  status: ('A' for Active; 'I' for Inactive)
REMARK    1  A    between atoms: C2_2  and  C30_33 
REMARK    2  A    between atoms: C3_3  and  C4_4 
REMARK    3  A    between atoms: C4_4  and  C5_5 
REMARK    4  A    between atoms: C5_5  and  C6_6 
REMARK    5  A    between atoms: C6_6  and  C8_8 
REMARK    6  A    between atoms: C10_10  and  O1_11 
REMARK    7  A    between atoms: C30_33  and  O5_35 
ROOT
HETATM    1  C8  UNL     1      -1.318  52.008 -22.868  1.00  0.00     0.001 C 
HETATM    2  C9  UNL     1      -0.584  51.638 -24.182  1.00  0.00     0.038 C 
HETATM    3  C10 UNL     1      -1.539  50.716 -24.981  1.00  0.00     0.131 C 
HETATM    4  C11 UNL     1      -2.923  50.893 -24.294  1.00  0.00     0.014 C 
HETATM    5  C12 UNL     1      -3.588  52.191 -24.863  1.00  0.00     0.023 C 
HETATM    6  C13 UNL     1      -4.011  49.826 -24.428  1.00  0.00    -0.058 C 
HETATM    7  C14 UNL     1      -4.998  49.713 -23.495  1.00  0.00    -0.000 C 
HETATM    8  C15 UNL     1      -4.863  50.477 -22.179  1.00  0.00     0.157 C 
HETATM    9  O2  UNL     1      -5.700  50.342 -21.286  1.00  0.00    -0.293 OA
HETATM   10  C16 UNL     1      -3.672  51.401 -21.949  1.00  0.00     0.094 C 
HETATM   11  C17 UNL     1      -2.474  50.969 -22.793  1.00  0.00    -0.019 C 
HETATM   12  C18 UNL     1      -1.954  49.609 -22.230  1.00  0.00     0.017 C 
HETATM   13  C19 UNL     1      -6.246  48.803 -23.686  1.00  0.00    -0.008 C 
HETATM   14  C20 UNL     1      -6.017  47.577 -22.770  1.00  0.00     0.021 C 
HETATM   15  C21 UNL     1      -7.580  49.506 -23.259  1.00  0.00     0.022 C 
HETATM   16  C22 UNL     1      -8.648  49.612 -24.339  1.00  0.00     0.080 C 
HETATM   17  C23 UNL     1      -8.867  48.293 -25.037  1.00  0.00     0.135 C 
HETATM   18  O3  UNL     1     -10.009  47.842 -25.189  1.00  0.00    -0.297 OA
HETATM   19  C24 UNL     1      -7.624  47.610 -25.633  1.00  0.00     0.018 C 
HETATM   20  C25 UNL     1      -7.626  46.130 -25.212  1.00  0.00     0.023 C 
HETATM   21  C26 UNL     1      -7.788  47.675 -27.173  1.00  0.00     0.023 C 
HETATM   22  C27 UNL     1      -6.360  48.427 -25.210  1.00  0.00     0.014 C 
HETATM   23  C28 UNL     1      -5.029  47.875 -25.736  1.00  0.00     0.011 C 
HETATM   24  C29 UNL     1      -3.968  48.973 -25.677  1.00  0.00     0.036 C 
ENDROOT
BRANCH   1  25
HETATM   25  C6  UNL     1      -0.428  52.236 -21.611  1.00  0.00    -0.013 C 
HETATM   26  C7  UNL     1       0.895  52.894 -22.051  1.00  0.00     0.010 C 
BRANCH  25  27
HETATM   27  C5  UNL     1      -0.106  50.968 -20.785  1.00  0.00     0.008 C 
BRANCH  27  28
HETATM   28  C4  UNL     1      -0.638  51.032 -19.346  1.00  0.00     0.028 C 
BRANCH  28  29
HETATM   29  C3  UNL     1       0.273  51.850 -18.470  1.00  0.00    -0.013 C 
HETATM   30  C2  UNL     1       0.753  51.518 -17.253  1.00  0.00     0.008 C 
HETATM   31  C1  UNL     1       0.450  50.254 -16.507  1.00  0.00     0.055 C 
BRANCH  30  32
HETATM   32  C30 UNL     1       1.675  52.429 -16.523  1.00  0.00     0.171 C 
HETATM   33  O4  UNL     1       2.808  52.707 -16.870  1.00  0.00    -0.646 OA
BRANCH  32  34
HETATM   34  O5  UNL     1       1.145  52.969 -15.410  1.00  0.00    -0.773 OA
HETATM   35  H44 UNL     1       1.869  53.531 -15.068  1.00  0.00     0.167 HD
ENDBRANCH  32  34
ENDBRANCH  30  32
ENDBRANCH  28  29
ENDBRANCH  27  28
ENDBRANCH  25  27
ENDBRANCH   1  25
BRANCH   3  36
HETATM   36  O1  UNL     1      -1.499  51.086 -26.352  1.00  0.00    -0.394 OA
HETATM   37  H17 UNL     1      -2.067  50.477 -26.852  1.00  0.00     0.210 HD
ENDBRANCH   3  36
TORSDOF 7
ENDMDL
MODEL 6
REMARK minimizedAffinity -9.22439384
REMARK  7 active torsions:
REMARK  status: ('A' for Active; 'I' for Inactive)
REMARK    1  A    between atoms: C2_2  and  C30_33 
REMARK    2  A    between atoms: C3_3  and  C4_4 
REMARK    3  A    between atoms: C4_4  and  C5_5 
REMARK    4  A    between atoms: C5_5  and  C6_6 
REMARK    5  A    between atoms: C6_6  and  C8_8 
REMARK    6  A    between atoms: C10_10  and  O1_11 
REMARK    7  A    between atoms: C30_33  and  O5_35 
ROOT
HETATM    1  C8  UNL     1      -0.763  49.901 -19.744  1.00  0.00     0.001 C 
HETATM    2  C9  UNL     1      -1.168  48.853 -18.677  1.00  0.00     0.038 C 
HETATM    3  C10 UNL     1      -2.472  48.185 -19.181  1.00  0.00     0.131 C 
HETATM    4  C11 UNL     1      -2.566  48.587 -20.680  1.00  0.00     0.014 C 
HETATM    5  C12 UNL     1      -1.664  47.609 -21.505  1.00  0.00     0.023 C 
HETATM    6  C13 UNL     1      -3.906  48.571 -21.417  1.00  0.00    -0.058 C 
HETATM    7  C14 UNL     1      -4.105  49.342 -22.523  1.00  0.00    -0.000 C 
HETATM    8  C15 UNL     1      -3.079  50.421 -22.867  1.00  0.00     0.157 C 
HETATM    9  O2  UNL     1      -3.264  51.182 -23.817  1.00  0.00    -0.293 OA
HETATM   10  C16 UNL     1      -1.823  50.581 -22.018  1.00  0.00     0.094 C 
HETATM   11  C17 UNL     1      -2.054  50.068 -20.597  1.00  0.00    -0.019 C 
HETATM   12  C18 UNL     1      -3.058  51.034 -19.893  1.00  0.00     0.017 C 
HETATM   13  C19 UNL     1      -5.357  49.207 -23.438  1.00  0.00    -0.008 C 
HETATM   14  C20 UNL     1      -6.246  50.432 -23.117  1.00  0.00     0.021 C 
HETATM   15  C21 UNL     1      -4.999  49.233 -24.964  1.00  0.00     0.022 C 
HETATM   16  C22 UNL     1      -5.433  48.013 -25.767  1.00  0.00     0.080 C 
HETATM   17  C23 UNL     1      -6.874  47.655 -25.498  1.00  0.00     0.135 C 
HETATM   18  O3  UNL     1      -7.657  47.455 -26.435  1.00  0.00    -0.297 OA
HETATM   19  C24 UNL     1      -7.274  47.450 -24.028  1.00  0.00     0.018 C 
HETATM   20  C25 UNL     1      -8.570  48.233 -23.757  1.00  0.00     0.023 C 
HETATM   21  C26 UNL     1      -7.580  45.938 -23.867  1.00  0.00     0.023 C 
HETATM   22  C27 UNL     1      -6.056  47.832 -23.125  1.00  0.00     0.014 C 
HETATM   23  C28 UNL     1      -6.295  47.673 -21.618  1.00  0.00     0.011 C 
HETATM   24  C29 UNL     1      -4.949  47.605 -20.898  1.00  0.00     0.036 C 
ENDROOT
BRANCH   1  25
HETATM   25  C6  UNL     1      -0.032  51.176 -19.230  1.00  0.00    -0.013 C 
HETATM   26  C7  UNL     1      -0.557  51.516 -17.821  1.00  0.00     0.010 C 
BRANCH  25  27
HETATM   27  C5  UNL     1      -0.165  52.427 -20.129  1.00  0.00     0.008 C 
BRANCH  27  28
HETATM   28  C4  UNL     1       1.162  53.172 -20.331  1.00  0.00     0.028 C 
BRANCH  28  29
HETATM   29  C3  UNL     1       1.166  53.926 -21.633  1.00  0.00    -0.013 C 
HETATM   30  C2  UNL     1       0.953  53.427 -22.869  1.00  0.00     0.008 C 
HETATM   31  C1  UNL     1       0.690  51.989 -23.200  1.00  0.00     0.055 C 
BRANCH  30  32
HETATM   32  C30 UNL     1       0.959  54.317 -24.062  1.00  0.00     0.171 C 
HETATM   33  O4  UNL     1       0.597  53.996 -25.179  1.00  0.00    -0.646 OA
BRANCH  32  34
HETATM   34  O5  UNL     1       1.393  55.566 -23.812  1.00  0.00    -0.773 OA
HETATM   35  H44 UNL     1       1.327  56.004 -24.684  1.00  0.00     0.167 HD
ENDBRANCH  32  34
ENDBRANCH  30  32
ENDBRANCH  28  29
ENDBRANCH  27  28
ENDBRANCH  25  27
ENDBRANCH   1  25
BRANCH   3  36
HETATM   36  O1  UNL     1      -2.399  46.787 -18.939  1.00  0.00    -0.394 OA
HETATM   37  H17 UNL     1      -3.236  46.382 -19.217  1.00  0.00     0.210 HD
ENDBRANCH   3  36
TORSDOF 7
ENDMDL
MODEL 7
REMARK minimizedAffinity -9.22144222
REMARK  7 active torsions:
REMARK  status: ('A' for Active; 'I' for Inactive)
REMARK    1  A    between atoms: C2_2  and  C30_33 
REMARK    2  A    between atoms: C3_3  and  C4_4 
REMARK    3  A    between atoms: C4_4  and  C5_5 
REMARK    4  A    between atoms: C5_5  and  C6_6 
REMARK    5  A    between atoms: C6_6  and  C8_8 
REMARK    6  A    between atoms: C10_10  and  O1_11 
REMARK    7  A    between atoms: C30_33  and  O5_35 
ROOT
HETATM    1  C8  UNL     1      -2.440  50.596 -21.953  1.00  0.00     0.001 C 
HETATM    2  C9  UNL     1      -1.574  51.811 -22.372  1.00  0.00     0.038 C 
HETATM    3  C10 UNL     1      -0.677  52.158 -21.156  1.00  0.00     0.131 C 
HETATM    4  C11 UNL     1      -0.775  50.914 -20.227  1.00  0.00     0.014 C 
HETATM    5  C12 UNL     1       0.231  49.835 -20.749  1.00  0.00     0.023 C 
HETATM    6  C13 UNL     1      -0.467  51.022 -18.733  1.00  0.00    -0.058 C 
HETATM    7  C14 UNL     1      -0.987  50.128 -17.846  1.00  0.00    -0.000 C 
HETATM    8  C15 UNL     1      -2.092  49.180 -18.311  1.00  0.00     0.157 C 
HETATM    9  O2  UNL     1      -2.633  48.410 -17.518  1.00  0.00    -0.293 OA
HETATM   10  C16 UNL     1      -2.552  49.198 -19.765  1.00  0.00     0.094 C 
HETATM   11  C17 UNL     1      -2.294  50.562 -20.404  1.00  0.00    -0.019 C 
HETATM   12  C18 UNL     1      -3.254  51.596 -19.738  1.00  0.00     0.017 C 
HETATM   13  C19 UNL     1      -0.539  50.051 -16.357  1.00  0.00    -0.008 C 
HETATM   14  C20 UNL     1      -1.692  50.678 -15.538  1.00  0.00     0.021 C 
HETATM   15  C21 UNL     1      -0.316  48.579 -15.866  1.00  0.00     0.022 C 
HETATM   16  C22 UNL     1       1.074  48.262 -15.332  1.00  0.00     0.080 C 
HETATM   17  C23 UNL     1       1.538  49.299 -14.339  1.00  0.00     0.135 C 
HETATM   18  O3  UNL     1       2.000  48.958 -13.243  1.00  0.00    -0.297 OA
HETATM   19  C24 UNL     1       1.507  50.765 -14.801  1.00  0.00     0.018 C 
HETATM   20  C25 UNL     1       0.839  51.613 -13.704  1.00  0.00     0.023 C 
HETATM   21  C26 UNL     1       2.985  51.214 -14.928  1.00  0.00     0.023 C 
HETATM   22  C27 UNL     1       0.823  50.825 -16.206  1.00  0.00     0.014 C 
HETATM   23  C28 UNL     1       0.721  52.230 -16.813  1.00  0.00     0.011 C 
HETATM   24  C29 UNL     1       0.496  52.114 -18.320  1.00  0.00     0.036 C 
ENDROOT
BRANCH   1  25
HETATM   25  C6  UNL     1      -3.865  50.506 -22.576  1.00  0.00    -0.013 C 
HETATM   26  C7  UNL     1      -4.909  50.711 -21.459  1.00  0.00     0.010 C 
BRANCH  25  27
HETATM   27  C5  UNL     1      -4.183  49.189 -23.322  1.00  0.00     0.008 C 
BRANCH  27  28
HETATM   28  C4  UNL     1      -3.097  48.787 -24.330  1.00  0.00     0.028 C 
BRANCH  28  29
HETATM   29  C3  UNL     1      -2.980  49.804 -25.433  1.00  0.00    -0.013 C 
HETATM   30  C2  UNL     1      -3.205  49.613 -26.750  1.00  0.00     0.008 C 
HETATM   31  C1  UNL     1      -3.600  48.318 -27.392  1.00  0.00     0.055 C 
BRANCH  30  32
HETATM   32  C30 UNL     1      -3.075  50.737 -27.716  1.00  0.00     0.171 C 
HETATM   33  O4  UNL     1      -2.581  51.822 -27.469  1.00  0.00    -0.646 OA
BRANCH  32  34
HETATM   34  O5  UNL     1      -3.546  50.460 -28.945  1.00  0.00    -0.773 OA
HETATM   35  H44 UNL     1      -3.380  51.288 -29.440  1.00  0.00     0.167 HD
ENDBRANCH  32  34
ENDBRANCH  30  32
ENDBRANCH  28  29
ENDBRANCH  27  28
ENDBRANCH  25  27
ENDBRANCH   1  25
BRANCH   3  36
HETATM   36  O1  UNL     1       0.631  52.459 -21.618  1.00  0.00    -0.394 OA
HETATM   37  H17 UNL     1       1.175  52.717 -20.857  1.00  0.00     0.210 HD
ENDBRANCH   3  36
TORSDOF 7
ENDMDL
MODEL 8
REMARK minimizedAffinity -9.19823456
REMARK  7 active torsions:
REMARK  status: ('A' for Active; 'I' for Inactive)
REMARK    1  A    between atoms: C2_2  and  C30_33 
REMARK    2  A    between atoms: C3_3  and  C4_4 
REMARK    3  A    between atoms: C4_4  and  C5_5 
REMARK    4  A    between atoms: C5_5  and  C6_6 
REMARK    5  A    between atoms: C6_6  and  C8_8 
REMARK    6  A    between atoms: C10_10  and  O1_11 
REMARK    7  A    between atoms: C30_33  and  O5_35 
ROOT
HETATM    1  C8  UNL     1      -0.194  51.265 -20.442  1.00  0.00     0.001 C 
HETATM    2  C9  UNL     1      -0.914  52.223 -19.458  1.00  0.00     0.038 C 
HETATM    3  C10 UNL     1      -2.230  51.522 -19.038  1.00  0.00     0.131 C 
HETATM    4  C11 UNL     1      -2.048  50.043 -19.482  1.00  0.00     0.014 C 
HETATM    5  C12 UNL     1      -1.221  49.301 -18.379  1.00  0.00     0.023 C 
HETATM    6  C13 UNL     1      -3.257  49.136 -19.715  1.00  0.00    -0.058 C 
HETATM    7  C14 UNL     1      -3.168  48.049 -20.532  1.00  0.00    -0.000 C 
HETATM    8  C15 UNL     1      -1.937  47.890 -21.423  1.00  0.00     0.157 C 
HETATM    9  O2  UNL     1      -1.858  46.959 -22.224  1.00  0.00    -0.293 OA
HETATM   10  C16 UNL     1      -0.801  48.904 -21.343  1.00  0.00     0.094 C 
HETATM   11  C17 UNL     1      -1.308  50.258 -20.849  1.00  0.00    -0.019 C 
HETATM   12  C18 UNL     1      -2.220  50.866 -21.960  1.00  0.00     0.017 C 
HETATM   13  C19 UNL     1      -4.288  46.972 -20.636  1.00  0.00    -0.008 C 
HETATM   14  C20 UNL     1      -4.992  47.227 -21.990  1.00  0.00     0.021 C 
HETATM   15  C21 UNL     1      -3.725  45.509 -20.631  1.00  0.00     0.022 C 
HETATM   16  C22 UNL     1      -4.245  44.603 -19.523  1.00  0.00     0.080 C 
HETATM   17  C23 UNL     1      -5.748  44.663 -19.416  1.00  0.00     0.135 C 
HETATM   18  O3  UNL     1      -6.419  43.624 -19.375  1.00  0.00    -0.297 OA
HETATM   19  C24 UNL     1      -6.376  46.057 -19.252  1.00  0.00     0.018 C 
HETATM   20  C25 UNL     1      -7.545  46.190 -20.244  1.00  0.00     0.023 C 
HETATM   21  C26 UNL     1      -6.953  46.110 -17.814  1.00  0.00     0.023 C 
HETATM   22  C27 UNL     1      -5.247  47.128 -19.398  1.00  0.00     0.014 C 
HETATM   23  C28 UNL     1      -5.714  48.582 -19.252  1.00  0.00     0.011 C 
HETATM   24  C29 UNL     1      -4.511  49.469 -18.936  1.00  0.00     0.036 C 
ENDROOT
BRANCH   1  25
HETATM   25  C6  UNL     1       0.665  51.927 -21.559  1.00  0.00    -0.013 C 
HETATM   26  C7  UNL     1       1.195  53.280 -21.043  1.00  0.00     0.010 C 
BRANCH  25  27
HETATM   27  C5  UNL     1      -0.057  52.154 -22.908  1.00  0.00     0.008 C 
BRANCH  27  28
HETATM   28  C4  UNL     1       0.596  53.245 -23.768  1.00  0.00     0.028 C 
BRANCH  28  29
HETATM   29  C3  UNL     1      -0.164  53.450 -25.050  1.00  0.00    -0.013 C 
HETATM   30  C2  UNL     1      -0.020  52.767 -26.205  1.00  0.00     0.008 C 
HETATM   31  C1  UNL     1       0.963  51.662 -26.453  1.00  0.00     0.055 C 
BRANCH  30  32
HETATM   32  C30 UNL     1      -0.877  53.071 -27.383  1.00  0.00     0.171 C 
HETATM   33  O4  UNL     1      -2.072  53.301 -27.341  1.00  0.00    -0.646 OA
BRANCH  32  34
HETATM   34  O5  UNL     1      -0.212  53.094 -28.553  1.00  0.00    -0.773 OA
HETATM   35  H44 UNL     1      -0.912  53.309 -29.203  1.00  0.00     0.167 HD
ENDBRANCH  32  34
ENDBRANCH  30  32
ENDBRANCH  28  29
ENDBRANCH  27  28
ENDBRANCH  25  27
ENDBRANCH   1  25
BRANCH   3  36
HETATM   36  O1  UNL     1      -2.429  51.710 -17.645  1.00  0.00    -0.394 OA
HETATM   37  H17 UNL     1      -3.277  51.306 -17.398  1.00  0.00     0.210 HD
ENDBRANCH   3  36
TORSDOF 7
ENDMDL
MODEL 9
REMARK minimizedAffinity -9.16100121
REMARK  7 active torsions:
REMARK  status: ('A' for Active; 'I' for Inactive)
REMARK    1  A    between atoms: C2_2  and  C30_33 
REMARK    2  A    between atoms: C3_3  and  C4_4 
REMARK    3  A    between atoms: C4_4  and  C5_5 
REMARK    4  A    between atoms: C5_5  and  C6_6 
REMARK    5  A    between atoms: C6_6  and  C8_8 
REMARK    6  A    between atoms: C10_10  and  O1_11 
REMARK    7  A    between atoms: C30_33  and  O5_35 
ROOT
HETATM    1  C8  UNL     1      -2.972  51.247 -23.484  1.00  0.00     0.001 C 
HETATM    2  C9  UNL     1      -4.384  51.513 -24.065  1.00  0.00     0.038 C 
HETATM    3  C10 UNL     1      -5.343  50.504 -23.386  1.00  0.00     0.131 C 
HETATM    4  C11 UNL     1      -4.541  49.956 -22.171  1.00  0.00     0.014 C 
HETATM    5  C12 UNL     1      -4.675  50.981 -20.995  1.00  0.00     0.023 C 
HETATM    6  C13 UNL     1      -4.895  48.611 -21.536  1.00  0.00    -0.058 C 
HETATM    7  C14 UNL     1      -3.967  47.904 -20.832  1.00  0.00    -0.000 C 
HETATM    8  C15 UNL     1      -2.501  48.330 -20.904  1.00  0.00     0.157 C 
HETATM    9  O2  UNL     1      -1.627  47.672 -20.339  1.00  0.00    -0.293 OA
HETATM   10  C16 UNL     1      -2.103  49.567 -21.702  1.00  0.00     0.094 C 
HETATM   11  C17 UNL     1      -3.113  49.850 -22.813  1.00  0.00    -0.019 C 
HETATM   12  C18 UNL     1      -2.992  48.714 -23.876  1.00  0.00     0.017 C 
HETATM   13  C19 UNL     1      -4.320  46.648 -19.983  1.00  0.00    -0.008 C 
HETATM   14  C20 UNL     1      -3.804  45.435 -20.793  1.00  0.00     0.021 C 
HETATM   15  C21 UNL     1      -3.623  46.648 -18.579  1.00  0.00     0.022 C 
HETATM   16  C22 UNL     1      -4.554  46.574 -17.377  1.00  0.00     0.080 C 
HETATM   17  C23 UNL     1      -5.578  45.478 -17.533  1.00  0.00     0.135 C 
HETATM   18  O3  UNL     1      -5.772  44.663 -16.623  1.00  0.00    -0.297 OA
HETATM   19  C24 UNL     1      -6.425  45.499 -18.817  1.00  0.00     0.018 C 
HETATM   20  C25 UNL     1      -6.438  44.083 -19.421  1.00  0.00     0.023 C 
HETATM   21  C26 UNL     1      -7.870  45.851 -18.380  1.00  0.00     0.023 C 
HETATM   22  C27 UNL     1      -5.877  46.624 -19.753  1.00  0.00     0.014 C 
HETATM   23  C28 UNL     1      -6.626  46.779 -21.083  1.00  0.00     0.011 C 
HETATM   24  C29 UNL     1      -6.333  48.160 -21.669  1.00  0.00     0.036 C 
ENDROOT
BRANCH   1  25
HETATM   25  C6  UNL     1      -1.765  51.507 -24.433  1.00  0.00    -0.013 C 
HETATM   26  C7  UNL     1      -1.012  52.762 -23.947  1.00  0.00     0.010 C 
BRANCH  25  27
HETATM   27  C5  UNL     1      -2.120  51.683 -25.928  1.00  0.00     0.008 C 
BRANCH  27  28
HETATM   28  C4  UNL     1      -1.401  50.682 -26.843  1.00  0.00     0.028 C 
BRANCH  28  29
HETATM   29  C3  UNL     1       0.083  50.690 -26.592  1.00  0.00    -0.013 C 
HETATM   30  C2  UNL     1       1.009  51.471 -27.187  1.00  0.00     0.008 C 
HETATM   31  C1  UNL     1       0.743  52.489 -28.254  1.00  0.00     0.055 C 
BRANCH  30  32
HETATM   32  C30 UNL     1       2.444  51.379 -26.802  1.00  0.00     0.171 C 
HETATM   33  O4  UNL     1       2.890  50.668 -25.919  1.00  0.00    -0.646 OA
BRANCH  32  34
HETATM   34  O5  UNL     1       3.260  52.154 -27.539  1.00  0.00    -0.773 OA
HETATM   35  H44 UNL     1       4.144  51.969 -27.162  1.00  0.00     0.167 HD
ENDBRANCH  32  34
ENDBRANCH  30  32
ENDBRANCH  28  29
ENDBRANCH  27  28
ENDBRANCH  25  27
ENDBRANCH   1  25
BRANCH   3  36
HETATM   36  O1  UNL     1      -6.554  51.168 -23.054  1.00  0.00    -0.394 OA
HETATM   37  H17 UNL     1      -7.165  50.519 -22.668  1.00  0.00     0.210 HD
ENDBRANCH   3  36
TORSDOF 7
ENDMDL
