MODEL 1
REMARK minimizedAffinity -9.91407108
REMARK  6 active torsions:
REMARK  status: ('A' for Active; 'I' for Inactive)
REMARK    1  A    between atoms: C2_2  and  C30_32 
REMARK    2  A    between atoms: C3_3  and  C4_4 
REMARK    3  A    between atoms: C4_4  and  C5_5 
REMARK    4  A    between atoms: C5_5  and  C6_6 
REMARK    5  A    between atoms: C6_6  and  C8_8 
REMARK    6  A    between atoms: C30_32  and  O4_34 
ROOT
HETATM    1  C8  UNL     1      -5.147   7.291  15.290  1.00  0.00    -0.002 C 
HETATM    2  C9  UNL     1      -5.410   8.741  14.793  1.00  0.00     0.007 C 
HETATM    3  C10 UNL     1      -4.096   9.249  14.164  1.00  0.00     0.015 C 
HETATM    4  C11 UNL     1      -3.014   8.271  14.660  1.00  0.00    -0.005 C 
HETATM    5  C12 UNL     1      -2.607   8.724  16.099  1.00  0.00     0.021 C 
HETATM    6  C13 UNL     1      -1.697   8.139  13.912  1.00  0.00    -0.000 C 
HETATM    7  C14 UNL     1      -1.004   6.967  13.909  1.00  0.00    -0.060 C 
HETATM    8  C15 UNL     1      -1.564   5.720  14.591  1.00  0.00     0.036 C 
HETATM    9  C16 UNL     1      -2.952   5.836  15.260  1.00  0.00     0.015 C 
HETATM   10  C17 UNL     1      -3.815   6.909  14.580  1.00  0.00    -0.028 C 
HETATM   11  C18 UNL     1      -4.098   6.454  13.117  1.00  0.00     0.016 C 
HETATM   12  C19 UNL     1       0.394   6.868  13.252  1.00  0.00    -0.014 C 
HETATM   13  C20 UNL     1       1.382   7.387  14.329  1.00  0.00     0.020 C 
HETATM   14  C21 UNL     1       0.870   5.434  12.862  1.00  0.00     0.021 C 
HETATM   15  C22 UNL     1       0.548   5.063  11.423  1.00  0.00     0.080 C 
HETATM   16  C23 UNL     1       1.312   5.983  10.492  1.00  0.00     0.135 C 
HETATM   17  O1  UNL     1       1.847   5.536   9.476  1.00  0.00    -0.297 OA
HETATM   18  C24 UNL     1       1.376   7.478  10.862  1.00  0.00     0.018 C 
HETATM   19  C25 UNL     1       2.812   7.806  11.285  1.00  0.00     0.023 C 
HETATM   20  C26 UNL     1       1.054   8.280   9.583  1.00  0.00     0.023 C 
HETATM   21  C27 UNL     1       0.296   7.750  11.957  1.00  0.00     0.020 C 
HETATM   22  C28 UNL     1       0.077   9.216  12.334  1.00  0.00     0.090 C 
HETATM   23  C29 UNL     1      -1.110   9.365  13.268  1.00  0.00     0.157 C 
HETATM   24  O2  UNL     1      -1.564  10.484  13.504  1.00  0.00    -0.293 OA
ENDROOT
BRANCH   1  25
HETATM   25  C6  UNL     1      -6.415   6.385  15.278  1.00  0.00    -0.014 C 
HETATM   26  C7  UNL     1      -7.342   6.468  16.497  1.00  0.00     0.010 C 
BRANCH  25  27
HETATM   27  C5  UNL     1      -7.221   6.555  13.970  1.00  0.00     0.008 C 
BRANCH  27  28
HETATM   28  C4  UNL     1      -7.592   5.223  13.309  1.00  0.00     0.028 C 
BRANCH  28  29
HETATM   29  C3  UNL     1      -6.391   4.581  12.669  1.00  0.00    -0.013 C 
HETATM   30  C2  UNL     1      -6.247   3.310  12.244  1.00  0.00     0.008 C 
HETATM   31  C1  UNL     1      -5.003   2.852  11.538  1.00  0.00     0.055 C 
BRANCH  30  32
HETATM   32  C30 UNL     1      -7.267   2.247  12.396  1.00  0.00     0.171 C 
HETATM   33  O3  UNL     1      -8.392   2.410  12.836  1.00  0.00    -0.646 OA
BRANCH  32  34
HETATM   34  O4  UNL     1      -6.880   1.060  11.903  1.00  0.00    -0.773 OA
HETATM   35  H44 UNL     1      -7.664   0.490  12.037  1.00  0.00     0.167 HD
ENDBRANCH  32  34
ENDBRANCH  30  32
ENDBRANCH  28  29
ENDBRANCH  27  28
ENDBRANCH  25  27
ENDBRANCH   1  25
TORSDOF 6
ENDMDL
MODEL 2
REMARK minimizedAffinity -9.17639065
REMARK  6 active torsions:
REMARK  status: ('A' for Active; 'I' for Inactive)
REMARK    1  A    between atoms: C2_2  and  C30_32 
REMARK    2  A    between atoms: C3_3  and  C4_4 
REMARK    3  A    between atoms: C4_4  and  C5_5 
REMARK    4  A    between atoms: C5_5  and  C6_6 
REMARK    5  A    between atoms: C6_6  and  C8_8 
REMARK    6  A    between atoms: C30_32  and  O4_34 
ROOT
HETATM    1  C8  UNL     1      -1.140   6.244  12.170  1.00  0.00    -0.002 C 
HETATM    2  C9  UNL     1      -0.548   4.982  11.482  1.00  0.00     0.007 C 
HETATM    3  C10 UNL     1       0.965   5.227  11.309  1.00  0.00     0.015 C 
HETATM    4  C11 UNL     1       1.147   6.742  11.517  1.00  0.00    -0.005 C 
HETATM    5  C12 UNL     1       0.788   7.440  10.167  1.00  0.00     0.021 C 
HETATM    6  C13 UNL     1       2.509   7.307  11.892  1.00  0.00    -0.000 C 
HETATM    7  C14 UNL     1       2.619   8.441  12.637  1.00  0.00    -0.060 C 
HETATM    8  C15 UNL     1       1.380   9.143  13.190  1.00  0.00     0.036 C 
HETATM    9  C16 UNL     1       0.006   8.504  12.892  1.00  0.00     0.015 C 
HETATM   10  C17 UNL     1       0.124   6.985  12.699  1.00  0.00    -0.028 C 
HETATM   11  C18 UNL     1       0.589   6.355  14.047  1.00  0.00     0.016 C 
HETATM   12  C19 UNL     1       4.000   9.084  12.913  1.00  0.00    -0.014 C 
HETATM   13  C20 UNL     1       4.302   9.943  11.657  1.00  0.00     0.020 C 
HETATM   14  C21 UNL     1       4.078  10.043  14.141  1.00  0.00     0.021 C 
HETATM   15  C22 UNL     1       4.530   9.351  15.417  1.00  0.00     0.080 C 
HETATM   16  C23 UNL     1       5.950   8.852  15.234  1.00  0.00     0.135 C 
HETATM   17  O1  UNL     1       6.772   8.965  16.145  1.00  0.00    -0.297 OA
HETATM   18  C24 UNL     1       6.306   8.196  13.886  1.00  0.00     0.018 C 
HETATM   19  C25 UNL     1       7.248   9.139  13.128  1.00  0.00     0.023 C 
HETATM   20  C26 UNL     1       7.074   6.894  14.198  1.00  0.00     0.023 C 
HETATM   21  C27 UNL     1       4.972   7.872  13.140  1.00  0.00     0.020 C 
HETATM   22  C28 UNL     1       5.104   7.054  11.855  1.00  0.00     0.090 C 
HETATM   23  C29 UNL     1       3.739   6.654  11.324  1.00  0.00     0.157 C 
HETATM   24  O2  UNL     1       3.655   5.819  10.424  1.00  0.00    -0.293 OA
ENDROOT
BRANCH   1  25
HETATM   25  C6  UNL     1      -2.392   5.950  13.050  1.00  0.00    -0.014 C 
HETATM   26  C7  UNL     1      -3.547   6.957  12.978  1.00  0.00     0.010 C 
BRANCH  25  27
HETATM   27  C5  UNL     1      -2.911   4.510  12.833  1.00  0.00     0.008 C 
BRANCH  27  28
HETATM   28  C4  UNL     1      -4.414   4.446  12.537  1.00  0.00     0.028 C 
BRANCH  28  29
HETATM   29  C3  UNL     1      -4.779   3.153  11.859  1.00  0.00    -0.013 C 
HETATM   30  C2  UNL     1      -5.936   2.467  11.932  1.00  0.00     0.008 C 
HETATM   31  C1  UNL     1      -6.172   1.229  11.112  1.00  0.00     0.055 C 
BRANCH  30  32
HETATM   32  C30 UNL     1      -7.089   2.839  12.784  1.00  0.00     0.171 C 
HETATM   33  O3  UNL     1      -7.148   3.829  13.492  1.00  0.00    -0.646 OA
BRANCH  32  34
HETATM   34  O4  UNL     1      -8.146   2.025  12.640  1.00  0.00    -0.773 OA
HETATM   35  H44 UNL     1      -8.823   2.424  13.224  1.00  0.00     0.167 HD
ENDBRANCH  32  34
ENDBRANCH  30  32
ENDBRANCH  28  29
ENDBRANCH  27  28
ENDBRANCH  25  27
ENDBRANCH   1  25
TORSDOF 6
ENDMDL
MODEL 3
REMARK minimizedAffinity -9.10486221
REMARK  6 active torsions:
REMARK  status: ('A' for Active; 'I' for Inactive)
REMARK    1  A    between atoms: C2_2  and  C30_32 
REMARK    2  A    between atoms: C3_3  and  C4_4 
REMARK    3  A    between atoms: C4_4  and  C5_5 
REMARK    4  A    between atoms: C5_5  and  C6_6 
REMARK    5  A    between atoms: C6_6  and  C8_8 
REMARK    6  A    between atoms: C30_32  and  O4_34 
ROOT
HETATM    1  C8  UNL     1      -0.354   6.164  11.724  1.00  0.00    -0.002 C 
HETATM    2  C9  UNL     1       0.359   4.925  11.112  1.00  0.00     0.007 C 
HETATM    3  C10 UNL     1       1.867   5.243  11.073  1.00  0.00     0.015 C 
HETATM    4  C11 UNL     1       1.956   6.768  11.273  1.00  0.00    -0.005 C 
HETATM    5  C12 UNL     1       1.688   7.432   9.886  1.00  0.00     0.021 C 
HETATM    6  C13 UNL     1       3.249   7.404  11.761  1.00  0.00    -0.000 C 
HETATM    7  C14 UNL     1       3.236   8.551  12.495  1.00  0.00    -0.060 C 
HETATM    8  C15 UNL     1       1.918   9.195  12.923  1.00  0.00     0.036 C 
HETATM    9  C16 UNL     1       0.610   8.485  12.512  1.00  0.00     0.015 C 
HETATM   10  C17 UNL     1       0.818   6.972  12.354  1.00  0.00    -0.028 C 
HETATM   11  C18 UNL     1       1.188   6.381  13.747  1.00  0.00     0.016 C 
HETATM   12  C19 UNL     1       4.553   9.265  12.885  1.00  0.00    -0.014 C 
HETATM   13  C20 UNL     1       4.926  10.124  11.649  1.00  0.00     0.020 C 
HETATM   14  C21 UNL     1       4.471  10.240  14.100  1.00  0.00     0.021 C 
HETATM   15  C22 UNL     1       4.838   9.585  15.423  1.00  0.00     0.080 C 
HETATM   16  C23 UNL     1       6.291   9.155  15.377  1.00  0.00     0.135 C 
HETATM   17  O1  UNL     1       7.020   9.320  16.356  1.00  0.00    -0.297 OA
HETATM   18  C24 UNL     1       6.801   8.503  14.076  1.00  0.00     0.018 C 
HETATM   19  C25 UNL     1       7.761   9.483  13.393  1.00  0.00     0.023 C 
HETATM   20  C26 UNL     1       7.599   7.245  14.478  1.00  0.00     0.023 C 
HETATM   21  C27 UNL     1       5.557   8.105  13.218  1.00  0.00     0.020 C 
HETATM   22  C28 UNL     1       5.846   7.280  11.963  1.00  0.00     0.090 C 
HETATM   23  C29 UNL     1       4.556   6.807  11.317  1.00  0.00     0.157 C 
HETATM   24  O2  UNL     1       4.595   5.958  10.427  1.00  0.00    -0.293 OA
ENDROOT
BRANCH   1  25
HETATM   25  C6  UNL     1      -1.666   5.818  12.491  1.00  0.00    -0.014 C 
HETATM   26  C7  UNL     1      -2.545   6.993  12.935  1.00  0.00     0.010 C 
BRANCH  25  27
HETATM   27  C5  UNL     1      -2.506   4.767  11.730  1.00  0.00     0.008 C 
BRANCH  27  28
HETATM   28  C4  UNL     1      -3.160   3.731  12.651  1.00  0.00     0.028 C 
BRANCH  28  29
HETATM   29  C3  UNL     1      -4.631   4.004  12.818  1.00  0.00    -0.013 C 
HETATM   30  C2  UNL     1      -5.668   3.420  12.188  1.00  0.00     0.008 C 
HETATM   31  C1  UNL     1      -7.091   3.749  12.542  1.00  0.00     0.055 C 
BRANCH  30  32
HETATM   32  C30 UNL     1      -5.545   2.403  11.119  1.00  0.00     0.171 C 
HETATM   33  O3  UNL     1      -5.744   1.208  11.260  1.00  0.00    -0.646 OA
BRANCH  32  34
HETATM   34  O4  UNL     1      -5.282   2.924   9.911  1.00  0.00    -0.773 OA
HETATM   35  H44 UNL     1      -5.275   2.143   9.321  1.00  0.00     0.167 HD
ENDBRANCH  32  34
ENDBRANCH  30  32
ENDBRANCH  28  29
ENDBRANCH  27  28
ENDBRANCH  25  27
ENDBRANCH   1  25
TORSDOF 6
ENDMDL
MODEL 4
REMARK minimizedAffinity -9.08747768
REMARK  6 active torsions:
REMARK  status: ('A' for Active; 'I' for Inactive)
REMARK    1  A    between atoms: C2_2  and  C30_32 
REMARK    2  A    between atoms: C3_3  and  C4_4 
REMARK    3  A    between atoms: C4_4  and  C5_5 
REMARK    4  A    between atoms: C5_5  and  C6_6 
REMARK    5  A    between atoms: C6_6  and  C8_8 
REMARK    6  A    between atoms: C30_32  and  O4_34 
ROOT
HETATM    1  C8  UNL     1       0.836   7.114  11.608  1.00  0.00    -0.002 C 
HETATM    2  C9  UNL     1       0.397   5.995  10.621  1.00  0.00     0.007 C 
HETATM    3  C10 UNL     1      -0.924   5.409  11.160  1.00  0.00     0.015 C 
HETATM    4  C11 UNL     1      -1.010   5.898  12.618  1.00  0.00    -0.005 C 
HETATM    5  C12 UNL     1      -0.128   4.939  13.479  1.00  0.00     0.021 C 
HETATM    6  C13 UNL     1      -2.350   5.937  13.337  1.00  0.00    -0.000 C 
HETATM    7  C14 UNL     1      -2.597   6.852  14.315  1.00  0.00    -0.060 C 
HETATM    8  C15 UNL     1      -1.566   7.923  14.669  1.00  0.00     0.036 C 
HETATM    9  C16 UNL     1      -0.249   7.940  13.862  1.00  0.00     0.015 C 
HETATM   10  C17 UNL     1      -0.448   7.368  12.451  1.00  0.00    -0.028 C 
HETATM   11  C18 UNL     1      -1.421   8.307  11.676  1.00  0.00     0.016 C 
HETATM   12  C19 UNL     1      -3.912   6.814  15.131  1.00  0.00    -0.014 C 
HETATM   13  C20 UNL     1      -3.661   5.767  16.248  1.00  0.00     0.020 C 
HETATM   14  C21 UNL     1      -4.317   8.141  15.844  1.00  0.00     0.021 C 
HETATM   15  C22 UNL     1      -5.258   9.005  15.019  1.00  0.00     0.080 C 
HETATM   16  C23 UNL     1      -6.566   8.264  14.823  1.00  0.00     0.135 C 
HETATM   17  O1  UNL     1      -7.640   8.862  14.911  1.00  0.00    -0.297 OA
HETATM   18  C24 UNL     1      -6.491   6.758  14.503  1.00  0.00     0.018 C 
HETATM   19  C25 UNL     1      -7.003   5.983  15.723  1.00  0.00     0.023 C 
HETATM   20  C26 UNL     1      -7.451   6.492  13.324  1.00  0.00     0.023 C 
HETATM   21  C27 UNL     1      -5.022   6.426  14.091  1.00  0.00     0.020 C 
HETATM   22  C28 UNL     1      -4.777   5.012  13.561  1.00  0.00     0.090 C 
HETATM   23  C29 UNL     1      -3.362   4.869  13.030  1.00  0.00     0.157 C 
HETATM   24  O2  UNL     1      -3.054   3.874  12.375  1.00  0.00    -0.293 OA
ENDROOT
BRANCH   1  25
HETATM   25  C6  UNL     1       1.661   8.254  10.938  1.00  0.00    -0.014 C 
HETATM   26  C7  UNL     1       2.790   8.877  11.767  1.00  0.00     0.010 C 
BRANCH  25  27
HETATM   27  C5  UNL     1       2.178   7.833   9.544  1.00  0.00     0.008 C 
BRANCH  27  28
HETATM   28  C4  UNL     1       2.998   6.537   9.567  1.00  0.00     0.028 C 
BRANCH  28  29
HETATM   29  C3  UNL     1       3.033   5.893   8.207  1.00  0.00    -0.013 C 
HETATM   30  C2  UNL     1       3.485   4.669   7.872  1.00  0.00     0.008 C 
HETATM   31  C1  UNL     1       3.362   4.140   6.470  1.00  0.00     0.055 C 
BRANCH  30  32
HETATM   32  C30 UNL     1       4.119   3.715   8.810  1.00  0.00     0.171 C 
HETATM   33  O3  UNL     1       5.304   3.427   8.825  1.00  0.00    -0.646 OA
BRANCH  32  34
HETATM   34  O4  UNL     1       3.279   3.242   9.743  1.00  0.00    -0.773 OA
HETATM   35  H44 UNL     1       3.850   2.673  10.298  1.00  0.00     0.167 HD
ENDBRANCH  32  34
ENDBRANCH  30  32
ENDBRANCH  28  29
ENDBRANCH  27  28
ENDBRANCH  25  27
ENDBRANCH   1  25
TORSDOF 6
ENDMDL
MODEL 5
REMARK minimizedAffinity -8.97208309
REMARK  6 active torsions:
REMARK  status: ('A' for Active; 'I' for Inactive)
REMARK    1  A    between atoms: C2_2  and  C30_32 
REMARK    2  A    between atoms: C3_3  and  C4_4 
REMARK    3  A    between atoms: C4_4  and  C5_5 
REMARK    4  A    between atoms: C5_5  and  C6_6 
REMARK    5  A    between atoms: C6_6  and  C8_8 
REMARK    6  A    between atoms: C30_32  and  O4_34 
ROOT
HETATM    1  C8  UNL     1      -5.392   6.882  14.835  1.00  0.00    -0.002 C 
HETATM    2  C9  UNL     1      -5.690   8.287  14.238  1.00  0.00     0.007 C 
HETATM    3  C10 UNL     1      -4.359   8.838  13.689  1.00  0.00     0.015 C 
HETATM    4  C11 UNL     1      -3.271   7.952  14.324  1.00  0.00    -0.005 C 
HETATM    5  C12 UNL     1      -3.009   8.501  15.763  1.00  0.00     0.021 C 
HETATM    6  C13 UNL     1      -1.890   7.858  13.692  1.00  0.00    -0.000 C 
HETATM    7  C14 UNL     1      -1.137   6.730  13.811  1.00  0.00    -0.060 C 
HETATM    8  C15 UNL     1      -1.684   5.490  14.515  1.00  0.00     0.036 C 
HETATM    9  C16 UNL     1      -3.126   5.558  15.063  1.00  0.00     0.015 C 
HETATM   10  C17 UNL     1      -3.986   6.542  14.257  1.00  0.00    -0.028 C 
HETATM   11  C18 UNL     1      -4.123   5.997  12.804  1.00  0.00     0.016 C 
HETATM   12  C19 UNL     1       0.314   6.679  13.275  1.00  0.00    -0.014 C 
HETATM   13  C20 UNL     1       1.180   7.310  14.397  1.00  0.00     0.020 C 
HETATM   14  C21 UNL     1       0.897   5.257  13.005  1.00  0.00     0.021 C 
HETATM   15  C22 UNL     1       0.716   4.794  11.568  1.00  0.00     0.080 C 
HETATM   16  C23 UNL     1       1.505   5.709  10.651  1.00  0.00     0.135 C 
HETATM   17  O1  UNL     1       2.146   5.242   9.708  1.00  0.00    -0.297 OA
HETATM   18  C24 UNL     1       1.457   7.222  10.940  1.00  0.00     0.018 C 
HETATM   19  C25 UNL     1       2.833   7.654  11.457  1.00  0.00     0.023 C 
HETATM   20  C26 UNL     1       1.199   7.937   9.596  1.00  0.00     0.023 C 
HETATM   21  C27 UNL     1       0.277   7.486  11.928  1.00  0.00     0.020 C 
HETATM   22  C28 UNL     1      -0.052   8.955  12.203  1.00  0.00     0.090 C 
HETATM   23  C29 UNL     1      -1.319   9.081  13.029  1.00  0.00     0.157 C 
HETATM   24  O2  UNL     1      -1.851  10.183  13.165  1.00  0.00    -0.293 OA
ENDROOT
BRANCH   1  25
HETATM   25  C6  UNL     1      -6.604   5.904  14.773  1.00  0.00    -0.014 C 
HETATM   26  C7  UNL     1      -7.208   5.457  16.110  1.00  0.00     0.010 C 
BRANCH  25  27
HETATM   27  C5  UNL     1      -7.707   6.429  13.826  1.00  0.00     0.008 C 
BRANCH  27  28
HETATM   28  C4  UNL     1      -9.104   6.420  14.459  1.00  0.00     0.028 C 
BRANCH  28  29
HETATM   29  C3  UNL     1      -9.715   7.795  14.445  1.00  0.00    -0.013 C 
HETATM   30  C2  UNL     1     -11.002   8.137  14.241  1.00  0.00     0.008 C 
HETATM   31  C1  UNL     1     -11.466   9.562  14.352  1.00  0.00     0.055 C 
BRANCH  30  32
HETATM   32  C30 UNL     1     -12.089   7.186  13.911  1.00  0.00     0.171 C 
HETATM   33  O3  UNL     1     -12.681   7.138  12.847  1.00  0.00    -0.646 OA
BRANCH  32  34
HETATM   34  O4  UNL     1     -12.319   6.281  14.875  1.00  0.00    -0.773 OA
HETATM   35  H44 UNL     1     -13.018   5.713  14.493  1.00  0.00     0.167 HD
ENDBRANCH  32  34
ENDBRANCH  30  32
ENDBRANCH  28  29
ENDBRANCH  27  28
ENDBRANCH  25  27
ENDBRANCH   1  25
TORSDOF 6
ENDMDL
MODEL 6
REMARK minimizedAffinity -8.61789513
REMARK  6 active torsions:
REMARK  status: ('A' for Active; 'I' for Inactive)
REMARK    1  A    between atoms: C2_2  and  C30_32 
REMARK    2  A    between atoms: C3_3  and  C4_4 
REMARK    3  A    between atoms: C4_4  and  C5_5 
REMARK    4  A    between atoms: C5_5  and  C6_6 
REMARK    5  A    between atoms: C6_6  and  C8_8 
REMARK    6  A    between atoms: C30_32  and  O4_34 
ROOT
HETATM    1  C8  UNL     1      -2.003   5.583  13.286  1.00  0.00    -0.002 C 
HETATM    2  C9  UNL     1      -3.404   5.821  12.655  1.00  0.00     0.007 C 
HETATM    3  C10 UNL     1      -4.018   7.046  13.363  1.00  0.00     0.015 C 
HETATM    4  C11 UNL     1      -3.167   7.239  14.632  1.00  0.00    -0.005 C 
HETATM    5  C12 UNL     1      -3.702   6.237  15.704  1.00  0.00     0.021 C 
HETATM    6  C13 UNL     1      -3.141   8.584  15.342  1.00  0.00    -0.000 C 
HETATM    7  C14 UNL     1      -2.042   8.992  16.035  1.00  0.00    -0.060 C 
HETATM    8  C15 UNL     1      -0.769   8.149  16.059  1.00  0.00     0.036 C 
HETATM    9  C16 UNL     1      -0.769   6.834  15.249  1.00  0.00     0.015 C 
HETATM   10  C17 UNL     1      -1.731   6.910  14.055  1.00  0.00    -0.028 C 
HETATM   11  C18 UNL     1      -1.205   8.000  13.072  1.00  0.00     0.016 C 
HETATM   12  C19 UNL     1      -2.059  10.303  16.859  1.00  0.00    -0.014 C 
HETATM   13  C20 UNL     1      -2.706   9.917  18.215  1.00  0.00     0.020 C 
HETATM   14  C21 UNL     1      -0.667  10.926  17.188  1.00  0.00     0.021 C 
HETATM   15  C22 UNL     1      -0.222  11.972  16.178  1.00  0.00     0.080 C 
HETATM   16  C23 UNL     1      -1.183  13.144  16.223  1.00  0.00     0.135 C 
HETATM   17  O1  UNL     1      -0.759  14.299  16.165  1.00  0.00    -0.297 OA
HETATM   18  C24 UNL     1      -2.688  12.828  16.328  1.00  0.00     0.018 C 
HETATM   19  C25 UNL     1      -3.168  13.239  17.724  1.00  0.00     0.023 C 
HETATM   20  C26 UNL     1      -3.415  13.708  15.288  1.00  0.00     0.023 C 
HETATM   21  C27 UNL     1      -2.887  11.315  15.990  1.00  0.00     0.020 C 
HETATM   22  C28 UNL     1      -4.336  10.841  15.865  1.00  0.00     0.090 C 
HETATM   23  C29 UNL     1      -4.397   9.411  15.363  1.00  0.00     0.157 C 
HETATM   24  O2  UNL     1      -5.473   8.936  15.000  1.00  0.00    -0.293 OA
ENDROOT
BRANCH   1  25
HETATM   25  C6  UNL     1      -0.978   4.932  12.310  1.00  0.00    -0.014 C 
HETATM   26  C7  UNL     1      -1.306   3.527  11.790  1.00  0.00     0.010 C 
BRANCH  25  27
HETATM   27  C5  UNL     1      -0.632   5.879  11.138  1.00  0.00     0.008 C 
BRANCH  27  28
HETATM   28  C4  UNL     1       0.857   5.872  10.773  1.00  0.00     0.028 C 
BRANCH  28  29
HETATM   29  C3  UNL     1       1.151   6.858   9.675  1.00  0.00    -0.013 C 
HETATM   30  C2  UNL     1       2.130   6.815   8.750  1.00  0.00     0.008 C 
HETATM   31  C1  UNL     1       2.229   7.843   7.658  1.00  0.00     0.055 C 
BRANCH  30  32
HETATM   32  C30 UNL     1       3.185   5.778   8.682  1.00  0.00     0.171 C 
HETATM   33  O3  UNL     1       3.257   4.904   7.835  1.00  0.00    -0.646 OA
BRANCH  32  34
HETATM   34  O4  UNL     1       4.150   5.934   9.602  1.00  0.00    -0.773 OA
HETATM   35  H44 UNL     1       4.778   5.212   9.399  1.00  0.00     0.167 HD
ENDBRANCH  32  34
ENDBRANCH  30  32
ENDBRANCH  28  29
ENDBRANCH  27  28
ENDBRANCH  25  27
ENDBRANCH   1  25
TORSDOF 6
ENDMDL
MODEL 7
REMARK minimizedAffinity -8.4856472
REMARK  6 active torsions:
REMARK  status: ('A' for Active; 'I' for Inactive)
REMARK    1  A    between atoms: C2_2  and  C30_32 
REMARK    2  A    between atoms: C3_3  and  C4_4 
REMARK    3  A    between atoms: C4_4  and  C5_5 
REMARK    4  A    between atoms: C5_5  and  C6_6 
REMARK    5  A    between atoms: C6_6  and  C8_8 
REMARK    6  A    between atoms: C30_32  and  O4_34 
ROOT
HETATM    1  C8  UNL     1      -2.420   8.717  15.459  1.00  0.00    -0.002 C 
HETATM    2  C9  UNL     1      -1.268   9.102  16.430  1.00  0.00     0.007 C 
HETATM    3  C10 UNL     1       0.051   8.652  15.769  1.00  0.00     0.015 C 
HETATM    4  C11 UNL     1      -0.376   7.677  14.655  1.00  0.00    -0.005 C 
HETATM    5  C12 UNL     1      -0.620   6.288  15.326  1.00  0.00     0.021 C 
HETATM    6  C13 UNL     1       0.559   7.384  13.492  1.00  0.00    -0.000 C 
HETATM    7  C14 UNL     1       0.073   7.058  12.263  1.00  0.00    -0.060 C 
HETATM    8  C15 UNL     1      -1.430   7.054  11.988  1.00  0.00     0.036 C 
HETATM    9  C16 UNL     1      -2.368   7.455  13.147  1.00  0.00     0.015 C 
HETATM   10  C17 UNL     1      -1.674   8.411  14.127  1.00  0.00    -0.028 C 
HETATM   11  C18 UNL     1      -1.358   9.739  13.373  1.00  0.00     0.016 C 
HETATM   12  C19 UNL     1       1.021   6.639  11.113  1.00  0.00    -0.014 C 
HETATM   13  C20 UNL     1       1.293   5.130  11.347  1.00  0.00     0.020 C 
HETATM   14  C21 UNL     1       0.450   6.774   9.668  1.00  0.00     0.021 C 
HETATM   15  C22 UNL     1       0.793   8.099   9.006  1.00  0.00     0.080 C 
HETATM   16  C23 UNL     1       2.296   8.190   8.830  1.00  0.00     0.135 C 
HETATM   17  O1  UNL     1       2.775   8.644   7.790  1.00  0.00    -0.297 OA
HETATM   18  C24 UNL     1       3.180   7.709   9.998  1.00  0.00     0.018 C 
HETATM   19  C25 UNL     1       3.878   6.414   9.569  1.00  0.00     0.023 C 
HETATM   20  C26 UNL     1       4.261   8.787  10.228  1.00  0.00     0.023 C 
HETATM   21  C27 UNL     1       2.274   7.573  11.263  1.00  0.00     0.020 C 
HETATM   22  C28 UNL     1       2.999   7.276  12.578  1.00  0.00     0.090 C 
HETATM   23  C29 UNL     1       2.040   7.344  13.752  1.00  0.00     0.157 C 
HETATM   24  O2  UNL     1       2.482   7.345  14.901  1.00  0.00    -0.293 OA
ENDROOT
BRANCH   1  25
HETATM   25  C6  UNL     1      -3.659   9.658  15.551  1.00  0.00    -0.014 C 
HETATM   26  C7  UNL     1      -3.394  11.167  15.493  1.00  0.00     0.010 C 
BRANCH  25  27
HETATM   27  C5  UNL     1      -4.750   9.258  14.532  1.00  0.00     0.008 C 
BRANCH  27  28
HETATM   28  C4  UNL     1      -5.812   8.320  15.117  1.00  0.00     0.028 C 
BRANCH  28  29
HETATM   29  C3  UNL     1      -5.935   7.062  14.299  1.00  0.00    -0.013 C 
HETATM   30  C2  UNL     1      -6.578   5.920  14.611  1.00  0.00     0.008 C 
HETATM   31  C1  UNL     1      -6.683   4.783  13.634  1.00  0.00     0.055 C 
BRANCH  30  32
HETATM   32  C30 UNL     1      -7.254   5.654  15.901  1.00  0.00     0.171 C 
HETATM   33  O3  UNL     1      -7.252   6.405  16.863  1.00  0.00    -0.646 OA
BRANCH  32  34
HETATM   34  O4  UNL     1      -7.979   4.525  15.904  1.00  0.00    -0.773 OA
HETATM   35  H44 UNL     1      -8.387   4.518  16.793  1.00  0.00     0.167 HD
ENDBRANCH  32  34
ENDBRANCH  30  32
ENDBRANCH  28  29
ENDBRANCH  27  28
ENDBRANCH  25  27
ENDBRANCH   1  25
TORSDOF 6
ENDMDL
MODEL 8
REMARK minimizedAffinity -8.42061424
REMARK  6 active torsions:
REMARK  status: ('A' for Active; 'I' for Inactive)
REMARK    1  A    between atoms: C2_2  and  C30_32 
REMARK    2  A    between atoms: C3_3  and  C4_4 
REMARK    3  A    between atoms: C4_4  and  C5_5 
REMARK    4  A    between atoms: C5_5  and  C6_6 
REMARK    5  A    between atoms: C6_6  and  C8_8 
REMARK    6  A    between atoms: C30_32  and  O4_34 
ROOT
HETATM    1  C8  UNL     1      -1.459   6.297  12.470  1.00  0.00    -0.002 C 
HETATM    2  C9  UNL     1      -1.195   5.720  11.050  1.00  0.00     0.007 C 
HETATM    3  C10 UNL     1       0.192   6.228  10.606  1.00  0.00     0.015 C 
HETATM    4  C11 UNL     1       0.518   7.385  11.569  1.00  0.00    -0.005 C 
HETATM    5  C12 UNL     1      -0.219   8.654  11.033  1.00  0.00     0.021 C 
HETATM    6  C13 UNL     1       1.957   7.834  11.771  1.00  0.00    -0.000 C 
HETATM    7  C14 UNL     1       2.367   8.371  12.953  1.00  0.00    -0.060 C 
HETATM    8  C15 UNL     1       1.416   8.470  14.144  1.00  0.00     0.036 C 
HETATM    9  C16 UNL     1      -0.014   7.917  13.962  1.00  0.00     0.015 C 
HETATM   10  C17 UNL     1      -0.052   6.791  12.920  1.00  0.00    -0.028 C 
HETATM   11  C18 UNL     1       0.787   5.594  13.461  1.00  0.00     0.016 C 
HETATM   12  C19 UNL     1       3.797   8.941  13.118  1.00  0.00    -0.014 C 
HETATM   13  C20 UNL     1       3.725  10.382  12.549  1.00  0.00     0.020 C 
HETATM   14  C21 UNL     1       4.323   9.063  14.582  1.00  0.00     0.021 C 
HETATM   15  C22 UNL     1       5.124   7.853  15.037  1.00  0.00     0.080 C 
HETATM   16  C23 UNL     1       6.377   7.742  14.191  1.00  0.00     0.135 C 
HETATM   17  O1  UNL     1       7.455   7.448  14.711  1.00  0.00    -0.297 OA
HETATM   18  C24 UNL     1       6.240   7.996  12.677  1.00  0.00     0.018 C 
HETATM   19  C25 UNL     1       6.938   9.320  12.348  1.00  0.00     0.023 C 
HETATM   20  C26 UNL     1       6.992   6.859  11.952  1.00  0.00     0.023 C 
HETATM   21  C27 UNL     1       4.720   7.954  12.318  1.00  0.00     0.020 C 
HETATM   22  C28 UNL     1       4.382   8.007  10.827  1.00  0.00     0.090 C 
HETATM   23  C29 UNL     1       2.899   7.781  10.599  1.00  0.00     0.157 C 
HETATM   24  O2  UNL     1       2.480   7.578   9.460  1.00  0.00    -0.293 OA
ENDROOT
BRANCH   1  25
HETATM   25  C6  UNL     1      -2.374   5.395  13.353  1.00  0.00    -0.014 C 
HETATM   26  C7  UNL     1      -2.342   5.641  14.866  1.00  0.00     0.010 C 
BRANCH  25  27
HETATM   27  C5  UNL     1      -3.830   5.385  12.834  1.00  0.00     0.008 C 
BRANCH  27  28
HETATM   28  C4  UNL     1      -4.594   4.107  13.196  1.00  0.00     0.028 C 
BRANCH  28  29
HETATM   29  C3  UNL     1      -6.019   4.172  12.716  1.00  0.00    -0.013 C 
HETATM   30  C2  UNL     1      -7.106   4.611  13.379  1.00  0.00     0.008 C 
HETATM   31  C1  UNL     1      -8.453   4.695  12.716  1.00  0.00     0.055 C 
BRANCH  30  32
HETATM   32  C30 UNL     1      -7.111   5.070  14.786  1.00  0.00     0.171 C 
HETATM   33  O3  UNL     1      -6.634   6.120  15.185  1.00  0.00    -0.646 OA
BRANCH  32  34
HETATM   34  O4  UNL     1      -7.792   4.260  15.612  1.00  0.00    -0.773 OA
HETATM   35  H44 UNL     1      -7.738   4.716  16.476  1.00  0.00     0.167 HD
ENDBRANCH  32  34
ENDBRANCH  30  32
ENDBRANCH  28  29
ENDBRANCH  27  28
ENDBRANCH  25  27
ENDBRANCH   1  25
TORSDOF 6
ENDMDL
MODEL 9
REMARK minimizedAffinity -8.37259102
REMARK  6 active torsions:
REMARK  status: ('A' for Active; 'I' for Inactive)
REMARK    1  A    between atoms: C2_2  and  C30_32 
REMARK    2  A    between atoms: C3_3  and  C4_4 
REMARK    3  A    between atoms: C4_4  and  C5_5 
REMARK    4  A    between atoms: C5_5  and  C6_6 
REMARK    5  A    between atoms: C6_6  and  C8_8 
REMARK    6  A    between atoms: C30_32  and  O4_34 
ROOT
HETATM    1  C8  UNL     1      -0.937   5.878  12.358  1.00  0.00    -0.002 C 
HETATM    2  C9  UNL     1       0.446   5.534  12.981  1.00  0.00     0.007 C 
HETATM    3  C10 UNL     1       0.825   6.701  13.915  1.00  0.00     0.015 C 
HETATM    4  C11 UNL     1      -0.118   7.852  13.514  1.00  0.00    -0.005 C 
HETATM    5  C12 UNL     1       0.501   8.539  12.255  1.00  0.00     0.021 C 
HETATM    6  C13 UNL     1      -0.389   8.995  14.481  1.00  0.00    -0.000 C 
HETATM    7  C14 UNL     1      -1.574   9.664  14.464  1.00  0.00    -0.060 C 
HETATM    8  C15 UNL     1      -2.704   9.239  13.528  1.00  0.00     0.036 C 
HETATM    9  C16 UNL     1      -2.458   8.013  12.623  1.00  0.00     0.015 C 
HETATM   10  C17 UNL     1      -1.451   7.041  13.256  1.00  0.00    -0.028 C 
HETATM   11  C18 UNL     1      -2.079   6.470  14.563  1.00  0.00     0.016 C 
HETATM   12  C19 UNL     1      -1.804  10.904  15.361  1.00  0.00    -0.014 C 
HETATM   13  C20 UNL     1      -1.185  12.089  14.575  1.00  0.00     0.020 C 
HETATM   14  C21 UNL     1      -3.291  11.282  15.644  1.00  0.00     0.021 C 
HETATM   15  C22 UNL     1      -3.831  10.679  16.931  1.00  0.00     0.080 C 
HETATM   16  C23 UNL     1      -3.064  11.252  18.107  1.00  0.00     0.135 C 
HETATM   17  O1  UNL     1      -3.655  11.572  19.139  1.00  0.00    -0.297 OA
HETATM   18  C24 UNL     1      -1.537  11.399  17.957  1.00  0.00     0.018 C 
HETATM   19  C25 UNL     1      -1.207  12.893  17.868  1.00  0.00     0.023 C 
HETATM   20  C26 UNL     1      -0.895  10.837  19.243  1.00  0.00     0.023 C 
HETATM   21  C27 UNL     1      -1.092  10.559  16.717  1.00  0.00     0.020 C 
HETATM   22  C28 UNL     1       0.418  10.431  16.502  1.00  0.00     0.090 C 
HETATM   23  C29 UNL     1       0.724   9.453  15.383  1.00  0.00     0.157 C 
HETATM   24  O2  UNL     1       1.879   9.063  15.212  1.00  0.00    -0.293 OA
ENDROOT
BRANCH   1  25
HETATM   25  C6  UNL     1      -1.794   4.626  12.002  1.00  0.00    -0.014 C 
HETATM   26  C7  UNL     1      -1.053   3.290  11.867  1.00  0.00     0.010 C 
BRANCH  25  27
HETATM   27  C5  UNL     1      -3.006   4.482  12.951  1.00  0.00     0.008 C 
BRANCH  27  28
HETATM   28  C4  UNL     1      -4.306   5.040  12.362  1.00  0.00     0.028 C 
BRANCH  28  29
HETATM   29  C3  UNL     1      -5.499   4.255  12.838  1.00  0.00    -0.013 C 
HETATM   30  C2  UNL     1      -6.056   3.161  12.284  1.00  0.00     0.008 C 
HETATM   31  C1  UNL     1      -7.198   2.439  12.943  1.00  0.00     0.055 C 
BRANCH  30  32
HETATM   32  C30 UNL     1      -5.620   2.541  11.013  1.00  0.00     0.171 C 
HETATM   33  O3  UNL     1      -5.572   3.108   9.934  1.00  0.00    -0.646 OA
BRANCH  32  34
HETATM   34  O4  UNL     1      -5.171   1.284  11.155  1.00  0.00    -0.773 OA
HETATM   35  H44 UNL     1      -4.887   1.039  10.252  1.00  0.00     0.167 HD
ENDBRANCH  32  34
ENDBRANCH  30  32
ENDBRANCH  28  29
ENDBRANCH  27  28
ENDBRANCH  25  27
ENDBRANCH   1  25
TORSDOF 6
ENDMDL
