MODEL 1
REMARK minimizedAffinity -8.43710423
REMARK CNNscore 0.359210044
REMARK CNNaffinity 6.09908295
REMARK  10 active torsions:
REMARK  status: ('A' for Active; 'I' for Inactive)
REMARK    1  A    between atoms: C2_2  and  C4_4 
REMARK    2  A    between atoms: C7_7  and  C8_8 
REMARK    3  A    between atoms: C8_8  and  O2_10 
REMARK    4  A    between atoms: C21_23  and  O3_24 
REMARK    5  A    between atoms: O3_24  and  C22_25 
REMARK    6  A    between atoms: C24_28  and  O5_29 
REMARK    7  A    between atoms: C25_30  and  O6_31 
REMARK    8  A    between atoms: C26_32  and  O7_33 
REMARK    9  A    between atoms: C27_34  and  C29_36 
REMARK   10  A    between atoms: C29_36  and  O8_37 
ROOT
HETATM    1  C4  UNL     1     -18.039  45.348 -21.613  1.00  0.00     0.019 C 
HETATM    2  C5  UNL     1     -19.565  45.193 -21.693  1.00  0.00     0.011 C 
HETATM    3  C6  UNL     1     -19.849  44.718 -23.112  1.00  0.00     0.021 C 
HETATM    4  C7  UNL     1     -18.628  45.129 -23.980  1.00  0.00     0.050 C 
HETATM    5  C9  UNL     1     -17.970  43.868 -24.582  1.00  0.00     0.022 C 
HETATM    6  C10 UNL     1     -16.577  44.125 -25.158  1.00  0.00     0.011 C 
HETATM    7  C11 UNL     1     -15.571  44.687 -24.112  1.00  0.00    -0.032 C 
HETATM    8  C12 UNL     1     -15.375  43.601 -23.013  1.00  0.00     0.016 C 
HETATM    9  C13 UNL     1     -16.210  45.991 -23.511  1.00  0.00     0.000 C 
HETATM   10  C14 UNL     1     -15.262  46.705 -22.547  1.00  0.00     0.006 C 
HETATM   11  C15 UNL     1     -13.906  47.018 -23.178  1.00  0.00     0.006 C 
HETATM   12  C16 UNL     1     -13.209  45.749 -23.711  1.00  0.00     0.003 C 
HETATM   13  C17 UNL     1     -11.653  45.935 -24.016  1.00  0.00    -0.035 C 
HETATM   14  C18 UNL     1     -10.982  46.069 -22.604  1.00  0.00     0.016 C 
HETATM   15  C19 UNL     1     -11.355  47.237 -24.798  1.00  0.00     0.012 C 
HETATM   16  C20 UNL     1      -9.892  47.412 -25.212  1.00  0.00     0.034 C 
HETATM   17  C21 UNL     1      -9.361  46.232 -26.029  1.00  0.00     0.135 C 
HETATM   18  C27 UNL     1      -9.544  44.860 -25.308  1.00  0.00     0.008 C 
HETATM   19  C28 UNL     1      -9.176  43.724 -26.309  1.00  0.00     0.020 C 
HETATM   20  C30 UNL     1     -11.031  44.667 -24.744  1.00  0.00     0.007 C 
HETATM   21  C31 UNL     1     -11.984  44.075 -25.809  1.00  0.00     0.007 C 
HETATM   22  C32 UNL     1     -13.387  43.793 -25.282  1.00  0.00     0.011 C 
HETATM   23  C33 UNL     1     -14.125  45.058 -24.794  1.00  0.00    -0.032 C 
HETATM   24  C34 UNL     1     -14.342  45.950 -26.055  1.00  0.00     0.016 C 
HETATM   25  C35 UNL     1     -17.688  45.911 -23.011  1.00  0.00     0.017 C 
ENDROOT
BRANCH  17  26
HETATM   26  O3  UNL     1     -10.044  46.248 -27.290  1.00  0.00    -0.352 OA
BRANCH  26  27
HETATM   27  C22 UNL     1      -9.227  46.669 -28.386  1.00  0.00     0.291 C 
HETATM   28  O4  UNL     1      -9.435  45.795 -29.504  1.00  0.00    -0.356 OA
HETATM   29  C23 UNL     1     -10.498  46.220 -30.362  1.00  0.00     0.205 C 
HETATM   30  C24 UNL     1     -10.139  47.544 -31.058  1.00  0.00     0.173 C 
HETATM   31  C25 UNL     1      -9.201  48.391 -30.185  1.00  0.00     0.182 C 
HETATM   32  C26 UNL     1      -9.516  48.157 -28.709  1.00  0.00     0.204 C 
BRANCH  30  33
HETATM   33  O5  UNL     1      -9.488  47.274 -32.309  1.00  0.00    -0.391 OA
HETATM   34  H37 UNL     1      -9.369  48.124 -32.770  1.00  0.00     0.210 HD
ENDBRANCH  30  33
BRANCH  31  35
HETATM   35  O6  UNL     1      -9.346  49.788 -30.499  1.00  0.00    -0.390 OA
HETATM   36  H39 UNL     1      -8.708  49.983 -31.211  1.00  0.00     0.210 HD
ENDBRANCH  31  35
BRANCH  32  37
HETATM   37  O7  UNL     1      -8.701  49.028 -27.907  1.00  0.00    -0.388 OA
HETATM   38  H41 UNL     1      -8.771  49.904 -28.341  1.00  0.00     0.210 HD
ENDBRANCH  32  37
ENDBRANCH  26  27
ENDBRANCH  17  26
BRANCH  18  39
HETATM   39  C29 UNL     1      -8.452  44.757 -24.194  1.00  0.00     0.176 C 
BRANCH  39  40
HETATM   40  O8  UNL     1      -7.587  45.885 -24.157  1.00  0.00    -0.400 OA
HETATM   41  H47 UNL     1      -6.926  45.776 -24.861  1.00  0.00     0.209 HD
ENDBRANCH  39  40
ENDBRANCH  18  39
BRANCH   1  42
HETATM   42  C2  UNL     1     -17.632  46.142 -20.384  1.00  0.00    -0.088 C 
HETATM   43  C1  UNL     1     -16.530  45.811 -19.685  1.00  0.00     0.014 C 
HETATM   44  C3  UNL     1     -18.493  47.288 -19.923  1.00  0.00     0.043 C 
ENDBRANCH   1  42
BRANCH   4  45
HETATM   45  C8  UNL     1     -19.114  46.040 -25.111  1.00  0.00     0.149 C 
HETATM   46  O1  UNL     1     -19.428  45.709 -26.243  1.00  0.00    -0.649 OA
BRANCH  45  47
HETATM   47  O2  UNL     1     -19.187  47.338 -24.751  1.00  0.00    -0.776 OA
HETATM   48  H11 UNL     1     -19.510  47.784 -25.560  1.00  0.00     0.167 HD
ENDBRANCH  45  47
ENDBRANCH   4  45
TORSDOF 10
ENDMDL
MODEL 2
REMARK minimizedAffinity -7.31884861
REMARK CNNscore 0.316564262
REMARK CNNaffinity 6.55156898
REMARK  10 active torsions:
REMARK  status: ('A' for Active; 'I' for Inactive)
REMARK    1  A    between atoms: C2_2  and  C4_4 
REMARK    2  A    between atoms: C7_7  and  C8_8 
REMARK    3  A    between atoms: C8_8  and  O2_10 
REMARK    4  A    between atoms: C21_23  and  O3_24 
REMARK    5  A    between atoms: O3_24  and  C22_25 
REMARK    6  A    between atoms: C24_28  and  O5_29 
REMARK    7  A    between atoms: C25_30  and  O6_31 
REMARK    8  A    between atoms: C26_32  and  O7_33 
REMARK    9  A    between atoms: C27_34  and  C29_36 
REMARK   10  A    between atoms: C29_36  and  O8_37 
ROOT
HETATM    1  C4  UNL     1       4.266  57.040  -6.870  1.00  0.00     0.019 C 
HETATM    2  C5  UNL     1       5.478  57.600  -6.111  1.00  0.00     0.011 C 
HETATM    3  C6  UNL     1       6.678  56.818  -6.631  1.00  0.00     0.021 C 
HETATM    4  C7  UNL     1       6.130  55.491  -7.224  1.00  0.00     0.050 C 
HETATM    5  C9  UNL     1       6.480  55.409  -8.727  1.00  0.00     0.022 C 
HETATM    6  C10 UNL     1       5.700  54.328  -9.476  1.00  0.00     0.011 C 
HETATM    7  C11 UNL     1       4.157  54.514  -9.396  1.00  0.00    -0.032 C 
HETATM    8  C12 UNL     1       3.805  55.854 -10.109  1.00  0.00     0.016 C 
HETATM    9  C13 UNL     1       3.777  54.567  -7.872  1.00  0.00     0.000 C 
HETATM   10  C14 UNL     1       2.264  54.633  -7.658  1.00  0.00     0.006 C 
HETATM   11  C15 UNL     1       1.521  53.494  -8.355  1.00  0.00     0.006 C 
HETATM   12  C16 UNL     1       1.807  53.457  -9.870  1.00  0.00     0.003 C 
HETATM   13  C17 UNL     1       0.781  52.567 -10.710  1.00  0.00    -0.035 C 
HETATM   14  C18 UNL     1      -0.564  53.375 -10.684  1.00  0.00     0.016 C 
HETATM   15  C19 UNL     1       0.510  51.194 -10.048  1.00  0.00     0.012 C 
HETATM   16  C20 UNL     1      -0.381  50.257 -10.867  1.00  0.00     0.034 C 
HETATM   17  C21 UNL     1       0.154  50.010 -12.278  1.00  0.00     0.135 C 
HETATM   18  C27 UNL     1       0.402  51.328 -13.075  1.00  0.00     0.008 C 
HETATM   19  C28 UNL     1       1.143  50.974 -14.399  1.00  0.00     0.020 C 
HETATM   20  C30 UNL     1       1.233  52.402 -12.224  1.00  0.00     0.007 C 
HETATM   21  C31 UNL     1       2.759  52.198 -12.363  1.00  0.00     0.007 C 
HETATM   22  C32 UNL     1       3.585  53.255 -11.638  1.00  0.00     0.011 C 
HETATM   23  C33 UNL     1       3.355  53.274 -10.111  1.00  0.00    -0.032 C 
HETATM   24  C34 UNL     1       3.890  51.911  -9.574  1.00  0.00     0.016 C 
HETATM   25  C35 UNL     1       4.594  55.531  -6.952  1.00  0.00     0.017 C 
ENDROOT
BRANCH  17  26
HETATM   26  O3  UNL     1       1.364  49.251 -12.148  1.00  0.00    -0.352 OA
BRANCH  26  27
HETATM   27  C22 UNL     1       1.191  47.847 -12.357  1.00  0.00     0.291 C 
HETATM   28  O4  UNL     1       0.593  47.622 -13.642  1.00  0.00    -0.356 OA
HETATM   29  C23 UNL     1       1.553  47.484 -14.694  1.00  0.00     0.205 C 
HETATM   30  C24 UNL     1       2.386  46.204 -14.505  1.00  0.00     0.173 C 
HETATM   31  C25 UNL     1       2.520  45.846 -13.018  1.00  0.00     0.182 C 
HETATM   32  C26 UNL     1       2.550  47.123 -12.179  1.00  0.00     0.204 C 
BRANCH  30  33
HETATM   33  O5  UNL     1       1.755  45.110 -15.189  1.00  0.00    -0.391 OA
HETATM   34  H37 UNL     1       2.357  44.344 -15.138  1.00  0.00     0.210 HD
ENDBRANCH  30  33
BRANCH  31  35
HETATM   35  O6  UNL     1       3.721  45.085 -12.790  1.00  0.00    -0.390 OA
HETATM   36  H39 UNL     1       3.481  44.145 -12.898  1.00  0.00     0.210 HD
ENDBRANCH  31  35
BRANCH  32  37
HETATM   37  O7  UNL     1       2.776  46.779 -10.802  1.00  0.00    -0.388 OA
HETATM   38  H41 UNL     1       3.512  46.131 -10.824  1.00  0.00     0.210 HD
ENDBRANCH  32  37
ENDBRANCH  26  27
ENDBRANCH  17  26
BRANCH  18  39
HETATM   39  C29 UNL     1      -0.987  51.870 -13.548  1.00  0.00     0.176 C 
BRANCH  39  40
HETATM   40  O8  UNL     1      -1.854  50.844 -14.014  1.00  0.00    -0.400 OA
HETATM   41  H47 UNL     1      -1.592  50.624 -14.924  1.00  0.00     0.209 HD
ENDBRANCH  39  40
ENDBRANCH  18  39
BRANCH   1  42
HETATM   42  C2  UNL     1       2.964  57.469  -6.217  1.00  0.00    -0.088 C 
HETATM   43  C1  UNL     1       1.909  57.842  -6.966  1.00  0.00     0.014 C 
HETATM   44  C3  UNL     1       2.867  57.513  -4.715  1.00  0.00     0.043 C 
ENDBRANCH   1  42
BRANCH   4  45
HETATM   45  C8  UNL     1       6.778  54.317  -6.485  1.00  0.00     0.149 C 
HETATM   46  O1  UNL     1       6.484  53.136  -6.573  1.00  0.00    -0.649 OA
BRANCH  45  47
HETATM   47  O2  UNL     1       7.781  54.696  -5.667  1.00  0.00    -0.776 OA
HETATM   48  H11 UNL     1       8.092  53.854  -5.277  1.00  0.00     0.167 HD
ENDBRANCH  45  47
ENDBRANCH   4  45
TORSDOF 10
ENDMDL
MODEL 3
REMARK minimizedAffinity -7.72918415
REMARK CNNscore 0.311621815
REMARK CNNaffinity 6.43434095
REMARK  10 active torsions:
REMARK  status: ('A' for Active; 'I' for Inactive)
REMARK    1  A    between atoms: C2_2  and  C4_4 
REMARK    2  A    between atoms: C7_7  and  C8_8 
REMARK    3  A    between atoms: C8_8  and  O2_10 
REMARK    4  A    between atoms: C21_23  and  O3_24 
REMARK    5  A    between atoms: O3_24  and  C22_25 
REMARK    6  A    between atoms: C24_28  and  O5_29 
REMARK    7  A    between atoms: C25_30  and  O6_31 
REMARK    8  A    between atoms: C26_32  and  O7_33 
REMARK    9  A    between atoms: C27_34  and  C29_36 
REMARK   10  A    between atoms: C29_36  and  O8_37 
ROOT
HETATM    1  C4  UNL     1     -12.430  46.044 -41.691  1.00  0.00     0.019 C 
HETATM    2  C5  UNL     1     -13.035  47.022 -42.709  1.00  0.00     0.011 C 
HETATM    3  C6  UNL     1     -12.942  48.395 -42.056  1.00  0.00     0.021 C 
HETATM    4  C7  UNL     1     -12.828  48.161 -40.525  1.00  0.00     0.050 C 
HETATM    5  C9  UNL     1     -11.495  48.746 -40.007  1.00  0.00     0.022 C 
HETATM    6  C10 UNL     1     -11.126  48.271 -38.602  1.00  0.00     0.011 C 
HETATM    7  C11 UNL     1     -10.998  46.724 -38.487  1.00  0.00    -0.032 C 
HETATM    8  C12 UNL     1      -9.819  46.278 -39.403  1.00  0.00     0.016 C 
HETATM    9  C13 UNL     1     -12.360  46.111 -38.980  1.00  0.00     0.000 C 
HETATM   10  C14 UNL     1     -12.402  44.592 -38.808  1.00  0.00     0.006 C 
HETATM   11  C15 UNL     1     -12.107  44.153 -37.374  1.00  0.00     0.006 C 
HETATM   12  C16 UNL     1     -10.740  44.670 -36.880  1.00  0.00     0.003 C 
HETATM   13  C17 UNL     1     -10.196  43.939 -35.570  1.00  0.00    -0.035 C 
HETATM   14  C18 UNL     1      -9.809  42.495 -36.048  1.00  0.00     0.016 C 
HETATM   15  C19 UNL     1     -11.286  43.790 -34.480  1.00  0.00     0.012 C 
HETATM   16  C20 UNL     1     -10.792  43.194 -33.160  1.00  0.00     0.034 C 
HETATM   17  C21 UNL     1      -9.619  43.971 -32.560  1.00  0.00     0.135 C 
HETATM   18  C27 UNL     1      -8.421  44.127 -33.548  1.00  0.00     0.008 C 
HETATM   19  C28 UNL     1      -7.387  45.109 -32.920  1.00  0.00     0.020 C 
HETATM   20  C30 UNL     1      -8.892  44.638 -34.992  1.00  0.00     0.007 C 
HETATM   21  C31 UNL     1      -8.970  46.181 -35.066  1.00  0.00     0.007 C 
HETATM   22  C32 UNL     1      -9.328  46.708 -36.451  1.00  0.00     0.011 C 
HETATM   23  C33 UNL     1     -10.717  46.246 -36.943  1.00  0.00    -0.032 C 
HETATM   24  C34 UNL     1     -11.759  46.901 -35.984  1.00  0.00     0.016 C 
HETATM   25  C35 UNL     1     -12.932  46.615 -40.343  1.00  0.00     0.017 C 
ENDROOT
BRANCH  17  26
HETATM   26  O3  UNL     1     -10.121  45.251 -32.152  1.00  0.00    -0.352 OA
BRANCH  26  27
HETATM   27  C22 UNL     1     -10.545  45.298 -30.787  1.00  0.00     0.291 C 
HETATM   28  O4  UNL     1      -9.512  44.770 -29.944  1.00  0.00    -0.356 OA
HETATM   29  C23 UNL     1      -8.579  45.762 -29.505  1.00  0.00     0.205 C 
HETATM   30  C24 UNL     1      -9.264  46.775 -28.571  1.00  0.00     0.173 C 
HETATM   31  C25 UNL     1     -10.751  46.930 -28.916  1.00  0.00     0.182 C 
HETATM   32  C26 UNL     1     -10.956  46.747 -30.419  1.00  0.00     0.204 C 
BRANCH  30  33
HETATM   33  O5  UNL     1      -9.148  46.333 -27.209  1.00  0.00    -0.391 OA
HETATM   34  H37 UNL     1      -9.496  47.043 -26.638  1.00  0.00     0.210 HD
ENDBRANCH  30  33
BRANCH  31  35
HETATM   35  O6  UNL     1     -11.230  48.226 -28.513  1.00  0.00    -0.390 OA
HETATM   36  H39 UNL     1     -11.548  48.134 -27.595  1.00  0.00     0.210 HD
ENDBRANCH  31  35
BRANCH  32  37
HETATM   37  O7  UNL     1     -12.335  46.992 -30.742  1.00  0.00    -0.388 OA
HETATM   38  H41 UNL     1     -12.560  47.817 -30.264  1.00  0.00     0.210 HD
ENDBRANCH  32  37
ENDBRANCH  26  27
ENDBRANCH  17  26
BRANCH  18  39
HETATM   39  C29 UNL     1      -7.665  42.759 -33.603  1.00  0.00     0.176 C 
BRANCH  39  40
HETATM   40  O8  UNL     1      -6.269  42.904 -33.828  1.00  0.00    -0.400 OA
HETATM   41  H47 UNL     1      -6.135  43.055 -34.779  1.00  0.00     0.209 HD
ENDBRANCH  39  40
ENDBRANCH  18  39
BRANCH   1  42
HETATM   42  C2  UNL     1     -12.767  44.606 -42.045  1.00  0.00    -0.088 C 
HETATM   43  C1  UNL     1     -14.047  44.197 -42.117  1.00  0.00     0.014 C 
HETATM   44  C3  UNL     1     -11.652  43.621 -42.280  1.00  0.00     0.043 C 
ENDBRANCH   1  42
BRANCH   4  45
HETATM   45  C8  UNL     1     -13.997  48.865 -39.831  1.00  0.00     0.149 C 
HETATM   46  O1  UNL     1     -14.002  49.984 -39.344  1.00  0.00    -0.649 OA
BRANCH  45  47
HETATM   47  O2  UNL     1     -15.118  48.117 -39.793  1.00  0.00    -0.776 OA
HETATM   48  H11 UNL     1     -15.764  48.691 -39.334  1.00  0.00     0.167 HD
ENDBRANCH  45  47
ENDBRANCH   4  45
TORSDOF 10
ENDMDL
MODEL 4
REMARK minimizedAffinity -8.39883804
REMARK CNNscore 0.230296597
REMARK CNNaffinity 6.19719839
REMARK  10 active torsions:
REMARK  status: ('A' for Active; 'I' for Inactive)
REMARK    1  A    between atoms: C2_2  and  C4_4 
REMARK    2  A    between atoms: C7_7  and  C8_8 
REMARK    3  A    between atoms: C8_8  and  O2_10 
REMARK    4  A    between atoms: C21_23  and  O3_24 
REMARK    5  A    between atoms: O3_24  and  C22_25 
REMARK    6  A    between atoms: C24_28  and  O5_29 
REMARK    7  A    between atoms: C25_30  and  O6_31 
REMARK    8  A    between atoms: C26_32  and  O7_33 
REMARK    9  A    between atoms: C27_34  and  C29_36 
REMARK   10  A    between atoms: C29_36  and  O8_37 
ROOT
HETATM    1  C4  UNL     1      -0.889  51.283 -22.794  1.00  0.00     0.019 C 
HETATM    2  C5  UNL     1       0.247  52.298 -22.595  1.00  0.00     0.011 C 
HETATM    3  C6  UNL     1       0.673  52.148 -21.140  1.00  0.00     0.021 C 
HETATM    4  C7  UNL     1      -0.522  51.505 -20.383  1.00  0.00     0.050 C 
HETATM    5  C9  UNL     1      -0.088  50.151 -19.781  1.00  0.00     0.022 C 
HETATM    6  C10 UNL     1      -1.262  49.285 -19.321  1.00  0.00     0.011 C 
HETATM    7  C11 UNL     1      -2.268  48.954 -20.461  1.00  0.00    -0.032 C 
HETATM    8  C12 UNL     1      -1.512  48.103 -21.526  1.00  0.00     0.016 C 
HETATM    9  C13 UNL     1      -2.746  50.323 -21.066  1.00  0.00     0.000 C 
HETATM   10  C14 UNL     1      -3.831  50.135 -22.127  1.00  0.00     0.006 C 
HETATM   11  C15 UNL     1      -5.026  49.333 -21.612  1.00  0.00     0.006 C 
HETATM   12  C16 UNL     1      -4.606  47.947 -21.081  1.00  0.00     0.003 C 
HETATM   13  C17 UNL     1      -5.815  46.920 -20.900  1.00  0.00    -0.035 C 
HETATM   14  C18 UNL     1      -6.251  46.555 -22.363  1.00  0.00     0.016 C 
HETATM   15  C19 UNL     1      -7.036  47.562 -20.198  1.00  0.00     0.012 C 
HETATM   16  C20 UNL     1      -8.183  46.593 -19.901  1.00  0.00     0.034 C 
HETATM   17  C21 UNL     1      -7.740  45.382 -19.078  1.00  0.00     0.135 C 
HETATM   18  C27 UNL     1      -6.551  44.607 -19.725  1.00  0.00     0.008 C 
HETATM   19  C28 UNL     1      -6.045  43.540 -18.709  1.00  0.00     0.020 C 
HETATM   20  C30 UNL     1      -5.362  45.585 -20.169  1.00  0.00     0.007 C 
HETATM   21  C31 UNL     1      -4.371  45.856 -19.012  1.00  0.00     0.007 C 
HETATM   22  C32 UNL     1      -3.176  46.711 -19.421  1.00  0.00     0.011 C 
HETATM   23  C33 UNL     1      -3.569  48.123 -19.905  1.00  0.00    -0.032 C 
HETATM   24  C34 UNL     1      -4.181  48.853 -18.670  1.00  0.00     0.016 C 
HETATM   25  C35 UNL     1      -1.652  51.369 -21.452  1.00  0.00     0.017 C 
ENDROOT
BRANCH  17  26
HETATM   26  O3  UNL     1      -7.393  45.861 -17.771  1.00  0.00    -0.352 OA
BRANCH  26  27
HETATM   27  C22 UNL     1      -8.352  45.535 -16.761  1.00  0.00     0.291 C 
HETATM   28  O4  UNL     1      -7.864  44.443 -15.969  1.00  0.00    -0.356 OA
HETATM   29  C23 UNL     1      -7.086  44.866 -14.845  1.00  0.00     0.205 C 
HETATM   30  C24 UNL     1      -7.962  45.625 -13.833  1.00  0.00     0.173 C 
HETATM   31  C25 UNL     1      -9.121  46.347 -14.535  1.00  0.00     0.182 C 
HETATM   32  C26 UNL     1      -8.682  46.799 -15.927  1.00  0.00     0.204 C 
BRANCH  30  33
HETATM   33  O5  UNL     1      -8.504  44.704 -12.874  1.00  0.00    -0.391 OA
HETATM   34  H37 UNL     1      -8.964  45.225 -12.191  1.00  0.00     0.210 HD
ENDBRANCH  30  33
BRANCH  31  35
HETATM   35  O6  UNL     1      -9.546  47.485 -13.765  1.00  0.00    -0.390 OA
HETATM   36  H39 UNL     1     -10.237  47.168 -13.154  1.00  0.00     0.210 HD
ENDBRANCH  31  35
BRANCH  32  37
HETATM   37  O7  UNL     1      -9.740  47.558 -16.534  1.00  0.00    -0.388 OA
HETATM   38  H41 UNL     1     -10.036  48.178 -15.834  1.00  0.00     0.210 HD
ENDBRANCH  32  37
ENDBRANCH  26  27
ENDBRANCH  17  26
BRANCH  18  39
HETATM   39  C29 UNL     1      -7.120  43.764 -20.913  1.00  0.00     0.176 C 
BRANCH  39  40
HETATM   40  O8  UNL     1      -6.149  42.911 -21.505  1.00  0.00    -0.400 OA
HETATM   41  H47 UNL     1      -5.605  43.450 -22.104  1.00  0.00     0.209 HD
ENDBRANCH  39  40
ENDBRANCH  18  39
BRANCH   1  42
HETATM   42  C2  UNL     1      -1.647  51.554 -24.083  1.00  0.00    -0.088 C 
HETATM   43  C1  UNL     1      -2.374  52.678 -24.230  1.00  0.00     0.014 C 
HETATM   44  C3  UNL     1      -1.612  50.536 -25.191  1.00  0.00     0.043 C 
ENDBRANCH   1  42
BRANCH   4  45
HETATM   45  C8  UNL     1      -0.956  52.449 -19.258  1.00  0.00     0.149 C 
HETATM   46  O1  UNL     1      -0.338  53.404 -18.815  1.00  0.00    -0.649 OA
BRANCH  45  47
HETATM   47  O2  UNL     1      -2.166  52.142 -18.746  1.00  0.00    -0.776 OA
HETATM   48  H11 UNL     1      -2.304  52.822 -18.056  1.00  0.00     0.167 HD
ENDBRANCH  45  47
ENDBRANCH   4  45
TORSDOF 10
ENDMDL
MODEL 5
REMARK minimizedAffinity -9.93093204
REMARK CNNscore 0.222303689
REMARK CNNaffinity 6.61734772
REMARK  10 active torsions:
REMARK  status: ('A' for Active; 'I' for Inactive)
REMARK    1  A    between atoms: C2_2  and  C4_4 
REMARK    2  A    between atoms: C7_7  and  C8_8 
REMARK    3  A    between atoms: C8_8  and  O2_10 
REMARK    4  A    between atoms: C21_23  and  O3_24 
REMARK    5  A    between atoms: O3_24  and  C22_25 
REMARK    6  A    between atoms: C24_28  and  O5_29 
REMARK    7  A    between atoms: C25_30  and  O6_31 
REMARK    8  A    between atoms: C26_32  and  O7_33 
REMARK    9  A    between atoms: C27_34  and  C29_36 
REMARK   10  A    between atoms: C29_36  and  O8_37 
ROOT
HETATM    1  C4  UNL     1      -0.591  51.949 -23.029  1.00  0.00     0.019 C 
HETATM    2  C5  UNL     1       0.667  52.679 -22.536  1.00  0.00     0.011 C 
HETATM    3  C6  UNL     1       0.937  52.123 -21.143  1.00  0.00     0.021 C 
HETATM    4  C7  UNL     1      -0.405  51.538 -20.622  1.00  0.00     0.050 C 
HETATM    5  C9  UNL     1      -0.242  50.027 -20.348  1.00  0.00     0.022 C 
HETATM    6  C10 UNL     1      -1.571  49.293 -20.168  1.00  0.00     0.011 C 
HETATM    7  C11 UNL     1      -2.514  49.415 -21.401  1.00  0.00    -0.032 C 
HETATM    8  C12 UNL     1      -1.811  48.718 -22.604  1.00  0.00     0.016 C 
HETATM    9  C13 UNL     1      -2.719  50.949 -21.676  1.00  0.00     0.000 C 
HETATM   10  C14 UNL     1      -3.724  51.203 -22.800  1.00  0.00     0.006 C 
HETATM   11  C15 UNL     1      -5.069  50.520 -22.552  1.00  0.00     0.006 C 
HETATM   12  C16 UNL     1      -4.918  48.998 -22.355  1.00  0.00     0.003 C 
HETATM   13  C17 UNL     1      -6.283  48.181 -22.487  1.00  0.00    -0.035 C 
HETATM   14  C18 UNL     1      -6.643  48.247 -24.014  1.00  0.00     0.016 C 
HETATM   15  C19 UNL     1      -7.446  48.843 -21.707  1.00  0.00     0.012 C 
HETATM   16  C20 UNL     1      -8.751  48.044 -21.709  1.00  0.00     0.034 C 
HETATM   17  C21 UNL     1      -8.576  46.617 -21.186  1.00  0.00     0.135 C 
HETATM   18  C27 UNL     1      -7.470  45.821 -21.947  1.00  0.00     0.008 C 
HETATM   19  C28 UNL     1      -7.227  44.476 -21.198  1.00  0.00     0.020 C 
HETATM   20  C30 UNL     1      -6.109  46.655 -22.083  1.00  0.00     0.007 C 
HETATM   21  C31 UNL     1      -5.192  46.475 -20.850  1.00  0.00     0.007 C 
HETATM   22  C32 UNL     1      -3.848  47.183 -20.982  1.00  0.00     0.011 C 
HETATM   23  C33 UNL     1      -3.972  48.715 -21.125  1.00  0.00    -0.032 C 
HETATM   24  C34 UNL     1      -4.567  49.232 -19.779  1.00  0.00     0.016 C 
HETATM   25  C35 UNL     1      -1.445  51.851 -21.743  1.00  0.00     0.017 C 
ENDROOT
BRANCH  17  26
HETATM   26  O3  UNL     1      -8.273  46.712 -19.787  1.00  0.00    -0.352 OA
BRANCH  26  27
HETATM   27  C22 UNL     1      -9.225  47.473 -19.039  1.00  0.00     0.291 C 
HETATM   28  O4  UNL     1     -10.546  46.975 -19.295  1.00  0.00    -0.356 OA
HETATM   29  C23 UNL     1     -10.938  45.931 -18.398  1.00  0.00     0.205 C 
HETATM   30  C24 UNL     1     -11.075  46.471 -16.963  1.00  0.00     0.173 C 
HETATM   31  C25 UNL     1     -10.120  47.648 -16.721  1.00  0.00     0.182 C 
HETATM   32  C26 UNL     1      -8.843  47.455 -17.537  1.00  0.00     0.204 C 
BRANCH  30  33
HETATM   33  O5  UNL     1     -12.422  46.915 -16.739  1.00  0.00    -0.391 OA
HETATM   34  H37 UNL     1     -12.502  47.151 -15.796  1.00  0.00     0.210 HD
ENDBRANCH  30  33
BRANCH  31  35
HETATM   35  O6  UNL     1      -9.793  47.752 -15.323  1.00  0.00    -0.390 OA
HETATM   36  H39 UNL     1     -10.464  48.336 -14.922  1.00  0.00     0.210 HD
ENDBRANCH  31  35
BRANCH  32  37
HETATM   37  O7  UNL     1      -7.918  48.510 -17.227  1.00  0.00    -0.388 OA
HETATM   38  H41 UNL     1      -7.928  48.570 -16.248  1.00  0.00     0.210 HD
ENDBRANCH  32  37
ENDBRANCH  26  27
ENDBRANCH  17  26
BRANCH  18  39
HETATM   39  C29 UNL     1      -8.059  45.388 -23.329  1.00  0.00     0.176 C 
BRANCH  39  40
HETATM   40  O8  UNL     1      -8.982  44.311 -23.228  1.00  0.00    -0.400 OA
HETATM   41  H47 UNL     1      -8.472  43.488 -23.149  1.00  0.00     0.209 HD
ENDBRANCH  39  40
ENDBRANCH  18  39
BRANCH   1  42
HETATM   42  C2  UNL     1      -1.183  52.639 -24.247  1.00  0.00    -0.088 C 
HETATM   43  C1  UNL     1      -0.399  53.332 -25.093  1.00  0.00     0.014 C 
HETATM   44  C3  UNL     1      -2.669  52.575 -24.485  1.00  0.00     0.043 C 
ENDBRANCH   1  42
BRANCH   4  45
HETATM   45  C8  UNL     1      -0.782  52.255 -19.322  1.00  0.00     0.149 C 
HETATM   46  O1  UNL     1      -1.864  52.241 -18.759  1.00  0.00    -0.649 OA
BRANCH  45  47
HETATM   47  O2  UNL     1       0.239  52.956 -18.789  1.00  0.00    -0.776 OA
HETATM   48  H11 UNL     1      -0.147  53.345 -17.978  1.00  0.00     0.167 HD
ENDBRANCH  45  47
ENDBRANCH   4  45
TORSDOF 10
ENDMDL
MODEL 6
REMARK minimizedAffinity -8.0623045
REMARK CNNscore 0.215708062
REMARK CNNaffinity 6.43570185
REMARK  10 active torsions:
REMARK  status: ('A' for Active; 'I' for Inactive)
REMARK    1  A    between atoms: C2_2  and  C4_4 
REMARK    2  A    between atoms: C7_7  and  C8_8 
REMARK    3  A    between atoms: C8_8  and  O2_10 
REMARK    4  A    between atoms: C21_23  and  O3_24 
REMARK    5  A    between atoms: O3_24  and  C22_25 
REMARK    6  A    between atoms: C24_28  and  O5_29 
REMARK    7  A    between atoms: C25_30  and  O6_31 
REMARK    8  A    between atoms: C26_32  and  O7_33 
REMARK    9  A    between atoms: C27_34  and  C29_36 
REMARK   10  A    between atoms: C29_36  and  O8_37 
ROOT
HETATM    1  C4  UNL     1      -0.697  52.450 -22.540  1.00  0.00     0.019 C 
HETATM    2  C5  UNL     1      -0.200  53.229 -23.766  1.00  0.00     0.011 C 
HETATM    3  C6  UNL     1      -1.171  52.880 -24.887  1.00  0.00     0.021 C 
HETATM    4  C7  UNL     1      -1.844  51.535 -24.500  1.00  0.00     0.050 C 
HETATM    5  C9  UNL     1      -3.370  51.735 -24.370  1.00  0.00     0.022 C 
HETATM    6  C10 UNL     1      -4.078  50.578 -23.664  1.00  0.00     0.011 C 
HETATM    7  C11 UNL     1      -3.548  50.317 -22.225  1.00  0.00    -0.032 C 
HETATM    8  C12 UNL     1      -3.857  51.582 -21.369  1.00  0.00     0.016 C 
HETATM    9  C13 UNL     1      -1.998  50.078 -22.341  1.00  0.00     0.000 C 
HETATM   10  C14 UNL     1      -1.373  49.695 -20.999  1.00  0.00     0.006 C 
HETATM   11  C15 UNL     1      -2.053  48.486 -20.356  1.00  0.00     0.006 C 
HETATM   12  C16 UNL     1      -3.565  48.713 -20.152  1.00  0.00     0.003 C 
HETATM   13  C17 UNL     1      -4.254  47.682 -19.147  1.00  0.00    -0.035 C 
HETATM   14  C18 UNL     1      -3.704  48.074 -17.731  1.00  0.00     0.016 C 
HETATM   15  C19 UNL     1      -3.830  46.217 -19.420  1.00  0.00     0.012 C 
HETATM   16  C20 UNL     1      -4.545  45.175 -18.557  1.00  0.00     0.034 C 
HETATM   17  C21 UNL     1      -6.068  45.259 -18.663  1.00  0.00     0.135 C 
HETATM   18  C27 UNL     1      -6.624  46.681 -18.339  1.00  0.00     0.008 C 
HETATM   19  C28 UNL     1      -8.143  46.709 -18.688  1.00  0.00     0.020 C 
HETATM   20  C30 UNL     1      -5.835  47.832 -19.126  1.00  0.00     0.007 C 
HETATM   21  C31 UNL     1      -6.421  48.079 -20.536  1.00  0.00     0.007 C 
HETATM   22  C32 UNL     1      -5.753  49.228 -21.282  1.00  0.00     0.011 C 
HETATM   23  C33 UNL     1      -4.249  48.998 -21.545  1.00  0.00    -0.032 C 
HETATM   24  C34 UNL     1      -4.159  47.783 -22.519  1.00  0.00     0.016 C 
HETATM   25  C35 UNL     1      -1.163  51.112 -23.161  1.00  0.00     0.017 C 
ENDROOT
BRANCH  17  26
HETATM   26  O3  UNL     1      -6.424  44.856 -19.993  1.00  0.00    -0.352 OA
BRANCH  26  27
HETATM   27  C22 UNL     1      -6.649  43.451 -20.131  1.00  0.00     0.291 C 
HETATM   28  O4  UNL     1      -7.497  42.992 -19.069  1.00  0.00    -0.356 OA
HETATM   29  C23 UNL     1      -8.890  43.068 -19.388  1.00  0.00     0.205 C 
HETATM   30  C24 UNL     1      -9.242  42.087 -20.520  1.00  0.00     0.173 C 
HETATM   31  C25 UNL     1      -8.045  41.870 -21.456  1.00  0.00     0.182 C 
HETATM   32  C26 UNL     1      -7.215  43.150 -21.542  1.00  0.00     0.204 C 
BRANCH  30  33
HETATM   33  O5  UNL     1      -9.629  40.822 -19.963  1.00  0.00    -0.391 OA
HETATM   34  H37 UNL     1      -9.945  40.261 -20.695  1.00  0.00     0.210 HD
ENDBRANCH  30  33
BRANCH  31  35
HETATM   35  O6  UNL     1      -8.495  41.492 -22.770  1.00  0.00    -0.390 OA
HETATM   36  H39 UNL     1      -8.557  40.518 -22.775  1.00  0.00     0.210 HD
ENDBRANCH  31  35
BRANCH  32  37
HETATM   37  O7  UNL     1      -6.156  42.965 -22.496  1.00  0.00    -0.388 OA
HETATM   38  H41 UNL     1      -6.589  42.550 -23.272  1.00  0.00     0.210 HD
ENDBRANCH  32  37
ENDBRANCH  26  27
ENDBRANCH  17  26
BRANCH  18  39
HETATM   39  C29 UNL     1      -6.585  46.867 -16.787  1.00  0.00     0.176 C 
BRANCH  39  40
HETATM   40  O8  UNL     1      -7.810  47.353 -16.254  1.00  0.00    -0.400 OA
HETATM   41  H47 UNL     1      -7.839  48.313 -16.403  1.00  0.00     0.209 HD
ENDBRANCH  39  40
ENDBRANCH  18  39
BRANCH   1  42
HETATM   42  C2  UNL     1       0.357  52.418 -21.446  1.00  0.00    -0.088 C 
HETATM   43  C1  UNL     1       1.585  51.921 -21.689  1.00  0.00     0.014 C 
HETATM   44  C3  UNL     1       0.010  52.914 -20.068  1.00  0.00     0.043 C 
ENDBRANCH   1  42
BRANCH   4  45
HETATM   45  C8  UNL     1      -1.557  50.507 -25.599  1.00  0.00     0.149 C 
HETATM   46  O1  UNL     1      -2.272  49.584 -25.952  1.00  0.00    -0.649 OA
BRANCH  45  47
HETATM   47  O2  UNL     1      -0.370  50.702 -26.208  1.00  0.00    -0.776 OA
HETATM   48  H11 UNL     1      -0.332  49.986 -26.874  1.00  0.00     0.167 HD
ENDBRANCH  45  47
ENDBRANCH   4  45
TORSDOF 10
ENDMDL
MODEL 7
REMARK minimizedAffinity -8.78571892
REMARK CNNscore 0.198632002
REMARK CNNaffinity 5.94963074
REMARK  10 active torsions:
REMARK  status: ('A' for Active; 'I' for Inactive)
REMARK    1  A    between atoms: C2_2  and  C4_4 
REMARK    2  A    between atoms: C7_7  and  C8_8 
REMARK    3  A    between atoms: C8_8  and  O2_10 
REMARK    4  A    between atoms: C21_23  and  O3_24 
REMARK    5  A    between atoms: O3_24  and  C22_25 
REMARK    6  A    between atoms: C24_28  and  O5_29 
REMARK    7  A    between atoms: C25_30  and  O6_31 
REMARK    8  A    between atoms: C26_32  and  O7_33 
REMARK    9  A    between atoms: C27_34  and  C29_36 
REMARK   10  A    between atoms: C29_36  and  O8_37 
ROOT
HETATM    1  C4  UNL     1       1.040  71.398 -42.282  1.00  0.00     0.019 C 
HETATM    2  C5  UNL     1      -0.374  71.753 -42.764  1.00  0.00     0.011 C 
HETATM    3  C6  UNL     1      -1.305  71.323 -41.637  1.00  0.00     0.021 C 
HETATM    4  C7  UNL     1      -0.543  70.256 -40.803  1.00  0.00     0.050 C 
HETATM    5  C9  UNL     1      -0.374  70.755 -39.351  1.00  0.00     0.022 C 
HETATM    6  C10 UNL     1       0.649  69.952 -38.546  1.00  0.00     0.011 C 
HETATM    7  C11 UNL     1       2.071  69.957 -39.178  1.00  0.00    -0.032 C 
HETATM    8  C12 UNL     1       2.589  71.427 -39.167  1.00  0.00     0.016 C 
HETATM    9  C13 UNL     1       1.925  69.421 -40.649  1.00  0.00     0.000 C 
HETATM   10  C14 UNL     1       3.278  69.269 -41.344  1.00  0.00     0.006 C 
HETATM   11  C15 UNL     1       4.252  68.397 -40.552  1.00  0.00     0.006 C 
HETATM   12  C16 UNL     1       4.484  68.936 -39.125  1.00  0.00     0.003 C 
HETATM   13  C17 UNL     1       5.762  68.322 -38.392  1.00  0.00    -0.035 C 
HETATM   14  C18 UNL     1       6.992  68.941 -39.145  1.00  0.00     0.016 C 
HETATM   15  C19 UNL     1       5.850  66.783 -38.546  1.00  0.00     0.012 C 
HETATM   16  C20 UNL     1       6.995  66.129 -37.771  1.00  0.00     0.034 C 
HETATM   17  C21 UNL     1       6.967  66.458 -36.277  1.00  0.00     0.135 C 
HETATM   18  C27 UNL     1       6.947  67.993 -35.992  1.00  0.00     0.008 C 
HETATM   19  C28 UNL     1       6.698  68.209 -34.469  1.00  0.00     0.020 C 
HETATM   20  C30 UNL     1       5.842  68.756 -36.866  1.00  0.00     0.007 C 
HETATM   21  C31 UNL     1       4.456  68.754 -36.181  1.00  0.00     0.007 C 
HETATM   22  C32 UNL     1       3.399  69.548 -36.941  1.00  0.00     0.011 C 
HETATM   23  C33 UNL     1       3.111  68.992 -38.352  1.00  0.00    -0.032 C 
HETATM   24  C34 UNL     1       2.479  67.581 -38.145  1.00  0.00     0.016 C 
HETATM   25  C35 UNL     1       0.815  70.056 -41.546  1.00  0.00     0.017 C 
ENDROOT
BRANCH  17  26
HETATM   26  O3  UNL     1       5.811  65.816 -35.723  1.00  0.00    -0.352 OA
BRANCH  26  27
HETATM   27  C22 UNL     1       6.114  64.858 -34.705  1.00  0.00     0.291 C 
HETATM   28  O4  UNL     1       5.295  65.104 -33.553  1.00  0.00    -0.356 OA
HETATM   29  C23 UNL     1       4.045  64.408 -33.591  1.00  0.00     0.205 C 
HETATM   30  C24 UNL     1       4.267  62.888 -33.502  1.00  0.00     0.173 C 
HETATM   31  C25 UNL     1       5.616  62.489 -34.115  1.00  0.00     0.182 C 
HETATM   32  C26 UNL     1       5.955  63.425 -35.275  1.00  0.00     0.204 C 
BRANCH  30  33
HETATM   33  O5  UNL     1       4.243  62.475 -32.127  1.00  0.00    -0.391 OA
HETATM   34  H37 UNL     1       4.281  61.500 -32.111  1.00  0.00     0.210 HD
ENDBRANCH  30  33
BRANCH  31  35
HETATM   35  O6  UNL     1       5.574  61.129 -34.584  1.00  0.00    -0.390 OA
HETATM   36  H39 UNL     1       5.853  60.567 -33.837  1.00  0.00     0.210 HD
ENDBRANCH  31  35
BRANCH  32  37
HETATM   37  O7  UNL     1       7.169  62.981 -35.902  1.00  0.00    -0.388 OA
HETATM   38  H41 UNL     1       7.056  62.012 -36.007  1.00  0.00     0.210 HD
ENDBRANCH  32  37
ENDBRANCH  26  27
ENDBRANCH  17  26
BRANCH  18  39
HETATM   39  C29 UNL     1       8.393  68.541 -36.225  1.00  0.00     0.176 C 
BRANCH  39  40
HETATM   40  O8  UNL     1       8.494  69.944 -36.024  1.00  0.00    -0.400 OA
HETATM   41  H47 UNL     1       8.162  70.385 -36.823  1.00  0.00     0.209 HD
ENDBRANCH  39  40
ENDBRANCH  18  39
BRANCH   1  42
HETATM   42  C2  UNL     1       2.037  71.443 -43.428  1.00  0.00    -0.088 C 
HETATM   43  C1  UNL     1       1.863  70.677 -44.521  1.00  0.00     0.014 C 
HETATM   44  C3  UNL     1       3.251  72.328 -43.320  1.00  0.00     0.043 C 
ENDBRANCH   1  42
BRANCH   4  45
HETATM   45  C8  UNL     1      -1.355  68.958 -40.805  1.00  0.00     0.149 C 
HETATM   46  O1  UNL     1      -0.923  67.817 -40.847  1.00  0.00    -0.649 OA
BRANCH  45  47
HETATM   47  O2  UNL     1      -2.686  69.166 -40.747  1.00  0.00    -0.776 OA
HETATM   48  H11 UNL     1      -3.061  68.262 -40.751  1.00  0.00     0.167 HD
ENDBRANCH  45  47
ENDBRANCH   4  45
TORSDOF 10
ENDMDL
MODEL 8
REMARK minimizedAffinity -8.35915852
REMARK CNNscore 0.19150205
REMARK CNNaffinity 6.48728228
REMARK  10 active torsions:
REMARK  status: ('A' for Active; 'I' for Inactive)
REMARK    1  A    between atoms: C2_2  and  C4_4 
REMARK    2  A    between atoms: C7_7  and  C8_8 
REMARK    3  A    between atoms: C8_8  and  O2_10 
REMARK    4  A    between atoms: C21_23  and  O3_24 
REMARK    5  A    between atoms: O3_24  and  C22_25 
REMARK    6  A    between atoms: C24_28  and  O5_29 
REMARK    7  A    between atoms: C25_30  and  O6_31 
REMARK    8  A    between atoms: C26_32  and  O7_33 
REMARK    9  A    between atoms: C27_34  and  C29_36 
REMARK   10  A    between atoms: C29_36  and  O8_37 
ROOT
HETATM    1  C4  UNL     1      -0.752  52.705 -25.289  1.00  0.00     0.019 C 
HETATM    2  C5  UNL     1      -0.758  53.220 -26.736  1.00  0.00     0.011 C 
HETATM    3  C6  UNL     1      -2.106  52.800 -27.308  1.00  0.00     0.021 C 
HETATM    4  C7  UNL     1      -2.614  51.613 -26.445  1.00  0.00     0.050 C 
HETATM    5  C9  UNL     1      -3.955  51.992 -25.777  1.00  0.00     0.022 C 
HETATM    6  C10 UNL     1      -4.362  51.045 -24.648  1.00  0.00     0.011 C 
HETATM    7  C11 UNL     1      -3.311  50.964 -23.503  1.00  0.00    -0.032 C 
HETATM    8  C12 UNL     1      -3.212  52.376 -22.850  1.00  0.00     0.016 C 
HETATM    9  C13 UNL     1      -1.945  50.547 -24.159  1.00  0.00     0.000 C 
HETATM   10  C14 UNL     1      -0.850  50.321 -23.115  1.00  0.00     0.006 C 
HETATM   11  C15 UNL     1      -1.259  49.310 -22.044  1.00  0.00     0.006 C 
HETATM   12  C16 UNL     1      -2.556  49.725 -21.320  1.00  0.00     0.003 C 
HETATM   13  C17 UNL     1      -2.822  48.948 -19.952  1.00  0.00    -0.035 C 
HETATM   14  C18 UNL     1      -1.741  49.503 -18.959  1.00  0.00     0.016 C 
HETATM   15  C19 UNL     1      -2.592  47.422 -20.084  1.00  0.00     0.012 C 
HETATM   16  C20 UNL     1      -2.938  46.614 -18.832  1.00  0.00     0.034 C 
HETATM   17  C21 UNL     1      -4.374  46.840 -18.357  1.00  0.00     0.135 C 
HETATM   18  C27 UNL     1      -4.707  48.346 -18.119  1.00  0.00     0.008 C 
HETATM   19  C28 UNL     1      -6.237  48.478 -17.855  1.00  0.00     0.020 C 
HETATM   20  C30 UNL     1      -4.258  49.266 -19.352  1.00  0.00     0.007 C 
HETATM   21  C31 UNL     1      -5.348  49.343 -20.447  1.00  0.00     0.007 C 
HETATM   22  C32 UNL     1      -4.994  50.281 -21.595  1.00  0.00     0.011 C 
HETATM   23  C33 UNL     1      -3.728  49.854 -22.369  1.00  0.00    -0.032 C 
HETATM   24  C34 UNL     1      -4.073  48.495 -23.053  1.00  0.00     0.016 C 
HETATM   25  C35 UNL     1      -1.471  51.342 -25.418  1.00  0.00     0.017 C 
ENDROOT
BRANCH  17  26
HETATM   26  O3  UNL     1      -5.243  46.268 -19.344  1.00  0.00    -0.352 OA
BRANCH  26  27
HETATM   27  C22 UNL     1      -5.781  44.996 -18.975  1.00  0.00     0.291 C 
HETATM   28  O4  UNL     1      -7.207  45.093 -18.856  1.00  0.00    -0.356 OA
HETATM   29  C23 UNL     1      -7.894  44.830 -20.083  1.00  0.00     0.205 C 
HETATM   30  C24 UNL     1      -7.711  43.362 -20.505  1.00  0.00     0.173 C 
HETATM   31  C25 UNL     1      -6.368  42.807 -20.010  1.00  0.00     0.182 C 
HETATM   32  C26 UNL     1      -5.322  43.921 -19.993  1.00  0.00     0.204 C 
BRANCH  30  33
HETATM   33  O5  UNL     1      -8.771  42.564 -19.958  1.00  0.00    -0.391 OA
HETATM   34  H37 UNL     1      -8.686  41.666 -20.327  1.00  0.00     0.210 HD
ENDBRANCH  30  33
BRANCH  31  35
HETATM   35  O6  UNL     1      -5.922  41.733 -20.858  1.00  0.00    -0.390 OA
HETATM   36  H39 UNL     1      -6.293  40.911 -20.487  1.00  0.00     0.210 HD
ENDBRANCH  31  35
BRANCH  32  37
HETATM   37  O7  UNL     1      -4.048  43.369 -19.623  1.00  0.00    -0.388 OA
HETATM   38  H41 UNL     1      -3.961  42.556 -20.165  1.00  0.00     0.210 HD
ENDBRANCH  32  37
ENDBRANCH  26  27
ENDBRANCH  17  26
BRANCH  18  39
HETATM   39  C29 UNL     1      -4.047  48.774 -16.768  1.00  0.00     0.176 C 
BRANCH  39  40
HETATM   40  O8  UNL     1      -4.069  47.745 -15.788  1.00  0.00    -0.400 OA
HETATM   41  H47 UNL     1      -4.955  47.732 -15.390  1.00  0.00     0.209 HD
ENDBRANCH  39  40
ENDBRANCH  18  39
BRANCH   1  42
HETATM   42  C2  UNL     1       0.649  52.739 -24.701  1.00  0.00    -0.088 C 
HETATM   43  C1  UNL     1       1.656  52.064 -25.287  1.00  0.00     0.014 C 
HETATM   44  C3  UNL     1       0.901  53.505 -23.430  1.00  0.00     0.043 C 
ENDBRANCH   1  42
BRANCH   4  45
HETATM   45  C8  UNL     1      -2.822  50.398 -27.353  1.00  0.00     0.149 C 
HETATM   46  O1  UNL     1      -2.654  49.224 -27.065  1.00  0.00    -0.649 OA
BRANCH  45  47
HETATM   47  O2  UNL     1      -3.243  50.728 -28.591  1.00  0.00    -0.776 OA
HETATM   48  H11 UNL     1      -3.333  49.864 -29.042  1.00  0.00     0.167 HD
ENDBRANCH  45  47
ENDBRANCH   4  45
TORSDOF 10
ENDMDL
MODEL 9
REMARK minimizedAffinity -8.37672043
REMARK CNNscore 0.184968725
REMARK CNNaffinity 6.32561541
REMARK  10 active torsions:
REMARK  status: ('A' for Active; 'I' for Inactive)
REMARK    1  A    between atoms: C2_2  and  C4_4 
REMARK    2  A    between atoms: C7_7  and  C8_8 
REMARK    3  A    between atoms: C8_8  and  O2_10 
REMARK    4  A    between atoms: C21_23  and  O3_24 
REMARK    5  A    between atoms: O3_24  and  C22_25 
REMARK    6  A    between atoms: C24_28  and  O5_29 
REMARK    7  A    between atoms: C25_30  and  O6_31 
REMARK    8  A    between atoms: C26_32  and  O7_33 
REMARK    9  A    between atoms: C27_34  and  C29_36 
REMARK   10  A    between atoms: C29_36  and  O8_37 
ROOT
HETATM    1  C4  UNL     1      -1.131  51.021 -22.838  1.00  0.00     0.019 C 
HETATM    2  C5  UNL     1       0.093  51.875 -22.472  1.00  0.00     0.011 C 
HETATM    3  C6  UNL     1       0.406  51.531 -21.021  1.00  0.00     0.021 C 
HETATM    4  C7  UNL     1      -0.898  50.957 -20.401  1.00  0.00     0.050 C 
HETATM    5  C9  UNL     1      -0.653  49.509 -19.924  1.00  0.00     0.022 C 
HETATM    6  C10 UNL     1      -1.940  48.741 -19.622  1.00  0.00     0.011 C 
HETATM    7  C11 UNL     1      -2.900  48.643 -20.842  1.00  0.00    -0.032 C 
HETATM    8  C12 UNL     1      -2.174  47.823 -21.951  1.00  0.00     0.016 C 
HETATM    9  C13 UNL     1      -3.188  50.112 -21.322  1.00  0.00     0.000 C 
HETATM   10  C14 UNL     1      -4.217  50.156 -22.453  1.00  0.00     0.006 C 
HETATM   11  C15 UNL     1      -5.522  49.448 -22.090  1.00  0.00     0.006 C 
HETATM   12  C16 UNL     1      -5.290  47.977 -21.688  1.00  0.00     0.003 C 
HETATM   13  C17 UNL     1      -6.611  47.082 -21.683  1.00  0.00    -0.035 C 
HETATM   14  C18 UNL     1      -6.990  46.917 -23.197  1.00  0.00     0.016 C 
HETATM   15  C19 UNL     1      -7.799  47.785 -20.981  1.00  0.00     0.012 C 
HETATM   16  C20 UNL     1      -9.060  46.929 -20.850  1.00  0.00     0.034 C 
HETATM   17  C21 UNL     1      -8.805  45.599 -20.138  1.00  0.00     0.135 C 
HETATM   18  C27 UNL     1      -7.667  44.762 -20.802  1.00  0.00     0.008 C 
HETATM   19  C28 UNL     1      -7.346  43.548 -19.880  1.00  0.00     0.020 C 
HETATM   20  C30 UNL     1      -6.353  45.637 -21.075  1.00  0.00     0.007 C 
HETATM   21  C31 UNL     1      -5.415  45.676 -19.846  1.00  0.00     0.007 C 
HETATM   22  C32 UNL     1      -4.111  46.426 -20.097  1.00  0.00     0.011 C 
HETATM   23  C33 UNL     1      -4.317  47.915 -20.448  1.00  0.00    -0.032 C 
HETATM   24  C34 UNL     1      -4.924  48.582 -19.175  1.00  0.00     0.016 C 
HETATM   25  C35 UNL     1      -1.964  51.059 -21.535  1.00  0.00     0.017 C 
ENDROOT
BRANCH  17  26
HETATM   26  O3  UNL     1      -8.493  45.902 -18.772  1.00  0.00    -0.352 OA
BRANCH  26  27
HETATM   27  C22 UNL     1      -9.578  45.677 -17.867  1.00  0.00     0.291 C 
HETATM   28  O4  UNL     1      -9.854  46.882 -17.138  1.00  0.00    -0.356 OA
HETATM   29  C23 UNL     1     -10.804  47.730 -17.791  1.00  0.00     0.205 C 
HETATM   30  C24 UNL     1     -12.189  47.061 -17.834  1.00  0.00     0.173 C 
HETATM   31  C25 UNL     1     -12.064  45.532 -17.880  1.00  0.00     0.182 C 
HETATM   32  C26 UNL     1     -10.804  45.138 -18.648  1.00  0.00     0.204 C 
BRANCH  30  33
HETATM   33  O5  UNL     1     -12.941  47.429 -16.668  1.00  0.00    -0.391 OA
HETATM   34  H37 UNL     1     -13.845  47.078 -16.776  1.00  0.00     0.210 HD
ENDBRANCH  30  33
BRANCH  31  35
HETATM   35  O6  UNL     1     -13.220  44.951 -18.511  1.00  0.00    -0.390 OA
HETATM   36  H39 UNL     1     -13.871  44.783 -17.803  1.00  0.00     0.210 HD
ENDBRANCH  31  35
BRANCH  32  37
HETATM   37  O7  UNL     1     -10.751  43.707 -18.769  1.00  0.00    -0.388 OA
HETATM   38  H41 UNL     1     -11.654  43.447 -19.047  1.00  0.00     0.210 HD
ENDBRANCH  32  37
ENDBRANCH  26  27
ENDBRANCH  17  26
BRANCH  18  39
HETATM   39  C29 UNL     1      -8.247  44.113 -22.101  1.00  0.00     0.176 C 
BRANCH  39  40
HETATM   40  O8  UNL     1      -7.302  43.299 -22.784  1.00  0.00    -0.400 OA
HETATM   41  H47 UNL     1      -6.720  43.885 -23.296  1.00  0.00     0.209 HD
ENDBRANCH  39  40
ENDBRANCH  18  39
BRANCH   1  42
HETATM   42  C2  UNL     1      -1.770  51.505 -24.128  1.00  0.00    -0.088 C 
HETATM   43  C1  UNL     1      -2.294  52.742 -24.214  1.00  0.00     0.014 C 
HETATM   44  C3  UNL     1      -1.850  50.575 -25.310  1.00  0.00     0.043 C 
ENDBRANCH   1  42
BRANCH   4  45
HETATM   45  C8  UNL     1      -1.299  51.827 -19.205  1.00  0.00     0.149 C 
HETATM   46  O1  UNL     1      -2.422  51.999 -18.761  1.00  0.00    -0.649 OA
BRANCH  45  47
HETATM   47  O2  UNL     1      -0.249  52.437 -18.619  1.00  0.00    -0.776 OA
HETATM   48  H11 UNL     1      -0.655  52.942 -17.886  1.00  0.00     0.167 HD
ENDBRANCH  45  47
ENDBRANCH   4  45
TORSDOF 10
ENDMDL
