MODEL 1
REMARK minimizedAffinity -7.83488894
REMARK CNNscore 0.445677698
REMARK CNNaffinity 6.04415894
REMARK  8 active torsions:
REMARK  status: ('A' for Active; 'I' for Inactive)
REMARK    1  A    between atoms: C3_3  and  O1_4 
REMARK    2  A    between atoms: N1_14  and  O2_16 
REMARK    3  A    between atoms: O2_16  and  C13_17 
REMARK    4  A    between atoms: C13_17  and  C14_18 
REMARK       I    between atoms: C14_18  and  N2_20 
REMARK    5  A    between atoms: N2_20  and  C15_21 
REMARK    6  A    between atoms: C15_21  and  C16_22 
REMARK    7  A    between atoms: C16_22  and  O4_23 
REMARK    8  A    between atoms: C16_22  and  C17_24 
ROOT
HETATM    1  C1  UNL     1      -5.482  47.990 -28.611  1.00  0.00     0.015 C 
HETATM    2  C2  UNL     1      -6.637  47.990 -28.937  1.00  0.00    -0.078 C 
HETATM    3  C3  UNL     1      -8.058  48.013 -29.319  1.00  0.00     0.128 C 
HETATM    4  C4  UNL     1      -8.242  48.068 -30.837  1.00  0.00     0.052 C 
HETATM    5  C5  UNL     1      -9.719  47.740 -31.024  1.00  0.00     0.010 C 
HETATM    6  C6  UNL     1     -10.027  46.682 -29.952  1.00  0.00     0.002 C 
HETATM    7  C7  UNL     1     -11.463  46.695 -29.380  1.00  0.00    -0.004 C 
HETATM    8  C8  UNL     1     -12.050  48.065 -28.977  1.00  0.00     0.010 C 
HETATM    9  C9  UNL     1     -12.761  48.148 -27.618  1.00  0.00     0.035 C 
HETATM   10  C10 UNL     1     -13.443  46.902 -27.101  1.00  0.00    -0.069 C 
HETATM   11  C11 UNL     1     -14.274  46.999 -26.046  1.00  0.00     0.030 C 
HETATM   12  C12 UNL     1     -14.901  45.809 -25.414  1.00  0.00     0.032 C 
HETATM   13  N1  UNL     1     -15.724  46.013 -24.423  1.00  0.00    -0.271 N 
ATOM     14  H1  UNL     1     -15.950  46.932 -24.043  1.00  0.00     0.194 HD
HETATM   15  C23 UNL     1     -14.559  44.432 -25.960  1.00  0.00     0.060 C 
HETATM   16  C24 UNL     1     -13.218  44.426 -26.690  1.00  0.00     0.020 C 
HETATM   17  C25 UNL     1     -13.076  45.569 -27.729  1.00  0.00    -0.016 C 
HETATM   18  C26 UNL     1     -14.067  45.293 -28.890  1.00  0.00     0.020 C 
HETATM   19  C27 UNL     1     -11.602  45.633 -28.265  1.00  0.00     0.002 C 
HETATM   20  C28 UNL     1     -10.528  45.808 -27.155  1.00  0.00     0.007 C 
HETATM   21  C29 UNL     1      -9.427  46.826 -27.461  1.00  0.00     0.014 C 
HETATM   22  C30 UNL     1      -8.879  46.748 -28.896  1.00  0.00     0.003 C 
HETATM   23  C31 UNL     1      -8.036  45.447 -29.025  1.00  0.00     0.020 C 
ENDROOT
BRANCH   3  24
HETATM   24  O1  UNL     1      -8.640  49.207 -28.787  1.00  0.00    -0.377 OA
HETATM   25  H2  UNL     1      -8.258  49.335 -27.900  1.00  0.00     0.211 HD
ENDBRANCH   3  24
BRANCH  13  26
HETATM   26  O2  UNL     1     -16.258  44.807 -23.945  1.00  0.00    -0.271 OA
BRANCH  26  27
HETATM   27  C13 UNL     1     -17.644  44.993 -23.681  1.00  0.00     0.303 C 
BRANCH  27  28
HETATM   28  C14 UNL     1     -18.352  45.036 -25.024  1.00  0.00     0.243 C 
HETATM   29  O3  UNL     1     -18.666  46.087 -25.581  1.00  0.00    -0.271 OA
HETATM   30  N2  UNL     1     -18.611  43.793 -25.566  1.00  0.00    -0.356 N 
HETATM   31  H16 UNL     1     -18.611  43.007 -24.922  1.00  0.00     0.162 HD
BRANCH  30  32
HETATM   32  C15 UNL     1     -19.475  43.659 -26.731  1.00  0.00     0.159 C 
BRANCH  32  33
HETATM   33  C16 UNL     1     -18.745  42.945 -27.886  1.00  0.00     0.170 C 
BRANCH  33  34
HETATM   34  O4  UNL     1     -17.409  43.465 -27.971  1.00  0.00    -0.389 OA
HETATM   35  H20 UNL     1     -17.084  43.291 -28.871  1.00  0.00     0.210 HD
ENDBRANCH  33  34
BRANCH  33  36
HETATM   36  C17 UNL     1     -19.433  43.113 -29.214  1.00  0.00    -0.013 A 
HETATM   37  C18 UNL     1     -18.758  43.562 -30.352  1.00  0.00     0.013 A 
HETATM   38  C19 UNL     1     -19.445  43.694 -31.557  1.00  0.00     0.025 A 
HETATM   39  C20 UNL     1     -20.793  43.356 -31.602  1.00  0.00     0.005 A 
HETATM   40  C21 UNL     1     -21.567  43.500 -32.878  1.00  0.00     0.068 C 
HETATM   41  N3  UNL     1     -21.471  42.923 -30.513  1.00  0.00    -0.369 N 
HETATM   42  C22 UNL     1     -20.784  42.817 -29.352  1.00  0.00     0.097 A 
ATOM     43  H3  UNL     1     -22.460  42.685 -30.566  1.00  0.00     0.165 HD
ENDBRANCH  33  36
ENDBRANCH  32  33
ENDBRANCH  30  32
ENDBRANCH  27  28
ENDBRANCH  26  27
ENDBRANCH  13  26
TORSDOF 8
ENDMDL
MODEL 2
REMARK minimizedAffinity -9.80359077
REMARK CNNscore 0.362805426
REMARK CNNaffinity 6.91438675
REMARK  8 active torsions:
REMARK  status: ('A' for Active; 'I' for Inactive)
REMARK    1  A    between atoms: C3_3  and  O1_4 
REMARK    2  A    between atoms: N1_14  and  O2_16 
REMARK    3  A    between atoms: O2_16  and  C13_17 
REMARK    4  A    between atoms: C13_17  and  C14_18 
REMARK       I    between atoms: C14_18  and  N2_20 
REMARK    5  A    between atoms: N2_20  and  C15_21 
REMARK    6  A    between atoms: C15_21  and  C16_22 
REMARK    7  A    between atoms: C16_22  and  O4_23 
REMARK    8  A    between atoms: C16_22  and  C17_24 
ROOT
HETATM    1  C1  UNL     1      -7.805  49.293 -23.753  1.00  0.00     0.015 C 
HETATM    2  C2  UNL     1      -6.617  49.160 -23.650  1.00  0.00    -0.078 C 
HETATM    3  C3  UNL     1      -5.164  48.976 -23.501  1.00  0.00     0.128 C 
HETATM    4  C4  UNL     1      -4.491  48.641 -24.833  1.00  0.00     0.052 C 
HETATM    5  C5  UNL     1      -3.008  48.833 -24.536  1.00  0.00     0.010 C 
HETATM    6  C6  UNL     1      -2.950  50.042 -23.588  1.00  0.00     0.002 C 
HETATM    7  C7  UNL     1      -1.802  50.038 -22.553  1.00  0.00    -0.004 C 
HETATM    8  C8  UNL     1      -1.557  48.726 -21.776  1.00  0.00     0.010 C 
HETATM    9  C9  UNL     1      -1.357  48.840 -20.257  1.00  0.00     0.035 C 
HETATM   10  C10 UNL     1      -0.741  50.111 -19.719  1.00  0.00    -0.069 C 
HETATM   11  C11 UNL     1      -0.330  50.148 -18.438  1.00  0.00     0.030 C 
HETATM   12  C12 UNL     1       0.190  51.389 -17.804  1.00  0.00     0.032 C 
HETATM   13  N1  UNL     1       0.602  51.311 -16.569  1.00  0.00    -0.271 N 
ATOM     14  H1  UNL     1       0.573  50.461 -16.006  1.00  0.00     0.194 HD
HETATM   15  C23 UNL     1       0.222  52.666 -18.628  1.00  0.00     0.060 C 
HETATM   16  C24 UNL     1      -0.785  52.629 -19.775  1.00  0.00     0.020 C 
HETATM   17  C25 UNL     1      -0.710  51.331 -20.622  1.00  0.00    -0.016 C 
HETATM   18  C26 UNL     1       0.639  51.331 -21.388  1.00  0.00     0.020 C 
HETATM   19  C27 UNL     1      -1.915  51.269 -21.626  1.00  0.00     0.002 C 
HETATM   20  C28 UNL     1      -3.311  51.365 -20.949  1.00  0.00     0.007 C 
HETATM   21  C29 UNL     1      -4.363  50.383 -21.473  1.00  0.00     0.014 C 
HETATM   22  C30 UNL     1      -4.384  50.241 -23.004  1.00  0.00     0.003 C 
HETATM   23  C31 UNL     1      -4.968  51.549 -23.607  1.00  0.00     0.020 C 
ENDROOT
BRANCH   3  24
HETATM   24  O1  UNL     1      -4.945  47.860 -22.632  1.00  0.00    -0.377 OA
HETATM   25  H2  UNL     1      -5.615  47.918 -21.927  1.00  0.00     0.211 HD
ENDBRANCH   3  24
BRANCH  13  26
HETATM   26  O2  UNL     1       1.088  52.545 -16.114  1.00  0.00    -0.271 OA
BRANCH  26  27
HETATM   27  C13 UNL     1       2.481  52.419 -15.852  1.00  0.00     0.303 C 
BRANCH  27  28
HETATM   28  C14 UNL     1       2.621  51.665 -14.540  1.00  0.00     0.243 C 
HETATM   29  O3  UNL     1       2.743  50.443 -14.481  1.00  0.00    -0.271 OA
HETATM   30  N2  UNL     1       2.601  52.473 -13.420  1.00  0.00    -0.356 N 
HETATM   31  H16 UNL     1       2.191  53.395 -13.531  1.00  0.00     0.162 HD
BRANCH  30  32
HETATM   32  C15 UNL     1       2.501  51.889 -12.089  1.00  0.00     0.159 C 
BRANCH  32  33
HETATM   33  C16 UNL     1       2.155  52.961 -11.036  1.00  0.00     0.170 C 
BRANCH  33  34
HETATM   34  O4  UNL     1       1.365  53.980 -11.668  1.00  0.00    -0.389 OA
HETATM   35  H20 UNL     1       1.448  54.788 -11.132  1.00  0.00     0.210 HD
ENDBRANCH  33  34
BRANCH  33  36
HETATM   36  C17 UNL     1       3.371  53.587 -10.410  1.00  0.00    -0.013 A 
HETATM   37  C18 UNL     1       3.947  54.760 -10.907  1.00  0.00     0.013 A 
HETATM   38  C19 UNL     1       5.070  55.298 -10.283  1.00  0.00     0.025 A 
HETATM   39  C20 UNL     1       5.586  54.659  -9.160  1.00  0.00     0.005 A 
HETATM   40  C21 UNL     1       6.803  55.202  -8.473  1.00  0.00     0.068 C 
HETATM   41  N3  UNL     1       5.050  53.520  -8.662  1.00  0.00    -0.369 N 
HETATM   42  C22 UNL     1       3.969  53.010  -9.295  1.00  0.00     0.097 A 
ATOM     43  H3  UNL     1       5.447  53.064  -7.841  1.00  0.00     0.165 HD
ENDBRANCH  33  36
ENDBRANCH  32  33
ENDBRANCH  30  32
ENDBRANCH  27  28
ENDBRANCH  26  27
ENDBRANCH  13  26
TORSDOF 8
ENDMDL
MODEL 3
REMARK minimizedAffinity -8.15958977
REMARK CNNscore 0.354461282
REMARK CNNaffinity 6.86162233
REMARK  8 active torsions:
REMARK  status: ('A' for Active; 'I' for Inactive)
REMARK    1  A    between atoms: C3_3  and  O1_4 
REMARK    2  A    between atoms: N1_14  and  O2_16 
REMARK    3  A    between atoms: O2_16  and  C13_17 
REMARK    4  A    between atoms: C13_17  and  C14_18 
REMARK       I    between atoms: C14_18  and  N2_20 
REMARK    5  A    between atoms: N2_20  and  C15_21 
REMARK    6  A    between atoms: C15_21  and  C16_22 
REMARK    7  A    between atoms: C16_22  and  O4_23 
REMARK    8  A    between atoms: C16_22  and  C17_24 
ROOT
HETATM    1  C1  UNL     1       7.170  55.126  -7.847  1.00  0.00     0.015 C 
HETATM    2  C2  UNL     1       5.984  55.297  -7.779  1.00  0.00    -0.078 C 
HETATM    3  C3  UNL     1       4.527  55.482  -7.677  1.00  0.00     0.128 C 
HETATM    4  C4  UNL     1       4.160  56.890  -7.205  1.00  0.00     0.052 C 
HETATM    5  C5  UNL     1       2.667  56.981  -7.496  1.00  0.00     0.010 C 
HETATM    6  C6  UNL     1       2.476  56.218  -8.816  1.00  0.00     0.002 C 
HETATM    7  C7  UNL     1       1.120  55.495  -8.991  1.00  0.00    -0.004 C 
HETATM    8  C8  UNL     1       0.608  54.658  -7.800  1.00  0.00     0.010 C 
HETATM    9  C9  UNL     1       0.068  53.254  -8.113  1.00  0.00     0.035 C 
HETATM   10  C10 UNL     1      -0.565  53.026  -9.467  1.00  0.00    -0.069 C 
HETATM   11  C11 UNL     1      -1.259  51.894  -9.683  1.00  0.00     0.030 C 
HETATM   12  C12 UNL     1      -1.823  51.548 -11.014  1.00  0.00     0.032 C 
HETATM   13  N1  UNL     1      -2.516  50.447 -11.111  1.00  0.00    -0.271 N 
ATOM     14  H1  UNL     1      -2.680  49.802 -10.339  1.00  0.00     0.194 HD
HETATM   15  C23 UNL     1      -1.572  52.494 -12.178  1.00  0.00     0.060 C 
HETATM   16  C24 UNL     1      -0.330  53.354 -11.954  1.00  0.00     0.020 C 
HETATM   17  C25 UNL     1      -0.297  54.042 -10.563  1.00  0.00    -0.016 C 
HETATM   18  C26 UNL     1      -1.426  55.105 -10.524  1.00  0.00     0.020 C 
HETATM   19  C27 UNL     1       1.101  54.713 -10.324  1.00  0.00     0.002 C 
HETATM   20  C28 UNL     1       2.305  53.736 -10.445  1.00  0.00     0.007 C 
HETATM   21  C29 UNL     1       3.376  53.878  -9.361  1.00  0.00     0.014 C 
HETATM   22  C30 UNL     1       3.744  55.332  -9.026  1.00  0.00     0.003 C 
HETATM   23  C31 UNL     1       4.545  55.921 -10.222  1.00  0.00     0.020 C 
ENDROOT
BRANCH   3  24
HETATM   24  O1  UNL     1       4.032  54.571  -6.690  1.00  0.00    -0.377 OA
HETATM   25  H2  UNL     1       4.522  53.737  -6.808  1.00  0.00     0.211 HD
ENDBRANCH   3  24
BRANCH  13  26
HETATM   26  O2  UNL     1      -3.007  50.264 -12.412  1.00  0.00    -0.271 OA
BRANCH  26  27
HETATM   27  C13 UNL     1      -2.771  48.917 -12.805  1.00  0.00     0.303 C 
BRANCH  27  28
HETATM   28  C14 UNL     1      -1.902  48.963 -14.051  1.00  0.00     0.243 C 
HETATM   29  O3  UNL     1      -2.362  48.893 -15.189  1.00  0.00    -0.271 OA
HETATM   30  N2  UNL     1      -0.552  49.090 -13.793  1.00  0.00    -0.356 N 
HETATM   31  H16 UNL     1      -0.239  48.827 -12.863  1.00  0.00     0.162 HD
BRANCH  30  32
HETATM   32  C15 UNL     1       0.424  48.924 -14.862  1.00  0.00     0.159 C 
BRANCH  32  33
HETATM   33  C16 UNL     1       1.314  50.175 -15.002  1.00  0.00     0.170 C 
BRANCH  33  34
HETATM   34  O4  UNL     1       1.122  51.002 -13.843  1.00  0.00    -0.389 OA
HETATM   35  H20 UNL     1       1.386  51.907 -14.083  1.00  0.00     0.210 HD
ENDBRANCH  33  34
BRANCH  33  36
HETATM   36  C17 UNL     1       1.019  50.975 -16.242  1.00  0.00    -0.013 A 
HETATM   37  C18 UNL     1       0.089  50.555 -17.196  1.00  0.00     0.013 A 
HETATM   38  C19 UNL     1      -0.148  51.339 -18.323  1.00  0.00     0.025 A 
HETATM   39  C20 UNL     1       0.541  52.539 -18.465  1.00  0.00     0.005 A 
HETATM   40  C21 UNL     1       0.323  53.400 -19.672  1.00  0.00     0.068 C 
HETATM   41  N3  UNL     1       1.451  52.964 -17.557  1.00  0.00    -0.369 N 
HETATM   42  C22 UNL     1       1.673  52.179 -16.479  1.00  0.00     0.097 A 
ATOM     43  H3  UNL     1       1.950  53.845 -17.682  1.00  0.00     0.165 HD
ENDBRANCH  33  36
ENDBRANCH  32  33
ENDBRANCH  30  32
ENDBRANCH  27  28
ENDBRANCH  26  27
ENDBRANCH  13  26
TORSDOF 8
ENDMDL
MODEL 4
REMARK minimizedAffinity -9.2530756
REMARK CNNscore 0.333602875
REMARK CNNaffinity 6.44981527
REMARK  8 active torsions:
REMARK  status: ('A' for Active; 'I' for Inactive)
REMARK    1  A    between atoms: C3_3  and  O1_4 
REMARK    2  A    between atoms: N1_14  and  O2_16 
REMARK    3  A    between atoms: O2_16  and  C13_17 
REMARK    4  A    between atoms: C13_17  and  C14_18 
REMARK       I    between atoms: C14_18  and  N2_20 
REMARK    5  A    between atoms: N2_20  and  C15_21 
REMARK    6  A    between atoms: C15_21  and  C16_22 
REMARK    7  A    between atoms: C16_22  and  O4_23 
REMARK    8  A    between atoms: C16_22  and  C17_24 
ROOT
HETATM    1  C1  UNL     1       0.096  50.422 -17.271  1.00  0.00     0.015 C 
HETATM    2  C2  UNL     1      -0.250  50.796 -18.357  1.00  0.00    -0.078 C 
HETATM    3  C3  UNL     1      -0.697  51.271 -19.677  1.00  0.00     0.128 C 
HETATM    4  C4  UNL     1       0.432  51.951 -20.453  1.00  0.00     0.052 C 
HETATM    5  C5  UNL     1      -0.122  52.047 -21.869  1.00  0.00     0.010 C 
HETATM    6  C6  UNL     1      -0.918  50.747 -22.070  1.00  0.00     0.002 C 
HETATM    7  C7  UNL     1      -2.150  50.843 -23.000  1.00  0.00    -0.004 C 
HETATM    8  C8  UNL     1      -3.104  52.038 -22.787  1.00  0.00     0.010 C 
HETATM    9  C9  UNL     1      -4.610  51.733 -22.761  1.00  0.00     0.035 C 
HETATM   10  C10 UNL     1      -5.107  50.561 -23.576  1.00  0.00    -0.069 C 
HETATM   11  C11 UNL     1      -6.431  50.415 -23.772  1.00  0.00     0.030 C 
HETATM   12  C12 UNL     1      -7.006  49.236 -24.472  1.00  0.00     0.032 C 
HETATM   13  N1  UNL     1      -8.298  49.207 -24.648  1.00  0.00    -0.271 N 
ATOM     14  H1  UNL     1      -8.939  49.930 -24.321  1.00  0.00     0.194 HD
HETATM   15  C23 UNL     1      -6.064  48.143 -24.949  1.00  0.00     0.060 C 
HETATM   16  C24 UNL     1      -4.755  48.136 -24.162  1.00  0.00     0.020 C 
HETATM   17  C25 UNL     1      -4.094  49.535 -24.051  1.00  0.00    -0.016 C 
HETATM   18  C26 UNL     1      -3.608  49.954 -25.463  1.00  0.00     0.020 C 
HETATM   19  C27 UNL     1      -2.890  49.486 -23.045  1.00  0.00     0.002 C 
HETATM   20  C28 UNL     1      -3.268  48.979 -21.625  1.00  0.00     0.007 C 
HETATM   21  C29 UNL     1      -2.667  49.775 -20.463  1.00  0.00     0.014 C 
HETATM   22  C30 UNL     1      -1.187  50.148 -20.654  1.00  0.00     0.003 C 
HETATM   23  C31 UNL     1      -0.337  48.854 -20.514  1.00  0.00     0.020 C 
ENDROOT
BRANCH   3  24
HETATM   24  O1  UNL     1      -1.714  52.256 -19.472  1.00  0.00    -0.377 OA
HETATM   25  H2  UNL     1      -2.265  51.942 -18.733  1.00  0.00     0.211 HD
ENDBRANCH   3  24
BRANCH  13  26
HETATM   26  O2  UNL     1      -8.695  48.056 -25.343  1.00  0.00    -0.271 OA
BRANCH  26  27
HETATM   27  C13 UNL     1      -8.951  48.405 -26.699  1.00  0.00     0.303 C 
BRANCH  27  28
HETATM   28  C14 UNL     1     -10.459  48.394 -26.884  1.00  0.00     0.243 C 
HETATM   29  O3  UNL     1     -11.248  48.522 -25.950  1.00  0.00    -0.271 OA
HETATM   30  N2  UNL     1     -10.866  48.229 -28.193  1.00  0.00    -0.356 N 
HETATM   31  H16 UNL     1     -10.188  47.824 -28.832  1.00  0.00     0.162 HD
BRANCH  30  32
HETATM   32  C15 UNL     1     -12.265  47.974 -28.507  1.00  0.00     0.159 C 
BRANCH  32  33
HETATM   33  C16 UNL     1     -12.558  46.462 -28.558  1.00  0.00     0.170 C 
BRANCH  33  34
HETATM   34  O4  UNL     1     -12.572  46.048 -29.934  1.00  0.00    -0.389 OA
HETATM   35  H20 UNL     1     -13.085  45.222 -29.985  1.00  0.00     0.210 HD
ENDBRANCH  33  34
BRANCH  33  36
HETATM   36  C17 UNL     1     -13.864  46.090 -27.910  1.00  0.00    -0.013 A 
HETATM   37  C18 UNL     1     -14.830  45.323 -28.566  1.00  0.00     0.013 A 
HETATM   38  C19 UNL     1     -16.020  45.004 -27.915  1.00  0.00     0.025 A 
HETATM   39  C20 UNL     1     -16.212  45.448 -26.611  1.00  0.00     0.005 A 
HETATM   40  C21 UNL     1     -17.487  45.137 -25.885  1.00  0.00     0.068 C 
HETATM   41  N3  UNL     1     -15.294  46.197 -25.956  1.00  0.00    -0.369 N 
HETATM   42  C22 UNL     1     -14.154  46.504 -26.615  1.00  0.00     0.097 A 
ATOM     43  H3  UNL     1     -15.456  46.517 -25.002  1.00  0.00     0.165 HD
ENDBRANCH  33  36
ENDBRANCH  32  33
ENDBRANCH  30  32
ENDBRANCH  27  28
ENDBRANCH  26  27
ENDBRANCH  13  26
TORSDOF 8
ENDMDL
MODEL 5
REMARK minimizedAffinity -9.56511402
REMARK CNNscore 0.321886629
REMARK CNNaffinity 6.51459646
REMARK  8 active torsions:
REMARK  status: ('A' for Active; 'I' for Inactive)
REMARK    1  A    between atoms: C3_3  and  O1_4 
REMARK    2  A    between atoms: N1_14  and  O2_16 
REMARK    3  A    between atoms: O2_16  and  C13_17 
REMARK    4  A    between atoms: C13_17  and  C14_18 
REMARK       I    between atoms: C14_18  and  N2_20 
REMARK    5  A    between atoms: N2_20  and  C15_21 
REMARK    6  A    between atoms: C15_21  and  C16_22 
REMARK    7  A    between atoms: C16_22  and  O4_23 
REMARK    8  A    between atoms: C16_22  and  C17_24 
ROOT
HETATM    1  C1  UNL     1      -2.397  52.148 -23.713  1.00  0.00     0.015 C 
HETATM    2  C2  UNL     1      -2.248  51.421 -22.770  1.00  0.00    -0.078 C 
HETATM    3  C3  UNL     1      -2.094  50.537 -21.603  1.00  0.00     0.128 C 
HETATM    4  C4  UNL     1      -1.710  49.113 -22.011  1.00  0.00     0.052 C 
HETATM    5  C5  UNL     1      -1.271  48.477 -20.698  1.00  0.00     0.010 C 
HETATM    6  C6  UNL     1      -0.544  49.600 -19.940  1.00  0.00     0.002 C 
HETATM    7  C7  UNL     1      -0.647  49.555 -18.398  1.00  0.00    -0.004 C 
HETATM    8  C8  UNL     1      -2.045  49.305 -17.791  1.00  0.00     0.010 C 
HETATM    9  C9  UNL     1      -2.472  50.210 -16.625  1.00  0.00     0.035 C 
HETATM   10  C10 UNL     1      -1.390  50.753 -15.720  1.00  0.00    -0.069 C 
HETATM   11  C11 UNL     1      -1.739  51.340 -14.560  1.00  0.00     0.030 C 
HETATM   12  C12 UNL     1      -0.746  51.990 -13.666  1.00  0.00     0.032 C 
HETATM   13  N1  UNL     1      -1.180  52.494 -12.544  1.00  0.00    -0.271 N 
ATOM     14  H1  UNL     1      -2.156  52.487 -12.250  1.00  0.00     0.194 HD
HETATM   15  C23 UNL     1       0.711  52.022 -14.100  1.00  0.00     0.060 C 
HETATM   16  C24 UNL     1       0.856  51.890 -15.614  1.00  0.00     0.020 C 
HETATM   17  C25 UNL     1       0.046  50.709 -16.212  1.00  0.00    -0.016 C 
HETATM   18  C26 UNL     1       0.686  49.385 -15.718  1.00  0.00     0.020 C 
HETATM   19  C27 UNL     1       0.064  50.780 -17.780  1.00  0.00     0.002 C 
HETATM   20  C28 UNL     1      -0.469  52.119 -18.362  1.00  0.00     0.007 C 
HETATM   21  C29 UNL     1      -1.412  51.985 -19.561  1.00  0.00     0.014 C 
HETATM   22  C30 UNL     1      -0.960  50.950 -20.604  1.00  0.00     0.003 C 
HETATM   23  C31 UNL     1       0.281  51.518 -21.348  1.00  0.00     0.020 C 
ENDROOT
BRANCH   3  24
HETATM   24  O1  UNL     1      -3.360  50.452 -20.941  1.00  0.00    -0.377 OA
HETATM   25  H2  UNL     1      -3.750  51.345 -20.967  1.00  0.00     0.211 HD
ENDBRANCH   3  24
BRANCH  13  26
HETATM   26  O2  UNL     1      -0.133  53.048 -11.793  1.00  0.00    -0.271 OA
BRANCH  26  27
HETATM   27  C13 UNL     1      -0.671  54.018 -10.902  1.00  0.00     0.303 C 
BRANCH  27  28
HETATM   28  C14 UNL     1       0.501  54.800 -10.334  1.00  0.00     0.243 C 
HETATM   29  O3  UNL     1       0.475  55.332  -9.226  1.00  0.00    -0.271 OA
HETATM   30  N2  UNL     1       1.599  54.859 -11.169  1.00  0.00    -0.356 N 
HETATM   31  H16 UNL     1       1.431  54.678 -12.155  1.00  0.00     0.162 HD
BRANCH  30  32
HETATM   32  C15 UNL     1       2.711  55.751 -10.869  1.00  0.00     0.159 C 
BRANCH  32  33
HETATM   33  C16 UNL     1       4.048  54.984 -10.842  1.00  0.00     0.170 C 
BRANCH  33  34
HETATM   34  O4  UNL     1       3.765  53.576 -10.862  1.00  0.00    -0.389 OA
HETATM   35  H20 UNL     1       4.543  53.117 -10.499  1.00  0.00     0.210 HD
ENDBRANCH  33  34
BRANCH  33  36
HETATM   36  C17 UNL     1       4.891  55.308  -9.639  1.00  0.00    -0.013 A 
HETATM   37  C18 UNL     1       6.217  54.883  -9.522  1.00  0.00     0.013 A 
HETATM   38  C19 UNL     1       6.953  55.218  -8.387  1.00  0.00     0.025 A 
HETATM   39  C20 UNL     1       6.351  55.987  -7.398  1.00  0.00     0.005 A 
HETATM   40  C21 UNL     1       7.107  56.353  -6.156  1.00  0.00     0.068 C 
HETATM   41  N3  UNL     1       5.067  56.407  -7.486  1.00  0.00    -0.369 N 
HETATM   42  C22 UNL     1       4.370  56.057  -8.590  1.00  0.00     0.097 A 
ATOM     43  H3  UNL     1       4.641  56.966  -6.747  1.00  0.00     0.165 HD
ENDBRANCH  33  36
ENDBRANCH  32  33
ENDBRANCH  30  32
ENDBRANCH  27  28
ENDBRANCH  26  27
ENDBRANCH  13  26
TORSDOF 8
ENDMDL
MODEL 6
REMARK minimizedAffinity -7.91374731
REMARK CNNscore 0.313997775
REMARK CNNaffinity 6.10339499
REMARK  8 active torsions:
REMARK  status: ('A' for Active; 'I' for Inactive)
REMARK    1  A    between atoms: C3_3  and  O1_4 
REMARK    2  A    between atoms: N1_14  and  O2_16 
REMARK    3  A    between atoms: O2_16  and  C13_17 
REMARK    4  A    between atoms: C13_17  and  C14_18 
REMARK       I    between atoms: C14_18  and  N2_20 
REMARK    5  A    between atoms: N2_20  and  C15_21 
REMARK    6  A    between atoms: C15_21  and  C16_22 
REMARK    7  A    between atoms: C16_22  and  O4_23 
REMARK    8  A    between atoms: C16_22  and  C17_24 
ROOT
HETATM    1  C1  UNL     1      -0.066  50.165 -20.946  1.00  0.00     0.015 C 
HETATM    2  C2  UNL     1      -1.266  50.140 -20.982  1.00  0.00    -0.078 C 
HETATM    3  C3  UNL     1      -2.736  50.083 -21.011  1.00  0.00     0.128 C 
HETATM    4  C4  UNL     1      -3.370  51.351 -20.438  1.00  0.00     0.052 C 
HETATM    5  C5  UNL     1      -4.828  51.242 -20.869  1.00  0.00     0.010 C 
HETATM    6  C6  UNL     1      -4.778  50.618 -22.273  1.00  0.00     0.002 C 
HETATM    7  C7  UNL     1      -5.975  49.719 -22.658  1.00  0.00    -0.004 C 
HETATM    8  C8  UNL     1      -6.440  48.678 -21.616  1.00  0.00     0.010 C 
HETATM    9  C9  UNL     1      -6.710  47.254 -22.124  1.00  0.00     0.035 C 
HETATM   10  C10 UNL     1      -7.180  47.091 -23.551  1.00  0.00    -0.069 C 
HETATM   11  C11 UNL     1      -7.657  45.897 -23.952  1.00  0.00     0.030 C 
HETATM   12  C12 UNL     1      -8.041  45.626 -25.362  1.00  0.00     0.032 C 
HETATM   13  N1  UNL     1      -8.531  44.450 -25.641  1.00  0.00    -0.271 N 
ATOM     14  H1  UNL     1      -8.650  43.700 -24.959  1.00  0.00     0.194 HD
HETATM   15  C23 UNL     1      -7.853  46.729 -26.391  1.00  0.00     0.060 C 
HETATM   16  C24 UNL     1      -6.795  47.740 -25.955  1.00  0.00     0.020 C 
HETATM   17  C25 UNL     1      -6.994  48.257 -24.506  1.00  0.00    -0.016 C 
HETATM   18  C26 UNL     1      -8.283  49.119 -24.473  1.00  0.00     0.020 C 
HETATM   19  C27 UNL     1      -5.752  49.105 -24.058  1.00  0.00     0.002 C 
HETATM   20  C28 UNL     1      -4.397  48.348 -24.155  1.00  0.00     0.007 C 
HETATM   21  C29 UNL     1      -3.458  48.527 -22.958  1.00  0.00     0.014 C 
HETATM   22  C30 UNL     1      -3.367  49.972 -22.441  1.00  0.00     0.003 C 
HETATM   23  C31 UNL     1      -2.578  50.814 -23.483  1.00  0.00     0.020 C 
ENDROOT
BRANCH   3  24
HETATM   24  O1  UNL     1      -3.154  48.997 -20.178  1.00  0.00    -0.377 OA
HETATM   25  H2  UNL     1      -2.524  48.268 -20.329  1.00  0.00     0.211 HD
ENDBRANCH   3  24
BRANCH  13  26
HETATM   26  O2  UNL     1      -8.874  44.346 -26.996  1.00  0.00    -0.271 OA
BRANCH  26  27
HETATM   27  C13 UNL     1      -9.956  45.230 -27.265  1.00  0.00     0.303 C 
BRANCH  27  28
HETATM   28  C14 UNL     1     -11.182  44.656 -26.576  1.00  0.00     0.243 C 
HETATM   29  O3  UNL     1     -11.377  43.448 -26.457  1.00  0.00    -0.271 OA
HETATM   30  N2  UNL     1     -12.057  45.610 -26.094  1.00  0.00    -0.356 N 
HETATM   31  H16 UNL     1     -11.987  46.538 -26.500  1.00  0.00     0.162 HD
BRANCH  30  32
HETATM   32  C15 UNL     1     -13.377  45.226 -25.611  1.00  0.00     0.159 C 
BRANCH  32  33
HETATM   33  C16 UNL     1     -14.446  45.412 -26.705  1.00  0.00     0.170 C 
BRANCH  33  34
HETATM   34  O4  UNL     1     -14.062  46.523 -27.531  1.00  0.00    -0.389 OA
HETATM   35  H20 UNL     1     -14.866  46.851 -27.971  1.00  0.00     0.210 HD
ENDBRANCH  33  34
BRANCH  33  36
HETATM   36  C17 UNL     1     -15.823  45.653 -26.151  1.00  0.00    -0.013 A 
HETATM   37  C18 UNL     1     -16.050  46.483 -25.049  1.00  0.00     0.013 A 
HETATM   38  C19 UNL     1     -17.348  46.673 -24.582  1.00  0.00     0.025 A 
HETATM   39  C20 UNL     1     -18.399  46.042 -25.239  1.00  0.00     0.005 A 
HETATM   40  C21 UNL     1     -19.807  46.212 -24.754  1.00  0.00     0.068 C 
HETATM   41  N3  UNL     1     -18.205  45.230 -26.305  1.00  0.00    -0.369 N 
HETATM   42  C22 UNL     1     -16.934  45.050 -26.730  1.00  0.00     0.097 A 
ATOM     43  H3  UNL     1     -18.988  44.771 -26.769  1.00  0.00     0.165 HD
ENDBRANCH  33  36
ENDBRANCH  32  33
ENDBRANCH  30  32
ENDBRANCH  27  28
ENDBRANCH  26  27
ENDBRANCH  13  26
TORSDOF 8
ENDMDL
MODEL 7
REMARK minimizedAffinity -8.3481617
REMARK CNNscore 0.2752738
REMARK CNNaffinity 6.60620642
REMARK  8 active torsions:
REMARK  status: ('A' for Active; 'I' for Inactive)
REMARK    1  A    between atoms: C3_3  and  O1_4 
REMARK    2  A    between atoms: N1_14  and  O2_16 
REMARK    3  A    between atoms: O2_16  and  C13_17 
REMARK    4  A    between atoms: C13_17  and  C14_18 
REMARK       I    between atoms: C14_18  and  N2_20 
REMARK    5  A    between atoms: N2_20  and  C15_21 
REMARK    6  A    between atoms: C15_21  and  C16_22 
REMARK    7  A    between atoms: C16_22  and  O4_23 
REMARK    8  A    between atoms: C16_22  and  C17_24 
ROOT
HETATM    1  C1  UNL     1       7.390  54.689  -2.531  1.00  0.00     0.015 C 
HETATM    2  C2  UNL     1       6.869  55.361  -3.378  1.00  0.00    -0.078 C 
HETATM    3  C3  UNL     1       6.203  56.185  -4.400  1.00  0.00     0.128 C 
HETATM    4  C4  UNL     1       6.976  57.473  -4.689  1.00  0.00     0.052 C 
HETATM    5  C5  UNL     1       6.335  57.987  -5.973  1.00  0.00     0.010 C 
HETATM    6  C6  UNL     1       6.027  56.724  -6.793  1.00  0.00     0.002 C 
HETATM    7  C7  UNL     1       4.783  56.797  -7.708  1.00  0.00    -0.004 C 
HETATM    8  C8  UNL     1       3.489  57.378  -7.095  1.00  0.00     0.010 C 
HETATM    9  C9  UNL     1       2.187  56.605  -7.354  1.00  0.00     0.035 C 
HETATM   10  C10 UNL     1       2.074  55.819  -8.640  1.00  0.00    -0.069 C 
HETATM   11  C11 UNL     1       0.874  55.337  -9.010  1.00  0.00     0.030 C 
HETATM   12  C12 UNL     1       0.698  54.469 -10.204  1.00  0.00     0.032 C 
HETATM   13  N1  UNL     1      -0.513  54.087 -10.502  1.00  0.00    -0.271 N 
ATOM     14  H1  UNL     1      -1.342  54.330  -9.961  1.00  0.00     0.194 HD
HETATM   15  C23 UNL     1       1.928  54.086 -11.010  1.00  0.00     0.060 C 
HETATM   16  C24 UNL     1       3.205  54.175 -10.178  1.00  0.00     0.020 C 
HETATM   17  C25 UNL     1       3.348  55.514  -9.408  1.00  0.00    -0.016 C 
HETATM   18  C26 UNL     1       3.570  56.647 -10.445  1.00  0.00     0.020 C 
HETATM   19  C27 UNL     1       4.556  55.438  -8.408  1.00  0.00     0.002 C 
HETATM   20  C28 UNL     1       4.466  54.265  -7.391  1.00  0.00     0.007 C 
HETATM   21  C29 UNL     1       4.827  54.620  -5.946  1.00  0.00     0.014 C 
HETATM   22  C30 UNL     1       6.071  55.513  -5.809  1.00  0.00     0.003 C 
HETATM   23  C31 UNL     1       7.324  54.660  -6.158  1.00  0.00     0.020 C 
ENDROOT
BRANCH   3  24
HETATM   24  O1  UNL     1       4.924  56.573  -3.892  1.00  0.00    -0.377 OA
HETATM   25  H2  UNL     1       4.563  55.802  -3.419  1.00  0.00     0.211 HD
ENDBRANCH   3  24
BRANCH  13  26
HETATM   26  O2  UNL     1      -0.530  53.299 -11.662  1.00  0.00    -0.271 OA
BRANCH  26  27
HETATM   27  C13 UNL     1      -1.784  52.633 -11.745  1.00  0.00     0.303 C 
BRANCH  27  28
HETATM   28  C14 UNL     1      -1.890  52.054 -13.146  1.00  0.00     0.243 C 
HETATM   29  O3  UNL     1      -2.965  51.854 -13.707  1.00  0.00    -0.271 OA
HETATM   30  N2  UNL     1      -0.672  51.775 -13.735  1.00  0.00    -0.356 N 
HETATM   31  H16 UNL     1       0.122  51.670 -13.110  1.00  0.00     0.162 HD
BRANCH  30  32
HETATM   32  C15 UNL     1      -0.607  51.015 -14.976  1.00  0.00     0.159 C 
BRANCH  32  33
HETATM   33  C16 UNL     1       0.629  51.410 -15.807  1.00  0.00     0.170 C 
BRANCH  33  34
HETATM   34  O4  UNL     1       1.049  52.722 -15.400  1.00  0.00    -0.389 OA
HETATM   35  H20 UNL     1       1.572  53.100 -16.129  1.00  0.00     0.210 HD
ENDBRANCH  33  34
BRANCH  33  36
HETATM   36  C17 UNL     1       0.372  51.403 -17.289  1.00  0.00    -0.013 A 
HETATM   37  C18 UNL     1      -0.250  50.331 -17.934  1.00  0.00     0.013 A 
HETATM   38  C19 UNL     1      -0.467  50.382 -19.309  1.00  0.00     0.025 A 
HETATM   39  C20 UNL     1      -0.071  51.515 -20.010  1.00  0.00     0.005 A 
HETATM   40  C21 UNL     1      -0.276  51.598 -21.493  1.00  0.00     0.068 C 
HETATM   41  N3  UNL     1       0.537  52.565 -19.410  1.00  0.00    -0.369 N 
HETATM   42  C22 UNL     1       0.750  52.485 -18.077  1.00  0.00     0.097 A 
ATOM     43  H3  UNL     1       0.825  53.385 -19.943  1.00  0.00     0.165 HD
ENDBRANCH  33  36
ENDBRANCH  32  33
ENDBRANCH  30  32
ENDBRANCH  27  28
ENDBRANCH  26  27
ENDBRANCH  13  26
TORSDOF 8
ENDMDL
MODEL 8
REMARK minimizedAffinity -8.27814198
REMARK CNNscore 0.264569134
REMARK CNNaffinity 5.66405535
REMARK  8 active torsions:
REMARK  status: ('A' for Active; 'I' for Inactive)
REMARK    1  A    between atoms: C3_3  and  O1_4 
REMARK    2  A    between atoms: N1_14  and  O2_16 
REMARK    3  A    between atoms: O2_16  and  C13_17 
REMARK    4  A    between atoms: C13_17  and  C14_18 
REMARK       I    between atoms: C14_18  and  N2_20 
REMARK    5  A    between atoms: N2_20  and  C15_21 
REMARK    6  A    between atoms: C15_21  and  C16_22 
REMARK    7  A    between atoms: C16_22  and  O4_23 
REMARK    8  A    between atoms: C16_22  and  C17_24 
ROOT
HETATM    1  C1  UNL     1      -5.504  48.046 -28.564  1.00  0.00     0.015 C 
HETATM    2  C2  UNL     1      -6.657  48.025 -28.898  1.00  0.00    -0.078 C 
HETATM    3  C3  UNL     1      -8.076  48.025 -29.289  1.00  0.00     0.128 C 
HETATM    4  C4  UNL     1      -8.250  48.062 -30.808  1.00  0.00     0.052 C 
HETATM    5  C5  UNL     1      -9.720  47.711 -31.003  1.00  0.00     0.010 C 
HETATM    6  C6  UNL     1     -10.021  46.659 -29.923  1.00  0.00     0.002 C 
HETATM    7  C7  UNL     1     -11.461  46.657 -29.360  1.00  0.00    -0.004 C 
HETATM    8  C8  UNL     1     -12.070  48.022 -28.974  1.00  0.00     0.010 C 
HETATM    9  C9  UNL     1     -12.792  48.107 -27.620  1.00  0.00     0.035 C 
HETATM   10  C10 UNL     1     -13.459  46.856 -27.096  1.00  0.00    -0.069 C 
HETATM   11  C11 UNL     1     -14.298  46.951 -26.048  1.00  0.00     0.030 C 
HETATM   12  C12 UNL     1     -14.912  45.758 -25.409  1.00  0.00     0.032 C 
HETATM   13  N1  UNL     1     -15.745  45.958 -24.425  1.00  0.00    -0.271 N 
ATOM     14  H1  UNL     1     -15.987  46.878 -24.056  1.00  0.00     0.194 HD
HETATM   15  C23 UNL     1     -14.547  44.381 -25.939  1.00  0.00     0.060 C 
HETATM   16  C24 UNL     1     -13.201  44.387 -26.661  1.00  0.00     0.020 C 
HETATM   17  C25 UNL     1     -13.068  45.523 -27.710  1.00  0.00    -0.016 C 
HETATM   18  C26 UNL     1     -14.047  45.222 -28.875  1.00  0.00     0.020 C 
HETATM   19  C27 UNL     1     -11.592  45.603 -28.237  1.00  0.00     0.002 C 
HETATM   20  C28 UNL     1     -10.528  45.804 -27.120  1.00  0.00     0.007 C 
HETATM   21  C29 UNL     1      -9.439  46.835 -27.429  1.00  0.00     0.014 C 
HETATM   22  C30 UNL     1      -8.881  46.751 -28.860  1.00  0.00     0.003 C 
HETATM   23  C31 UNL     1      -8.019  45.462 -28.971  1.00  0.00     0.020 C 
ENDROOT
BRANCH   3  24
HETATM   24  O1  UNL     1      -8.678  49.215 -28.772  1.00  0.00    -0.377 OA
HETATM   25  H2  UNL     1      -8.304  49.356 -27.884  1.00  0.00     0.211 HD
ENDBRANCH   3  24
BRANCH  13  26
HETATM   26  O2  UNL     1     -16.265  44.750 -23.940  1.00  0.00    -0.271 OA
BRANCH  26  27
HETATM   27  C13 UNL     1     -17.543  44.533 -24.526  1.00  0.00     0.303 C 
BRANCH  27  28
HETATM   28  C14 UNL     1     -18.580  45.018 -23.528  1.00  0.00     0.243 C 
HETATM   29  O3  UNL     1     -19.790  44.946 -23.733  1.00  0.00    -0.271 OA
HETATM   30  N2  UNL     1     -18.044  45.546 -22.370  1.00  0.00    -0.356 N 
HETATM   31  H16 UNL     1     -17.077  45.852 -22.414  1.00  0.00     0.162 HD
BRANCH  30  32
HETATM   32  C15 UNL     1     -18.891  46.253 -21.418  1.00  0.00     0.159 C 
BRANCH  32  33
HETATM   33  C16 UNL     1     -18.651  45.753 -19.980  1.00  0.00     0.170 C 
BRANCH  33  34
HETATM   34  O4  UNL     1     -19.776  46.134 -19.172  1.00  0.00    -0.389 OA
HETATM   35  H20 UNL     1     -19.480  46.141 -18.245  1.00  0.00     0.210 HD
ENDBRANCH  33  34
BRANCH  33  36
HETATM   36  C17 UNL     1     -17.388  46.296 -19.369  1.00  0.00    -0.013 A 
HETATM   37  C18 UNL     1     -17.217  47.655 -19.094  1.00  0.00     0.013 A 
HETATM   38  C19 UNL     1     -16.028  48.101 -18.522  1.00  0.00     0.025 A 
HETATM   39  C20 UNL     1     -15.037  47.173 -18.221  1.00  0.00     0.005 A 
HETATM   40  C21 UNL     1     -13.738  47.620 -17.619  1.00  0.00     0.068 C 
HETATM   41  N3  UNL     1     -15.176  45.852 -18.482  1.00  0.00    -0.369 N 
HETATM   42  C22 UNL     1     -16.334  45.447 -19.051  1.00  0.00     0.097 A 
ATOM     43  H3  UNL     1     -14.436  45.188 -18.259  1.00  0.00     0.165 HD
ENDBRANCH  33  36
ENDBRANCH  32  33
ENDBRANCH  30  32
ENDBRANCH  27  28
ENDBRANCH  26  27
ENDBRANCH  13  26
TORSDOF 8
ENDMDL
MODEL 9
REMARK minimizedAffinity -8.51979923
REMARK CNNscore 0.239013359
REMARK CNNaffinity 6.48857355
REMARK  8 active torsions:
REMARK  status: ('A' for Active; 'I' for Inactive)
REMARK    1  A    between atoms: C3_3  and  O1_4 
REMARK    2  A    between atoms: N1_14  and  O2_16 
REMARK    3  A    between atoms: O2_16  and  C13_17 
REMARK    4  A    between atoms: C13_17  and  C14_18 
REMARK       I    between atoms: C14_18  and  N2_20 
REMARK    5  A    between atoms: N2_20  and  C15_21 
REMARK    6  A    between atoms: C15_21  and  C16_22 
REMARK    7  A    between atoms: C16_22  and  O4_23 
REMARK    8  A    between atoms: C16_22  and  C17_24 
ROOT
HETATM    1  C1  UNL     1      -2.943  48.379 -25.588  1.00  0.00     0.015 C 
HETATM    2  C2  UNL     1      -3.205  48.943 -24.562  1.00  0.00    -0.078 C 
HETATM    3  C3  UNL     1      -3.508  49.658 -23.312  1.00  0.00     0.128 C 
HETATM    4  C4  UNL     1      -5.014  49.809 -23.089  1.00  0.00     0.052 C 
HETATM    5  C5  UNL     1      -5.113  50.243 -21.632  1.00  0.00     0.010 C 
HETATM    6  C6  UNL     1      -4.004  49.459 -20.911  1.00  0.00     0.002 C 
HETATM    7  C7  UNL     1      -3.354  50.164 -19.698  1.00  0.00    -0.004 C 
HETATM    8  C8  UNL     1      -2.948  51.643 -19.877  1.00  0.00     0.010 C 
HETATM    9  C9  UNL     1      -1.553  52.050 -19.375  1.00  0.00     0.035 C 
HETATM   10  C10 UNL     1      -0.974  51.288 -18.205  1.00  0.00    -0.069 C 
HETATM   11  C11 UNL     1       0.122  51.769 -17.590  1.00  0.00     0.030 C 
HETATM   12  C12 UNL     1       0.813  51.028 -16.501  1.00  0.00     0.032 C 
HETATM   13  N1  UNL     1       1.844  51.598 -15.940  1.00  0.00    -0.271 N 
ATOM     14  H1  UNL     1       2.216  52.507 -16.212  1.00  0.00     0.194 HD
HETATM   15  C23 UNL     1       0.278  49.664 -16.098  1.00  0.00     0.060 C 
HETATM   16  C24 UNL     1      -0.525  49.013 -17.221  1.00  0.00     0.020 C 
HETATM   17  C25 UNL     1      -1.594  49.951 -17.841  1.00  0.00    -0.016 C 
HETATM   18  C26 UNL     1      -2.693  50.202 -16.775  1.00  0.00     0.020 C 
HETATM   19  C27 UNL     1      -2.212  49.294 -19.126  1.00  0.00     0.002 C 
HETATM   20  C28 UNL     1      -1.166  48.915 -20.212  1.00  0.00     0.007 C 
HETATM   21  C29 UNL     1      -1.554  49.271 -21.650  1.00  0.00     0.014 C 
HETATM   22  C30 UNL     1      -3.015  48.949 -22.005  1.00  0.00     0.003 C 
HETATM   23  C31 UNL     1      -3.163  47.404 -22.100  1.00  0.00     0.020 C 
ENDROOT
BRANCH   3  24
HETATM   24  O1  UNL     1      -2.970  50.980 -23.416  1.00  0.00    -0.377 OA
HETATM   25  H2  UNL     1      -2.108  50.898 -23.863  1.00  0.00     0.211 HD
ENDBRANCH   3  24
BRANCH  13  26
HETATM   26  O2  UNL     1       2.375  50.801 -14.916  1.00  0.00    -0.271 OA
BRANCH  26  27
HETATM   27  C13 UNL     1       3.369  51.547 -14.224  1.00  0.00     0.303 C 
BRANCH  27  28
HETATM   28  C14 UNL     1       2.971  51.567 -12.758  1.00  0.00     0.243 C 
HETATM   29  O3  UNL     1       3.440  50.792 -11.927  1.00  0.00    -0.271 OA
HETATM   30  N2  UNL     1       2.036  52.533 -12.440  1.00  0.00    -0.356 N 
HETATM   31  H16 UNL     1       1.484  52.901 -13.208  1.00  0.00     0.162 HD
BRANCH  30  32
HETATM   32  C15 UNL     1       1.390  52.536 -11.134  1.00  0.00     0.159 C 
BRANCH  32  33
HETATM   33  C16 UNL     1       1.465  53.929 -10.479  1.00  0.00     0.170 C 
BRANCH  33  34
HETATM   34  O4  UNL     1       1.032  54.906 -11.438  1.00  0.00    -0.389 OA
HETATM   35  H20 UNL     1       1.401  55.765 -11.168  1.00  0.00     0.210 HD
ENDBRANCH  33  34
BRANCH  33  36
HETATM   36  C17 UNL     1       2.846  54.281  -9.995  1.00  0.00    -0.013 A 
HETATM   37  C18 UNL     1       3.803  54.862 -10.831  1.00  0.00     0.013 A 
HETATM   38  C19 UNL     1       5.065  55.172 -10.327  1.00  0.00     0.025 A 
HETATM   39  C20 UNL     1       5.338  54.908  -8.989  1.00  0.00     0.005 A 
HETATM   40  C21 UNL     1       6.689  55.215  -8.417  1.00  0.00     0.068 C 
HETATM   41  N3  UNL     1       4.429  54.341  -8.161  1.00  0.00    -0.369 N 
HETATM   42  C22 UNL     1       3.217  54.037  -8.678  1.00  0.00     0.097 A 
ATOM     43  H3  UNL     1       4.650  54.151  -7.184  1.00  0.00     0.165 HD
ENDBRANCH  33  36
ENDBRANCH  32  33
ENDBRANCH  30  32
ENDBRANCH  27  28
ENDBRANCH  26  27
ENDBRANCH  13  26
TORSDOF 8
ENDMDL
