MODEL 1
REMARK minimizedAffinity -7.69367743
REMARK CNNscore 0.73722142
REMARK CNNaffinity 6.95152426
REMARK  9 active torsions:
REMARK  status: ('A' for Active; 'I' for Inactive)
REMARK    1  A    between atoms: C2_2  and  C35_40 
REMARK    2  A    between atoms: C3_3  and  C4_4 
REMARK    3  A    between atoms: C4_4  and  O1_5 
REMARK    4  A    between atoms: C4_4  and  C5_6 
REMARK    5  A    between atoms: C5_6  and  C6_7 
REMARK    6  A    between atoms: C6_7  and  C8_9 
REMARK    7  A    between atoms: C10_11  and  O2_12 
REMARK    8  A    between atoms: C33_37  and  O5_38 
REMARK    9  A    between atoms: C35_40  and  O7_42 
ROOT
HETATM    1  C8  UNL     1     -12.518  15.092   1.109  1.00  0.00     0.002 C 
HETATM    2  C9  UNL     1     -13.326  14.602   2.337  1.00  0.00     0.038 C 
HETATM    3  C10 UNL     1     -12.645  15.186   3.569  1.00  0.00     0.132 C 
HETATM    4  C11 UNL     1     -11.138  15.081   3.217  1.00  0.00     0.017 C 
HETATM    5  C12 UNL     1     -10.747  13.565   3.299  1.00  0.00     0.023 C 
HETATM    6  C13 UNL     1     -10.232  15.921   4.145  1.00  0.00    -0.029 C 
HETATM    7  C14 UNL     1      -9.659  17.096   3.780  1.00  0.00     0.003 C 
HETATM    8  C15 UNL     1     -10.250  17.826   2.614  1.00  0.00     0.157 C 
HETATM    9  O3  UNL     1     -10.081  19.037   2.463  1.00  0.00    -0.293 OA
HETATM   10  C16 UNL     1     -11.110  17.101   1.621  1.00  0.00     0.094 C 
HETATM   11  C17 UNL     1     -11.085  15.558   1.702  1.00  0.00    -0.016 C 
HETATM   12  C18 UNL     1      -9.828  15.017   0.908  1.00  0.00     0.011 C 
HETATM   13  C19 UNL     1      -8.408  15.153   1.502  1.00  0.00     0.001 C 
HETATM   14  C20 UNL     1      -7.732  16.512   1.316  1.00  0.00     0.000 C 
HETATM   15  C21 UNL     1      -6.741  16.891   2.425  1.00  0.00     0.001 C 
HETATM   16  C22 UNL     1      -7.167  16.776   3.907  1.00  0.00     0.015 C 
HETATM   17  C23 UNL     1      -8.381  17.637   4.483  1.00  0.00    -0.003 C 
HETATM   18  C24 UNL     1      -8.068  19.130   4.210  1.00  0.00     0.022 C 
HETATM   19  C25 UNL     1      -6.906  19.686   5.012  1.00  0.00     0.080 C 
HETATM   20  C26 UNL     1      -7.100  19.530   6.497  1.00  0.00     0.136 C 
HETATM   21  O4  UNL     1      -6.367  20.152   7.271  1.00  0.00    -0.297 OA
HETATM   22  C27 UNL     1      -8.225  18.618   6.998  1.00  0.00     0.025 C 
HETATM   23  C28 UNL     1      -7.833  18.135   8.423  1.00  0.00     0.024 C 
HETATM   24  C29 UNL     1      -9.515  19.467   7.111  1.00  0.00     0.044 C 
HETATM   25  C30 UNL     1     -10.778  18.663   7.086  1.00  0.00    -0.029 C 
HETATM   26  C31 UNL     1     -10.812  17.343   6.853  1.00  0.00    -0.023 C 
HETATM   27  C32 UNL     1      -9.591  16.501   6.530  1.00  0.00     0.047 C 
HETATM   28  C33 UNL     1      -9.894  15.372   5.517  1.00  0.00     0.156 C 
HETATM   29  C34 UNL     1      -8.391  17.365   6.064  1.00  0.00     0.025 C 
ENDROOT
BRANCH   1  30
HETATM   30  C6  UNL     1     -12.562  14.123  -0.115  1.00  0.00    -0.011 C 
HETATM   31  C7  UNL     1     -13.507  14.671  -1.198  1.00  0.00     0.010 C 
BRANCH  30  32
HETATM   32  C5  UNL     1     -13.039  12.693   0.260  1.00  0.00     0.040 C 
BRANCH  32  33
HETATM   33  C4  UNL     1     -14.414  12.290  -0.311  1.00  0.00     0.142 C 
BRANCH  33  34
HETATM   34  C3  UNL     1     -14.302  11.258  -1.393  1.00  0.00     0.018 C 
HETATM   35  C2  UNL     1     -13.933   9.966  -1.276  1.00  0.00     0.010 C 
HETATM   36  C1  UNL     1     -13.522   9.264  -0.018  1.00  0.00     0.055 C 
BRANCH  35  37
HETATM   37  C35 UNL     1     -13.934   9.180  -2.533  1.00  0.00     0.171 C 
HETATM   38  O6  UNL     1     -14.908   8.878  -3.200  1.00  0.00    -0.646 OA
BRANCH  37  39
HETATM   39  O7  UNL     1     -12.697   8.811  -2.910  1.00  0.00    -0.773 OA
HETATM   40  H48 UNL     1     -12.858   8.338  -3.749  1.00  0.00     0.167 HD
ENDBRANCH  37  39
ENDBRANCH  35  37
ENDBRANCH  33  34
BRANCH  33  41
HETATM   41  O1  UNL     1     -15.175  11.685   0.730  1.00  0.00    -0.392 OA
HETATM   42  H6  UNL     1     -15.246  12.334   1.451  1.00  0.00     0.210 HD
ENDBRANCH  33  41
ENDBRANCH  32  33
ENDBRANCH  30  32
ENDBRANCH   1  30
BRANCH   3  43
HETATM   43  O2  UNL     1     -13.086  16.526   3.755  1.00  0.00    -0.394 OA
HETATM   44  H17 UNL     1     -12.697  16.833   4.595  1.00  0.00     0.210 HD
ENDBRANCH   3  43
BRANCH  28  45
HETATM   45  O5  UNL     1     -10.986  14.605   6.022  1.00  0.00    -0.390 OA
HETATM   46  H46 UNL     1     -10.754  14.323   6.920  1.00  0.00     0.210 HD
ENDBRANCH  28  45
TORSDOF 9
ENDMDL
MODEL 2
REMARK minimizedAffinity -8.08712864
REMARK CNNscore 0.717570186
REMARK CNNaffinity 6.84339476
REMARK  9 active torsions:
REMARK  status: ('A' for Active; 'I' for Inactive)
REMARK    1  A    between atoms: C2_2  and  C35_40 
REMARK    2  A    between atoms: C3_3  and  C4_4 
REMARK    3  A    between atoms: C4_4  and  O1_5 
REMARK    4  A    between atoms: C4_4  and  C5_6 
REMARK    5  A    between atoms: C5_6  and  C6_7 
REMARK    6  A    between atoms: C6_7  and  C8_9 
REMARK    7  A    between atoms: C10_11  and  O2_12 
REMARK    8  A    between atoms: C33_37  and  O5_38 
REMARK    9  A    between atoms: C35_40  and  O7_42 
ROOT
HETATM    1  C8  UNL     1       2.643  12.639  16.821  1.00  0.00     0.002 C 
HETATM    2  C9  UNL     1       3.460  11.708  15.890  1.00  0.00     0.038 C 
HETATM    3  C10 UNL     1       2.464  10.749  15.250  1.00  0.00     0.132 C 
HETATM    4  C11 UNL     1       1.481  10.443  16.410  1.00  0.00     0.017 C 
HETATM    5  C12 UNL     1       2.236   9.520  17.427  1.00  0.00     0.023 C 
HETATM    6  C13 UNL     1       0.172   9.767  15.941  1.00  0.00    -0.029 C 
HETATM    7  C14 UNL     1      -1.019  10.412  15.850  1.00  0.00     0.003 C 
HETATM    8  C15 UNL     1      -0.999  11.907  15.782  1.00  0.00     0.157 C 
HETATM    9  O3  UNL     1      -1.942  12.541  15.305  1.00  0.00    -0.293 OA
HETATM   10  C16 UNL     1       0.203  12.672  16.253  1.00  0.00     0.094 C 
HETATM   11  C17 UNL     1       1.241  11.869  17.068  1.00  0.00    -0.016 C 
HETATM   12  C18 UNL     1       0.775  11.802  18.579  1.00  0.00     0.011 C 
HETATM   13  C19 UNL     1      -0.391  10.879  18.999  1.00  0.00     0.001 C 
HETATM   14  C20 UNL     1      -1.799  11.429  18.763  1.00  0.00     0.000 C 
HETATM   15  C21 UNL     1      -2.866  10.360  18.492  1.00  0.00     0.001 C 
HETATM   16  C22 UNL     1      -2.605   9.266  17.432  1.00  0.00     0.015 C 
HETATM   17  C23 UNL     1      -2.371   9.643  15.899  1.00  0.00    -0.003 C 
HETATM   18  C24 UNL     1      -3.602  10.456  15.424  1.00  0.00     0.022 C 
HETATM   19  C25 UNL     1      -4.889   9.657  15.337  1.00  0.00     0.080 C 
HETATM   20  C26 UNL     1      -4.766   8.457  14.437  1.00  0.00     0.136 C 
HETATM   21  O4  UNL     1      -5.787   7.865  14.076  1.00  0.00    -0.297 OA
HETATM   22  C27 UNL     1      -3.369   8.026  13.976  1.00  0.00     0.025 C 
HETATM   23  C28 UNL     1      -3.438   6.509  13.637  1.00  0.00     0.024 C 
HETATM   24  C29 UNL     1      -3.035   8.798  12.676  1.00  0.00     0.044 C 
HETATM   25  C30 UNL     1      -1.570   8.891  12.383  1.00  0.00    -0.029 C 
HETATM   26  C31 UNL     1      -0.616   8.467  13.225  1.00  0.00    -0.023 C 
HETATM   27  C32 UNL     1      -0.889   7.892  14.603  1.00  0.00     0.047 C 
HETATM   28  C33 UNL     1       0.192   8.282  15.638  1.00  0.00     0.156 C 
HETATM   29  C34 UNL     1      -2.309   8.246  15.115  1.00  0.00     0.025 C 
ENDROOT
BRANCH   1  30
HETATM   30  C6  UNL     1       3.445  13.183  18.046  1.00  0.00    -0.011 C 
HETATM   31  C7  UNL     1       3.928  14.619  17.777  1.00  0.00     0.010 C 
BRANCH  30  32
HETATM   32  C5  UNL     1       4.686  12.316  18.393  1.00  0.00     0.040 C 
BRANCH  32  33
HETATM   33  C4  UNL     1       4.938  12.105  19.900  1.00  0.00     0.142 C 
BRANCH  33  34
HETATM   34  C3  UNL     1       4.113  10.989  20.465  1.00  0.00     0.018 C 
HETATM   35  C2  UNL     1       4.052  10.563  21.744  1.00  0.00     0.010 C 
HETATM   36  C1  UNL     1       4.830  11.106  22.904  1.00  0.00     0.055 C 
BRANCH  35  37
HETATM   37  C35 UNL     1       3.122   9.439  22.006  1.00  0.00     0.171 C 
HETATM   38  O6  UNL     1       3.062   8.766  23.020  1.00  0.00    -0.646 OA
BRANCH  37  39
HETATM   39  O7  UNL     1       2.289   9.212  20.975  1.00  0.00    -0.773 OA
HETATM   40  H48 UNL     1       1.732   8.479  21.304  1.00  0.00     0.167 HD
ENDBRANCH  37  39
ENDBRANCH  35  37
ENDBRANCH  33  34
BRANCH  33  41
HETATM   41  O1  UNL     1       6.297  11.719  20.081  1.00  0.00    -0.392 OA
HETATM   42  H6  UNL     1       6.851  12.425  19.705  1.00  0.00     0.210 HD
ENDBRANCH  33  41
ENDBRANCH  32  33
ENDBRANCH  30  32
ENDBRANCH   1  30
BRANCH   3  43
HETATM   43  O2  UNL     1       1.844  11.390  14.142  1.00  0.00    -0.394 OA
HETATM   44  H17 UNL     1       1.282  10.720  13.711  1.00  0.00     0.210 HD
ENDBRANCH   3  43
BRANCH  28  45
HETATM   45  O5  UNL     1       1.464   7.904  15.115  1.00  0.00    -0.390 OA
HETATM   46  H46 UNL     1       1.416   6.965  14.881  1.00  0.00     0.210 HD
ENDBRANCH  28  45
TORSDOF 9
ENDMDL
MODEL 3
REMARK minimizedAffinity -7.40798092
REMARK CNNscore 0.676636159
REMARK CNNaffinity 6.16028976
REMARK  9 active torsions:
REMARK  status: ('A' for Active; 'I' for Inactive)
REMARK    1  A    between atoms: C2_2  and  C35_40 
REMARK    2  A    between atoms: C3_3  and  C4_4 
REMARK    3  A    between atoms: C4_4  and  O1_5 
REMARK    4  A    between atoms: C4_4  and  C5_6 
REMARK    5  A    between atoms: C5_6  and  C6_7 
REMARK    6  A    between atoms: C6_7  and  C8_9 
REMARK    7  A    between atoms: C10_11  and  O2_12 
REMARK    8  A    between atoms: C33_37  and  O5_38 
REMARK    9  A    between atoms: C35_40  and  O7_42 
ROOT
HETATM    1  C8  UNL     1     -16.589   1.815  14.772  1.00  0.00     0.002 C 
HETATM    2  C9  UNL     1     -16.031   1.455  16.173  1.00  0.00     0.038 C 
HETATM    3  C10 UNL     1     -15.514   0.025  16.081  1.00  0.00     0.132 C 
HETATM    4  C11 UNL     1     -16.568  -0.671  15.182  1.00  0.00     0.017 C 
HETATM    5  C12 UNL     1     -17.872  -0.835  16.037  1.00  0.00     0.023 C 
HETATM    6  C13 UNL     1     -16.104  -2.042  14.642  1.00  0.00    -0.029 C 
HETATM    7  C14 UNL     1     -15.698  -2.252  13.364  1.00  0.00     0.003 C 
HETATM    8  C15 UNL     1     -15.273  -1.061  12.563  1.00  0.00     0.157 C 
HETATM    9  O3  UNL     1     -14.533  -1.176  11.585  1.00  0.00    -0.293 OA
HETATM   10  C16 UNL     1     -15.703   0.318  12.969  1.00  0.00     0.094 C 
HETATM   11  C17 UNL     1     -16.823   0.394  14.031  1.00  0.00    -0.016 C 
HETATM   12  C18 UNL     1     -18.226   0.238  13.318  1.00  0.00     0.011 C 
HETATM   13  C19 UNL     1     -18.695  -1.142  12.804  1.00  0.00     0.001 C 
HETATM   14  C20 UNL     1     -18.143  -1.573  11.444  1.00  0.00     0.000 C 
HETATM   15  C21 UNL     1     -17.997  -3.090  11.265  1.00  0.00     0.001 C 
HETATM   16  C22 UNL     1     -17.279  -3.926  12.350  1.00  0.00     0.015 C 
HETATM   17  C23 UNL     1     -15.747  -3.663  12.712  1.00  0.00    -0.003 C 
HETATM   18  C24 UNL     1     -14.926  -3.808  11.404  1.00  0.00     0.022 C 
HETATM   19  C25 UNL     1     -14.862  -5.221  10.855  1.00  0.00     0.080 C 
HETATM   20  C26 UNL     1     -14.304  -6.204  11.848  1.00  0.00     0.136 C 
HETATM   21  O4  UNL     1     -13.962  -7.325  11.462  1.00  0.00    -0.297 OA
HETATM   22  C27 UNL     1     -14.156  -5.766  13.310  1.00  0.00     0.025 C 
HETATM   23  C28 UNL     1     -14.188  -7.050  14.186  1.00  0.00     0.024 C 
HETATM   24  C29 UNL     1     -12.765  -5.103  13.472  1.00  0.00     0.044 C 
HETATM   25  C30 UNL     1     -12.660  -4.189  14.652  1.00  0.00    -0.029 C 
HETATM   26  C31 UNL     1     -13.702  -3.859  15.430  1.00  0.00    -0.023 C 
HETATM   27  C32 UNL     1     -15.128  -4.320  15.187  1.00  0.00     0.047 C 
HETATM   28  C33 UNL     1     -16.175  -3.244  15.563  1.00  0.00     0.156 C 
HETATM   29  C34 UNL     1     -15.341  -4.827  13.738  1.00  0.00     0.025 C 
ENDROOT
BRANCH   1  30
HETATM   30  C6  UNL     1     -17.744   2.867  14.794  1.00  0.00    -0.011 C 
HETATM   31  C7  UNL     1     -19.005   2.266  15.437  1.00  0.00     0.010 C 
BRANCH  30  32
HETATM   32  C5  UNL     1     -18.124   3.380  13.378  1.00  0.00     0.040 C 
BRANCH  32  33
HETATM   33  C4  UNL     1     -18.416   4.892  13.286  1.00  0.00     0.142 C 
BRANCH  33  34
HETATM   34  C3  UNL     1     -17.291   5.652  12.650  1.00  0.00     0.018 C 
HETATM   35  C2  UNL     1     -16.262   6.280  13.257  1.00  0.00     0.010 C 
HETATM   36  C1  UNL     1     -16.023   6.380  14.733  1.00  0.00     0.055 C 
BRANCH  35  37
HETATM   37  C35 UNL     1     -15.286   6.936  12.356  1.00  0.00     0.171 C 
HETATM   38  O6  UNL     1     -14.100   7.110  12.573  1.00  0.00    -0.646 OA
BRANCH  37  39
HETATM   39  O7  UNL     1     -15.844   7.341  11.201  1.00  0.00    -0.773 OA
HETATM   40  H48 UNL     1     -15.085   7.718  10.714  1.00  0.00     0.167 HD
ENDBRANCH  37  39
ENDBRANCH  35  37
ENDBRANCH  33  34
BRANCH  33  41
HETATM   41  O1  UNL     1     -19.546   5.082  12.440  1.00  0.00    -0.392 OA
HETATM   42  H6  UNL     1     -20.285   4.582  12.827  1.00  0.00     0.210 HD
ENDBRANCH  33  41
ENDBRANCH  32  33
ENDBRANCH  30  32
ENDBRANCH   1  30
BRANCH   3  43
HETATM   43  O2  UNL     1     -14.209   0.036  15.513  1.00  0.00    -0.394 OA
HETATM   44  H17 UNL     1     -13.881  -0.882  15.552  1.00  0.00     0.210 HD
ENDBRANCH   3  43
BRANCH  28  45
HETATM   45  O5  UNL     1     -15.937  -2.846  16.911  1.00  0.00    -0.390 OA
HETATM   46  H46 UNL     1     -15.933  -3.648  17.457  1.00  0.00     0.210 HD
ENDBRANCH  28  45
TORSDOF 9
ENDMDL
MODEL 4
REMARK minimizedAffinity -8.08469009
REMARK CNNscore 0.523047447
REMARK CNNaffinity 6.78649855
REMARK  9 active torsions:
REMARK  status: ('A' for Active; 'I' for Inactive)
REMARK    1  A    between atoms: C2_2  and  C35_40 
REMARK    2  A    between atoms: C3_3  and  C4_4 
REMARK    3  A    between atoms: C4_4  and  O1_5 
REMARK    4  A    between atoms: C4_4  and  C5_6 
REMARK    5  A    between atoms: C5_6  and  C6_7 
REMARK    6  A    between atoms: C6_7  and  C8_9 
REMARK    7  A    between atoms: C10_11  and  O2_12 
REMARK    8  A    between atoms: C33_37  and  O5_38 
REMARK    9  A    between atoms: C35_40  and  O7_42 
ROOT
HETATM    1  C8  UNL     1      -9.841   7.912  14.264  1.00  0.00     0.002 C 
HETATM    2  C9  UNL     1     -10.878   7.425  13.220  1.00  0.00     0.038 C 
HETATM    3  C10 UNL     1     -11.939   8.514  13.118  1.00  0.00     0.132 C 
HETATM    4  C11 UNL     1     -12.098   8.984  14.587  1.00  0.00     0.017 C 
HETATM    5  C12 UNL     1     -12.851   7.847  15.360  1.00  0.00     0.023 C 
HETATM    6  C13 UNL     1     -12.860  10.322  14.724  1.00  0.00    -0.029 C 
HETATM    7  C14 UNL     1     -12.260  11.507  15.000  1.00  0.00     0.003 C 
HETATM    8  C15 UNL     1     -10.789  11.621  14.744  1.00  0.00     0.157 C 
HETATM    9  O3  UNL     1     -10.250  12.715  14.575  1.00  0.00    -0.293 OA
HETATM   10  C16 UNL     1      -9.941  10.387  14.638  1.00  0.00     0.094 C 
HETATM   11  C17 UNL     1     -10.598   9.070  15.105  1.00  0.00    -0.016 C 
HETATM   12  C18 UNL     1     -10.460   8.950  16.677  1.00  0.00     0.011 C 
HETATM   13  C19 UNL     1     -11.337   9.814  17.610  1.00  0.00     0.001 C 
HETATM   14  C20 UNL     1     -10.856  11.246  17.844  1.00  0.00     0.000 C 
HETATM   15  C21 UNL     1     -11.975  12.260  18.122  1.00  0.00     0.001 C 
HETATM   16  C22 UNL     1     -13.203  12.323  17.185  1.00  0.00     0.015 C 
HETATM   17  C23 UNL     1     -13.042  12.690  15.640  1.00  0.00    -0.003 C 
HETATM   18  C24 UNL     1     -12.331  14.065  15.557  1.00  0.00     0.022 C 
HETATM   19  C25 UNL     1     -13.161  15.234  16.052  1.00  0.00     0.080 C 
HETATM   20  C26 UNL     1     -14.473  15.361  15.326  1.00  0.00     0.136 C 
HETATM   21  O4  UNL     1     -15.132  16.398  15.445  1.00  0.00    -0.297 OA
HETATM   22  C27 UNL     1     -14.936  14.200  14.439  1.00  0.00     0.025 C 
HETATM   23  C28 UNL     1     -16.487  14.278  14.341  1.00  0.00     0.024 C 
HETATM   24  C29 UNL     1     -14.349  14.417  13.022  1.00  0.00     0.044 C 
HETATM   25  C30 UNL     1     -14.268  13.169  12.199  1.00  0.00    -0.029 C 
HETATM   26  C31 UNL     1     -14.548  11.947  12.675  1.00  0.00    -0.023 C 
HETATM   27  C32 UNL     1     -14.928  11.659  14.117  1.00  0.00     0.047 C 
HETATM   28  C33 UNL     1     -14.372  10.306  14.622  1.00  0.00     0.156 C 
HETATM   29  C34 UNL     1     -14.535  12.818  15.069  1.00  0.00     0.025 C 
ENDROOT
BRANCH   1  30
HETATM   30  C6  UNL     1      -9.113   6.761  15.028  1.00  0.00    -0.011 C 
HETATM   31  C7  UNL     1      -8.703   7.227  16.436  1.00  0.00     0.010 C 
BRANCH  30  32
HETATM   32  C5  UNL     1      -7.837   6.260  14.298  1.00  0.00     0.040 C 
BRANCH  32  33
HETATM   33  C4  UNL     1      -8.094   5.453  13.008  1.00  0.00     0.142 C 
BRANCH  33  34
HETATM   34  C3  UNL     1      -6.853   4.786  12.496  1.00  0.00     0.018 C 
HETATM   35  C2  UNL     1      -6.600   3.465  12.391  1.00  0.00     0.010 C 
HETATM   36  C1  UNL     1      -7.512   2.346  12.795  1.00  0.00     0.055 C 
BRANCH  35  37
HETATM   37  C35 UNL     1      -5.279   3.105  11.824  1.00  0.00     0.171 C 
HETATM   38  O6  UNL     1      -4.194   3.257  12.358  1.00  0.00    -0.646 OA
BRANCH  37  39
HETATM   39  O7  UNL     1      -5.377   2.553  10.602  1.00  0.00    -0.773 OA
HETATM   40  H48 UNL     1      -4.447   2.348  10.382  1.00  0.00     0.167 HD
ENDBRANCH  37  39
ENDBRANCH  35  37
ENDBRANCH  33  34
BRANCH  33  41
HETATM   41  O1  UNL     1      -9.008   4.403  13.308  1.00  0.00    -0.392 OA
HETATM   42  H6  UNL     1      -9.817   4.814  13.659  1.00  0.00     0.210 HD
ENDBRANCH  33  41
ENDBRANCH  32  33
ENDBRANCH  30  32
ENDBRANCH   1  30
BRANCH   3  43
HETATM   43  O2  UNL     1     -11.474   9.538  12.247  1.00  0.00    -0.394 OA
HETATM   44  H17 UNL     1     -12.211  10.169  12.141  1.00  0.00     0.210 HD
ENDBRANCH   3  43
BRANCH  28  45
HETATM   45  O5  UNL     1     -14.794   9.288  13.717  1.00  0.00    -0.390 OA
HETATM   46  H46 UNL     1     -15.758   9.350  13.635  1.00  0.00     0.210 HD
ENDBRANCH  28  45
TORSDOF 9
ENDMDL
MODEL 5
REMARK minimizedAffinity -7.27983141
REMARK CNNscore 0.467354119
REMARK CNNaffinity 6.44076157
REMARK  9 active torsions:
REMARK  status: ('A' for Active; 'I' for Inactive)
REMARK    1  A    between atoms: C2_2  and  C35_40 
REMARK    2  A    between atoms: C3_3  and  C4_4 
REMARK    3  A    between atoms: C4_4  and  O1_5 
REMARK    4  A    between atoms: C4_4  and  C5_6 
REMARK    5  A    between atoms: C5_6  and  C6_7 
REMARK    6  A    between atoms: C6_7  and  C8_9 
REMARK    7  A    between atoms: C10_11  and  O2_12 
REMARK    8  A    between atoms: C33_37  and  O5_38 
REMARK    9  A    between atoms: C35_40  and  O7_42 
ROOT
HETATM    1  C8  UNL     1       2.487  13.056  17.067  1.00  0.00     0.002 C 
HETATM    2  C9  UNL     1       3.427  12.202  16.179  1.00  0.00     0.038 C 
HETATM    3  C10 UNL     1       2.547  11.183  15.467  1.00  0.00     0.132 C 
HETATM    4  C11 UNL     1       1.519  10.787  16.558  1.00  0.00     0.017 C 
HETATM    5  C12 UNL     1       2.275   9.906  17.611  1.00  0.00     0.023 C 
HETATM    6  C13 UNL     1       0.295  10.025  16.000  1.00  0.00    -0.029 C 
HETATM    7  C14 UNL     1      -0.932  10.581  15.840  1.00  0.00     0.003 C 
HETATM    8  C15 UNL     1      -1.019  12.075  15.790  1.00  0.00     0.157 C 
HETATM    9  O3  UNL     1      -1.974  12.645  15.261  1.00  0.00    -0.293 OA
HETATM   10  C16 UNL     1       0.092  12.918  16.345  1.00  0.00     0.094 C 
HETATM   11  C17 UNL     1       1.133  12.180  17.216  1.00  0.00    -0.016 C 
HETATM   12  C18 UNL     1       0.579  12.056  18.693  1.00  0.00     0.011 C 
HETATM   13  C19 UNL     1      -0.539  11.044  19.028  1.00  0.00     0.001 C 
HETATM   14  C20 UNL     1      -1.966  11.492  18.708  1.00  0.00     0.000 C 
HETATM   15  C21 UNL     1      -2.932  10.352  18.358  1.00  0.00     0.001 C 
HETATM   16  C22 UNL     1      -2.524   9.297  17.304  1.00  0.00     0.015 C 
HETATM   17  C23 UNL     1      -2.223   9.715  15.794  1.00  0.00    -0.003 C 
HETATM   18  C24 UNL     1      -3.479  10.443  15.251  1.00  0.00     0.022 C 
HETATM   19  C25 UNL     1      -4.695   9.552  15.073  1.00  0.00     0.080 C 
HETATM   20  C26 UNL     1      -4.427   8.379  14.169  1.00  0.00     0.136 C 
HETATM   21  O4  UNL     1      -5.377   7.720  13.737  1.00  0.00    -0.297 OA
HETATM   22  C27 UNL     1      -2.976   8.059  13.793  1.00  0.00     0.025 C 
HETATM   23  C28 UNL     1      -2.911   6.547  13.434  1.00  0.00     0.024 C 
HETATM   24  C29 UNL     1      -2.619   8.875  12.526  1.00  0.00     0.044 C 
HETATM   25  C30 UNL     1      -1.150   9.080  12.327  1.00  0.00    -0.029 C 
HETATM   26  C31 UNL     1      -0.222   8.714  13.224  1.00  0.00    -0.023 C 
HETATM   27  C32 UNL     1      -0.537   8.098  14.575  1.00  0.00     0.047 C 
HETATM   28  C33 UNL     1       0.445   8.550  15.682  1.00  0.00     0.156 C 
HETATM   29  C34 UNL     1      -2.009   8.338  15.000  1.00  0.00     0.025 C 
ENDROOT
BRANCH   1  30
HETATM   30  C6  UNL     1       3.168  13.637  18.347  1.00  0.00    -0.011 C 
HETATM   31  C7  UNL     1       3.083  15.174  18.349  1.00  0.00     0.010 C 
BRANCH  30  32
HETATM   32  C5  UNL     1       4.663  13.238  18.474  1.00  0.00     0.040 C 
BRANCH  32  33
HETATM   33  C4  UNL     1       4.986  12.266  19.627  1.00  0.00     0.142 C 
BRANCH  33  34
HETATM   34  C3  UNL     1       6.397  12.410  20.116  1.00  0.00     0.018 C 
HETATM   35  C2  UNL     1       7.513  11.841  19.615  1.00  0.00     0.010 C 
HETATM   36  C1  UNL     1       7.591  10.900  18.451  1.00  0.00     0.055 C 
BRANCH  35  37
HETATM   37  C35 UNL     1       8.778  12.188  20.305  1.00  0.00     0.171 C 
HETATM   38  O6  UNL     1       9.381  11.498  21.107  1.00  0.00    -0.646 OA
BRANCH  37  39
HETATM   39  O7  UNL     1       9.244  13.397  19.945  1.00  0.00    -0.773 OA
HETATM   40  H48 UNL     1      10.078  13.467  20.451  1.00  0.00     0.167 HD
ENDBRANCH  37  39
ENDBRANCH  35  37
ENDBRANCH  33  34
BRANCH  33  41
HETATM   41  O1  UNL     1       4.153  12.589  20.736  1.00  0.00    -0.392 OA
HETATM   42  H6  UNL     1       3.230  12.518  20.435  1.00  0.00     0.210 HD
ENDBRANCH  33  41
ENDBRANCH  32  33
ENDBRANCH  30  32
ENDBRANCH   1  30
BRANCH   3  43
HETATM   43  O2  UNL     1       1.952  11.795  14.329  1.00  0.00    -0.394 OA
HETATM   44  H17 UNL     1       1.469  11.091  13.855  1.00  0.00     0.210 HD
ENDBRANCH   3  43
BRANCH  28  45
HETATM   45  O5  UNL     1       1.772   8.275  15.236  1.00  0.00    -0.390 OA
HETATM   46  H46 UNL     1       1.809   7.338  14.989  1.00  0.00     0.210 HD
ENDBRANCH  28  45
TORSDOF 9
ENDMDL
MODEL 6
REMARK minimizedAffinity -7.53901434
REMARK CNNscore 0.458496451
REMARK CNNaffinity 5.83196878
REMARK  9 active torsions:
REMARK  status: ('A' for Active; 'I' for Inactive)
REMARK    1  A    between atoms: C2_2  and  C35_40 
REMARK    2  A    between atoms: C3_3  and  C4_4 
REMARK    3  A    between atoms: C4_4  and  O1_5 
REMARK    4  A    between atoms: C4_4  and  C5_6 
REMARK    5  A    between atoms: C5_6  and  C6_7 
REMARK    6  A    between atoms: C6_7  and  C8_9 
REMARK    7  A    between atoms: C10_11  and  O2_12 
REMARK    8  A    between atoms: C33_37  and  O5_38 
REMARK    9  A    between atoms: C35_40  and  O7_42 
ROOT
HETATM    1  C8  UNL     1     -13.822  -4.924  11.459  1.00  0.00     0.002 C 
HETATM    2  C9  UNL     1     -13.888  -3.882  10.313  1.00  0.00     0.038 C 
HETATM    3  C10 UNL     1     -14.661  -2.687  10.855  1.00  0.00     0.132 C 
HETATM    4  C11 UNL     1     -15.771  -3.349  11.712  1.00  0.00     0.017 C 
HETATM    5  C12 UNL     1     -16.798  -3.997  10.721  1.00  0.00     0.023 C 
HETATM    6  C13 UNL     1     -16.489  -2.359  12.657  1.00  0.00    -0.029 C 
HETATM    7  C14 UNL     1     -16.272  -2.301  13.996  1.00  0.00     0.003 C 
HETATM    8  C15 UNL     1     -15.006  -2.901  14.523  1.00  0.00     0.157 C 
HETATM    9  O3  UNL     1     -14.536  -2.556  15.608  1.00  0.00    -0.293 OA
HETATM   10  C16 UNL     1     -14.248  -3.909  13.710  1.00  0.00     0.094 C 
HETATM   11  C17 UNL     1     -14.994  -4.495  12.490  1.00  0.00    -0.016 C 
HETATM   12  C18 UNL     1     -15.924  -5.681  12.972  1.00  0.00     0.011 C 
HETATM   13  C19 UNL     1     -17.234  -5.389  13.737  1.00  0.00     0.001 C 
HETATM   14  C20 UNL     1     -17.089  -5.116  15.234  1.00  0.00     0.000 C 
HETATM   15  C21 UNL     1     -18.153  -4.178  15.820  1.00  0.00     0.001 C 
HETATM   16  C22 UNL     1     -18.457  -2.832  15.124  1.00  0.00     0.015 C 
HETATM   17  C23 UNL     1     -17.331  -1.711  14.971  1.00  0.00    -0.003 C 
HETATM   18  C24 UNL     1     -16.800  -1.384  16.391  1.00  0.00     0.022 C 
HETATM   19  C25 UNL     1     -17.799  -0.677  17.288  1.00  0.00     0.080 C 
HETATM   20  C26 UNL     1     -18.308   0.607  16.690  1.00  0.00     0.136 C 
HETATM   21  O4  UNL     1     -18.923   1.404  17.403  1.00  0.00    -0.297 OA
HETATM   22  C27 UNL     1     -18.020   0.892  15.212  1.00  0.00     0.025 C 
HETATM   23  C28 UNL     1     -19.120   1.866  14.703  1.00  0.00     0.024 C 
HETATM   24  C29 UNL     1     -16.653   1.614  15.122  1.00  0.00     0.044 C 
HETATM   25  C30 UNL     1     -15.996   1.509  13.781  1.00  0.00    -0.029 C 
HETATM   26  C31 UNL     1     -16.468   0.752  12.781  1.00  0.00    -0.023 C 
HETATM   27  C32 UNL     1     -17.694  -0.138  12.889  1.00  0.00     0.047 C 
HETATM   28  C33 UNL     1     -17.554  -1.448  12.078  1.00  0.00     0.156 C 
HETATM   29  C34 UNL     1     -18.077  -0.429  14.363  1.00  0.00     0.025 C 
ENDROOT
BRANCH   1  30
HETATM   30  C6  UNL     1     -13.733  -6.405  10.973  1.00  0.00    -0.011 C 
HETATM   31  C7  UNL     1     -14.986  -6.780  10.163  1.00  0.00     0.010 C 
BRANCH  30  32
HETATM   32  C5  UNL     1     -13.594  -7.420  12.140  1.00  0.00     0.040 C 
BRANCH  32  33
HETATM   33  C4  UNL     1     -12.427  -7.145  13.112  1.00  0.00     0.142 C 
BRANCH  33  34
HETATM   34  C3  UNL     1     -12.786  -7.453  14.535  1.00  0.00     0.018 C 
HETATM   35  C2  UNL     1     -12.556  -6.703  15.633  1.00  0.00     0.010 C 
HETATM   36  C1  UNL     1     -11.854  -5.380  15.679  1.00  0.00     0.055 C 
BRANCH  35  37
HETATM   37  C35 UNL     1     -13.048  -7.266  16.912  1.00  0.00     0.171 C 
HETATM   38  O6  UNL     1     -12.660  -8.286  17.454  1.00  0.00    -0.646 OA
BRANCH  37  39
HETATM   39  O7  UNL     1     -14.009  -6.509  17.471  1.00  0.00    -0.773 OA
HETATM   40  H48 UNL     1     -14.204  -6.985  18.302  1.00  0.00     0.167 HD
ENDBRANCH  37  39
ENDBRANCH  35  37
ENDBRANCH  33  34
BRANCH  33  41
HETATM   41  O1  UNL     1     -11.350  -8.017  12.782  1.00  0.00    -0.392 OA
HETATM   42  H6  UNL     1     -11.112  -7.843  11.855  1.00  0.00     0.210 HD
ENDBRANCH  33  41
ENDBRANCH  32  33
ENDBRANCH  30  32
ENDBRANCH   1  30
BRANCH   3  43
HETATM   43  O2  UNL     1     -13.781  -1.866  11.613  1.00  0.00    -0.394 OA
HETATM   44  H17 UNL     1     -14.289  -1.073  11.868  1.00  0.00     0.210 HD
ENDBRANCH   3  43
BRANCH  28  45
HETATM   45  O5  UNL     1     -17.229  -1.104  10.733  1.00  0.00    -0.390 OA
HETATM   46  H46 UNL     1     -17.900  -0.478  10.421  1.00  0.00     0.210 HD
ENDBRANCH  28  45
TORSDOF 9
ENDMDL
MODEL 7
REMARK minimizedAffinity -9.02341366
REMARK CNNscore 0.457364172
REMARK CNNaffinity 7.16859055
REMARK  9 active torsions:
REMARK  status: ('A' for Active; 'I' for Inactive)
REMARK    1  A    between atoms: C2_2  and  C35_40 
REMARK    2  A    between atoms: C3_3  and  C4_4 
REMARK    3  A    between atoms: C4_4  and  O1_5 
REMARK    4  A    between atoms: C4_4  and  C5_6 
REMARK    5  A    between atoms: C5_6  and  C6_7 
REMARK    6  A    between atoms: C6_7  and  C8_9 
REMARK    7  A    between atoms: C10_11  and  O2_12 
REMARK    8  A    between atoms: C33_37  and  O5_38 
REMARK    9  A    between atoms: C35_40  and  O7_42 
ROOT
HETATM    1  C8  UNL     1       0.127   7.771  14.863  1.00  0.00     0.002 C 
HETATM    2  C9  UNL     1      -0.615   9.044  15.344  1.00  0.00     0.038 C 
HETATM    3  C10 UNL     1      -2.105   8.759  15.202  1.00  0.00     0.132 C 
HETATM    4  C11 UNL     1      -2.182   7.960  13.875  1.00  0.00     0.017 C 
HETATM    5  C12 UNL     1      -1.916   8.971  12.707  1.00  0.00     0.023 C 
HETATM    6  C13 UNL     1      -3.537   7.245  13.668  1.00  0.00    -0.029 C 
HETATM    7  C14 UNL     1      -3.718   5.910  13.829  1.00  0.00     0.003 C 
HETATM    8  C15 UNL     1      -2.706   5.162  14.640  1.00  0.00     0.157 C 
HETATM    9  O3  UNL     1      -2.978   4.083  15.170  1.00  0.00    -0.293 OA
HETATM   10  C16 UNL     1      -1.340   5.740  14.868  1.00  0.00     0.094 C 
HETATM   11  C17 UNL     1      -0.960   6.951  13.987  1.00  0.00    -0.016 C 
HETATM   12  C18 UNL     1      -0.434   6.431  12.589  1.00  0.00     0.011 C 
HETATM   13  C19 UNL     1      -1.419   5.872  11.539  1.00  0.00     0.001 C 
HETATM   14  C20 UNL     1      -1.848   4.416  11.731  1.00  0.00     0.000 C 
HETATM   15  C21 UNL     1      -3.254   4.089  11.209  1.00  0.00     0.001 C 
HETATM   16  C22 UNL     1      -4.448   4.988  11.605  1.00  0.00     0.015 C 
HETATM   17  C23 UNL     1      -4.884   5.152  13.132  1.00  0.00    -0.003 C 
HETATM   18  C24 UNL     1      -5.171   3.735  13.692  1.00  0.00     0.022 C 
HETATM   19  C25 UNL     1      -6.398   3.064  13.106  1.00  0.00     0.080 C 
HETATM   20  C26 UNL     1      -7.649   3.882  13.287  1.00  0.00     0.136 C 
HETATM   21  O4  UNL     1      -8.748   3.357  13.089  1.00  0.00    -0.297 OA
HETATM   22  C27 UNL     1      -7.512   5.340  13.739  1.00  0.00     0.025 C 
HETATM   23  C28 UNL     1      -8.778   6.100  13.250  1.00  0.00     0.024 C 
HETATM   24  C29 UNL     1      -7.501   5.362  15.287  1.00  0.00     0.044 C 
HETATM   25  C30 UNL     1      -6.879   6.590  15.875  1.00  0.00    -0.029 C 
HETATM   26  C31 UNL     1      -6.263   7.531  15.145  1.00  0.00    -0.023 C 
HETATM   27  C32 UNL     1      -6.065   7.452  13.641  1.00  0.00     0.047 C 
HETATM   28  C33 UNL     1      -4.719   8.061  13.183  1.00  0.00     0.156 C 
HETATM   29  C34 UNL     1      -6.240   6.008  13.103  1.00  0.00     0.025 C 
ENDROOT
BRANCH   1  30
HETATM   30  C6  UNL     1       1.544   8.044  14.265  1.00  0.00    -0.011 C 
HETATM   31  C7  UNL     1       1.574   9.410  13.558  1.00  0.00     0.010 C 
BRANCH  30  32
HETATM   32  C5  UNL     1       1.990   6.964  13.242  1.00  0.00     0.040 C 
BRANCH  32  33
HETATM   33  C4  UNL     1       2.989   7.448  12.172  1.00  0.00     0.142 C 
BRANCH  33  34
HETATM   34  C3  UNL     1       3.308   6.383  11.166  1.00  0.00     0.018 C 
HETATM   35  C2  UNL     1       2.669   6.113  10.008  1.00  0.00     0.010 C 
HETATM   36  C1  UNL     1       1.459   6.816   9.471  1.00  0.00     0.055 C 
BRANCH  35  37
HETATM   37  C35 UNL     1       3.231   5.001   9.206  1.00  0.00     0.171 C 
HETATM   38  O6  UNL     1       3.483   5.020   8.015  1.00  0.00    -0.646 OA
BRANCH  37  39
HETATM   39  O7  UNL     1       3.467   3.903   9.945  1.00  0.00    -0.773 OA
HETATM   40  H48 UNL     1       3.855   3.284   9.296  1.00  0.00     0.167 HD
ENDBRANCH  37  39
ENDBRANCH  35  37
ENDBRANCH  33  34
BRANCH  33  41
HETATM   41  O1  UNL     1       2.387   8.511  11.440  1.00  0.00    -0.392 OA
HETATM   42  H6  UNL     1       2.158   9.208  12.079  1.00  0.00     0.210 HD
ENDBRANCH  33  41
ENDBRANCH  32  33
ENDBRANCH  30  32
ENDBRANCH   1  30
BRANCH   3  43
HETATM   43  O2  UNL     1      -2.549   8.017  16.331  1.00  0.00    -0.394 OA
HETATM   44  H17 UNL     1      -3.517   7.931  16.245  1.00  0.00     0.210 HD
ENDBRANCH   3  43
BRANCH  28  45
HETATM   45  O5  UNL     1      -4.639   9.392  13.689  1.00  0.00    -0.390 OA
HETATM   46  H46 UNL     1      -5.439   9.861  13.405  1.00  0.00     0.210 HD
ENDBRANCH  28  45
TORSDOF 9
ENDMDL
MODEL 8
REMARK minimizedAffinity -8.55978489
REMARK CNNscore 0.315126985
REMARK CNNaffinity 5.75508118
REMARK  9 active torsions:
REMARK  status: ('A' for Active; 'I' for Inactive)
REMARK    1  A    between atoms: C2_2  and  C35_40 
REMARK    2  A    between atoms: C3_3  and  C4_4 
REMARK    3  A    between atoms: C4_4  and  O1_5 
REMARK    4  A    between atoms: C4_4  and  C5_6 
REMARK    5  A    between atoms: C5_6  and  C6_7 
REMARK    6  A    between atoms: C6_7  and  C8_9 
REMARK    7  A    between atoms: C10_11  and  O2_12 
REMARK    8  A    between atoms: C33_37  and  O5_38 
REMARK    9  A    between atoms: C35_40  and  O7_42 
ROOT
HETATM    1  C8  UNL     1      11.283  11.360  17.325  1.00  0.00     0.002 C 
HETATM    2  C9  UNL     1      10.433  10.559  18.344  1.00  0.00     0.038 C 
HETATM    3  C10 UNL     1       9.244   9.998  17.575  1.00  0.00     0.132 C 
HETATM    4  C11 UNL     1       8.876  11.154  16.608  1.00  0.00     0.017 C 
HETATM    5  C12 UNL     1       8.219  12.287  17.469  1.00  0.00     0.023 C 
HETATM    6  C13 UNL     1       7.923  10.722  15.471  1.00  0.00    -0.029 C 
HETATM    7  C14 UNL     1       8.319  10.526  14.188  1.00  0.00     0.003 C 
HETATM    8  C15 UNL     1       9.777  10.298  13.935  1.00  0.00     0.157 C 
HETATM    9  O3  UNL     1      10.171   9.727  12.917  1.00  0.00    -0.293 OA
HETATM   10  C16 UNL     1      10.798  10.718  14.952  1.00  0.00     0.094 C 
HETATM   11  C17 UNL     1      10.290  11.647  16.078  1.00  0.00    -0.016 C 
HETATM   12  C18 UNL     1      10.290  13.141  15.558  1.00  0.00     0.011 C 
HETATM   13  C19 UNL     1       9.212  13.624  14.562  1.00  0.00     0.001 C 
HETATM   14  C20 UNL     1       9.460  13.287  13.091  1.00  0.00     0.000 C 
HETATM   15  C21 UNL     1       8.187  13.102  12.253  1.00  0.00     0.001 C 
HETATM   16  C22 UNL     1       7.061  12.175  12.764  1.00  0.00     0.015 C 
HETATM   17  C23 UNL     1       7.319  10.618  13.000  1.00  0.00    -0.003 C 
HETATM   18  C24 UNL     1       7.834  10.021  11.665  1.00  0.00     0.022 C 
HETATM   19  C25 UNL     1       6.802   9.983  10.553  1.00  0.00     0.080 C 
HETATM   20  C26 UNL     1       5.563   9.222  10.938  1.00  0.00     0.136 C 
HETATM   21  O4  UNL     1       4.756   8.897  10.063  1.00  0.00    -0.297 OA
HETATM   22  C27 UNL     1       5.358   8.852  12.412  1.00  0.00     0.025 C 
HETATM   23  C28 UNL     1       3.829   8.678  12.640  1.00  0.00     0.024 C 
HETATM   24  C29 UNL     1       6.045   7.487  12.663  1.00  0.00     0.044 C 
HETATM   25  C30 UNL     1       6.381   7.229  14.098  1.00  0.00    -0.029 C 
HETATM   26  C31 UNL     1       6.231   8.140  15.071  1.00  0.00    -0.023 C 
HETATM   27  C32 UNL     1       5.756   9.564  14.840  1.00  0.00     0.047 C 
HETATM   28  C33 UNL     1       6.445  10.582  15.779  1.00  0.00     0.156 C 
HETATM   29  C34 UNL     1       5.886   9.992  13.356  1.00  0.00     0.025 C 
ENDROOT
BRANCH   1  30
HETATM   30  C6  UNL     1      12.088  12.542  17.952  1.00  0.00    -0.011 C 
HETATM   31  C7  UNL     1      11.214  13.807  18.025  1.00  0.00     0.010 C 
BRANCH  30  32
HETATM   32  C5  UNL     1      13.373  12.892  17.154  1.00  0.00     0.040 C 
BRANCH  32  33
HETATM   33  C4  UNL     1      14.678  12.292  17.717  1.00  0.00     0.142 C 
BRANCH  33  34
HETATM   34  C3  UNL     1      14.935  12.715  19.133  1.00  0.00     0.018 C 
HETATM   35  C2  UNL     1      16.071  12.580  19.849  1.00  0.00     0.010 C 
HETATM   36  C1  UNL     1      17.346  11.942  19.389  1.00  0.00     0.055 C 
BRANCH  35  37
HETATM   37  C35 UNL     1      16.028  13.117  21.230  1.00  0.00     0.171 C 
HETATM   38  O6  UNL     1      16.086  12.472  22.262  1.00  0.00    -0.646 OA
BRANCH  37  39
HETATM   39  O7  UNL     1      15.927  14.457  21.257  1.00  0.00    -0.773 OA
HETATM   40  H48 UNL     1      15.940  14.656  22.214  1.00  0.00     0.167 HD
ENDBRANCH  37  39
ENDBRANCH  35  37
ENDBRANCH  33  34
BRANCH  33  41
HETATM   41  O1  UNL     1      14.545  10.874  17.750  1.00  0.00    -0.392 OA
HETATM   42  H6  UNL     1      14.362  10.580  16.841  1.00  0.00     0.210 HD
ENDBRANCH  33  41
ENDBRANCH  32  33
ENDBRANCH  30  32
ENDBRANCH   1  30
BRANCH   3  43
HETATM   43  O2  UNL     1       9.642   8.809  16.902  1.00  0.00    -0.394 OA
HETATM   44  H17 UNL     1       8.838   8.436  16.496  1.00  0.00     0.210 HD
ENDBRANCH   3  43
BRANCH  28  45
HETATM   45  O5  UNL     1       6.263  10.141  17.123  1.00  0.00    -0.390 OA
HETATM   46  H46 UNL     1       5.312  10.009  17.260  1.00  0.00     0.210 HD
ENDBRANCH  28  45
TORSDOF 9
ENDMDL
MODEL 9
REMARK minimizedAffinity -8.10188103
REMARK CNNscore 0.292684406
REMARK CNNaffinity 5.83898306
REMARK  9 active torsions:
REMARK  status: ('A' for Active; 'I' for Inactive)
REMARK    1  A    between atoms: C2_2  and  C35_40 
REMARK    2  A    between atoms: C3_3  and  C4_4 
REMARK    3  A    between atoms: C4_4  and  O1_5 
REMARK    4  A    between atoms: C4_4  and  C5_6 
REMARK    5  A    between atoms: C5_6  and  C6_7 
REMARK    6  A    between atoms: C6_7  and  C8_9 
REMARK    7  A    between atoms: C10_11  and  O2_12 
REMARK    8  A    between atoms: C33_37  and  O5_38 
REMARK    9  A    between atoms: C35_40  and  O7_42 
ROOT
HETATM    1  C8  UNL     1      11.387  11.837  18.245  1.00  0.00     0.002 C 
HETATM    2  C9  UNL     1      11.941  12.130  19.662  1.00  0.00     0.038 C 
HETATM    3  C10 UNL     1      10.738  12.435  20.547  1.00  0.00     0.132 C 
HETATM    4  C11 UNL     1       9.817  13.258  19.610  1.00  0.00     0.017 C 
HETATM    5  C12 UNL     1      10.476  14.670  19.433  1.00  0.00     0.023 C 
HETATM    6  C13 UNL     1       8.373  13.402  20.142  1.00  0.00    -0.029 C 
HETATM    7  C14 UNL     1       7.315  12.711  19.649  1.00  0.00     0.003 C 
HETATM    8  C15 UNL     1       7.598  11.465  18.869  1.00  0.00     0.157 C 
HETATM    9  O3  UNL     1       6.748  10.582  18.737  1.00  0.00    -0.293 OA
HETATM   10  C16 UNL     1       8.954  11.239  18.267  1.00  0.00     0.094 C 
HETATM   11  C17 UNL     1       9.894  12.465  18.235  1.00  0.00    -0.016 C 
HETATM   12  C18 UNL     1       9.552  13.349  16.969  1.00  0.00     0.011 C 
HETATM   13  C19 UNL     1       8.278  14.224  16.945  1.00  0.00     0.001 C 
HETATM   14  C20 UNL     1       6.978  13.502  16.585  1.00  0.00     0.000 C 
HETATM   15  C21 UNL     1       5.716  14.103  17.220  1.00  0.00     0.001 C 
HETATM   16  C22 UNL     1       5.686  14.398  18.738  1.00  0.00     0.015 C 
HETATM   17  C23 UNL     1       5.855  13.226  19.808  1.00  0.00    -0.003 C 
HETATM   18  C24 UNL     1       4.755  12.171  19.524  1.00  0.00     0.022 C 
HETATM   19  C25 UNL     1       3.343  12.639  19.820  1.00  0.00     0.080 C 
HETATM   20  C26 UNL     1       3.171  13.098  21.244  1.00  0.00     0.136 C 
HETATM   21  O4  UNL     1       2.034  13.265  21.692  1.00  0.00    -0.297 OA
HETATM   22  C27 UNL     1       4.424  13.317  22.099  1.00  0.00     0.025 C 
HETATM   23  C28 UNL     1       4.054  14.339  23.212  1.00  0.00     0.024 C 
HETATM   24  C29 UNL     1       4.782  11.971  22.776  1.00  0.00     0.044 C 
HETATM   25  C30 UNL     1       6.210  11.871  23.215  1.00  0.00    -0.029 C 
HETATM   26  C31 UNL     1       7.138  12.797  22.935  1.00  0.00    -0.023 C 
HETATM   27  C32 UNL     1       6.883  14.036  22.094  1.00  0.00     0.047 C 
HETATM   28  C33 UNL     1       8.100  14.428  21.224  1.00  0.00     0.156 C 
HETATM   29  C34 UNL     1       5.597  13.906  21.237  1.00  0.00     0.025 C 
ENDROOT
BRANCH   1  30
HETATM   30  C6  UNL     1      12.374  12.189  17.086  1.00  0.00    -0.011 C 
HETATM   31  C7  UNL     1      11.916  11.530  15.774  1.00  0.00     0.010 C 
BRANCH  30  32
HETATM   32  C5  UNL     1      13.831  11.733  17.370  1.00  0.00     0.040 C 
BRANCH  32  33
HETATM   33  C4  UNL     1      14.827  12.873  17.668  1.00  0.00     0.142 C 
BRANCH  33  34
HETATM   34  C3  UNL     1      15.316  12.846  19.086  1.00  0.00     0.018 C 
HETATM   35  C2  UNL     1      15.808  13.869  19.816  1.00  0.00     0.010 C 
HETATM   36  C1  UNL     1      16.003  15.282  19.357  1.00  0.00     0.055 C 
BRANCH  35  37
HETATM   37  C35 UNL     1      16.196  13.538  21.208  1.00  0.00     0.171 C 
HETATM   38  O6  UNL     1      16.085  14.259  22.183  1.00  0.00    -0.646 OA
BRANCH  37  39
HETATM   39  O7  UNL     1      16.702  12.297  21.319  1.00  0.00    -0.773 OA
HETATM   40  H48 UNL     1      16.878  12.220  22.277  1.00  0.00     0.167 HD
ENDBRANCH  37  39
ENDBRANCH  35  37
ENDBRANCH  33  34
BRANCH  33  41
HETATM   41  O1  UNL     1      15.980  12.688  16.853  1.00  0.00    -0.392 OA
HETATM   42  H6  UNL     1      15.682  12.686  15.927  1.00  0.00     0.210 HD
ENDBRANCH  33  41
ENDBRANCH  32  33
ENDBRANCH  30  32
ENDBRANCH   1  30
BRANCH   3  43
HETATM   43  O2  UNL     1      10.153  11.212  20.977  1.00  0.00    -0.394 OA
HETATM   44  H17 UNL     1       9.446  11.448  21.605  1.00  0.00     0.210 HD
ENDBRANCH   3  43
BRANCH  28  45
HETATM   45  O5  UNL     1       9.234  14.556  22.079  1.00  0.00    -0.390 OA
HETATM   46  H46 UNL     1       8.998  15.175  22.787  1.00  0.00     0.210 HD
ENDBRANCH  28  45
TORSDOF 9
ENDMDL
