MODEL 1
REMARK minimizedAffinity -7.24349976
REMARK  9 active torsions:
REMARK  status: ('A' for Active; 'I' for Inactive)
REMARK    1  A    between atoms: O1_2  and  C2_3 
REMARK    2  A    between atoms: C2_3  and  C3_4 
REMARK    3  A    between atoms: C3_4  and  N1_5 
REMARK       I    between atoms: N1_5  and  C4_6 
REMARK    4  A    between atoms: C4_6  and  C5_8 
REMARK    5  A    between atoms: C5_8  and  C6_9 
REMARK    6  A    between atoms: C6_9  and  C7_10 
REMARK    7  A    between atoms: C10_13  and  O3_15 
REMARK    8  A    between atoms: C18_22  and  N2_23 
REMARK    9  A    between atoms: N2_23  and  C19_24 
ROOT
HETATM    1  C7  UNL     1      -0.012   6.662  11.331  1.00  0.00    -0.005 C 
HETATM    2  C8  UNL     1       0.152   7.394   9.960  1.00  0.00     0.015 C 
HETATM    3  C9  UNL     1       1.539   7.952   9.663  1.00  0.00     0.038 C 
HETATM    4  C10 UNL     1       2.657   6.949   9.929  1.00  0.00     0.054 C 
HETATM    5  C11 UNL     1       4.022   7.597   9.664  1.00  0.00     0.045 C 
HETATM    6  C12 UNL     1       2.603   6.329  11.336  1.00  0.00     0.043 C 
HETATM    7  C13 UNL     1       1.320   6.575  12.154  1.00  0.00     0.007 C 
HETATM    8  C14 UNL     1       1.342   7.817  13.129  1.00  0.00    -0.041 C 
HETATM    9  C15 UNL     1       1.324   7.318  14.595  1.00  0.00     0.015 C 
HETATM   10  C16 UNL     1       2.541   8.777  13.035  1.00  0.00     0.015 C 
HETATM   11  C17 UNL     1       0.046   8.587  12.798  1.00  0.00     0.045 C 
HETATM   12  C18 UNL     1      -0.949   7.547  12.259  1.00  0.00     0.230 C 
ENDROOT
BRANCH   1  13
HETATM   13  C6  UNL     1      -0.661   5.257  11.091  1.00  0.00     0.021 C 
BRANCH  13  14
HETATM   14  C5  UNL     1      -0.076   4.057  11.839  1.00  0.00     0.103 C 
BRANCH  14  15
HETATM   15  C4  UNL     1      -0.829   2.775  11.524  1.00  0.00     0.217 C 
HETATM   16  N1  UNL     1      -2.190   2.898  11.711  1.00  0.00    -0.359 N 
HETATM   17  H8  UNL     1      -2.533   3.721  12.190  1.00  0.00     0.162 HD
HETATM   18  O2  UNL     1      -0.293   1.745  11.133  1.00  0.00    -0.274 OA
BRANCH  16  19
HETATM   19  C3  UNL     1      -3.086   1.767  11.557  1.00  0.00     0.148 C 
BRANCH  19  20
HETATM   20  C2  UNL     1      -4.568   2.156  11.562  1.00  0.00     0.186 C 
BRANCH  20  21
HETATM   21  O1  UNL     1      -4.764   3.454  12.131  1.00  0.00    -0.394 OA
HETATM   22  C1  UNL     1      -6.113   3.698  12.503  1.00  0.00     0.201 C 
ENDBRANCH  20  21
ENDBRANCH  19  20
ENDBRANCH  16  19
ENDBRANCH  14  15
ENDBRANCH  13  14
ENDBRANCH   1  13
BRANCH  12  23
HETATM   23  N2  UNL     1      -1.596   6.810  13.356  1.00  0.00     0.093 N 
HETATM   24  H33 UNL     1      -1.272   5.842  13.359  1.00  0.00     0.316 HD
BRANCH  23  25
HETATM   25  C19 UNL     1      -3.068   6.781  13.304  1.00  0.00     0.225 C 
HETATM   26  C20 UNL     1      -3.690   5.979  14.460  1.00  0.00     0.062 C 
HETATM   27  C21 UNL     1      -5.094   6.469  14.807  1.00  0.00     0.169 C 
HETATM   28  O4  UNL     1      -5.729   7.014  13.658  1.00  0.00    -0.391 OA
HETATM   29  C22 UNL     1      -5.117   8.231  13.224  1.00  0.00     0.169 C 
HETATM   30  C23 UNL     1      -3.593   8.216  13.341  1.00  0.00     0.062 C 
ENDBRANCH  23  25
ENDBRANCH  12  23
BRANCH   4  31
HETATM   31  O3  UNL     1       2.513   5.888   8.971  1.00  0.00    -0.390 OA
HETATM   32  H20 UNL     1       3.312   5.335   9.022  1.00  0.00     0.210 HD
ENDBRANCH   4  31
TORSDOF 9
ENDMDL
MODEL 2
REMARK minimizedAffinity -7.15909863
REMARK  9 active torsions:
REMARK  status: ('A' for Active; 'I' for Inactive)
REMARK    1  A    between atoms: O1_2  and  C2_3 
REMARK    2  A    between atoms: C2_3  and  C3_4 
REMARK    3  A    between atoms: C3_4  and  N1_5 
REMARK       I    between atoms: N1_5  and  C4_6 
REMARK    4  A    between atoms: C4_6  and  C5_8 
REMARK    5  A    between atoms: C5_8  and  C6_9 
REMARK    6  A    between atoms: C6_9  and  C7_10 
REMARK    7  A    between atoms: C10_13  and  O3_15 
REMARK    8  A    between atoms: C18_22  and  N2_23 
REMARK    9  A    between atoms: N2_23  and  C19_24 
ROOT
HETATM    1  C7  UNL     1      -1.609   6.761  13.132  1.00  0.00    -0.005 C 
HETATM    2  C8  UNL     1      -1.389   7.892  12.075  1.00  0.00     0.015 C 
HETATM    3  C9  UNL     1      -1.610   9.317  12.566  1.00  0.00     0.038 C 
HETATM    4  C10 UNL     1      -0.912   9.609  13.892  1.00  0.00     0.054 C 
HETATM    5  C11 UNL     1      -1.226  11.039  14.350  1.00  0.00     0.045 C 
HETATM    6  C12 UNL     1      -1.240   8.590  14.995  1.00  0.00     0.043 C 
HETATM    7  C13 UNL     1      -1.969   7.304  14.559  1.00  0.00     0.007 C 
HETATM    8  C14 UNL     1      -3.546   7.329  14.658  1.00  0.00    -0.041 C 
HETATM    9  C15 UNL     1      -4.005   6.356  15.771  1.00  0.00     0.015 C 
HETATM   10  C16 UNL     1      -4.219   8.674  14.983  1.00  0.00     0.015 C 
HETATM   11  C17 UNL     1      -4.024   6.841  13.274  1.00  0.00     0.045 C 
HETATM   12  C18 UNL     1      -2.906   5.943  12.722  1.00  0.00     0.230 C 
ENDROOT
BRANCH   1  13
HETATM   13  C6  UNL     1      -0.358   5.819  13.148  1.00  0.00     0.021 C 
BRANCH  13  14
HETATM   14  C5  UNL     1       1.017   6.446  12.905  1.00  0.00     0.103 C 
BRANCH  14  15
HETATM   15  C4  UNL     1       1.762   5.750  11.777  1.00  0.00     0.217 C 
HETATM   16  N1  UNL     1       2.972   6.348  11.490  1.00  0.00    -0.359 N 
HETATM   17  H8  UNL     1       3.165   7.253  11.899  1.00  0.00     0.162 HD
HETATM   18  O2  UNL     1       1.346   4.757  11.193  1.00  0.00    -0.274 OA
BRANCH  16  19
HETATM   19  C3  UNL     1       3.799   5.901  10.386  1.00  0.00     0.148 C 
BRANCH  19  20
HETATM   20  C2  UNL     1       3.081   5.928   9.032  1.00  0.00     0.186 C 
BRANCH  20  21
HETATM   21  O1  UNL     1       3.427   4.790   8.237  1.00  0.00    -0.394 OA
HETATM   22  C1  UNL     1       4.022   3.745   8.996  1.00  0.00     0.201 C 
ENDBRANCH  20  21
ENDBRANCH  19  20
ENDBRANCH  16  19
ENDBRANCH  14  15
ENDBRANCH  13  14
ENDBRANCH   1  13
BRANCH  12  23
HETATM   23  N2  UNL     1      -2.981   4.588  13.292  1.00  0.00     0.093 N 
HETATM   24  H33 UNL     1      -2.078   4.123  13.193  1.00  0.00     0.316 HD
BRANCH  23  25
HETATM   25  C19 UNL     1      -3.997   3.711  12.684  1.00  0.00     0.225 C 
HETATM   26  C20 UNL     1      -5.423   4.029  13.165  1.00  0.00     0.062 C 
HETATM   27  C21 UNL     1      -6.476   3.650  12.127  1.00  0.00     0.169 C 
HETATM   28  O4  UNL     1      -6.026   2.557  11.337  1.00  0.00    -0.391 OA
HETATM   29  C22 UNL     1      -4.928   2.913  10.492  1.00  0.00     0.169 C 
HETATM   30  C23 UNL     1      -3.930   3.856  11.163  1.00  0.00     0.062 C 
ENDBRANCH  23  25
ENDBRANCH  12  23
BRANCH   4  31
HETATM   31  O3  UNL     1       0.503   9.558  13.646  1.00  0.00    -0.390 OA
HETATM   32  H20 UNL     1       0.951   9.906  14.437  1.00  0.00     0.210 HD
ENDBRANCH   4  31
TORSDOF 9
ENDMDL
MODEL 3
REMARK minimizedAffinity -7.15645742
REMARK  9 active torsions:
REMARK  status: ('A' for Active; 'I' for Inactive)
REMARK    1  A    between atoms: O1_2  and  C2_3 
REMARK    2  A    between atoms: C2_3  and  C3_4 
REMARK    3  A    between atoms: C3_4  and  N1_5 
REMARK       I    between atoms: N1_5  and  C4_6 
REMARK    4  A    between atoms: C4_6  and  C5_8 
REMARK    5  A    between atoms: C5_8  and  C6_9 
REMARK    6  A    between atoms: C6_9  and  C7_10 
REMARK    7  A    between atoms: C10_13  and  O3_15 
REMARK    8  A    between atoms: C18_22  and  N2_23 
REMARK    9  A    between atoms: N2_23  and  C19_24 
ROOT
HETATM    1  C7  UNL     1      -2.594   5.927  13.126  1.00  0.00    -0.005 C 
HETATM    2  C8  UNL     1      -2.835   5.535  14.620  1.00  0.00     0.015 C 
HETATM    3  C9  UNL     1      -3.474   6.605  15.496  1.00  0.00     0.038 C 
HETATM    4  C10 UNL     1      -4.698   7.252  14.856  1.00  0.00     0.054 C 
HETATM    5  C11 UNL     1      -5.252   8.354  15.767  1.00  0.00     0.045 C 
HETATM    6  C12 UNL     1      -4.439   7.785  13.437  1.00  0.00     0.043 C 
HETATM    7  C13 UNL     1      -3.117   7.362  12.767  1.00  0.00     0.007 C 
HETATM    8  C14 UNL     1      -1.899   8.353  12.939  1.00  0.00    -0.041 C 
HETATM    9  C15 UNL     1      -1.557   8.989  11.569  1.00  0.00     0.015 C 
HETATM   10  C16 UNL     1      -2.073   9.534  13.909  1.00  0.00     0.015 C 
HETATM   11  C17 UNL     1      -0.742   7.457  13.429  1.00  0.00     0.045 C 
HETATM   12  C18 UNL     1      -1.029   6.046  12.889  1.00  0.00     0.230 C 
ENDROOT
BRANCH   1  13
HETATM   13  C6  UNL     1      -3.199   4.819  12.199  1.00  0.00     0.021 C 
BRANCH  13  14
HETATM   14  C5  UNL     1      -3.938   3.654  12.859  1.00  0.00     0.103 C 
BRANCH  14  15
HETATM   15  C4  UNL     1      -5.325   3.458  12.265  1.00  0.00     0.217 C 
HETATM   16  N1  UNL     1      -6.266   4.296  12.825  1.00  0.00    -0.359 N 
HETATM   17  H8  UNL     1      -6.012   4.808  13.661  1.00  0.00     0.162 HD
HETATM   18  O2  UNL     1      -5.580   2.655  11.377  1.00  0.00    -0.274 OA
BRANCH  16  19
HETATM   19  C3  UNL     1      -7.670   4.210  12.471  1.00  0.00     0.148 C 
BRANCH  19  20
HETATM   20  C2  UNL     1      -8.412   5.546  12.581  1.00  0.00     0.186 C 
BRANCH  20  21
HETATM   21  O1  UNL     1      -8.392   6.042  13.922  1.00  0.00    -0.394 OA
HETATM   22  C1  UNL     1      -9.498   6.886  14.217  1.00  0.00     0.201 C 
ENDBRANCH  20  21
ENDBRANCH  19  20
ENDBRANCH  16  19
ENDBRANCH  14  15
ENDBRANCH  13  14
ENDBRANCH   1  13
BRANCH  12  23
HETATM   23  N2  UNL     1      -0.611   5.920  11.483  1.00  0.00     0.093 N 
HETATM   24  H33 UNL     1      -0.732   4.955  11.174  1.00  0.00     0.316 HD
BRANCH  23  25
HETATM   25  C19 UNL     1       0.787   6.298  11.212  1.00  0.00     0.225 C 
HETATM   26  C20 UNL     1       1.730   5.084  11.143  1.00  0.00     0.062 C 
HETATM   27  C21 UNL     1       2.940   5.349  10.251  1.00  0.00     0.169 C 
HETATM   28  O4  UNL     1       3.267   6.733  10.254  1.00  0.00    -0.391 OA
HETATM   29  C22 UNL     1       2.273   7.528   9.604  1.00  0.00     0.169 C 
HETATM   30  C23 UNL     1       0.845   7.062   9.889  1.00  0.00     0.062 C 
ENDBRANCH  23  25
ENDBRANCH  12  23
BRANCH   4  31
HETATM   31  O3  UNL     1      -5.716   6.240  14.770  1.00  0.00    -0.390 OA
HETATM   32  H20 UNL     1      -6.548   6.680  14.521  1.00  0.00     0.210 HD
ENDBRANCH   4  31
TORSDOF 9
ENDMDL
MODEL 4
REMARK minimizedAffinity -7.06137466
REMARK  9 active torsions:
REMARK  status: ('A' for Active; 'I' for Inactive)
REMARK    1  A    between atoms: O1_2  and  C2_3 
REMARK    2  A    between atoms: C2_3  and  C3_4 
REMARK    3  A    between atoms: C3_4  and  N1_5 
REMARK       I    between atoms: N1_5  and  C4_6 
REMARK    4  A    between atoms: C4_6  and  C5_8 
REMARK    5  A    between atoms: C5_8  and  C6_9 
REMARK    6  A    between atoms: C6_9  and  C7_10 
REMARK    7  A    between atoms: C10_13  and  O3_15 
REMARK    8  A    between atoms: C18_22  and  N2_23 
REMARK    9  A    between atoms: N2_23  and  C19_24 
ROOT
HETATM    1  C7  UNL     1      -3.352   6.942  13.921  1.00  0.00    -0.005 C 
HETATM    2  C8  UNL     1      -2.964   7.320  15.387  1.00  0.00     0.015 C 
HETATM    3  C9  UNL     1      -1.488   7.603  15.636  1.00  0.00     0.038 C 
HETATM    4  C10 UNL     1      -0.877   8.549  14.605  1.00  0.00     0.054 C 
HETATM    5  C11 UNL     1       0.618   8.741  14.885  1.00  0.00     0.045 C 
HETATM    6  C12 UNL     1      -1.117   8.108  13.151  1.00  0.00     0.043 C 
HETATM    7  C13 UNL     1      -2.139   6.977  12.927  1.00  0.00     0.007 C 
HETATM    8  C14 UNL     1      -1.553   5.511  12.862  1.00  0.00    -0.041 C 
HETATM    9  C15 UNL     1      -1.706   4.962  11.422  1.00  0.00     0.015 C 
HETATM   10  C16 UNL     1      -0.070   5.319  13.221  1.00  0.00     0.015 C 
HETATM   11  C17 UNL     1      -2.425   4.706  13.850  1.00  0.00     0.045 C 
HETATM   12  C18 UNL     1      -3.788   5.415  13.900  1.00  0.00     0.230 C 
ENDROOT
BRANCH   1  13
HETATM   13  C6  UNL     1      -4.538   7.849  13.451  1.00  0.00     0.021 C 
BRANCH  13  14
HETATM   14  C5  UNL     1      -5.167   8.798  14.474  1.00  0.00     0.103 C 
BRANCH  14  15
HETATM   15  C4  UNL     1      -6.382   8.176  15.146  1.00  0.00     0.217 C 
HETATM   16  N1  UNL     1      -7.540   8.890  14.916  1.00  0.00    -0.359 N 
HETATM   17  H8  UNL     1      -7.459   9.810  14.503  1.00  0.00     0.162 HD
HETATM   18  O2  UNL     1      -6.344   7.147  15.807  1.00  0.00    -0.274 OA
BRANCH  16  19
HETATM   19  C3  UNL     1      -8.796   8.524  15.542  1.00  0.00     0.148 C 
BRANCH  19  20
HETATM   20  C2  UNL     1      -9.529   7.386  14.822  1.00  0.00     0.186 C 
BRANCH  20  21
HETATM   21  O1  UNL     1     -10.498   7.894  13.900  1.00  0.00    -0.394 OA
HETATM   22  C1  UNL     1     -11.697   7.131  13.881  1.00  0.00     0.201 C 
ENDBRANCH  20  21
ENDBRANCH  19  20
ENDBRANCH  16  19
ENDBRANCH  14  15
ENDBRANCH  13  14
ENDBRANCH   1  13
BRANCH  12  23
HETATM   23  N2  UNL     1      -4.629   5.034  12.754  1.00  0.00     0.093 N 
HETATM   24  H33 UNL     1      -4.908   5.870  12.239  1.00  0.00     0.316 HD
BRANCH  23  25
HETATM   25  C19 UNL     1      -5.859   4.300  13.100  1.00  0.00     0.225 C 
HETATM   26  C20 UNL     1      -7.117   5.182  13.037  1.00  0.00     0.062 C 
HETATM   27  C21 UNL     1      -8.372   4.368  12.730  1.00  0.00     0.169 C 
HETATM   28  O4  UNL     1      -8.238   3.041  13.223  1.00  0.00    -0.391 OA
HETATM   29  C22 UNL     1      -7.249   2.294  12.510  1.00  0.00     0.169 C 
HETATM   30  C23 UNL     1      -6.016   3.119  12.141  1.00  0.00     0.062 C 
ENDBRANCH  23  25
ENDBRANCH  12  23
BRANCH   4  31
HETATM   31  O3  UNL     1      -1.498   9.832  14.788  1.00  0.00    -0.390 OA
HETATM   32  H20 UNL     1      -1.000  10.477  14.255  1.00  0.00     0.210 HD
ENDBRANCH   4  31
TORSDOF 9
ENDMDL
MODEL 5
REMARK minimizedAffinity -6.94299698
REMARK  9 active torsions:
REMARK  status: ('A' for Active; 'I' for Inactive)
REMARK    1  A    between atoms: O1_2  and  C2_3 
REMARK    2  A    between atoms: C2_3  and  C3_4 
REMARK    3  A    between atoms: C3_4  and  N1_5 
REMARK       I    between atoms: N1_5  and  C4_6 
REMARK    4  A    between atoms: C4_6  and  C5_8 
REMARK    5  A    between atoms: C5_8  and  C6_9 
REMARK    6  A    between atoms: C6_9  and  C7_10 
REMARK    7  A    between atoms: C10_13  and  O3_15 
REMARK    8  A    between atoms: C18_22  and  N2_23 
REMARK    9  A    between atoms: N2_23  and  C19_24 
ROOT
HETATM    1  C7  UNL     1      -1.732   7.042  13.012  1.00  0.00    -0.005 C 
HETATM    2  C8  UNL     1      -1.615   8.336  12.144  1.00  0.00     0.015 C 
HETATM    3  C9  UNL     1      -1.619   9.655  12.907  1.00  0.00     0.038 C 
HETATM    4  C10 UNL     1      -0.666   9.660  14.098  1.00  0.00     0.054 C 
HETATM    5  C11 UNL     1      -0.765  10.994  14.849  1.00  0.00     0.045 C 
HETATM    6  C12 UNL     1      -0.870   8.472  15.053  1.00  0.00     0.043 C 
HETATM    7  C13 UNL     1      -1.775   7.328  14.555  1.00  0.00     0.007 C 
HETATM    8  C14 UNL     1      -3.298   7.415  14.966  1.00  0.00    -0.041 C 
HETATM    9  C15 UNL     1      -3.625   6.277  15.963  1.00  0.00     0.015 C 
HETATM   10  C16 UNL     1      -3.781   8.709  15.643  1.00  0.00     0.015 C 
HETATM   11  C17 UNL     1      -4.064   7.217  13.640  1.00  0.00     0.045 C 
HETATM   12  C18 UNL     1      -3.149   6.381  12.732  1.00  0.00     0.230 C 
ENDROOT
BRANCH   1  13
HETATM   13  C6  UNL     1      -0.585   6.051  12.619  1.00  0.00     0.021 C 
BRANCH  13  14
HETATM   14  C5  UNL     1      -0.290   5.848  11.131  1.00  0.00     0.103 C 
BRANCH  14  15
HETATM   15  C4  UNL     1       1.090   5.249  10.908  1.00  0.00     0.217 C 
HETATM   16  N1  UNL     1       2.027   6.193  10.541  1.00  0.00    -0.359 N 
HETATM   17  H8  UNL     1       1.699   7.116  10.285  1.00  0.00     0.162 HD
HETATM   18  O2  UNL     1       1.350   4.061  11.051  1.00  0.00    -0.274 OA
BRANCH  16  19
HETATM   19  C3  UNL     1       3.384   5.822  10.189  1.00  0.00     0.148 C 
BRANCH  19  20
HETATM   20  C2  UNL     1       4.450   6.521  11.039  1.00  0.00     0.186 C 
BRANCH  20  21
HETATM   21  O1  UNL     1       5.757   6.341  10.486  1.00  0.00    -0.394 OA
HETATM   22  C1  UNL     1       6.680   7.334  10.912  1.00  0.00     0.201 C 
ENDBRANCH  20  21
ENDBRANCH  19  20
ENDBRANCH  16  19
ENDBRANCH  14  15
ENDBRANCH  13  14
ENDBRANCH   1  13
BRANCH  12  23
HETATM   23  N2  UNL     1      -3.233   4.949  13.064  1.00  0.00     0.093 N 
HETATM   24  H33 UNL     1      -2.301   4.535  13.038  1.00  0.00     0.316 HD
BRANCH  23  25
HETATM   25  C19 UNL     1      -4.094   4.153  12.173  1.00  0.00     0.225 C 
HETATM   26  C20 UNL     1      -3.489   2.781  11.828  1.00  0.00     0.062 C 
HETATM   27  C21 UNL     1      -4.564   1.744  11.512  1.00  0.00     0.169 C 
HETATM   28  O4  UNL     1      -5.717   2.372  10.965  1.00  0.00    -0.391 OA
HETATM   29  C22 UNL     1      -6.399   3.186  11.923  1.00  0.00     0.169 C 
HETATM   30  C23 UNL     1      -5.453   3.955  12.846  1.00  0.00     0.062 C 
ENDBRANCH  23  25
ENDBRANCH  12  23
BRANCH   4  31
HETATM   31  O3  UNL     1       0.670   9.583  13.573  1.00  0.00    -0.390 OA
HETATM   32  H20 UNL     1       1.285   9.755  14.308  1.00  0.00     0.210 HD
ENDBRANCH   4  31
TORSDOF 9
ENDMDL
MODEL 6
REMARK minimizedAffinity -6.92199087
REMARK  9 active torsions:
REMARK  status: ('A' for Active; 'I' for Inactive)
REMARK    1  A    between atoms: O1_2  and  C2_3 
REMARK    2  A    between atoms: C2_3  and  C3_4 
REMARK    3  A    between atoms: C3_4  and  N1_5 
REMARK       I    between atoms: N1_5  and  C4_6 
REMARK    4  A    between atoms: C4_6  and  C5_8 
REMARK    5  A    between atoms: C5_8  and  C6_9 
REMARK    6  A    between atoms: C6_9  and  C7_10 
REMARK    7  A    between atoms: C10_13  and  O3_15 
REMARK    8  A    between atoms: C18_22  and  N2_23 
REMARK    9  A    between atoms: N2_23  and  C19_24 
ROOT
HETATM    1  C7  UNL     1      -4.849   5.679  13.811  1.00  0.00    -0.005 C 
HETATM    2  C8  UNL     1      -4.769   7.183  13.396  1.00  0.00     0.015 C 
HETATM    3  C9  UNL     1      -6.014   8.018  13.668  1.00  0.00     0.038 C 
HETATM    4  C10 UNL     1      -6.568   7.827  15.076  1.00  0.00     0.054 C 
HETATM    5  C11 UNL     1      -7.849   8.651  15.257  1.00  0.00     0.045 C 
HETATM    6  C12 UNL     1      -6.801   6.353  15.449  1.00  0.00     0.043 C 
HETATM    7  C13 UNL     1      -6.204   5.294  14.502  1.00  0.00     0.007 C 
HETATM    8  C14 UNL     1      -7.162   4.752  13.370  1.00  0.00    -0.041 C 
HETATM    9  C15 UNL     1      -7.501   3.267  13.653  1.00  0.00     0.015 C 
HETATM   10  C16 UNL     1      -8.516   5.456  13.184  1.00  0.00     0.015 C 
HETATM   11  C17 UNL     1      -6.336   4.885  12.073  1.00  0.00     0.045 C 
HETATM   12  C18 UNL     1      -4.859   4.798  12.490  1.00  0.00     0.230 C 
ENDROOT
BRANCH   1  13
HETATM   13  C6  UNL     1      -3.604   5.319  14.691  1.00  0.00     0.021 C 
BRANCH  13  14
HETATM   14  C5  UNL     1      -2.942   6.442  15.493  1.00  0.00     0.103 C 
BRANCH  14  15
HETATM   15  C4  UNL     1      -1.492   6.647  15.084  1.00  0.00     0.217 C 
HETATM   16  N1  UNL     1      -0.765   7.340  16.030  1.00  0.00    -0.359 N 
HETATM   17  H8  UNL     1      -1.270   7.788  16.784  1.00  0.00     0.162 HD
HETATM   18  O2  UNL     1      -1.012   6.232  14.036  1.00  0.00    -0.274 OA
BRANCH  16  19
HETATM   19  C3  UNL     1       0.614   7.725  15.799  1.00  0.00     0.148 C 
BRANCH  19  20
HETATM   20  C2  UNL     1       0.793   9.222  15.525  1.00  0.00     0.186 C 
BRANCH  20  21
HETATM   21  O1  UNL     1       0.212   9.595  14.271  1.00  0.00    -0.394 OA
HETATM   22  C1  UNL     1      -0.891  10.478  14.413  1.00  0.00     0.201 C 
ENDBRANCH  20  21
ENDBRANCH  19  20
ENDBRANCH  16  19
ENDBRANCH  14  15
ENDBRANCH  13  14
ENDBRANCH   1  13
BRANCH  12  23
HETATM   23  N2  UNL     1      -4.441   3.400  12.682  1.00  0.00     0.093 N 
HETATM   24  H33 UNL     1      -4.588   3.128  13.655  1.00  0.00     0.316 HD
BRANCH  23  25
HETATM   25  C19 UNL     1      -3.033   3.119  12.354  1.00  0.00     0.225 C 
HETATM   26  C20 UNL     1      -2.841   1.757  11.666  1.00  0.00     0.062 C 
HETATM   27  C21 UNL     1      -1.611   1.740  10.761  1.00  0.00     0.169 C 
HETATM   28  O4  UNL     1      -0.623   2.640  11.247  1.00  0.00    -0.391 OA
HETATM   29  C22 UNL     1      -1.027   4.006  11.130  1.00  0.00     0.169 C 
HETATM   30  C23 UNL     1      -2.507   4.228  11.442  1.00  0.00     0.062 C 
ENDBRANCH  23  25
ENDBRANCH  12  23
BRANCH   4  31
HETATM   31  O3  UNL     1      -5.599   8.368  15.990  1.00  0.00    -0.390 OA
HETATM   32  H20 UNL     1      -6.013   8.404  16.870  1.00  0.00     0.210 HD
ENDBRANCH   4  31
TORSDOF 9
ENDMDL
MODEL 7
REMARK minimizedAffinity -6.87297106
REMARK  9 active torsions:
REMARK  status: ('A' for Active; 'I' for Inactive)
REMARK    1  A    between atoms: O1_2  and  C2_3 
REMARK    2  A    between atoms: C2_3  and  C3_4 
REMARK    3  A    between atoms: C3_4  and  N1_5 
REMARK       I    between atoms: N1_5  and  C4_6 
REMARK    4  A    between atoms: C4_6  and  C5_8 
REMARK    5  A    between atoms: C5_8  and  C6_9 
REMARK    6  A    between atoms: C6_9  and  C7_10 
REMARK    7  A    between atoms: C10_13  and  O3_15 
REMARK    8  A    between atoms: C18_22  and  N2_23 
REMARK    9  A    between atoms: N2_23  and  C19_24 
ROOT
HETATM    1  C7  UNL     1      -0.970   6.853  13.674  1.00  0.00    -0.005 C 
HETATM    2  C8  UNL     1      -2.100   7.921  13.513  1.00  0.00     0.015 C 
HETATM    3  C9  UNL     1      -3.515   7.377  13.355  1.00  0.00     0.038 C 
HETATM    4  C10 UNL     1      -3.863   6.305  14.383  1.00  0.00     0.054 C 
HETATM    5  C11 UNL     1      -5.276   5.766  14.126  1.00  0.00     0.045 C 
HETATM    6  C12 UNL     1      -2.837   5.161  14.447  1.00  0.00     0.043 C 
HETATM    7  C13 UNL     1      -1.505   5.379  13.704  1.00  0.00     0.007 C 
HETATM    8  C14 UNL     1      -1.436   4.833  12.223  1.00  0.00    -0.041 C 
HETATM    9  C15 UNL     1      -0.448   3.642  12.163  1.00  0.00     0.015 C 
HETATM   10  C16 UNL     1      -2.740   4.320  11.590  1.00  0.00     0.015 C 
HETATM   11  C17 UNL     1      -0.904   6.026  11.400  1.00  0.00     0.045 C 
HETATM   12  C18 UNL     1      -0.069   6.881  12.367  1.00  0.00     0.230 C 
ENDROOT
BRANCH   1  13
HETATM   13  C6  UNL     1      -0.106   7.203  14.933  1.00  0.00     0.021 C 
BRANCH  13  14
HETATM   14  C5  UNL     1       0.229   8.674  15.189  1.00  0.00     0.103 C 
BRANCH  14  15
HETATM   15  C4  UNL     1       1.317   8.828  16.241  1.00  0.00     0.217 C 
HETATM   16  N1  UNL     1       1.490  10.138  16.638  1.00  0.00    -0.359 N 
HETATM   17  H8  UNL     1       1.038  10.865  16.097  1.00  0.00     0.162 HD
HETATM   18  O2  UNL     1       1.962   7.894  16.699  1.00  0.00    -0.274 OA
BRANCH  16  19
HETATM   19  C3  UNL     1       2.539  10.521  17.564  1.00  0.00     0.148 C 
BRANCH  19  20
HETATM   20  C2  UNL     1       2.059  10.644  19.014  1.00  0.00     0.186 C 
BRANCH  20  21
HETATM   21  O1  UNL     1       2.600   9.600  19.830  1.00  0.00    -0.394 OA
HETATM   22  C1  UNL     1       2.724   9.973  21.196  1.00  0.00     0.201 C 
ENDBRANCH  20  21
ENDBRANCH  19  20
ENDBRANCH  16  19
ENDBRANCH  14  15
ENDBRANCH  13  14
ENDBRANCH   1  13
BRANCH  12  23
HETATM   23  N2  UNL     1       1.281   6.323  12.541  1.00  0.00     0.093 N 
HETATM   24  H33 UNL     1       1.697   6.689  13.398  1.00  0.00     0.316 HD
BRANCH  23  25
HETATM   25  C19 UNL     1       2.219   6.605  11.441  1.00  0.00     0.225 C 
HETATM   26  C20 UNL     1       3.575   7.136  11.935  1.00  0.00     0.062 C 
HETATM   27  C21 UNL     1       4.708   6.804  10.967  1.00  0.00     0.169 C 
HETATM   28  O4  UNL     1       4.216   6.718   9.635  1.00  0.00    -0.391 OA
HETATM   29  C22 UNL     1       3.357   5.591   9.445  1.00  0.00     0.169 C 
HETATM   30  C23 UNL     1       2.438   5.323  10.636  1.00  0.00     0.062 C 
ENDBRANCH  23  25
ENDBRANCH  12  23
BRANCH   4  31
HETATM   31  O3  UNL     1      -3.895   6.946  15.669  1.00  0.00    -0.390 OA
HETATM   32  H20 UNL     1      -4.278   6.313  16.302  1.00  0.00     0.210 HD
ENDBRANCH   4  31
TORSDOF 9
ENDMDL
MODEL 8
REMARK minimizedAffinity -6.74850988
REMARK  9 active torsions:
REMARK  status: ('A' for Active; 'I' for Inactive)
REMARK    1  A    between atoms: O1_2  and  C2_3 
REMARK    2  A    between atoms: C2_3  and  C3_4 
REMARK    3  A    between atoms: C3_4  and  N1_5 
REMARK       I    between atoms: N1_5  and  C4_6 
REMARK    4  A    between atoms: C4_6  and  C5_8 
REMARK    5  A    between atoms: C5_8  and  C6_9 
REMARK    6  A    between atoms: C6_9  and  C7_10 
REMARK    7  A    between atoms: C10_13  and  O3_15 
REMARK    8  A    between atoms: C18_22  and  N2_23 
REMARK    9  A    between atoms: N2_23  and  C19_24 
ROOT
HETATM    1  C7  UNL     1      -0.506   6.889  14.070  1.00  0.00    -0.005 C 
HETATM    2  C8  UNL     1      -1.506   8.085  14.171  1.00  0.00     0.015 C 
HETATM    3  C9  UNL     1      -2.985   7.721  14.182  1.00  0.00     0.038 C 
HETATM    4  C10 UNL     1      -3.318   6.595  15.156  1.00  0.00     0.054 C 
HETATM    5  C11 UNL     1      -4.809   6.245  15.070  1.00  0.00     0.045 C 
HETATM    6  C12 UNL     1      -2.444   5.343  14.969  1.00  0.00     0.043 C 
HETATM    7  C13 UNL     1      -1.211   5.487  14.055  1.00  0.00     0.007 C 
HETATM    8  C14 UNL     1      -1.417   5.091  12.540  1.00  0.00    -0.041 C 
HETATM    9  C15 UNL     1      -0.603   3.810  12.231  1.00  0.00     0.015 C 
HETATM   10  C16 UNL     1      -2.850   4.792  12.069  1.00  0.00     0.015 C 
HETATM   11  C17 UNL     1      -0.861   6.295  11.750  1.00  0.00     0.045 C 
HETATM   12  C18 UNL     1       0.200   6.949  12.649  1.00  0.00     0.230 C 
ENDROOT
BRANCH   1  13
HETATM   13  C6  UNL     1       0.562   7.010  15.210  1.00  0.00     0.021 C 
BRANCH  13  14
HETATM   14  C5  UNL     1       0.565   8.283  16.059  1.00  0.00     0.103 C 
BRANCH  14  15
HETATM   15  C4  UNL     1       1.977   8.789  16.310  1.00  0.00     0.217 C 
HETATM   16  N1  UNL     1       2.743   8.816  15.163  1.00  0.00    -0.359 N 
HETATM   17  H8  UNL     1       2.385   8.352  14.339  1.00  0.00     0.162 HD
HETATM   18  O2  UNL     1       2.390   9.147  17.406  1.00  0.00    -0.274 OA
BRANCH  16  19
HETATM   19  C3  UNL     1       4.148   9.177  15.195  1.00  0.00     0.148 C 
BRANCH  19  20
HETATM   20  C2  UNL     1       5.091   7.969  15.144  1.00  0.00     0.186 C 
BRANCH  20  21
HETATM   21  O1  UNL     1       6.281   8.207  15.901  1.00  0.00    -0.394 OA
HETATM   22  C1  UNL     1       6.755   9.542  15.782  1.00  0.00     0.201 C 
ENDBRANCH  20  21
ENDBRANCH  19  20
ENDBRANCH  16  19
ENDBRANCH  14  15
ENDBRANCH  13  14
ENDBRANCH   1  13
BRANCH  12  23
HETATM   23  N2  UNL     1       1.482   6.230  12.571  1.00  0.00     0.093 N 
HETATM   24  H33 UNL     1       2.036   6.422  13.406  1.00  0.00     0.316 HD
BRANCH  23  25
HETATM   25  C19 UNL     1       2.315   6.566  11.403  1.00  0.00     0.225 C 
HETATM   26  C20 UNL     1       3.707   7.090  11.794  1.00  0.00     0.062 C 
HETATM   27  C21 UNL     1       4.750   6.808  10.715  1.00  0.00     0.169 C 
HETATM   28  O4  UNL     1       4.140   6.772   9.431  1.00  0.00    -0.391 OA
HETATM   29  C22 UNL     1       3.274   5.645   9.272  1.00  0.00     0.169 C 
HETATM   30  C23 UNL     1       2.467   5.320  10.530  1.00  0.00     0.062 C 
ENDBRANCH  23  25
ENDBRANCH  12  23
BRANCH   4  31
HETATM   31  O3  UNL     1      -3.091   7.101  16.482  1.00  0.00    -0.390 OA
HETATM   32  H20 UNL     1      -3.457   6.454  17.110  1.00  0.00     0.210 HD
ENDBRANCH   4  31
TORSDOF 9
ENDMDL
MODEL 9
REMARK minimizedAffinity -6.67904854
REMARK  9 active torsions:
REMARK  status: ('A' for Active; 'I' for Inactive)
REMARK    1  A    between atoms: O1_2  and  C2_3 
REMARK    2  A    between atoms: C2_3  and  C3_4 
REMARK    3  A    between atoms: C3_4  and  N1_5 
REMARK       I    between atoms: N1_5  and  C4_6 
REMARK    4  A    between atoms: C4_6  and  C5_8 
REMARK    5  A    between atoms: C5_8  and  C6_9 
REMARK    6  A    between atoms: C6_9  and  C7_10 
REMARK    7  A    between atoms: C10_13  and  O3_15 
REMARK    8  A    between atoms: C18_22  and  N2_23 
REMARK    9  A    between atoms: N2_23  and  C19_24 
ROOT
HETATM    1  C7  UNL     1      -1.727   6.552  13.364  1.00  0.00    -0.005 C 
HETATM    2  C8  UNL     1      -2.077   5.464  14.429  1.00  0.00     0.015 C 
HETATM    3  C9  UNL     1      -3.266   5.770  15.332  1.00  0.00     0.038 C 
HETATM    4  C10 UNL     1      -4.493   6.253  14.563  1.00  0.00     0.054 C 
HETATM    5  C11 UNL     1      -5.626   6.596  15.537  1.00  0.00     0.045 C 
HETATM    6  C12 UNL     1      -4.200   7.431  13.618  1.00  0.00     0.043 C 
HETATM    7  C13 UNL     1      -2.717   7.769  13.368  1.00  0.00     0.007 C 
HETATM    8  C14 UNL     1      -2.086   8.873  14.305  1.00  0.00    -0.041 C 
HETATM    9  C15 UNL     1      -1.773  10.138  13.468  1.00  0.00     0.015 C 
HETATM   10  C16 UNL     1      -2.928   9.364  15.495  1.00  0.00     0.015 C 
HETATM   11  C17 UNL     1      -0.785   8.231  14.831  1.00  0.00     0.045 C 
HETATM   12  C18 UNL     1      -0.342   7.216  13.765  1.00  0.00     0.230 C 
ENDROOT
BRANCH   1  13
HETATM   13  C6  UNL     1      -1.615   5.877  11.955  1.00  0.00     0.021 C 
BRANCH  13  14
HETATM   14  C5  UNL     1      -1.178   4.411  11.893  1.00  0.00     0.103 C 
BRANCH  14  15
HETATM   15  C4  UNL     1      -2.209   3.546  11.187  1.00  0.00     0.217 C 
HETATM   16  N1  UNL     1      -3.277   3.222  11.998  1.00  0.00    -0.359 N 
HETATM   17  H8  UNL     1      -3.200   3.419  12.988  1.00  0.00     0.162 HD
HETATM   18  O2  UNL     1      -2.115   3.184  10.021  1.00  0.00    -0.274 OA
BRANCH  16  19
HETATM   19  C3  UNL     1      -4.328   2.327  11.553  1.00  0.00     0.148 C 
BRANCH  19  20
HETATM   20  C2  UNL     1      -5.509   3.050  10.896  1.00  0.00     0.186 C 
BRANCH  20  21
HETATM   21  O1  UNL     1      -6.355   3.660  11.875  1.00  0.00    -0.394 OA
HETATM   22  C1  UNL     1      -7.146   2.718  12.587  1.00  0.00     0.201 C 
ENDBRANCH  20  21
ENDBRANCH  19  20
ENDBRANCH  16  19
ENDBRANCH  14  15
ENDBRANCH  13  14
ENDBRANCH   1  13
BRANCH  12  23
HETATM   23  N2  UNL     1       0.363   7.880  12.657  1.00  0.00     0.093 N 
HETATM   24  H33 UNL     1      -0.228   8.612  12.264  1.00  0.00     0.316 HD
BRANCH  23  25
HETATM   25  C19 UNL     1       0.760   6.992  11.551  1.00  0.00     0.225 C 
HETATM   26  C20 UNL     1       0.748   7.700  10.185  1.00  0.00     0.062 C 
HETATM   27  C21 UNL     1       1.737   7.072   9.206  1.00  0.00     0.169 C 
HETATM   28  O4  UNL     1       1.912   5.690   9.491  1.00  0.00    -0.391 OA
HETATM   29  C22 UNL     1       2.585   5.472  10.734  1.00  0.00     0.169 C 
HETATM   30  C23 UNL     1       2.163   6.450  11.830  1.00  0.00     0.062 C 
ENDBRANCH  23  25
ENDBRANCH  12  23
BRANCH   4  31
HETATM   31  O3  UNL     1      -4.955   5.150  13.767  1.00  0.00    -0.390 OA
HETATM   32  H20 UNL     1      -5.826   5.392  13.406  1.00  0.00     0.210 HD
ENDBRANCH   4  31
TORSDOF 9
ENDMDL
