MODEL 1
REMARK minimizedAffinity -7.25588894
REMARK CNNscore 0.4294523
REMARK CNNaffinity 5.76947451
REMARK  6 active torsions:
REMARK  status: ('A' for Active; 'I' for Inactive)
REMARK    1  A    between atoms: C2_2  and  C30_31 
REMARK    2  A    between atoms: C3_3  and  C4_4 
REMARK    3  A    between atoms: C4_4  and  C5_5 
REMARK    4  A    between atoms: C5_5  and  C6_6 
REMARK    5  A    between atoms: C6_6  and  C8_8 
REMARK    6  A    between atoms: C30_31  and  O3_33 
ROOT
HETATM    1  C8  UNL     1     -13.800  45.841 -25.891  1.00  0.00    -0.002 C 
HETATM    2  C9  UNL     1     -13.324  44.389 -25.619  1.00  0.00     0.007 C 
HETATM    3  C10 UNL     1     -12.176  44.097 -26.616  1.00  0.00     0.015 C 
HETATM    4  C11 UNL     1     -12.194  45.282 -27.608  1.00  0.00    -0.013 C 
HETATM    5  C12 UNL     1     -13.263  44.923 -28.692  1.00  0.00     0.021 C 
HETATM    6  C13 UNL     1     -10.922  45.616 -28.378  1.00  0.00    -0.070 C 
HETATM    7  C14 UNL     1     -10.059  44.664 -28.781  1.00  0.00    -0.022 C 
HETATM    8  C15 UNL     1      -8.868  44.915 -29.657  1.00  0.00     0.034 C 
HETATM    9  C16 UNL     1      -8.539  46.409 -29.871  1.00  0.00     0.013 C 
HETATM   10  C17 UNL     1      -7.373  46.702 -30.893  1.00  0.00     0.018 C 
HETATM   11  C18 UNL     1      -6.135  47.212 -30.121  1.00  0.00     0.023 C 
HETATM   12  C19 UNL     1      -6.931  45.457 -31.693  1.00  0.00     0.023 C 
HETATM   13  C20 UNL     1      -7.725  47.806 -31.902  1.00  0.00     0.135 C 
HETATM   14  O1  UNL     1      -7.285  47.795 -33.056  1.00  0.00    -0.297 OA
HETATM   15  C21 UNL     1      -8.542  48.991 -31.449  1.00  0.00     0.080 C 
HETATM   16  C22 UNL     1      -9.415  48.726 -30.234  1.00  0.00     0.017 C 
HETATM   17  C23 UNL     1      -9.848  47.251 -30.073  1.00  0.00    -0.031 C 
HETATM   18  C24 UNL     1     -10.657  46.793 -31.311  1.00  0.00     0.016 C 
HETATM   19  C25 UNL     1     -10.708  47.088 -28.754  1.00  0.00     0.024 C 
HETATM   20  C26 UNL     1     -12.017  47.916 -28.726  1.00  0.00     0.010 C 
HETATM   21  C27 UNL     1     -12.918  47.715 -27.482  1.00  0.00     0.011 C 
HETATM   22  C28 UNL     1     -12.585  46.461 -26.653  1.00  0.00    -0.029 C 
HETATM   23  C29 UNL     1     -11.474  46.825 -25.618  1.00  0.00     0.016 C 
ENDROOT
BRANCH   1  24
HETATM   24  C6  UNL     1     -14.384  46.655 -24.698  1.00  0.00    -0.014 C 
HETATM   25  C7  UNL     1     -14.028  46.146 -23.298  1.00  0.00     0.010 C 
BRANCH  24  26
HETATM   26  C5  UNL     1     -15.916  46.881 -24.845  1.00  0.00     0.008 C 
BRANCH  26  27
HETATM   27  C4  UNL     1     -16.812  46.509 -23.653  1.00  0.00     0.028 C 
BRANCH  27  28
HETATM   28  C3  UNL     1     -17.462  45.160 -23.796  1.00  0.00    -0.013 C 
HETATM   29  C2  UNL     1     -18.487  44.802 -24.594  1.00  0.00     0.008 C 
HETATM   30  C1  UNL     1     -18.999  43.392 -24.644  1.00  0.00     0.055 C 
BRANCH  29  31
HETATM   31  C30 UNL     1     -19.191  45.782 -25.452  1.00  0.00     0.171 C 
HETATM   32  O2  UNL     1     -19.946  46.666 -25.096  1.00  0.00    -0.646 OA
BRANCH  31  33
HETATM   33  O3  UNL     1     -18.904  45.584 -26.751  1.00  0.00    -0.773 OA
HETATM   34  H46 UNL     1     -19.416  46.283 -27.209  1.00  0.00     0.167 HD
ENDBRANCH  31  33
ENDBRANCH  29  31
ENDBRANCH  27  28
ENDBRANCH  26  27
ENDBRANCH  24  26
ENDBRANCH   1  24
TORSDOF 6
ENDMDL
MODEL 2
REMARK minimizedAffinity -7.34031916
REMARK CNNscore 0.420853943
REMARK CNNaffinity 6.71087503
REMARK  6 active torsions:
REMARK  status: ('A' for Active; 'I' for Inactive)
REMARK    1  A    between atoms: C2_2  and  C30_31 
REMARK    2  A    between atoms: C3_3  and  C4_4 
REMARK    3  A    between atoms: C4_4  and  C5_5 
REMARK    4  A    between atoms: C5_5  and  C6_6 
REMARK    5  A    between atoms: C6_6  and  C8_8 
REMARK    6  A    between atoms: C30_31  and  O3_33 
ROOT
HETATM    1  C8  UNL     1      -2.107  53.151 -10.390  1.00  0.00    -0.002 C 
HETATM    2  C9  UNL     1      -2.384  54.678 -10.427  1.00  0.00     0.007 C 
HETATM    3  C10 UNL     1      -1.130  55.376  -9.846  1.00  0.00     0.015 C 
HETATM    4  C11 UNL     1      -0.275  54.237  -9.248  1.00  0.00    -0.013 C 
HETATM    5  C12 UNL     1      -0.834  53.985  -7.809  1.00  0.00     0.021 C 
HETATM    6  C13 UNL     1       1.224  54.454  -9.077  1.00  0.00    -0.070 C 
HETATM    7  C14 UNL     1       1.741  55.657  -8.765  1.00  0.00    -0.022 C 
HETATM    8  C15 UNL     1       3.186  55.904  -8.449  1.00  0.00     0.034 C 
HETATM    9  C16 UNL     1       4.116  54.709  -8.752  1.00  0.00     0.013 C 
HETATM   10  C17 UNL     1       5.619  54.894  -8.306  1.00  0.00     0.018 C 
HETATM   11  C18 UNL     1       6.505  55.063  -9.560  1.00  0.00     0.023 C 
HETATM   12  C19 UNL     1       5.845  56.136  -7.416  1.00  0.00     0.023 C 
HETATM   13  C20 UNL     1       6.175  53.674  -7.557  1.00  0.00     0.135 C 
HETATM   14  O1  UNL     1       7.020  53.790  -6.663  1.00  0.00    -0.297 OA
HETATM   15  C21 UNL     1       5.763  52.288  -7.989  1.00  0.00     0.080 C 
HETATM   16  C22 UNL     1       4.432  52.225  -8.718  1.00  0.00     0.017 C 
HETATM   17  C23 UNL     1       3.446  53.352  -8.335  1.00  0.00    -0.031 C 
HETATM   18  C24 UNL     1       3.129  53.293  -6.821  1.00  0.00     0.016 C 
HETATM   19  C25 UNL     1       2.120  53.214  -9.188  1.00  0.00     0.024 C 
HETATM   20  C26 UNL     1       1.346  51.887  -8.976  1.00  0.00     0.010 C 
HETATM   21  C27 UNL     1       0.005  51.758  -9.738  1.00  0.00     0.011 C 
HETATM   22  C28 UNL     1      -0.550  53.090 -10.279  1.00  0.00    -0.029 C 
HETATM   23  C29 UNL     1       0.066  53.352 -11.690  1.00  0.00     0.016 C 
ENDROOT
BRANCH   1  24
HETATM   24  C6  UNL     1      -2.781  52.260 -11.476  1.00  0.00    -0.014 C 
HETATM   25  C7  UNL     1      -3.863  52.933 -12.323  1.00  0.00     0.010 C 
BRANCH  24  26
HETATM   26  C5  UNL     1      -3.282  50.910 -10.888  1.00  0.00     0.008 C 
BRANCH  26  27
HETATM   27  C4  UNL     1      -4.775  50.789 -10.545  1.00  0.00     0.028 C 
BRANCH  27  28
HETATM   28  C3  UNL     1      -5.099  49.574  -9.718  1.00  0.00    -0.013 C 
HETATM   29  C2  UNL     1      -6.278  48.933  -9.594  1.00  0.00     0.008 C 
HETATM   30  C1  UNL     1      -6.427  47.702  -8.748  1.00  0.00     0.055 C 
BRANCH  29  31
HETATM   31  C30 UNL     1      -7.507  49.417 -10.264  1.00  0.00     0.171 C 
HETATM   32  O2  UNL     1      -7.983  49.018 -11.310  1.00  0.00    -0.646 OA
BRANCH  31  33
HETATM   33  O3  UNL     1      -8.082  50.411  -9.565  1.00  0.00    -0.773 OA
HETATM   34  H46 UNL     1      -8.873  50.638 -10.097  1.00  0.00     0.167 HD
ENDBRANCH  31  33
ENDBRANCH  29  31
ENDBRANCH  27  28
ENDBRANCH  26  27
ENDBRANCH  24  26
ENDBRANCH   1  24
TORSDOF 6
ENDMDL
MODEL 3
REMARK minimizedAffinity -7.38045025
REMARK CNNscore 0.359725803
REMARK CNNaffinity 6.79730034
REMARK  6 active torsions:
REMARK  status: ('A' for Active; 'I' for Inactive)
REMARK    1  A    between atoms: C2_2  and  C30_31 
REMARK    2  A    between atoms: C3_3  and  C4_4 
REMARK    3  A    between atoms: C4_4  and  C5_5 
REMARK    4  A    between atoms: C5_5  and  C6_6 
REMARK    5  A    between atoms: C6_6  and  C8_8 
REMARK    6  A    between atoms: C30_31  and  O3_33 
ROOT
HETATM    1  C8  UNL     1      -1.766  52.532 -10.804  1.00  0.00    -0.002 C 
HETATM    2  C9  UNL     1      -2.566  52.138  -9.533  1.00  0.00     0.007 C 
HETATM    3  C10 UNL     1      -1.748  52.631  -8.315  1.00  0.00     0.015 C 
HETATM    4  C11 UNL     1      -0.381  53.059  -8.895  1.00  0.00    -0.013 C 
HETATM    5  C12 UNL     1       0.481  51.756  -8.979  1.00  0.00     0.021 C 
HETATM    6  C13 UNL     1       0.465  54.063  -8.120  1.00  0.00    -0.070 C 
HETATM    7  C14 UNL     1       0.482  54.097  -6.775  1.00  0.00    -0.022 C 
HETATM    8  C15 UNL     1       1.394  54.964  -5.959  1.00  0.00     0.034 C 
HETATM    9  C16 UNL     1       2.160  56.027  -6.776  1.00  0.00     0.013 C 
HETATM   10  C17 UNL     1       3.223  56.865  -5.964  1.00  0.00     0.018 C 
HETATM   11  C18 UNL     1       2.709  58.311  -5.793  1.00  0.00     0.023 C 
HETATM   12  C19 UNL     1       3.493  56.305  -4.550  1.00  0.00     0.023 C 
HETATM   13  C20 UNL     1       4.574  56.979  -6.688  1.00  0.00     0.135 C 
HETATM   14  O1  UNL     1       5.639  57.042  -6.067  1.00  0.00    -0.297 OA
HETATM   15  C21 UNL     1       4.599  57.127  -8.189  1.00  0.00     0.080 C 
HETATM   16  C22 UNL     1       3.370  56.583  -8.897  1.00  0.00     0.017 C 
HETATM   17  C23 UNL     1       2.660  55.436  -8.142  1.00  0.00    -0.031 C 
HETATM   18  C24 UNL     1       3.628  54.244  -7.948  1.00  0.00     0.016 C 
HETATM   19  C25 UNL     1       1.373  54.985  -8.945  1.00  0.00     0.024 C 
HETATM   20  C26 UNL     1       1.654  54.440 -10.369  1.00  0.00     0.010 C 
HETATM   21  C27 UNL     1       0.423  53.918 -11.148  1.00  0.00     0.011 C 
HETATM   22  C28 UNL     1      -0.819  53.658 -10.274  1.00  0.00    -0.029 C 
HETATM   23  C29 UNL     1      -1.633  54.985 -10.153  1.00  0.00     0.016 C 
ENDROOT
BRANCH   1  24
HETATM   24  C6  UNL     1      -2.564  52.827 -12.108  1.00  0.00    -0.014 C 
HETATM   25  C7  UNL     1      -4.070  53.046 -11.941  1.00  0.00     0.010 C 
BRANCH  24  26
HETATM   26  C5  UNL     1      -2.265  51.781 -13.220  1.00  0.00     0.008 C 
BRANCH  26  27
HETATM   27  C4  UNL     1      -0.800  51.587 -13.643  1.00  0.00     0.028 C 
BRANCH  27  28
HETATM   28  C3  UNL     1      -0.651  51.050 -15.041  1.00  0.00    -0.013 C 
HETATM   29  C2  UNL     1       0.376  51.213 -15.898  1.00  0.00     0.008 C 
HETATM   30  C1  UNL     1       0.385  50.575 -17.257  1.00  0.00     0.055 C 
BRANCH  29  31
HETATM   31  C30 UNL     1       1.549  52.053 -15.564  1.00  0.00     0.171 C 
HETATM   32  O2  UNL     1       2.490  51.757 -14.852  1.00  0.00    -0.646 OA
BRANCH  31  33
HETATM   33  O3  UNL     1       1.468  53.258 -16.155  1.00  0.00    -0.773 OA
HETATM   34  H46 UNL     1       2.288  53.711 -15.867  1.00  0.00     0.167 HD
ENDBRANCH  31  33
ENDBRANCH  29  31
ENDBRANCH  27  28
ENDBRANCH  26  27
ENDBRANCH  24  26
ENDBRANCH   1  24
TORSDOF 6
ENDMDL
MODEL 4
REMARK minimizedAffinity -8.67502594
REMARK CNNscore 0.298790276
REMARK CNNaffinity 6.57062292
REMARK  6 active torsions:
REMARK  status: ('A' for Active; 'I' for Inactive)
REMARK    1  A    between atoms: C2_2  and  C30_31 
REMARK    2  A    between atoms: C3_3  and  C4_4 
REMARK    3  A    between atoms: C4_4  and  C5_5 
REMARK    4  A    between atoms: C5_5  and  C6_6 
REMARK    5  A    between atoms: C6_6  and  C8_8 
REMARK    6  A    between atoms: C30_31  and  O3_33 
ROOT
HETATM    1  C8  UNL     1      -4.706  47.808 -20.787  1.00  0.00    -0.002 C 
HETATM    2  C9  UNL     1      -5.364  47.071 -21.984  1.00  0.00     0.007 C 
HETATM    3  C10 UNL     1      -4.859  47.763 -23.273  1.00  0.00     0.015 C 
HETATM    4  C11 UNL     1      -4.137  49.040 -22.787  1.00  0.00    -0.013 C 
HETATM    5  C12 UNL     1      -5.249  50.125 -22.608  1.00  0.00     0.021 C 
HETATM    6  C13 UNL     1      -3.082  49.675 -23.685  1.00  0.00    -0.070 C 
HETATM    7  C14 UNL     1      -3.182  49.661 -25.027  1.00  0.00    -0.022 C 
HETATM    8  C15 UNL     1      -2.253  50.385 -25.956  1.00  0.00     0.034 C 
HETATM    9  C16 UNL     1      -0.993  50.960 -25.273  1.00  0.00     0.013 C 
HETATM   10  C17 UNL     1      -0.065  51.838 -26.200  1.00  0.00     0.018 C 
HETATM   11  C18 UNL     1       1.241  51.066 -26.492  1.00  0.00     0.023 C 
HETATM   12  C19 UNL     1      -0.708  52.180 -27.562  1.00  0.00     0.023 C 
HETATM   13  C20 UNL     1       0.362  53.158 -25.540  1.00  0.00     0.135 C 
HETATM   14  O1  UNL     1       0.551  54.184 -26.203  1.00  0.00    -0.297 OA
HETATM   15  C21 UNL     1       0.664  53.184 -24.062  1.00  0.00     0.080 C 
HETATM   16  C22 UNL     1      -0.017  52.087 -23.261  1.00  0.00     0.017 C 
HETATM   17  C23 UNL     1      -1.343  51.584 -23.876  1.00  0.00    -0.031 C 
HETATM   18  C24 UNL     1      -2.356  52.748 -23.988  1.00  0.00     0.016 C 
HETATM   19  C25 UNL     1      -1.933  50.415 -22.986  1.00  0.00     0.024 C 
HETATM   20  C26 UNL     1      -2.271  50.816 -21.528  1.00  0.00     0.010 C 
HETATM   21  C27 UNL     1      -2.924  49.714 -20.657  1.00  0.00     0.011 C 
HETATM   22  C28 UNL     1      -3.489  48.525 -21.457  1.00  0.00    -0.029 C 
HETATM   23  C29 UNL     1      -2.349  47.482 -21.676  1.00  0.00     0.016 C 
ENDROOT
BRANCH   1  24
HETATM   24  C6  UNL     1      -4.428  46.993 -19.489  1.00  0.00    -0.014 C 
HETATM   25  C7  UNL     1      -3.683  47.734 -18.376  1.00  0.00     0.010 C 
BRANCH  24  26
HETATM   26  C5  UNL     1      -3.765  45.621 -19.798  1.00  0.00     0.008 C 
BRANCH  26  27
HETATM   27  C4  UNL     1      -4.584  44.351 -19.517  1.00  0.00     0.028 C 
BRANCH  27  28
HETATM   28  C3  UNL     1      -4.400  43.820 -18.122  1.00  0.00    -0.013 C 
HETATM   29  C2  UNL     1      -3.798  42.680 -17.730  1.00  0.00     0.008 C 
HETATM   30  C1  UNL     1      -3.665  42.309 -16.281  1.00  0.00     0.055 C 
BRANCH  29  31
HETATM   31  C30 UNL     1      -3.252  41.707 -18.704  1.00  0.00     0.171 C 
HETATM   32  O2  UNL     1      -2.083  41.426 -18.889  1.00  0.00    -0.646 OA
BRANCH  31  33
HETATM   33  O3  UNL     1      -4.234  41.132 -19.420  1.00  0.00    -0.773 OA
HETATM   34  H46 UNL     1      -3.756  40.518 -20.015  1.00  0.00     0.167 HD
ENDBRANCH  31  33
ENDBRANCH  29  31
ENDBRANCH  27  28
ENDBRANCH  26  27
ENDBRANCH  24  26
ENDBRANCH   1  24
TORSDOF 6
ENDMDL
MODEL 5
REMARK minimizedAffinity -7.55233908
REMARK CNNscore 0.282457232
REMARK CNNaffinity 5.70296717
REMARK  6 active torsions:
REMARK  status: ('A' for Active; 'I' for Inactive)
REMARK    1  A    between atoms: C2_2  and  C30_31 
REMARK    2  A    between atoms: C3_3  and  C4_4 
REMARK    3  A    between atoms: C4_4  and  C5_5 
REMARK    4  A    between atoms: C5_5  and  C6_6 
REMARK    5  A    between atoms: C6_6  and  C8_8 
REMARK    6  A    between atoms: C30_31  and  O3_33 
ROOT
HETATM    1  C8  UNL     1      -7.318  47.818 -30.638  1.00  0.00    -0.002 C 
HETATM    2  C9  UNL     1      -8.063  49.155 -30.898  1.00  0.00     0.007 C 
HETATM    3  C10 UNL     1      -9.513  48.968 -30.392  1.00  0.00     0.015 C 
HETATM    4  C11 UNL     1      -9.646  47.457 -30.098  1.00  0.00    -0.013 C 
HETATM    5  C12 UNL     1     -10.006  46.780 -31.461  1.00  0.00     0.021 C 
HETATM    6  C13 UNL     1     -10.710  46.990 -29.112  1.00  0.00    -0.070 C 
HETATM    7  C14 UNL     1     -11.901  47.608 -28.999  1.00  0.00    -0.022 C 
HETATM    8  C15 UNL     1     -13.036  47.115 -28.151  1.00  0.00     0.034 C 
HETATM    9  C16 UNL     1     -12.661  45.960 -27.196  1.00  0.00     0.013 C 
HETATM   10  C17 UNL     1     -13.865  45.336 -26.389  1.00  0.00     0.018 C 
HETATM   11  C18 UNL     1     -13.743  45.737 -24.902  1.00  0.00     0.023 C 
HETATM   12  C19 UNL     1     -15.248  45.817 -26.881  1.00  0.00     0.023 C 
HETATM   13  C20 UNL     1     -13.869  43.800 -26.413  1.00  0.00     0.135 C 
HETATM   14  O1  UNL     1     -14.921  43.153 -26.389  1.00  0.00    -0.297 OA
HETATM   15  C21 UNL     1     -12.558  43.055 -26.357  1.00  0.00     0.080 C 
HETATM   16  C22 UNL     1     -11.361  43.848 -26.855  1.00  0.00     0.017 C 
HETATM   17  C23 UNL     1     -11.709  44.931 -27.901  1.00  0.00    -0.031 C 
HETATM   18  C24 UNL     1     -12.362  44.282 -29.146  1.00  0.00     0.016 C 
HETATM   19  C25 UNL     1     -10.399  45.721 -28.308  1.00  0.00     0.024 C 
HETATM   20  C26 UNL     1      -9.291  44.851 -28.955  1.00  0.00     0.010 C 
HETATM   21  C27 UNL     1      -8.029  45.611 -29.434  1.00  0.00     0.011 C 
HETATM   22  C28 UNL     1      -8.212  47.136 -29.553  1.00  0.00    -0.029 C 
HETATM   23  C29 UNL     1      -7.907  47.786 -28.167  1.00  0.00     0.016 C 
ENDROOT
BRANCH   1  24
HETATM   24  C6  UNL     1      -5.785  47.875 -30.365  1.00  0.00    -0.014 C 
HETATM   25  C7  UNL     1      -4.922  46.904 -31.174  1.00  0.00     0.010 C 
BRANCH  24  26
HETATM   26  C5  UNL     1      -5.463  47.789 -28.846  1.00  0.00     0.008 C 
BRANCH  26  27
HETATM   27  C4  UNL     1      -4.347  48.693 -28.299  1.00  0.00     0.028 C 
BRANCH  27  28
HETATM   28  C3  UNL     1      -3.970  48.379 -26.877  1.00  0.00    -0.013 C 
HETATM   29  C2  UNL     1      -3.343  49.166 -25.981  1.00  0.00     0.008 C 
HETATM   30  C1  UNL     1      -3.070  48.710 -24.577  1.00  0.00     0.055 C 
BRANCH  29  31
HETATM   31  C30 UNL     1      -2.862  50.522 -26.331  1.00  0.00     0.171 C 
HETATM   32  O2  UNL     1      -3.442  51.578 -26.161  1.00  0.00    -0.646 OA
BRANCH  31  33
HETATM   33  O3  UNL     1      -1.645  50.473 -26.901  1.00  0.00    -0.773 OA
HETATM   34  H46 UNL     1      -1.437  51.414 -27.079  1.00  0.00     0.167 HD
ENDBRANCH  31  33
ENDBRANCH  29  31
ENDBRANCH  27  28
ENDBRANCH  26  27
ENDBRANCH  24  26
ENDBRANCH   1  24
TORSDOF 6
ENDMDL
MODEL 6
REMARK minimizedAffinity -8.09147644
REMARK CNNscore 0.245583996
REMARK CNNaffinity 6.35109472
REMARK  6 active torsions:
REMARK  status: ('A' for Active; 'I' for Inactive)
REMARK    1  A    between atoms: C2_2  and  C30_31 
REMARK    2  A    between atoms: C3_3  and  C4_4 
REMARK    3  A    between atoms: C4_4  and  C5_5 
REMARK    4  A    between atoms: C5_5  and  C6_6 
REMARK    5  A    between atoms: C6_6  and  C8_8 
REMARK    6  A    between atoms: C30_31  and  O3_33 
ROOT
HETATM    1  C8  UNL     1      -2.905  49.493 -21.071  1.00  0.00    -0.002 C 
HETATM    2  C9  UNL     1      -3.542  49.552 -19.656  1.00  0.00     0.007 C 
HETATM    3  C10 UNL     1      -5.034  49.175 -19.819  1.00  0.00     0.015 C 
HETATM    4  C11 UNL     1      -5.284  49.166 -21.343  1.00  0.00    -0.013 C 
HETATM    5  C12 UNL     1      -5.588  50.648 -21.741  1.00  0.00     0.021 C 
HETATM    6  C13 UNL     1      -6.444  48.346 -21.894  1.00  0.00    -0.070 C 
HETATM    7  C14 UNL     1      -7.598  48.194 -21.217  1.00  0.00    -0.022 C 
HETATM    8  C15 UNL     1      -8.820  47.518 -21.763  1.00  0.00     0.034 C 
HETATM    9  C16 UNL     1      -8.590  46.766 -23.093  1.00  0.00     0.013 C 
HETATM   10  C17 UNL     1      -9.887  46.157 -23.756  1.00  0.00     0.018 C 
HETATM   11  C18 UNL     1      -9.847  44.618 -23.633  1.00  0.00     0.023 C 
HETATM   12  C19 UNL     1     -11.196  46.636 -23.092  1.00  0.00     0.023 C 
HETATM   13  C20 UNL     1      -9.987  46.459 -25.259  1.00  0.00     0.135 C 
HETATM   14  O1  UNL     1     -11.077  46.614 -25.819  1.00  0.00    -0.297 OA
HETATM   15  C21 UNL     1      -8.734  46.460 -26.100  1.00  0.00     0.080 C 
HETATM   16  C22 UNL     1      -7.456  46.735 -25.325  1.00  0.00     0.017 C 
HETATM   17  C23 UNL     1      -7.658  47.587 -24.052  1.00  0.00    -0.031 C 
HETATM   18  C24 UNL     1      -8.260  48.965 -24.420  1.00  0.00     0.016 C 
HETATM   19  C25 UNL     1      -6.274  47.766 -23.304  1.00  0.00     0.024 C 
HETATM   20  C26 UNL     1      -5.180  48.492 -24.128  1.00  0.00     0.010 C 
HETATM   21  C27 UNL     1      -3.841  48.751 -23.395  1.00  0.00     0.011 C 
HETATM   22  C28 UNL     1      -3.917  48.604 -21.863  1.00  0.00    -0.029 C 
HETATM   23  C29 UNL     1      -3.672  47.108 -21.491  1.00  0.00     0.016 C 
ENDROOT
BRANCH   1  24
HETATM   24  C6  UNL     1      -1.396  49.124 -21.179  1.00  0.00    -0.014 C 
HETATM   25  C7  UNL     1      -1.065  47.630 -21.156  1.00  0.00     0.010 C 
BRANCH  24  26
HETATM   26  C5  UNL     1      -0.532  49.910 -20.151  1.00  0.00     0.008 C 
BRANCH  26  27
HETATM   27  C4  UNL     1      -0.480  51.441 -20.283  1.00  0.00     0.028 C 
BRANCH  27  28
HETATM   28  C3  UNL     1      -0.202  51.908 -21.687  1.00  0.00    -0.013 C 
HETATM   29  C2  UNL     1       0.486  52.994 -22.089  1.00  0.00     0.008 C 
HETATM   30  C1  UNL     1       0.704  53.302 -23.542  1.00  0.00     0.055 C 
BRANCH  29  31
HETATM   31  C30 UNL     1       1.048  53.967 -21.125  1.00  0.00     0.171 C 
HETATM   32  O2  UNL     1       0.726  54.124 -19.962  1.00  0.00    -0.646 OA
BRANCH  31  33
HETATM   33  O3  UNL     1       2.005  54.720 -21.696  1.00  0.00    -0.773 OA
HETATM   34  H46 UNL     1       2.296  55.310 -20.971  1.00  0.00     0.167 HD
ENDBRANCH  31  33
ENDBRANCH  29  31
ENDBRANCH  27  28
ENDBRANCH  26  27
ENDBRANCH  24  26
ENDBRANCH   1  24
TORSDOF 6
ENDMDL
MODEL 7
REMARK minimizedAffinity -7.70785379
REMARK CNNscore 0.220198393
REMARK CNNaffinity 6.56936264
REMARK  6 active torsions:
REMARK  status: ('A' for Active; 'I' for Inactive)
REMARK    1  A    between atoms: C2_2  and  C30_31 
REMARK    2  A    between atoms: C3_3  and  C4_4 
REMARK    3  A    between atoms: C4_4  and  C5_5 
REMARK    4  A    between atoms: C5_5  and  C6_6 
REMARK    5  A    between atoms: C6_6  and  C8_8 
REMARK    6  A    between atoms: C30_31  and  O3_33 
ROOT
HETATM    1  C8  UNL     1      -0.591  50.116 -14.390  1.00  0.00    -0.002 C 
HETATM    2  C9  UNL     1      -1.848  51.025 -14.438  1.00  0.00     0.007 C 
HETATM    3  C10 UNL     1      -1.657  52.114 -13.355  1.00  0.00     0.015 C 
HETATM    4  C11 UNL     1      -0.430  51.656 -12.535  1.00  0.00    -0.013 C 
HETATM    5  C12 UNL     1      -0.973  50.651 -11.467  1.00  0.00     0.021 C 
HETATM    6  C13 UNL     1       0.364  52.698 -11.756  1.00  0.00    -0.070 C 
HETATM    7  C14 UNL     1      -0.224  53.765 -11.185  1.00  0.00    -0.022 C 
HETATM    8  C15 UNL     1       0.479  54.745 -10.293  1.00  0.00     0.034 C 
HETATM    9  C16 UNL     1       2.016  54.594 -10.268  1.00  0.00     0.013 C 
HETATM   10  C17 UNL     1       2.768  55.524  -9.239  1.00  0.00     0.018 C 
HETATM   11  C18 UNL     1       3.541  56.617 -10.011  1.00  0.00     0.023 C 
HETATM   12  C19 UNL     1       1.818  56.244  -8.256  1.00  0.00     0.023 C 
HETATM   13  C20 UNL     1       3.818  54.771  -8.408  1.00  0.00     0.135 C 
HETATM   14  O1  UNL     1       4.075  55.091  -7.243  1.00  0.00    -0.297 OA
HETATM   15  C21 UNL     1       4.635  53.682  -9.059  1.00  0.00     0.080 C 
HETATM   16  C22 UNL     1       3.978  53.039 -10.268  1.00  0.00     0.017 C 
HETATM   17  C23 UNL     1       2.433  53.081 -10.247  1.00  0.00    -0.031 C 
HETATM   18  C24 UNL     1       1.895  52.339  -9.000  1.00  0.00     0.016 C 
HETATM   19  C25 UNL     1       1.864  52.430 -11.573  1.00  0.00     0.024 C 
HETATM   20  C26 UNL     1       2.242  50.940 -11.779  1.00  0.00     0.010 C 
HETATM   21  C27 UNL     1       1.634  50.255 -13.027  1.00  0.00     0.011 C 
HETATM   22  C28 UNL     1       0.455  51.018 -13.660  1.00  0.00    -0.029 C 
HETATM   23  C29 UNL     1       1.021  52.058 -14.678  1.00  0.00     0.016 C 
ENDROOT
BRANCH   1  24
HETATM   24  C6  UNL     1      -0.138  49.424 -15.711  1.00  0.00    -0.014 C 
HETATM   25  C7  UNL     1       0.677  48.138 -15.552  1.00  0.00     0.010 C 
BRANCH  24  26
HETATM   26  C5  UNL     1       0.563  50.422 -16.677  1.00  0.00     0.008 C 
BRANCH  26  27
HETATM   27  C4  UNL     1      -0.164  50.785 -17.981  1.00  0.00     0.028 C 
BRANCH  27  28
HETATM   28  C3  UNL     1       0.232  52.129 -18.529  1.00  0.00    -0.013 C 
HETATM   29  C2  UNL     1       0.314  52.520 -19.816  1.00  0.00     0.008 C 
HETATM   30  C1  UNL     1       0.694  53.921 -20.197  1.00  0.00     0.055 C 
BRANCH  29  31
HETATM   31  C30 UNL     1       0.060  51.586 -20.936  1.00  0.00     0.171 C 
HETATM   32  O2  UNL     1       0.036  50.370 -20.892  1.00  0.00    -0.646 OA
BRANCH  31  33
HETATM   33  O3  UNL     1      -0.147  52.251 -22.086  1.00  0.00    -0.773 OA
HETATM   34  H46 UNL     1      -0.306  51.538 -22.739  1.00  0.00     0.167 HD
ENDBRANCH  31  33
ENDBRANCH  29  31
ENDBRANCH  27  28
ENDBRANCH  26  27
ENDBRANCH  24  26
ENDBRANCH   1  24
TORSDOF 6
ENDMDL
MODEL 8
REMARK minimizedAffinity -7.84250164
REMARK CNNscore 0.215379819
REMARK CNNaffinity 5.88037109
REMARK  6 active torsions:
REMARK  status: ('A' for Active; 'I' for Inactive)
REMARK    1  A    between atoms: C2_2  and  C30_31 
REMARK    2  A    between atoms: C3_3  and  C4_4 
REMARK    3  A    between atoms: C4_4  and  C5_5 
REMARK    4  A    between atoms: C5_5  and  C6_6 
REMARK    5  A    between atoms: C6_6  and  C8_8 
REMARK    6  A    between atoms: C30_31  and  O3_33 
ROOT
HETATM    1  C8  UNL     1      -7.736  47.807 -20.039  1.00  0.00    -0.002 C 
HETATM    2  C9  UNL     1      -7.885  49.152 -19.277  1.00  0.00     0.007 C 
HETATM    3  C10 UNL     1      -6.810  50.110 -19.842  1.00  0.00     0.015 C 
HETATM    4  C11 UNL     1      -5.901  49.223 -20.722  1.00  0.00    -0.013 C 
HETATM    5  C12 UNL     1      -4.856  48.580 -19.752  1.00  0.00     0.021 C 
HETATM    6  C13 UNL     1      -5.087  49.876 -21.832  1.00  0.00    -0.070 C 
HETATM    7  C14 UNL     1      -4.575  51.116 -21.709  1.00  0.00    -0.022 C 
HETATM    8  C15 UNL     1      -3.654  51.756 -22.705  1.00  0.00     0.034 C 
HETATM    9  C16 UNL     1      -3.521  50.984 -24.036  1.00  0.00     0.013 C 
HETATM   10  C17 UNL     1      -2.459  51.565 -25.048  1.00  0.00     0.018 C 
HETATM   11  C18 UNL     1      -3.194  52.206 -26.247  1.00  0.00     0.023 C 
HETATM   12  C19 UNL     1      -1.556  52.655 -24.430  1.00  0.00     0.023 C 
HETATM   13  C20 UNL     1      -1.546  50.482 -25.643  1.00  0.00     0.135 C 
HETATM   14  O1  UNL     1      -0.371  50.718 -25.945  1.00  0.00    -0.297 OA
HETATM   15  C21 UNL     1      -2.120  49.126 -25.970  1.00  0.00     0.080 C 
HETATM   16  C22 UNL     1      -3.360  48.759 -25.173  1.00  0.00     0.017 C 
HETATM   17  C23 UNL     1      -3.447  49.437 -23.787  1.00  0.00    -0.031 C 
HETATM   18  C24 UNL     1      -2.227  49.038 -22.920  1.00  0.00     0.016 C 
HETATM   19  C25 UNL     1      -4.797  49.021 -23.072  1.00  0.00     0.024 C 
HETATM   20  C26 UNL     1      -4.951  47.501 -22.809  1.00  0.00     0.010 C 
HETATM   21  C27 UNL     1      -6.226  47.075 -22.041  1.00  0.00     0.011 C 
HETATM   22  C28 UNL     1      -6.952  48.228 -21.323  1.00  0.00    -0.029 C 
HETATM   23  C29 UNL     1      -7.946  48.895 -22.325  1.00  0.00     0.016 C 
ENDROOT
BRANCH   1  24
HETATM   24  C6  UNL     1      -9.011  46.933 -20.236  1.00  0.00    -0.014 C 
HETATM   25  C7  UNL     1      -8.946  45.892 -21.357  1.00  0.00     0.010 C 
BRANCH  24  26
HETATM   26  C5  UNL     1     -10.297  47.800 -20.344  1.00  0.00     0.008 C 
BRANCH  26  27
HETATM   27  C4  UNL     1     -11.152  47.974 -19.079  1.00  0.00     0.028 C 
BRANCH  27  28
HETATM   28  C3  UNL     1     -12.626  48.069 -19.364  1.00  0.00    -0.013 C 
HETATM   29  C2  UNL     1     -13.659  47.818 -18.536  1.00  0.00     0.008 C 
HETATM   30  C1  UNL     1     -15.085  47.997 -18.970  1.00  0.00     0.055 C 
BRANCH  29  31
HETATM   31  C30 UNL     1     -13.455  47.325 -17.156  1.00  0.00     0.171 C 
HETATM   32  O2  UNL     1     -14.266  46.758 -16.447  1.00  0.00    -0.646 OA
BRANCH  31  33
HETATM   33  O3  UNL     1     -12.209  47.587 -16.725  1.00  0.00    -0.773 OA
HETATM   34  H46 UNL     1     -12.196  47.216 -15.818  1.00  0.00     0.167 HD
ENDBRANCH  31  33
ENDBRANCH  29  31
ENDBRANCH  27  28
ENDBRANCH  26  27
ENDBRANCH  24  26
ENDBRANCH   1  24
TORSDOF 6
ENDMDL
MODEL 9
REMARK minimizedAffinity -9.11860657
REMARK CNNscore 0.197430089
REMARK CNNaffinity 6.78336477
REMARK  6 active torsions:
REMARK  status: ('A' for Active; 'I' for Inactive)
REMARK    1  A    between atoms: C2_2  and  C30_31 
REMARK    2  A    between atoms: C3_3  and  C4_4 
REMARK    3  A    between atoms: C4_4  and  C5_5 
REMARK    4  A    between atoms: C5_5  and  C6_6 
REMARK    5  A    between atoms: C6_6  and  C8_8 
REMARK    6  A    between atoms: C30_31  and  O3_33 
ROOT
HETATM    1  C8  UNL     1      -1.828  49.761 -23.024  1.00  0.00    -0.002 C 
HETATM    2  C9  UNL     1      -3.107  48.882 -22.989  1.00  0.00     0.007 C 
HETATM    3  C10 UNL     1      -3.383  48.549 -21.503  1.00  0.00     0.015 C 
HETATM    4  C11 UNL     1      -2.121  49.017 -20.744  1.00  0.00    -0.013 C 
HETATM    5  C12 UNL     1      -1.094  47.841 -20.845  1.00  0.00     0.021 C 
HETATM    6  C13 UNL     1      -2.233  49.340 -19.259  1.00  0.00    -0.070 C 
HETATM    7  C14 UNL     1      -3.064  48.668 -18.441  1.00  0.00    -0.022 C 
HETATM    8  C15 UNL     1      -3.117  48.845 -16.953  1.00  0.00     0.034 C 
HETATM    9  C16 UNL     1      -2.316  50.057 -16.428  1.00  0.00     0.013 C 
HETATM   10  C17 UNL     1      -2.248  50.190 -14.857  1.00  0.00     0.018 C 
HETATM   11  C18 UNL     1      -3.108  51.393 -14.409  1.00  0.00     0.023 C 
HETATM   12  C19 UNL     1      -2.780  48.945 -14.113  1.00  0.00     0.023 C 
HETATM   13  C20 UNL     1      -0.828  50.471 -14.341  1.00  0.00     0.135 C 
HETATM   14  O1  UNL     1      -0.440  50.050 -13.247  1.00  0.00    -0.297 OA
HETATM   15  C21 UNL     1       0.083  51.372 -15.137  1.00  0.00     0.080 C 
HETATM   16  C22 UNL     1      -0.248  51.455 -16.617  1.00  0.00     0.017 C 
HETATM   17  C23 UNL     1      -0.947  50.198 -17.181  1.00  0.00    -0.031 C 
HETATM   18  C24 UNL     1      -0.043  48.955 -16.997  1.00  0.00     0.016 C 
HETATM   19  C25 UNL     1      -1.286  50.417 -18.712  1.00  0.00     0.024 C 
HETATM   20  C26 UNL     1      -0.055  50.658 -19.622  1.00  0.00     0.010 C 
HETATM   21  C27 UNL     1      -0.349  50.798 -21.136  1.00  0.00     0.011 C 
HETATM   22  C28 UNL     1      -1.744  50.300 -21.560  1.00  0.00    -0.029 C 
HETATM   23  C29 UNL     1      -2.764  51.471 -21.395  1.00  0.00     0.016 C 
ENDROOT
BRANCH   1  24
HETATM   24  C6  UNL     1      -1.686  50.801 -24.176  1.00  0.00    -0.014 C 
HETATM   25  C7  UNL     1      -2.224  52.205 -23.885  1.00  0.00     0.010 C 
BRANCH  24  26
HETATM   26  C5  UNL     1      -2.237  50.252 -25.523  1.00  0.00     0.008 C 
BRANCH  26  27
HETATM   27  C4  UNL     1      -1.526  50.684 -26.815  1.00  0.00     0.028 C 
BRANCH  27  28
HETATM   28  C3  UNL     1      -0.028  50.736 -26.682  1.00  0.00    -0.013 C 
HETATM   29  C2  UNL     1       0.793  51.790 -26.853  1.00  0.00     0.008 C 
HETATM   30  C1  UNL     1       2.276  51.682 -26.645  1.00  0.00     0.055 C 
BRANCH  29  31
HETATM   31  C30 UNL     1       0.290  53.115 -27.282  1.00  0.00     0.171 C 
HETATM   32  O2  UNL     1       0.113  54.097 -26.587  1.00  0.00    -0.646 OA
BRANCH  31  33
HETATM   33  O3  UNL     1       0.020  53.129 -28.600  1.00  0.00    -0.773 OA
HETATM   34  H46 UNL     1      -0.295  54.043 -28.760  1.00  0.00     0.167 HD
ENDBRANCH  31  33
ENDBRANCH  29  31
ENDBRANCH  27  28
ENDBRANCH  26  27
ENDBRANCH  24  26
ENDBRANCH   1  24
TORSDOF 6
ENDMDL
