MODEL 1
REMARK minimizedAffinity -10.2915936
REMARK  6 active torsions:
REMARK  status: ('A' for Active; 'I' for Inactive)
REMARK    1  A    between atoms: C2_2  and  C3_3 
REMARK    2  A    between atoms: C2_2  and  C27_30 
REMARK    3  A    between atoms: C3_3  and  C4_4 
REMARK    4  A    between atoms: C4_4  and  C5_5 
REMARK    5  A    between atoms: C5_5  and  C7_7 
REMARK    6  A    between atoms: C26_28  and  O3_29 
ROOT
HETATM    1  C7  UNL     1      -1.053  51.454 -25.072  1.00  0.00    -0.002 C 
HETATM    2  C8  UNL     1      -0.333  52.817 -25.220  1.00  0.00     0.006 C 
HETATM    3  C9  UNL     1       0.184  53.185 -23.815  1.00  0.00     0.010 C 
HETATM    4  C10 UNL     1      -0.104  51.947 -22.959  1.00  0.00     0.027 C 
HETATM    5  C11 UNL     1      -0.136  52.012 -21.451  1.00  0.00    -0.036 C 
HETATM    6  C12 UNL     1      -0.828  51.096 -20.727  1.00  0.00     0.002 C 
HETATM    7  C13 UNL     1      -1.640  50.044 -21.468  1.00  0.00     0.157 C 
HETATM    8  O1  UNL     1      -2.288  49.198 -20.853  1.00  0.00    -0.293 OA
HETATM    9  C14 UNL     1      -1.645  50.022 -22.989  1.00  0.00     0.093 C 
HETATM   10  C15 UNL     1      -1.424  51.421 -23.560  1.00  0.00    -0.026 C 
HETATM   11  C16 UNL     1      -2.652  52.311 -23.243  1.00  0.00     0.016 C 
HETATM   12  C17 UNL     1      -0.837  51.076 -19.182  1.00  0.00    -0.008 C 
HETATM   13  C18 UNL     1      -2.216  51.646 -18.751  1.00  0.00     0.021 C 
HETATM   14  C19 UNL     1      -0.675  49.635 -18.597  1.00  0.00     0.022 C 
HETATM   15  C20 UNL     1       0.043  49.535 -17.251  1.00  0.00     0.080 C 
HETATM   16  C21 UNL     1      -0.127  50.780 -16.421  1.00  0.00     0.131 C 
HETATM   17  O2  UNL     1      -0.502  50.729 -15.249  1.00  0.00    -0.298 OA
HETATM   18  C22 UNL     1       0.264  52.099 -17.071  1.00  0.00     0.056 C 
HETATM   19  C23 UNL     1       1.581  52.568 -16.451  1.00  0.00     0.018 C 
HETATM   20  C24 UNL     1       0.350  51.933 -18.609  1.00  0.00     0.012 C 
HETATM   21  C25 UNL     1       0.456  53.287 -19.323  1.00  0.00     0.042 C 
HETATM   22  C26 UNL     1       0.702  53.090 -20.818  1.00  0.00     0.148 C 
ENDROOT
BRANCH   1  23
HETATM   23  C5  UNL     1      -2.194  51.121 -26.073  1.00  0.00    -0.014 C 
HETATM   24  C6  UNL     1      -2.480  52.186 -27.130  1.00  0.00     0.010 C 
BRANCH  23  25
HETATM   25  C4  UNL     1      -2.027  49.711 -26.696  1.00  0.00     0.009 C 
BRANCH  25  26
HETATM   26  C3  UNL     1      -2.811  48.543 -26.076  1.00  0.00     0.034 C 
BRANCH  26  27
HETATM   27  C2  UNL     1      -4.304  48.482 -26.343  1.00  0.00    -0.086 C 
HETATM   28  C1  UNL     1      -4.754  48.232 -27.587  1.00  0.00     0.014 C 
BRANCH  27  29
HETATM   29  C27 UNL     1      -5.308  48.595 -25.196  1.00  0.00     0.005 C 
HETATM   30  C28 UNL     1      -6.577  47.762 -25.394  1.00  0.00     0.014 C 
HETATM   31  C29 UNL     1      -4.676  48.305 -23.832  1.00  0.00     0.014 C 
ENDBRANCH  27  29
ENDBRANCH  26  27
ENDBRANCH  25  26
ENDBRANCH  23  25
ENDBRANCH   1  23
BRANCH  22  32
HETATM   32  O3  UNL     1       2.061  52.723 -21.029  1.00  0.00    -0.391 OA
HETATM   33  H37 UNL     1       2.610  53.495 -20.808  1.00  0.00     0.210 HD
ENDBRANCH  22  32
TORSDOF 6
ENDMDL
MODEL 2
REMARK minimizedAffinity -10.092701
REMARK  6 active torsions:
REMARK  status: ('A' for Active; 'I' for Inactive)
REMARK    1  A    between atoms: C2_2  and  C3_3 
REMARK    2  A    between atoms: C2_2  and  C27_30 
REMARK    3  A    between atoms: C3_3  and  C4_4 
REMARK    4  A    between atoms: C4_4  and  C5_5 
REMARK    5  A    between atoms: C5_5  and  C7_7 
REMARK    6  A    between atoms: C26_28  and  O3_29 
ROOT
HETATM    1  C7  UNL     1      -0.372  50.154 -18.221  1.00  0.00    -0.002 C 
HETATM    2  C8  UNL     1      -1.314  48.974 -17.876  1.00  0.00     0.006 C 
HETATM    3  C9  UNL     1      -1.943  48.523 -19.211  1.00  0.00     0.010 C 
HETATM    4  C10 UNL     1      -1.212  49.340 -20.281  1.00  0.00     0.027 C 
HETATM    5  C11 UNL     1      -1.776  49.518 -21.669  1.00  0.00    -0.036 C 
HETATM    6  C12 UNL     1      -1.414  50.576 -22.440  1.00  0.00     0.002 C 
HETATM    7  C13 UNL     1      -0.486  51.626 -21.846  1.00  0.00     0.157 C 
HETATM    8  O1  UNL     1      -0.136  52.604 -22.505  1.00  0.00    -0.293 OA
HETATM    9  C14 UNL     1       0.033  51.463 -20.425  1.00  0.00     0.093 C 
HETATM   10  C15 UNL     1      -0.957  50.682 -19.564  1.00  0.00    -0.026 C 
HETATM   11  C16 UNL     1      -2.237  51.528 -19.349  1.00  0.00     0.016 C 
HETATM   12  C17 UNL     1      -1.908  50.769 -23.890  1.00  0.00    -0.008 C 
HETATM   13  C18 UNL     1      -2.987  51.884 -23.834  1.00  0.00     0.021 C 
HETATM   14  C19 UNL     1      -0.766  51.214 -24.862  1.00  0.00     0.022 C 
HETATM   15  C20 UNL     1      -0.896  50.742 -26.310  1.00  0.00     0.080 C 
HETATM   16  C21 UNL     1      -2.332  50.539 -26.716  1.00  0.00     0.131 C 
HETATM   17  O2  UNL     1      -2.788  51.038 -27.744  1.00  0.00    -0.298 OA
HETATM   18  C22 UNL     1      -3.171  49.621 -25.840  1.00  0.00     0.056 C 
HETATM   19  C23 UNL     1      -3.382  48.304 -26.589  1.00  0.00     0.018 C 
HETATM   20  C24 UNL     1      -2.490  49.426 -24.462  1.00  0.00     0.012 C 
HETATM   21  C25 UNL     1      -3.429  48.751 -23.453  1.00  0.00     0.042 C 
HETATM   22  C26 UNL     1      -2.684  48.424 -22.160  1.00  0.00     0.148 C 
ENDROOT
BRANCH   1  23
HETATM   23  C5  UNL     1      -0.103  51.215 -17.118  1.00  0.00    -0.014 C 
HETATM   24  C6  UNL     1      -0.312  50.744 -15.679  1.00  0.00     0.010 C 
BRANCH  23  25
HETATM   25  C4  UNL     1       1.268  51.915 -17.309  1.00  0.00     0.009 C 
BRANCH  25  26
HETATM   26  C3  UNL     1       1.911  52.601 -16.094  1.00  0.00     0.034 C 
BRANCH  26  27
HETATM   27  C2  UNL     1       3.172  51.979 -15.523  1.00  0.00    -0.086 C 
HETATM   28  C1  UNL     1       4.373  52.307 -16.035  1.00  0.00     0.014 C 
BRANCH  27  29
HETATM   29  C27 UNL     1       3.108  51.061 -14.303  1.00  0.00     0.005 C 
HETATM   30  C28 UNL     1       4.361  50.206 -14.099  1.00  0.00     0.014 C 
HETATM   31  C29 UNL     1       2.750  51.815 -13.020  1.00  0.00     0.014 C 
ENDBRANCH  27  29
ENDBRANCH  26  27
ENDBRANCH  25  26
ENDBRANCH  23  25
ENDBRANCH   1  23
BRANCH  22  32
HETATM   32  O3  UNL     1      -1.863  47.278 -22.363  1.00  0.00    -0.391 OA
HETATM   33  H37 UNL     1      -2.453  46.515 -22.485  1.00  0.00     0.210 HD
ENDBRANCH  22  32
TORSDOF 6
ENDMDL
MODEL 3
REMARK minimizedAffinity -9.70861721
REMARK  6 active torsions:
REMARK  status: ('A' for Active; 'I' for Inactive)
REMARK    1  A    between atoms: C2_2  and  C3_3 
REMARK    2  A    between atoms: C2_2  and  C27_30 
REMARK    3  A    between atoms: C3_3  and  C4_4 
REMARK    4  A    between atoms: C4_4  and  C5_5 
REMARK    5  A    between atoms: C5_5  and  C7_7 
REMARK    6  A    between atoms: C26_28  and  O3_29 
ROOT
HETATM    1  C7  UNL     1      -0.105  52.551 -19.055  1.00  0.00    -0.002 C 
HETATM    2  C8  UNL     1       1.365  52.930 -19.355  1.00  0.00     0.006 C 
HETATM    3  C9  UNL     1       1.507  52.919 -20.892  1.00  0.00     0.010 C 
HETATM    4  C10 UNL     1       0.081  52.706 -21.411  1.00  0.00     0.027 C 
HETATM    5  C11 UNL     1      -0.191  52.229 -22.816  1.00  0.00    -0.036 C 
HETATM    6  C12 UNL     1      -1.353  51.602 -23.129  1.00  0.00     0.002 C 
HETATM    7  C13 UNL     1      -2.349  51.315 -22.014  1.00  0.00     0.157 C 
HETATM    8  O1  UNL     1      -3.413  50.744 -22.250  1.00  0.00    -0.293 OA
HETATM    9  C14 UNL     1      -2.040  51.752 -20.590  1.00  0.00     0.093 C 
HETATM   10  C15 UNL     1      -0.533  51.782 -20.339  1.00  0.00    -0.026 C 
HETATM   11  C16 UNL     1       0.025  50.337 -20.366  1.00  0.00     0.016 C 
HETATM   12  C17 UNL     1      -1.711  51.156 -24.564  1.00  0.00    -0.008 C 
HETATM   13  C18 UNL     1      -1.511  49.617 -24.601  1.00  0.00     0.021 C 
HETATM   14  C19 UNL     1      -3.190  51.487 -24.948  1.00  0.00     0.022 C 
HETATM   15  C20 UNL     1      -3.448  51.792 -26.423  1.00  0.00     0.080 C 
HETATM   16  C21 UNL     1      -2.466  51.095 -27.329  1.00  0.00     0.131 C 
HETATM   17  O2  UNL     1      -2.839  50.425 -28.292  1.00  0.00    -0.298 OA
HETATM   18  C22 UNL     1      -0.989  51.325 -27.047  1.00  0.00     0.056 C 
HETATM   19  C23 UNL     1      -0.434  52.255 -28.127  1.00  0.00     0.018 C 
HETATM   20  C24 UNL     1      -0.797  51.885 -25.616  1.00  0.00     0.012 C 
HETATM   21  C25 UNL     1       0.676  51.860 -25.187  1.00  0.00     0.042 C 
HETATM   22  C26 UNL     1       0.857  52.564 -23.843  1.00  0.00     0.148 C 
ENDROOT
BRANCH   1  23
HETATM   23  C5  UNL     1      -0.415  51.859 -17.698  1.00  0.00    -0.014 C 
HETATM   24  C6  UNL     1      -1.466  50.751 -17.743  1.00  0.00     0.010 C 
BRANCH  23  25
HETATM   25  C4  UNL     1       0.878  51.408 -16.968  1.00  0.00     0.009 C 
BRANCH  25  26
HETATM   26  C3  UNL     1       1.694  52.467 -16.211  1.00  0.00     0.034 C 
BRANCH  26  27
HETATM   27  C2  UNL     1       2.983  52.017 -15.549  1.00  0.00    -0.086 C 
HETATM   28  C1  UNL     1       4.158  52.551 -15.935  1.00  0.00     0.014 C 
BRANCH  27  29
HETATM   29  C27 UNL     1       2.959  51.041 -14.373  1.00  0.00     0.005 C 
HETATM   30  C28 UNL     1       4.269  50.278 -14.169  1.00  0.00     0.014 C 
HETATM   31  C29 UNL     1       2.509  51.705 -13.070  1.00  0.00     0.014 C 
ENDBRANCH  27  29
ENDBRANCH  26  27
ENDBRANCH  25  26
ENDBRANCH  23  25
ENDBRANCH   1  23
BRANCH  22  32
HETATM   32  O3  UNL     1       0.800  53.973 -24.036  1.00  0.00    -0.391 OA
HETATM   33  H37 UNL     1       1.593  54.232 -24.536  1.00  0.00     0.210 HD
ENDBRANCH  22  32
TORSDOF 6
ENDMDL
MODEL 4
REMARK minimizedAffinity -9.66722107
REMARK  6 active torsions:
REMARK  status: ('A' for Active; 'I' for Inactive)
REMARK    1  A    between atoms: C2_2  and  C3_3 
REMARK    2  A    between atoms: C2_2  and  C27_30 
REMARK    3  A    between atoms: C3_3  and  C4_4 
REMARK    4  A    between atoms: C4_4  and  C5_5 
REMARK    5  A    between atoms: C5_5  and  C7_7 
REMARK    6  A    between atoms: C26_28  and  O3_29 
ROOT
HETATM    1  C7  UNL     1      -0.400  52.356 -22.274  1.00  0.00    -0.002 C 
HETATM    2  C8  UNL     1       0.190  52.110 -23.684  1.00  0.00     0.006 C 
HETATM    3  C9  UNL     1      -0.869  51.297 -24.457  1.00  0.00     0.010 C 
HETATM    4  C10 UNL     1      -2.085  51.260 -23.525  1.00  0.00     0.027 C 
HETATM    5  C11 UNL     1      -3.188  50.244 -23.698  1.00  0.00    -0.036 C 
HETATM    6  C12 UNL     1      -3.986  49.896 -22.657  1.00  0.00     0.002 C 
HETATM    7  C13 UNL     1      -3.697  50.492 -21.286  1.00  0.00     0.157 C 
HETATM    8  O1  UNL     1      -4.389  50.201 -20.312  1.00  0.00    -0.293 OA
HETATM    9  C14 UNL     1      -2.547  51.473 -21.113  1.00  0.00     0.093 C 
HETATM   10  C15 UNL     1      -1.437  51.204 -22.127  1.00  0.00    -0.026 C 
HETATM   11  C16 UNL     1      -0.759  49.848 -21.806  1.00  0.00     0.016 C 
HETATM   12  C17 UNL     1      -5.171  48.915 -22.794  1.00  0.00    -0.008 C 
HETATM   13  C18 UNL     1      -4.699  47.576 -22.165  1.00  0.00     0.021 C 
HETATM   14  C19 UNL     1      -6.452  49.407 -22.044  1.00  0.00     0.022 C 
HETATM   15  C20 UNL     1      -7.789  48.995 -22.660  1.00  0.00     0.080 C 
HETATM   16  C21 UNL     1      -7.690  47.699 -23.421  1.00  0.00     0.131 C 
HETATM   17  O2  UNL     1      -8.477  46.773 -23.225  1.00  0.00    -0.298 OA
HETATM   18  C22 UNL     1      -6.624  47.618 -24.504  1.00  0.00     0.056 C 
HETATM   19  C23 UNL     1      -7.316  47.691 -25.865  1.00  0.00     0.018 C 
HETATM   20  C24 UNL     1      -5.572  48.737 -24.304  1.00  0.00     0.012 C 
HETATM   21  C25 UNL     1      -4.336  48.521 -25.187  1.00  0.00     0.042 C 
HETATM   22  C26 UNL     1      -3.390  49.717 -25.093  1.00  0.00     0.148 C 
ENDROOT
BRANCH   1  23
HETATM   23  C5  UNL     1       0.593  52.549 -21.094  1.00  0.00    -0.014 C 
HETATM   24  C6  UNL     1       1.187  53.949 -20.949  1.00  0.00     0.010 C 
BRANCH  23  25
HETATM   25  C4  UNL     1       0.014  52.019 -19.756  1.00  0.00     0.009 C 
BRANCH  25  26
HETATM   26  C3  UNL     1       0.408  52.739 -18.457  1.00  0.00     0.034 C 
BRANCH  26  27
HETATM   27  C2  UNL     1       0.756  51.879 -17.257  1.00  0.00    -0.086 C 
HETATM   28  C1  UNL     1       0.334  50.602 -17.201  1.00  0.00     0.014 C 
BRANCH  27  29
HETATM   29  C27 UNL     1       1.673  52.409 -16.154  1.00  0.00     0.005 C 
HETATM   30  C28 UNL     1       1.694  51.545 -14.892  1.00  0.00     0.014 C 
HETATM   31  C29 UNL     1       3.095  52.678 -16.653  1.00  0.00     0.014 C 
ENDBRANCH  27  29
ENDBRANCH  26  27
ENDBRANCH  25  26
ENDBRANCH  23  25
ENDBRANCH   1  23
BRANCH  22  32
HETATM   32  O3  UNL     1      -3.914  50.796 -25.861  1.00  0.00    -0.391 OA
HETATM   33  H37 UNL     1      -3.863  50.539 -26.798  1.00  0.00     0.210 HD
ENDBRANCH  22  32
TORSDOF 6
ENDMDL
MODEL 5
REMARK minimizedAffinity -9.29761314
REMARK  6 active torsions:
REMARK  status: ('A' for Active; 'I' for Inactive)
REMARK    1  A    between atoms: C2_2  and  C3_3 
REMARK    2  A    between atoms: C2_2  and  C27_30 
REMARK    3  A    between atoms: C3_3  and  C4_4 
REMARK    4  A    between atoms: C4_4  and  C5_5 
REMARK    5  A    between atoms: C5_5  and  C7_7 
REMARK    6  A    between atoms: C26_28  and  O3_29 
ROOT
HETATM    1  C7  UNL     1      -0.897  51.074 -15.818  1.00  0.00    -0.002 C 
HETATM    2  C8  UNL     1       0.572  51.552 -15.710  1.00  0.00     0.006 C 
HETATM    3  C9  UNL     1       0.979  52.012 -17.125  1.00  0.00     0.010 C 
HETATM    4  C10 UNL     1      -0.315  51.945 -17.942  1.00  0.00     0.027 C 
HETATM    5  C11 UNL     1      -0.302  51.917 -19.451  1.00  0.00    -0.036 C 
HETATM    6  C12 UNL     1      -1.344  51.397 -20.149  1.00  0.00     0.002 C 
HETATM    7  C13 UNL     1      -2.495  50.766 -19.377  1.00  0.00     0.157 C 
HETATM    8  O1  UNL     1      -3.457  50.277 -19.968  1.00  0.00    -0.293 OA
HETATM    9  C14 UNL     1      -2.471  50.752 -17.856  1.00  0.00     0.093 C 
HETATM   10  C15 UNL     1      -1.038  50.728 -17.329  1.00  0.00    -0.026 C 
HETATM   11  C16 UNL     1      -0.379  49.370 -17.679  1.00  0.00     0.016 C 
HETATM   12  C17 UNL     1      -1.413  51.405 -21.692  1.00  0.00    -0.008 C 
HETATM   13  C18 UNL     1      -1.098  49.954 -22.146  1.00  0.00     0.021 C 
HETATM   14  C19 UNL     1      -2.823  51.813 -22.230  1.00  0.00     0.022 C 
HETATM   15  C20 UNL     1      -2.841  52.550 -23.570  1.00  0.00     0.080 C 
HETATM   16  C21 UNL     1      -1.669  52.180 -24.440  1.00  0.00     0.131 C 
HETATM   17  O2  UNL     1      -1.818  51.830 -25.610  1.00  0.00    -0.298 OA
HETATM   18  C22 UNL     1      -0.284  52.337 -23.830  1.00  0.00     0.056 C 
HETATM   19  C23 UNL     1       0.382  53.561 -24.459  1.00  0.00     0.018 C 
HETATM   20  C24 UNL     1      -0.385  52.435 -22.287  1.00  0.00     0.012 C 
HETATM   21  C25 UNL     1       0.989  52.304 -21.616  1.00  0.00     0.042 C 
HETATM   22  C26 UNL     1       0.882  52.566 -20.115  1.00  0.00     0.148 C 
ENDROOT
BRANCH   1  23
HETATM   23  C5  UNL     1      -1.387  49.996 -14.811  1.00  0.00    -0.014 C 
HETATM   24  C6  UNL     1      -0.355  49.529 -13.786  1.00  0.00     0.010 C 
BRANCH  23  25
HETATM   25  C4  UNL     1      -2.732  50.390 -14.148  1.00  0.00     0.009 C 
BRANCH  25  26
HETATM   26  C3  UNL     1      -2.965  51.868 -13.795  1.00  0.00     0.034 C 
BRANCH  26  27
HETATM   27  C2  UNL     1      -2.793  52.277 -12.344  1.00  0.00    -0.086 C 
HETATM   28  C1  UNL     1      -1.562  52.527 -11.859  1.00  0.00     0.014 C 
BRANCH  27  29
HETATM   29  C27 UNL     1      -4.009  52.515 -11.449  1.00  0.00     0.005 C 
HETATM   30  C28 UNL     1      -4.341  51.343 -10.524  1.00  0.00     0.014 C 
HETATM   31  C29 UNL     1      -3.908  53.821 -10.658  1.00  0.00     0.014 C 
ENDBRANCH  27  29
ENDBRANCH  26  27
ENDBRANCH  25  26
ENDBRANCH  23  25
ENDBRANCH   1  23
BRANCH  22  32
HETATM   32  O3  UNL     1       0.756  53.966 -19.887  1.00  0.00    -0.391 OA
HETATM   33  H37 UNL     1       1.603  54.378 -20.130  1.00  0.00     0.210 HD
ENDBRANCH  22  32
TORSDOF 6
ENDMDL
MODEL 6
REMARK minimizedAffinity -9.24125862
REMARK  6 active torsions:
REMARK  status: ('A' for Active; 'I' for Inactive)
REMARK    1  A    between atoms: C2_2  and  C3_3 
REMARK    2  A    between atoms: C2_2  and  C27_30 
REMARK    3  A    between atoms: C3_3  and  C4_4 
REMARK    4  A    between atoms: C4_4  and  C5_5 
REMARK    5  A    between atoms: C5_5  and  C7_7 
REMARK    6  A    between atoms: C26_28  and  O3_29 
ROOT
HETATM    1  C7  UNL     1      -0.198  51.862 -21.203  1.00  0.00    -0.002 C 
HETATM    2  C8  UNL     1       0.303  53.304 -20.945  1.00  0.00     0.006 C 
HETATM    3  C9  UNL     1       0.764  53.342 -19.473  1.00  0.00     0.010 C 
HETATM    4  C10 UNL     1       0.673  51.887 -19.001  1.00  0.00     0.027 C 
HETATM    5  C11 UNL     1       0.639  51.529 -17.535  1.00  0.00    -0.036 C 
HETATM    6  C12 UNL     1       0.099  50.356 -17.116  1.00  0.00     0.002 C 
HETATM    7  C13 UNL     1      -0.546  49.441 -18.147  1.00  0.00     0.157 C 
HETATM    8  O1  UNL     1      -1.053  48.371 -17.813  1.00  0.00    -0.293 OA
HETATM    9  C14 UNL     1      -0.554  49.839 -19.616  1.00  0.00     0.093 C 
HETATM   10  C15 UNL     1      -0.553  51.359 -19.773  1.00  0.00    -0.026 C 
HETATM   11  C16 UNL     1      -1.902  51.933 -19.271  1.00  0.00     0.016 C 
HETATM   12  C17 UNL     1       0.100  49.908 -15.637  1.00  0.00    -0.008 C 
HETATM   13  C18 UNL     1      -1.349  50.125 -15.120  1.00  0.00     0.021 C 
HETATM   14  C19 UNL     1       0.483  48.403 -15.463  1.00  0.00     0.022 C 
HETATM   15  C20 UNL     1       1.214  48.042 -14.170  1.00  0.00     0.080 C 
HETATM   16  C21 UNL     1       0.858  48.970 -13.037  1.00  0.00     0.131 C 
HETATM   17  O2  UNL     1       0.501  48.542 -11.940  1.00  0.00    -0.298 OA
HETATM   18  C22 UNL     1       1.040  50.460 -13.286  1.00  0.00     0.056 C 
HETATM   19  C23 UNL     1       2.272  50.929 -12.512  1.00  0.00     0.018 C 
HETATM   20  C24 UNL     1       1.143  50.740 -14.807  1.00  0.00     0.012 C 
HETATM   21  C25 UNL     1       1.037  52.239 -15.118  1.00  0.00     0.042 C 
HETATM   22  C26 UNL     1       1.303  52.501 -16.600  1.00  0.00     0.148 C 
ENDROOT
BRANCH   1  23
HETATM   23  C5  UNL     1      -1.279  51.653 -22.299  1.00  0.00    -0.014 C 
HETATM   24  C6  UNL     1      -2.726  51.848 -21.849  1.00  0.00     0.010 C 
BRANCH  23  25
HETATM   25  C4  UNL     1      -0.958  52.451 -23.591  1.00  0.00     0.009 C 
BRANCH  25  26
HETATM   26  C3  UNL     1       0.369  52.166 -24.311  1.00  0.00     0.034 C 
BRANCH  26  27
HETATM   27  C2  UNL     1       0.431  52.444 -25.801  1.00  0.00    -0.086 C 
HETATM   28  C1  UNL     1      -0.004  53.623 -26.283  1.00  0.00     0.014 C 
BRANCH  27  29
HETATM   29  C27 UNL     1       1.081  51.443 -26.756  1.00  0.00     0.005 C 
HETATM   30  C28 UNL     1       0.846  51.751 -28.237  1.00  0.00     0.014 C 
HETATM   31  C29 UNL     1       2.572  51.245 -26.473  1.00  0.00     0.014 C 
ENDBRANCH  27  29
ENDBRANCH  26  27
ENDBRANCH  25  26
ENDBRANCH  23  25
ENDBRANCH   1  23
BRANCH  22  32
HETATM   32  O3  UNL     1       2.702  52.413 -16.851  1.00  0.00    -0.391 OA
HETATM   33  H37 UNL     1       3.127  53.167 -16.407  1.00  0.00     0.210 HD
ENDBRANCH  22  32
TORSDOF 6
ENDMDL
MODEL 7
REMARK minimizedAffinity -9.10217571
REMARK  6 active torsions:
REMARK  status: ('A' for Active; 'I' for Inactive)
REMARK    1  A    between atoms: C2_2  and  C3_3 
REMARK    2  A    between atoms: C2_2  and  C27_30 
REMARK    3  A    between atoms: C3_3  and  C4_4 
REMARK    4  A    between atoms: C4_4  and  C5_5 
REMARK    5  A    between atoms: C5_5  and  C7_7 
REMARK    6  A    between atoms: C26_28  and  O3_29 
ROOT
HETATM    1  C7  UNL     1      -0.662  50.901 -22.119  1.00  0.00    -0.002 C 
HETATM    2  C8  UNL     1      -0.093  50.075 -20.940  1.00  0.00     0.006 C 
HETATM    3  C9  UNL     1      -1.085  48.917 -20.709  1.00  0.00     0.010 C 
HETATM    4  C10 UNL     1      -2.083  49.023 -21.867  1.00  0.00     0.027 C 
HETATM    5  C11 UNL     1      -3.435  48.355 -21.814  1.00  0.00    -0.036 C 
HETATM    6  C12 UNL     1      -4.467  48.809 -22.570  1.00  0.00     0.002 C 
HETATM    7  C13 UNL     1      -4.258  50.058 -23.415  1.00  0.00     0.157 C 
HETATM    8  O1  UNL     1      -5.167  50.509 -24.110  1.00  0.00    -0.293 OA
HETATM    9  C14 UNL     1      -2.905  50.754 -23.417  1.00  0.00     0.093 C 
HETATM   10  C15 UNL     1      -2.178  50.546 -22.090  1.00  0.00    -0.026 C 
HETATM   11  C16 UNL     1      -2.930  51.297 -20.963  1.00  0.00     0.016 C 
HETATM   12  C17 UNL     1      -5.850  48.122 -22.607  1.00  0.00    -0.008 C 
HETATM   13  C18 UNL     1      -6.799  49.015 -21.760  1.00  0.00     0.021 C 
HETATM   14  C19 UNL     1      -6.425  48.000 -24.056  1.00  0.00     0.022 C 
HETATM   15  C20 UNL     1      -7.314  46.785 -24.324  1.00  0.00     0.080 C 
HETATM   16  C21 UNL     1      -8.023  46.313 -23.081  1.00  0.00     0.131 C 
HETATM   17  O2  UNL     1      -9.238  46.119 -23.066  1.00  0.00    -0.298 OA
HETATM   18  C22 UNL     1      -7.156  46.008 -21.869  1.00  0.00     0.056 C 
HETATM   19  C23 UNL     1      -7.083  44.491 -21.700  1.00  0.00     0.018 C 
HETATM   20  C24 UNL     1      -5.761  46.662 -22.030  1.00  0.00     0.012 C 
HETATM   21  C25 UNL     1      -4.960  46.628 -20.722  1.00  0.00     0.042 C 
HETATM   22  C26 UNL     1      -3.535  47.129 -20.949  1.00  0.00     0.148 C 
ENDROOT
BRANCH   1  23
HETATM   23  C5  UNL     1      -0.306  52.412 -22.188  1.00  0.00    -0.014 C 
HETATM   24  C6  UNL     1       0.371  52.991 -20.946  1.00  0.00     0.010 C 
BRANCH  23  25
HETATM   25  C4  UNL     1       0.460  52.770 -23.489  1.00  0.00     0.009 C 
BRANCH  25  26
HETATM   26  C3  UNL     1      -0.318  52.771 -24.814  1.00  0.00     0.034 C 
BRANCH  26  27
HETATM   27  C2  UNL     1       0.106  51.774 -25.876  1.00  0.00    -0.086 C 
HETATM   28  C1  UNL     1      -0.620  50.658 -26.077  1.00  0.00     0.014 C 
BRANCH  27  29
HETATM   29  C27 UNL     1       1.289  52.069 -26.798  1.00  0.00     0.005 C 
HETATM   30  C28 UNL     1       2.562  51.294 -26.446  1.00  0.00     0.014 C 
HETATM   31  C29 UNL     1       0.938  51.894 -28.277  1.00  0.00     0.014 C 
ENDBRANCH  27  29
ENDBRANCH  26  27
ENDBRANCH  25  26
ENDBRANCH  23  25
ENDBRANCH   1  23
BRANCH  22  32
HETATM   32  O3  UNL     1      -2.774  46.114 -21.595  1.00  0.00    -0.391 OA
HETATM   33  H37 UNL     1      -2.661  45.385 -20.961  1.00  0.00     0.210 HD
ENDBRANCH  22  32
TORSDOF 6
ENDMDL
MODEL 8
REMARK minimizedAffinity -8.88522053
REMARK  6 active torsions:
REMARK  status: ('A' for Active; 'I' for Inactive)
REMARK    1  A    between atoms: C2_2  and  C3_3 
REMARK    2  A    between atoms: C2_2  and  C27_30 
REMARK    3  A    between atoms: C3_3  and  C4_4 
REMARK    4  A    between atoms: C4_4  and  C5_5 
REMARK    5  A    between atoms: C5_5  and  C7_7 
REMARK    6  A    between atoms: C26_28  and  O3_29 
ROOT
HETATM    1  C7  UNL     1      -2.235  52.283 -22.883  1.00  0.00    -0.002 C 
HETATM    2  C8  UNL     1      -2.926  52.280 -24.269  1.00  0.00     0.006 C 
HETATM    3  C9  UNL     1      -4.220  51.457 -24.102  1.00  0.00     0.010 C 
HETATM    4  C10 UNL     1      -4.307  51.172 -22.599  1.00  0.00     0.027 C 
HETATM    5  C11 UNL     1      -5.180  50.071 -22.048  1.00  0.00    -0.036 C 
HETATM    6  C12 UNL     1      -4.918  49.511 -20.839  1.00  0.00     0.002 C 
HETATM    7  C13 UNL     1      -3.676  49.960 -20.082  1.00  0.00     0.157 C 
HETATM    8  O1  UNL     1      -3.396  49.476 -18.986  1.00  0.00    -0.293 OA
HETATM    9  C14 UNL     1      -2.774  51.033 -20.673  1.00  0.00     0.093 C 
HETATM   10  C15 UNL     1      -2.826  51.015 -22.199  1.00  0.00    -0.026 C 
HETATM   11  C16 UNL     1      -2.172  49.712 -22.725  1.00  0.00     0.016 C 
HETATM   12  C17 UNL     1      -5.816  48.430 -20.199  1.00  0.00    -0.008 C 
HETATM   13  C18 UNL     1      -5.062  47.083 -20.370  1.00  0.00     0.021 C 
HETATM   14  C19 UNL     1      -6.070  48.682 -18.676  1.00  0.00     0.022 C 
HETATM   15  C20 UNL     1      -7.418  48.205 -18.134  1.00  0.00     0.080 C 
HETATM   16  C21 UNL     1      -7.960  47.032 -18.908  1.00  0.00     0.131 C 
HETATM   17  O2  UNL     1      -8.345  46.008 -18.344  1.00  0.00    -0.298 OA
HETATM   18  C22 UNL     1      -8.089  47.203 -20.414  1.00  0.00     0.056 C 
HETATM   19  C23 UNL     1      -9.570  47.368 -20.754  1.00  0.00     0.018 C 
HETATM   20  C24 UNL     1      -7.226  48.397 -20.893  1.00  0.00     0.012 C 
HETATM   21  C25 UNL     1      -7.096  48.429 -22.422  1.00  0.00     0.042 C 
HETATM   22  C26 UNL     1      -6.381  49.701 -22.875  1.00  0.00     0.148 C 
ENDROOT
BRANCH   1  23
HETATM   23  C5  UNL     1      -0.689  52.436 -22.842  1.00  0.00    -0.014 C 
HETATM   24  C6  UNL     1      -0.019  52.045 -21.526  1.00  0.00     0.010 C 
BRANCH  23  25
HETATM   25  C4  UNL     1      -0.007  51.769 -24.065  1.00  0.00     0.009 C 
BRANCH  25  26
HETATM   26  C3  UNL     1       0.792  52.660 -25.029  1.00  0.00     0.034 C 
BRANCH  26  27
HETATM   27  C2  UNL     1       1.184  52.067 -26.369  1.00  0.00    -0.086 C 
HETATM   28  C1  UNL     1       2.335  51.379 -26.488  1.00  0.00     0.014 C 
BRANCH  27  29
HETATM   29  C27 UNL     1       0.237  52.148 -27.567  1.00  0.00     0.005 C 
HETATM   30  C28 UNL     1      -0.980  51.225 -27.463  1.00  0.00     0.014 C 
HETATM   31  C29 UNL     1      -0.195  53.583 -27.877  1.00  0.00     0.014 C 
ENDBRANCH  27  29
ENDBRANCH  26  27
ENDBRANCH  25  26
ENDBRANCH  23  25
ENDBRANCH   1  23
BRANCH  22  32
HETATM   32  O3  UNL     1      -7.280  50.802 -22.797  1.00  0.00    -0.391 OA
HETATM   33  H37 UNL     1      -7.963  50.671 -23.476  1.00  0.00     0.210 HD
ENDBRANCH  22  32
TORSDOF 6
ENDMDL
MODEL 9
REMARK minimizedAffinity -8.86428642
REMARK  6 active torsions:
REMARK  status: ('A' for Active; 'I' for Inactive)
REMARK    1  A    between atoms: C2_2  and  C3_3 
REMARK    2  A    between atoms: C2_2  and  C27_30 
REMARK    3  A    between atoms: C3_3  and  C4_4 
REMARK    4  A    between atoms: C4_4  and  C5_5 
REMARK    5  A    between atoms: C5_5  and  C7_7 
REMARK    6  A    between atoms: C26_28  and  O3_29 
ROOT
HETATM    1  C7  UNL     1      -0.131  49.791 -18.071  1.00  0.00    -0.002 C 
HETATM    2  C8  UNL     1      -1.069  48.606 -17.731  1.00  0.00     0.006 C 
HETATM    3  C9  UNL     1      -1.767  48.219 -19.051  1.00  0.00     0.010 C 
HETATM    4  C10 UNL     1      -1.079  49.075 -20.120  1.00  0.00     0.027 C 
HETATM    5  C11 UNL     1      -1.707  49.318 -21.470  1.00  0.00    -0.036 C 
HETATM    6  C12 UNL     1      -1.371  50.404 -22.212  1.00  0.00     0.002 C 
HETATM    7  C13 UNL     1      -0.402  51.419 -21.620  1.00  0.00     0.157 C 
HETATM    8  O1  UNL     1      -0.073  52.421 -22.254  1.00  0.00    -0.293 OA
HETATM    9  C14 UNL     1       0.183  51.190 -20.235  1.00  0.00     0.093 C 
HETATM   10  C15 UNL     1      -0.774  50.382 -19.360  1.00  0.00    -0.026 C 
HETATM   11  C16 UNL     1      -2.032  51.230 -19.047  1.00  0.00     0.016 C 
HETATM   12  C17 UNL     1      -1.931  50.664 -23.628  1.00  0.00    -0.008 C 
HETATM   13  C18 UNL     1      -2.994  51.786 -23.472  1.00  0.00     0.021 C 
HETATM   14  C19 UNL     1      -0.832  51.140 -24.633  1.00  0.00     0.022 C 
HETATM   15  C20 UNL     1      -1.037  50.731 -26.092  1.00  0.00     0.080 C 
HETATM   16  C21 UNL     1      -2.494  50.560 -26.437  1.00  0.00     0.131 C 
HETATM   17  O2  UNL     1      -2.994  51.107 -27.419  1.00  0.00    -0.298 OA
HETATM   18  C22 UNL     1      -3.300  49.613 -25.561  1.00  0.00     0.056 C 
HETATM   19  C23 UNL     1      -3.563  48.332 -26.353  1.00  0.00     0.018 C 
HETATM   20  C24 UNL     1      -2.556  49.352 -24.227  1.00  0.00     0.012 C 
HETATM   21  C25 UNL     1      -3.453  48.643 -23.203  1.00  0.00     0.042 C 
HETATM   22  C26 UNL     1      -2.651  48.254 -21.963  1.00  0.00     0.148 C 
ENDROOT
BRANCH   1  23
HETATM   23  C5  UNL     1       0.204  50.801 -16.938  1.00  0.00    -0.014 C 
HETATM   24  C6  UNL     1       0.801  52.132 -17.392  1.00  0.00     0.010 C 
BRANCH  23  25
HETATM   25  C4  UNL     1      -0.988  50.998 -15.965  1.00  0.00     0.009 C 
BRANCH  25  26
HETATM   26  C3  UNL     1      -0.814  50.561 -14.503  1.00  0.00     0.034 C 
BRANCH  26  27
HETATM   27  C2  UNL     1      -1.437  51.437 -13.431  1.00  0.00    -0.086 C 
HETATM   28  C1  UNL     1      -0.679  52.337 -12.777  1.00  0.00     0.014 C 
BRANCH  27  29
HETATM   29  C27 UNL     1      -2.939  51.386 -13.155  1.00  0.00     0.005 C 
HETATM   30  C28 UNL     1      -3.382  50.172 -12.335  1.00  0.00     0.014 C 
HETATM   31  C29 UNL     1      -3.465  52.682 -12.534  1.00  0.00     0.014 C 
ENDBRANCH  27  29
ENDBRANCH  26  27
ENDBRANCH  25  26
ENDBRANCH  23  25
ENDBRANCH   1  23
BRANCH  22  32
HETATM   32  O3  UNL     1      -1.854  47.110 -22.254  1.00  0.00    -0.391 OA
HETATM   33  H37 UNL     1      -2.458  46.359 -22.380  1.00  0.00     0.210 HD
ENDBRANCH  22  32
TORSDOF 6
ENDMDL
