MODEL 1
REMARK minimizedAffinity -9.21945953
REMARK CNNscore 0.850853264
REMARK CNNaffinity 7.96538401
REMARK  14 active torsions:
REMARK  status: ('A' for Active; 'I' for Inactive)
REMARK    1  A    between atoms: C2_2  and  C3_3 
REMARK    2  A    between atoms: C3_3  and  C4_4 
REMARK    3  A    between atoms: C7_7  and  C9_9 
REMARK    4  A    between atoms: C10_11  and  C11_12 
REMARK    5  A    between atoms: C12_14  and  O3_15 
REMARK    6  A    between atoms: C12_14  and  C13_16 
REMARK    7  A    between atoms: C13_16  and  O4_17 
REMARK    8  A    between atoms: C26_31  and  O6_32 
REMARK    9  A    between atoms: C29_35  and  C30_36 
REMARK   10  A    between atoms: C30_36  and  C32_38 
REMARK   11  A    between atoms: C32_38  and  O7_39 
REMARK   12  A    between atoms: C32_38  and  C34_41 
REMARK   13  A    between atoms: C34_41  and  C36_43 
REMARK   14  A    between atoms: C36_43  and  O9_45 
ROOT
HETATM    1  C3  UNL     1      -1.557  50.264 -19.031  1.00  0.00     0.090 C 
HETATM    2  C22 UNL     1      -1.452  48.735 -18.973  1.00  0.00     0.046 C 
HETATM    3  C23 UNL     1      -1.092  48.465 -17.533  1.00  0.00     0.072 C 
HETATM    4  C24 UNL     1      -1.756  49.618 -16.775  1.00  0.00     0.168 C 
HETATM    5  C25 UNL     1      -3.018  49.184 -16.021  1.00  0.00     0.100 C 
HETATM    6  C26 UNL     1      -2.642  48.703 -14.630  1.00  0.00     0.129 C 
HETATM    7  C27 UNL     1      -1.907  49.806 -13.826  1.00  0.00     0.040 C 
HETATM    8  C28 UNL     1      -0.850  49.114 -12.948  1.00  0.00     0.015 C 
HETATM    9  C29 UNL     1      -1.315  50.873 -14.782  1.00  0.00     0.137 C 
HETATM   10  O10 UNL     1      -0.763  50.154 -15.895  1.00  0.00    -0.349 OA
HETATM   11  O11 UNL     1      -2.134  50.602 -17.752  1.00  0.00    -0.341 OA
ENDROOT
BRANCH   1  12
HETATM   12  C2  UNL     1      -0.140  50.896 -19.121  1.00  0.00     0.036 C 
HETATM   13  C1  UNL     1      -0.088  52.411 -18.989  1.00  0.00     0.008 C 
ENDBRANCH   1  12
BRANCH   1  14
HETATM   14  C4  UNL     1      -2.460  50.751 -20.197  1.00  0.00     0.157 C 
HETATM   15  C5  UNL     1      -3.784  51.398 -19.821  1.00  0.00     0.038 C 
HETATM   16  C6  UNL     1      -4.517  51.402 -21.147  1.00  0.00     0.043 C 
HETATM   17  C7  UNL     1      -4.000  50.131 -21.851  1.00  0.00     0.084 C 
HETATM   18  C8  UNL     1      -5.095  49.061 -21.812  1.00  0.00     0.049 C 
HETATM   19  O5  UNL     1      -2.883  49.670 -21.054  1.00  0.00    -0.370 OA
BRANCH  17  20
HETATM   20  C9  UNL     1      -3.489  50.489 -23.269  1.00  0.00     0.160 C 
HETATM   21  O1  UNL     1      -2.332  51.341 -23.236  1.00  0.00    -0.375 OA
HETATM   22  C10 UNL     1      -2.062  51.667 -24.613  1.00  0.00     0.152 C 
HETATM   23  C19 UNL     1      -3.442  51.820 -25.260  1.00  0.00     0.041 C 
HETATM   24  C20 UNL     1      -4.421  51.116 -24.315  1.00  0.00     0.016 C 
HETATM   25  C21 UNL     1      -5.464  52.106 -23.817  1.00  0.00     0.012 C 
BRANCH  22  26
HETATM   26  C11 UNL     1      -1.163  52.916 -24.744  1.00  0.00     0.158 C 
HETATM   27  O2  UNL     1      -1.166  53.450 -26.074  1.00  0.00    -0.345 OA
HETATM   28  C12 UNL     1      -0.407  52.744 -27.070  1.00  0.00     0.187 C 
HETATM   29  C14 UNL     1       1.073  52.618 -26.624  1.00  0.00     0.046 C 
HETATM   30  C15 UNL     1       1.948  51.828 -27.598  1.00  0.00     0.015 C 
HETATM   31  C16 UNL     1       1.162  51.994 -25.223  1.00  0.00     0.016 C 
HETATM   32  C17 UNL     1       0.291  52.778 -24.234  1.00  0.00     0.014 C 
HETATM   33  C18 UNL     1       0.419  52.202 -22.826  1.00  0.00     0.012 C 
BRANCH  28  34
HETATM   34  O3  UNL     1      -0.998  51.478 -27.355  1.00  0.00    -0.363 OA
HETATM   35  H17 UNL     1      -0.449  50.783 -26.963  1.00  0.00     0.213 HD
ENDBRANCH  28  34
BRANCH  28  36
HETATM   36  C13 UNL     1      -0.556  53.604 -28.353  1.00  0.00     0.232 C 
BRANCH  36  37
HETATM   37  O4  UNL     1      -1.887  54.094 -28.519  1.00  0.00    -0.396 OA
HETATM   38  H20 UNL     1      -2.457  53.304 -28.434  1.00  0.00     0.209 HD
ENDBRANCH  36  37
ENDBRANCH  28  36
ENDBRANCH  22  26
ENDBRANCH  17  20
ENDBRANCH   1  14
BRANCH   6  39
HETATM   39  O6  UNL     1      -3.814  48.311 -13.914  1.00  0.00    -0.395 OA
HETATM   40  H44 UNL     1      -4.237  47.586 -14.408  1.00  0.00     0.210 HD
ENDBRANCH   6  39
BRANCH   9  41
HETATM   41  C30 UNL     1      -0.229  51.850 -14.217  1.00  0.00     0.041 C 
HETATM   42  C31 UNL     1      -0.397  51.956 -12.686  1.00  0.00     0.015 C 
BRANCH  41  43
HETATM   43  C32 UNL     1       1.227  51.400 -14.604  1.00  0.00     0.141 C 
BRANCH  43  44
HETATM   44  O7  UNL     1       1.853  52.519 -15.244  1.00  0.00    -0.389 OA
HETATM   45  C33 UNL     1       2.523  52.219 -16.459  1.00  0.00     0.202 C 
ENDBRANCH  43  44
BRANCH  43  46
HETATM   46  C34 UNL     1       2.068  50.924 -13.383  1.00  0.00     0.109 C 
HETATM   47  C35 UNL     1       2.968  52.027 -12.821  1.00  0.00     0.024 C 
BRANCH  46  48
HETATM   48  C36 UNL     1       2.884  49.666 -13.613  1.00  0.00     0.145 C 
HETATM   49  O8  UNL     1       2.457  48.619 -14.076  1.00  0.00    -0.650 OA
BRANCH  48  50
HETATM   50  O9  UNL     1       4.203  49.777 -13.370  1.00  0.00    -0.776 OA
HETATM   51  H62 UNL     1       4.563  48.903 -13.641  1.00  0.00     0.167 HD
ENDBRANCH  48  50
ENDBRANCH  46  48
ENDBRANCH  43  46
ENDBRANCH  41  43
ENDBRANCH   9  41
TORSDOF 14
ENDMDL
MODEL 2
REMARK minimizedAffinity -9.0159626
REMARK CNNscore 0.724424064
REMARK CNNaffinity 7.69945097
REMARK  14 active torsions:
REMARK  status: ('A' for Active; 'I' for Inactive)
REMARK    1  A    between atoms: C2_2  and  C3_3 
REMARK    2  A    between atoms: C3_3  and  C4_4 
REMARK    3  A    between atoms: C7_7  and  C9_9 
REMARK    4  A    between atoms: C10_11  and  C11_12 
REMARK    5  A    between atoms: C12_14  and  O3_15 
REMARK    6  A    between atoms: C12_14  and  C13_16 
REMARK    7  A    between atoms: C13_16  and  O4_17 
REMARK    8  A    between atoms: C26_31  and  O6_32 
REMARK    9  A    between atoms: C29_35  and  C30_36 
REMARK   10  A    between atoms: C30_36  and  C32_38 
REMARK   11  A    between atoms: C32_38  and  O7_39 
REMARK   12  A    between atoms: C32_38  and  C34_41 
REMARK   13  A    between atoms: C34_41  and  C36_43 
REMARK   14  A    between atoms: C36_43  and  O9_45 
ROOT
HETATM    1  C3  UNL     1      -3.933  48.723 -23.372  1.00  0.00     0.090 C 
HETATM    2  C22 UNL     1      -3.265  47.864 -22.291  1.00  0.00     0.046 C 
HETATM    3  C23 UNL     1      -1.986  48.609 -21.996  1.00  0.00     0.072 C 
HETATM    4  C24 UNL     1      -2.353  50.071 -22.262  1.00  0.00     0.168 C 
HETATM    5  C25 UNL     1      -2.537  50.881 -20.974  1.00  0.00     0.100 C 
HETATM    6  C26 UNL     1      -1.203  51.465 -20.543  1.00  0.00     0.129 C 
HETATM    7  C27 UNL     1      -0.595  52.369 -21.646  1.00  0.00     0.040 C 
HETATM    8  C28 UNL     1       0.932  52.191 -21.605  1.00  0.00     0.015 C 
HETATM    9  C29 UNL     1      -1.219  52.039 -23.025  1.00  0.00     0.137 C 
HETATM   10  O10 UNL     1      -1.318  50.609 -23.090  1.00  0.00    -0.349 OA
HETATM   11  O11 UNL     1      -3.604  50.069 -22.972  1.00  0.00    -0.341 OA
ENDROOT
BRANCH   1  12
HETATM   12  C2  UNL     1      -3.286  48.442 -24.757  1.00  0.00     0.036 C 
HETATM   13  C1  UNL     1      -4.241  48.452 -25.942  1.00  0.00     0.008 C 
ENDBRANCH   1  12
BRANCH   1  14
HETATM   14  C4  UNL     1      -5.472  48.517 -23.423  1.00  0.00     0.157 C 
HETATM   15  C5  UNL     1      -6.335  49.767 -23.466  1.00  0.00     0.038 C 
HETATM   16  C6  UNL     1      -7.708  49.211 -23.147  1.00  0.00     0.043 C 
HETATM   17  C7  UNL     1      -7.409  48.034 -22.197  1.00  0.00     0.084 C 
HETATM   18  C8  UNL     1      -7.785  48.440 -20.769  1.00  0.00     0.049 C 
HETATM   19  O5  UNL     1      -5.976  47.839 -22.252  1.00  0.00    -0.370 OA
BRANCH  17  20
HETATM   20  C9  UNL     1      -8.108  46.752 -22.715  1.00  0.00     0.160 C 
HETATM   21  O1  UNL     1      -7.380  45.558 -22.383  1.00  0.00    -0.375 OA
HETATM   22  C10 UNL     1      -8.094  44.487 -23.028  1.00  0.00     0.152 C 
HETATM   23  C19 UNL     1      -8.565  45.074 -24.363  1.00  0.00     0.041 C 
HETATM   24  C20 UNL     1      -8.484  46.595 -24.195  1.00  0.00     0.016 C 
HETATM   25  C21 UNL     1      -7.530  47.181 -25.225  1.00  0.00     0.012 C 
BRANCH  22  26
HETATM   26  C11 UNL     1      -7.225  43.219 -23.171  1.00  0.00     0.158 C 
HETATM   27  O2  UNL     1      -7.786  42.275 -24.092  1.00  0.00    -0.345 OA
HETATM   28  C12 UNL     1      -8.914  41.506 -23.642  1.00  0.00     0.187 C 
HETATM   29  C14 UNL     1      -8.551  40.731 -22.349  1.00  0.00     0.046 C 
HETATM   30  C15 UNL     1      -9.712  39.926 -21.763  1.00  0.00     0.015 C 
HETATM   31  C16 UNL     1      -7.994  41.689 -21.285  1.00  0.00     0.016 C 
HETATM   32  C17 UNL     1      -6.827  42.501 -21.859  1.00  0.00     0.014 C 
HETATM   33  C18 UNL     1      -6.228  43.415 -20.792  1.00  0.00     0.012 C 
BRANCH  28  34
HETATM   34  O3  UNL     1     -10.061  42.337 -23.474  1.00  0.00    -0.363 OA
HETATM   35  H17 UNL     1     -10.222  42.456 -22.527  1.00  0.00     0.213 HD
ENDBRANCH  28  34
BRANCH  28  36
HETATM   36  C13 UNL     1      -9.227  40.550 -24.824  1.00  0.00     0.232 C 
BRANCH  36  37
HETATM   37  O4  UNL     1      -9.832  41.234 -25.922  1.00  0.00    -0.396 OA
HETATM   38  H20 UNL     1     -10.579  41.728 -25.528  1.00  0.00     0.209 HD
ENDBRANCH  36  37
ENDBRANCH  28  36
ENDBRANCH  22  26
ENDBRANCH  17  20
ENDBRANCH   1  14
BRANCH   6  39
HETATM   39  O6  UNL     1      -1.367  52.234 -19.351  1.00  0.00    -0.395 OA
HETATM   40  H44 UNL     1      -1.703  51.641 -18.656  1.00  0.00     0.210 HD
ENDBRANCH   6  39
BRANCH   9  41
HETATM   41  C30 UNL     1      -0.490  52.559 -24.310  1.00  0.00     0.041 C 
HETATM   42  C31 UNL     1       0.890  53.122 -23.911  1.00  0.00     0.015 C 
BRANCH  41  43
HETATM   43  C32 UNL     1      -0.358  51.440 -25.406  1.00  0.00     0.141 C 
BRANCH  43  44
HETATM   44  O7  UNL     1      -1.688  51.101 -25.820  1.00  0.00    -0.389 OA
HETATM   45  C33 UNL     1      -2.584  52.198 -25.916  1.00  0.00     0.202 C 
ENDBRANCH  43  44
BRANCH  43  46
HETATM   46  C34 UNL     1       0.503  51.876 -26.629  1.00  0.00     0.109 C 
HETATM   47  C35 UNL     1       2.004  51.842 -26.335  1.00  0.00     0.024 C 
BRANCH  46  48
HETATM   48  C36 UNL     1       0.131  53.217 -27.234  1.00  0.00     0.145 C 
HETATM   49  O8  UNL     1       0.385  54.309 -26.748  1.00  0.00    -0.650 OA
BRANCH  48  50
HETATM   50  O9  UNL     1      -0.438  53.167 -28.452  1.00  0.00    -0.776 OA
HETATM   51  H62 UNL     1      -0.535  54.112 -28.702  1.00  0.00     0.167 HD
ENDBRANCH  48  50
ENDBRANCH  46  48
ENDBRANCH  43  46
ENDBRANCH  41  43
ENDBRANCH   9  41
TORSDOF 14
ENDMDL
MODEL 3
REMARK minimizedAffinity -8.89517879
REMARK CNNscore 0.603941679
REMARK CNNaffinity 6.87917185
REMARK  14 active torsions:
REMARK  status: ('A' for Active; 'I' for Inactive)
REMARK    1  A    between atoms: C2_2  and  C3_3 
REMARK    2  A    between atoms: C3_3  and  C4_4 
REMARK    3  A    between atoms: C7_7  and  C9_9 
REMARK    4  A    between atoms: C10_11  and  C11_12 
REMARK    5  A    between atoms: C12_14  and  O3_15 
REMARK    6  A    between atoms: C12_14  and  C13_16 
REMARK    7  A    between atoms: C13_16  and  O4_17 
REMARK    8  A    between atoms: C26_31  and  O6_32 
REMARK    9  A    between atoms: C29_35  and  C30_36 
REMARK   10  A    between atoms: C30_36  and  C32_38 
REMARK   11  A    between atoms: C32_38  and  O7_39 
REMARK   12  A    between atoms: C32_38  and  C34_41 
REMARK   13  A    between atoms: C34_41  and  C36_43 
REMARK   14  A    between atoms: C36_43  and  O9_45 
ROOT
HETATM    1  C3  UNL     1      -6.488  47.018 -21.828  1.00  0.00     0.090 C 
HETATM    2  C22 UNL     1      -6.361  46.041 -20.652  1.00  0.00     0.046 C 
HETATM    3  C23 UNL     1      -7.542  45.120 -20.836  1.00  0.00     0.072 C 
HETATM    4  C24 UNL     1      -7.748  45.098 -22.353  1.00  0.00     0.168 C 
HETATM    5  C25 UNL     1      -7.266  43.796 -22.999  1.00  0.00     0.100 C 
HETATM    6  C26 UNL     1      -8.392  42.777 -22.997  1.00  0.00     0.129 C 
HETATM    7  C27 UNL     1      -9.639  43.305 -23.753  1.00  0.00     0.040 C 
HETATM    8  C28 UNL     1     -10.884  42.769 -23.028  1.00  0.00     0.015 C 
HETATM    9  C29 UNL     1      -9.599  44.850 -23.855  1.00  0.00     0.137 C 
HETATM   10  O10 UNL     1      -9.143  45.326 -22.579  1.00  0.00    -0.349 OA
HETATM   11  O11 UNL     1      -6.976  46.182 -22.898  1.00  0.00    -0.341 OA
ENDROOT
BRANCH   1  12
HETATM   12  C2  UNL     1      -7.557  48.100 -21.513  1.00  0.00     0.036 C 
HETATM   13  C1  UNL     1      -7.588  48.592 -20.073  1.00  0.00     0.008 C 
ENDBRANCH   1  12
BRANCH   1  14
HETATM   14  C4  UNL     1      -5.129  47.669 -22.204  1.00  0.00     0.157 C 
HETATM   15  C5  UNL     1      -3.914  47.251 -21.391  1.00  0.00     0.038 C 
HETATM   16  C6  UNL     1      -2.902  48.311 -21.774  1.00  0.00     0.043 C 
HETATM   17  C7  UNL     1      -3.765  49.565 -22.017  1.00  0.00     0.084 C 
HETATM   18  C8  UNL     1      -3.589  50.526 -20.837  1.00  0.00     0.049 C 
HETATM   19  O5  UNL     1      -5.136  49.101 -22.025  1.00  0.00    -0.370 OA
BRANCH  17  20
HETATM   20  C9  UNL     1      -3.433  50.169 -23.405  1.00  0.00     0.160 C 
HETATM   21  O1  UNL     1      -2.252  50.986 -23.378  1.00  0.00    -0.375 OA
HETATM   22  C10 UNL     1      -2.154  51.554 -24.698  1.00  0.00     0.152 C 
HETATM   23  C19 UNL     1      -3.601  51.840 -25.113  1.00  0.00     0.041 C 
HETATM   24  C20 UNL     1      -4.472  50.988 -24.184  1.00  0.00     0.016 C 
HETATM   25  C21 UNL     1      -5.403  51.884 -23.379  1.00  0.00     0.012 C 
BRANCH  22  26
HETATM   26  C11 UNL     1      -1.235  52.795 -24.725  1.00  0.00     0.158 C 
HETATM   27  O2  UNL     1      -1.194  53.412 -26.018  1.00  0.00    -0.345 OA
HETATM   28  C12 UNL     1      -0.418  52.759 -27.036  1.00  0.00     0.187 C 
HETATM   29  C14 UNL     1       1.048  52.582 -26.560  1.00  0.00     0.046 C 
HETATM   30  C15 UNL     1       1.939  51.842 -27.559  1.00  0.00     0.015 C 
HETATM   31  C16 UNL     1       1.090  51.869 -25.200  1.00  0.00     0.016 C 
HETATM   32  C17 UNL     1       0.203  52.603 -24.187  1.00  0.00     0.014 C 
HETATM   33  C18 UNL     1       0.284  51.936 -22.816  1.00  0.00     0.012 C 
BRANCH  28  34
HETATM   34  O3  UNL     1      -1.018  51.523 -27.418  1.00  0.00    -0.363 OA
HETATM   35  H17 UNL     1      -0.490  50.796 -27.056  1.00  0.00     0.213 HD
ENDBRANCH  28  34
BRANCH  28  36
HETATM   36  C13 UNL     1      -0.519  53.701 -28.265  1.00  0.00     0.232 C 
BRANCH  36  37
HETATM   37  O4  UNL     1      -1.848  54.186 -28.461  1.00  0.00    -0.396 OA
HETATM   38  H20 UNL     1      -2.410  53.385 -28.456  1.00  0.00     0.209 HD
ENDBRANCH  36  37
ENDBRANCH  28  36
ENDBRANCH  22  26
ENDBRANCH  17  20
ENDBRANCH   1  14
BRANCH   6  39
HETATM   39  O6  UNL     1      -7.957  41.563 -23.612  1.00  0.00    -0.395 OA
HETATM   40  H44 UNL     1      -7.205  41.221 -23.096  1.00  0.00     0.210 HD
ENDBRANCH   6  39
BRANCH   9  41
HETATM   41  C30 UNL     1     -10.920  45.600 -24.236  1.00  0.00     0.041 C 
HETATM   42  C31 UNL     1     -11.296  46.567 -23.093  1.00  0.00     0.015 C 
BRANCH  41  43
HETATM   43  C32 UNL     1     -10.794  46.356 -25.608  1.00  0.00     0.141 C 
BRANCH  43  44
HETATM   44  O7  UNL     1     -10.289  45.412 -26.561  1.00  0.00    -0.389 OA
HETATM   45  C33 UNL     1      -9.221  45.886 -27.367  1.00  0.00     0.202 C 
ENDBRANCH  43  44
BRANCH  43  46
HETATM   46  C34 UNL     1     -12.141  46.965 -26.100  1.00  0.00     0.109 C 
HETATM   47  C35 UNL     1     -13.095  45.909 -26.661  1.00  0.00     0.024 C 
BRANCH  46  48
HETATM   48  C36 UNL     1     -12.008  48.109 -27.088  1.00  0.00     0.145 C 
HETATM   49  O8  UNL     1     -12.455  48.120 -28.225  1.00  0.00    -0.650 OA
BRANCH  48  50
HETATM   50  O9  UNL     1     -11.431  49.226 -26.609  1.00  0.00    -0.776 OA
HETATM   51  H62 UNL     1     -11.502  49.862 -27.355  1.00  0.00     0.167 HD
ENDBRANCH  48  50
ENDBRANCH  46  48
ENDBRANCH  43  46
ENDBRANCH  41  43
ENDBRANCH   9  41
TORSDOF 14
ENDMDL
MODEL 4
REMARK minimizedAffinity -9.99556828
REMARK CNNscore 0.59184289
REMARK CNNaffinity 7.95676613
REMARK  14 active torsions:
REMARK  status: ('A' for Active; 'I' for Inactive)
REMARK    1  A    between atoms: C2_2  and  C3_3 
REMARK    2  A    between atoms: C3_3  and  C4_4 
REMARK    3  A    between atoms: C7_7  and  C9_9 
REMARK    4  A    between atoms: C10_11  and  C11_12 
REMARK    5  A    between atoms: C12_14  and  O3_15 
REMARK    6  A    between atoms: C12_14  and  C13_16 
REMARK    7  A    between atoms: C13_16  and  O4_17 
REMARK    8  A    between atoms: C26_31  and  O6_32 
REMARK    9  A    between atoms: C29_35  and  C30_36 
REMARK   10  A    between atoms: C30_36  and  C32_38 
REMARK   11  A    between atoms: C32_38  and  O7_39 
REMARK   12  A    between atoms: C32_38  and  C34_41 
REMARK   13  A    between atoms: C34_41  and  C36_43 
REMARK   14  A    between atoms: C36_43  and  O9_45 
ROOT
HETATM    1  C3  UNL     1      -1.569  50.998 -21.637  1.00  0.00     0.090 C 
HETATM    2  C22 UNL     1      -3.060  51.348 -21.728  1.00  0.00     0.046 C 
HETATM    3  C23 UNL     1      -3.299  51.468 -23.213  1.00  0.00     0.072 C 
HETATM    4  C24 UNL     1      -2.292  50.487 -23.820  1.00  0.00     0.168 C 
HETATM    5  C25 UNL     1      -2.950  49.197 -24.323  1.00  0.00     0.100 C 
HETATM    6  C26 UNL     1      -3.393  49.378 -25.764  1.00  0.00     0.129 C 
HETATM    7  C27 UNL     1      -2.202  49.750 -26.683  1.00  0.00     0.040 C 
HETATM    8  C28 UNL     1      -2.726  50.722 -27.753  1.00  0.00     0.015 C 
HETATM    9  C29 UNL     1      -1.028  50.322 -25.849  1.00  0.00     0.137 C 
HETATM   10  O10 UNL     1      -1.618  51.189 -24.868  1.00  0.00    -0.349 OA
HETATM   11  O11 UNL     1      -1.363  50.140 -22.779  1.00  0.00    -0.341 OA
ENDROOT
BRANCH   1  12
HETATM   12  C2  UNL     1      -0.706  52.278 -21.813  1.00  0.00     0.036 C 
HETATM   13  C1  UNL     1       0.786  52.043 -21.999  1.00  0.00     0.008 C 
ENDBRANCH   1  12
BRANCH   1  14
HETATM   14  C4  UNL     1      -1.214  50.263 -20.316  1.00  0.00     0.157 C 
HETATM   15  C5  UNL     1      -1.686  48.825 -20.177  1.00  0.00     0.038 C 
HETATM   16  C6  UNL     1      -1.495  48.574 -18.696  1.00  0.00     0.043 C 
HETATM   17  C7  UNL     1      -1.759  49.954 -18.058  1.00  0.00     0.084 C 
HETATM   18  C8  UNL     1      -3.132  49.934 -17.381  1.00  0.00     0.049 C 
HETATM   19  O5  UNL     1      -1.808  50.891 -19.160  1.00  0.00    -0.370 OA
BRANCH  17  20
HETATM   20  C9  UNL     1      -0.579  50.336 -17.129  1.00  0.00     0.160 C 
HETATM   21  O1  UNL     1      -1.015  50.684 -15.805  1.00  0.00    -0.375 OA
HETATM   22  C10 UNL     1       0.172  51.118 -15.116  1.00  0.00     0.152 C 
HETATM   23  C19 UNL     1       0.985  51.876 -16.171  1.00  0.00     0.041 C 
HETATM   24  C20 UNL     1       0.421  51.430 -17.524  1.00  0.00     0.016 C 
HETATM   25  C21 UNL     1      -0.122  52.633 -18.281  1.00  0.00     0.012 C 
BRANCH  22  26
HETATM   26  C11 UNL     1      -0.161  51.952 -13.860  1.00  0.00     0.158 C 
HETATM   27  O2  UNL     1       1.015  52.442 -13.205  1.00  0.00    -0.345 OA
HETATM   28  C12 UNL     1       1.780  51.502 -12.432  1.00  0.00     0.187 C 
HETATM   29  C14 UNL     1       0.884  50.847 -11.348  1.00  0.00     0.046 C 
HETATM   30  C15 UNL     1       1.600  49.787 -10.511  1.00  0.00     0.015 C 
HETATM   31  C16 UNL     1      -0.376  50.242 -11.985  1.00  0.00     0.016 C 
HETATM   32  C17 UNL     1      -1.107  51.296 -12.825  1.00  0.00     0.014 C 
HETATM   33  C18 UNL     1      -2.393  50.722 -13.415  1.00  0.00     0.012 C 
BRANCH  28  34
HETATM   34  O3  UNL     1       2.402  50.537 -13.278  1.00  0.00    -0.363 OA
HETATM   35  H17 UNL     1       1.939  49.693 -13.179  1.00  0.00     0.213 HD
ENDBRANCH  28  34
BRANCH  28  36
HETATM   36  C13 UNL     1       2.920  52.349 -11.809  1.00  0.00     0.232 C 
BRANCH  36  37
HETATM   37  O4  UNL     1       2.502  53.684 -11.523  1.00  0.00    -0.396 OA
HETATM   38  H20 UNL     1       2.102  54.005 -12.356  1.00  0.00     0.209 HD
ENDBRANCH  36  37
ENDBRANCH  28  36
ENDBRANCH  22  26
ENDBRANCH  17  20
ENDBRANCH   1  14
BRANCH   6  39
HETATM   39  O6  UNL     1      -3.994  48.175 -26.246  1.00  0.00    -0.395 OA
HETATM   40  H44 UNL     1      -4.768  47.983 -25.688  1.00  0.00     0.210 HD
ENDBRANCH   6  39
BRANCH   9  41
HETATM   41  C30 UNL     1       0.104  51.099 -26.601  1.00  0.00     0.041 C 
HETATM   42  C31 UNL     1      -0.444  51.598 -27.955  1.00  0.00     0.015 C 
BRANCH  41  43
HETATM   43  C32 UNL     1       0.677  52.284 -25.742  1.00  0.00     0.141 C 
BRANCH  43  44
HETATM   44  O7  UNL     1       2.079  52.368 -26.026  1.00  0.00    -0.389 OA
HETATM   45  C33 UNL     1       2.567  51.388 -26.929  1.00  0.00     0.202 C 
ENDBRANCH  43  44
BRANCH  43  46
HETATM   46  C34 UNL     1      -0.023  53.646 -26.030  1.00  0.00     0.109 C 
HETATM   47  C35 UNL     1      -0.004  54.016 -27.515  1.00  0.00     0.024 C 
BRANCH  46  48
HETATM   48  C36 UNL     1       0.479  54.817 -25.206  1.00  0.00     0.145 C 
HETATM   49  O8  UNL     1       1.054  54.731 -24.131  1.00  0.00    -0.650 OA
BRANCH  48  50
HETATM   50  O9  UNL     1       0.354  56.027 -25.779  1.00  0.00    -0.776 OA
HETATM   51  H62 UNL     1       0.792  56.633 -25.141  1.00  0.00     0.167 HD
ENDBRANCH  48  50
ENDBRANCH  46  48
ENDBRANCH  43  46
ENDBRANCH  41  43
ENDBRANCH   9  41
TORSDOF 14
ENDMDL
MODEL 5
REMARK minimizedAffinity -9.4206171
REMARK CNNscore 0.589724481
REMARK CNNaffinity 7.54786348
REMARK  14 active torsions:
REMARK  status: ('A' for Active; 'I' for Inactive)
REMARK    1  A    between atoms: C2_2  and  C3_3 
REMARK    2  A    between atoms: C3_3  and  C4_4 
REMARK    3  A    between atoms: C7_7  and  C9_9 
REMARK    4  A    between atoms: C10_11  and  C11_12 
REMARK    5  A    between atoms: C12_14  and  O3_15 
REMARK    6  A    between atoms: C12_14  and  C13_16 
REMARK    7  A    between atoms: C13_16  and  O4_17 
REMARK    8  A    between atoms: C26_31  and  O6_32 
REMARK    9  A    between atoms: C29_35  and  C30_36 
REMARK   10  A    between atoms: C30_36  and  C32_38 
REMARK   11  A    between atoms: C32_38  and  O7_39 
REMARK   12  A    between atoms: C32_38  and  C34_41 
REMARK   13  A    between atoms: C34_41  and  C36_43 
REMARK   14  A    between atoms: C36_43  and  O9_45 
ROOT
HETATM    1  C3  UNL     1      -1.814  50.867 -18.904  1.00  0.00     0.090 C 
HETATM    2  C22 UNL     1      -0.764  49.752 -18.993  1.00  0.00     0.046 C 
HETATM    3  C23 UNL     1      -0.432  49.471 -17.548  1.00  0.00     0.072 C 
HETATM    4  C24 UNL     1      -1.737  49.789 -16.812  1.00  0.00     0.168 C 
HETATM    5  C25 UNL     1      -2.489  48.531 -16.366  1.00  0.00     0.100 C 
HETATM    6  C26 UNL     1      -2.007  48.109 -14.989  1.00  0.00     0.129 C 
HETATM    7  C27 UNL     1      -2.210  49.236 -13.944  1.00  0.00     0.040 C 
HETATM    8  C28 UNL     1      -1.031  49.176 -12.959  1.00  0.00     0.015 C 
HETATM    9  C29 UNL     1      -2.359  50.609 -14.648  1.00  0.00     0.137 C 
HETATM   10  O10 UNL     1      -1.388  50.627 -15.705  1.00  0.00    -0.349 OA
HETATM   11  O11 UNL     1      -2.575  50.510 -17.732  1.00  0.00    -0.341 OA
ENDROOT
BRANCH   1  12
HETATM   12  C2  UNL     1      -1.122  52.236 -18.652  1.00  0.00     0.036 C 
HETATM   13  C1  UNL     1       0.266  52.390 -19.256  1.00  0.00     0.008 C 
ENDBRANCH   1  12
BRANCH   1  14
HETATM   14  C4  UNL     1      -2.722  50.925 -20.163  1.00  0.00     0.157 C 
HETATM   15  C5  UNL     1      -4.217  51.075 -19.930  1.00  0.00     0.038 C 
HETATM   16  C6  UNL     1      -4.782  50.734 -21.293  1.00  0.00     0.043 C 
HETATM   17  C7  UNL     1      -3.788  49.693 -21.847  1.00  0.00     0.084 C 
HETATM   18  C8  UNL     1      -4.434  48.306 -21.780  1.00  0.00     0.049 C 
HETATM   19  O5  UNL     1      -2.657  49.713 -20.945  1.00  0.00    -0.370 OA
BRANCH  17  20
HETATM   20  C9  UNL     1      -3.311  50.122 -23.257  1.00  0.00     0.160 C 
HETATM   21  O1  UNL     1      -2.206  51.039 -23.207  1.00  0.00    -0.375 OA
HETATM   22  C10 UNL     1      -1.967  51.421 -24.574  1.00  0.00     0.152 C 
HETATM   23  C19 UNL     1      -3.359  51.512 -25.208  1.00  0.00     0.041 C 
HETATM   24  C20 UNL     1      -4.287  50.724 -24.278  1.00  0.00     0.016 C 
HETATM   25  C21 UNL     1      -5.383  51.635 -23.743  1.00  0.00     0.012 C 
BRANCH  22  26
HETATM   26  C11 UNL     1      -1.145  52.724 -24.674  1.00  0.00     0.158 C 
HETATM   27  O2  UNL     1      -1.179  53.290 -25.991  1.00  0.00    -0.345 OA
HETATM   28  C12 UNL     1      -0.379  52.654 -27.002  1.00  0.00     0.187 C 
HETATM   29  C14 UNL     1       1.105  52.606 -26.557  1.00  0.00     0.046 C 
HETATM   30  C15 UNL     1       2.027  51.894 -27.549  1.00  0.00     0.015 C 
HETATM   31  C16 UNL     1       1.232  51.955 -25.172  1.00  0.00     0.016 C 
HETATM   32  C17 UNL     1       0.315  52.662 -24.166  1.00  0.00     0.014 C 
HETATM   33  C18 UNL     1       0.477  52.060 -22.772  1.00  0.00     0.012 C 
BRANCH  28  34
HETATM   34  O3  UNL     1      -0.894  51.363 -27.319  1.00  0.00    -0.363 OA
HETATM   35  H17 UNL     1      -0.305  50.693 -26.943  1.00  0.00     0.213 HD
ENDBRANCH  28  34
BRANCH  28  36
HETATM   36  C13 UNL     1      -0.579  53.535 -28.264  1.00  0.00     0.232 C 
BRANCH  36  37
HETATM   37  O4  UNL     1      -1.925  53.994 -28.391  1.00  0.00    -0.396 OA
HETATM   38  H20 UNL     1      -2.474  53.187 -28.309  1.00  0.00     0.209 HD
ENDBRANCH  36  37
ENDBRANCH  28  36
ENDBRANCH  22  26
ENDBRANCH  17  20
ENDBRANCH   1  14
BRANCH   6  39
HETATM   39  O6  UNL     1      -2.714  46.945 -14.558  1.00  0.00    -0.395 OA
HETATM   40  H44 UNL     1      -2.536  46.234 -15.198  1.00  0.00     0.210 HD
ENDBRANCH   6  39
BRANCH   9  41
HETATM   41  C30 UNL     1      -2.195  51.904 -13.783  1.00  0.00     0.041 C 
HETATM   42  C31 UNL     1      -3.590  52.505 -13.508  1.00  0.00     0.015 C 
BRANCH  41  43
HETATM   43  C32 UNL     1      -1.416  51.625 -12.446  1.00  0.00     0.141 C 
BRANCH  43  44
HETATM   44  O7  UNL     1      -0.339  52.568 -12.384  1.00  0.00    -0.389 OA
HETATM   45  C33 UNL     1       0.873  52.134 -12.982  1.00  0.00     0.202 C 
ENDBRANCH  43  44
BRANCH  43  46
HETATM   46  C34 UNL     1      -2.315  51.735 -11.178  1.00  0.00     0.109 C 
HETATM   47  C35 UNL     1      -3.784  51.420 -11.467  1.00  0.00     0.024 C 
BRANCH  46  48
HETATM   48  C36 UNL     1      -2.213  53.050 -10.427  1.00  0.00     0.145 C 
HETATM   49  O8  UNL     1      -2.079  53.167  -9.219  1.00  0.00    -0.650 OA
BRANCH  48  50
HETATM   50  O9  UNL     1      -2.170  54.155 -11.194  1.00  0.00    -0.776 OA
HETATM   51  H62 UNL     1      -2.032  54.881 -10.547  1.00  0.00     0.167 HD
ENDBRANCH  48  50
ENDBRANCH  46  48
ENDBRANCH  43  46
ENDBRANCH  41  43
ENDBRANCH   9  41
TORSDOF 14
ENDMDL
MODEL 6
REMARK minimizedAffinity -8.11553669
REMARK CNNscore 0.586480141
REMARK CNNaffinity 6.77767515
REMARK  14 active torsions:
REMARK  status: ('A' for Active; 'I' for Inactive)
REMARK    1  A    between atoms: C2_2  and  C3_3 
REMARK    2  A    between atoms: C3_3  and  C4_4 
REMARK    3  A    between atoms: C7_7  and  C9_9 
REMARK    4  A    between atoms: C10_11  and  C11_12 
REMARK    5  A    between atoms: C12_14  and  O3_15 
REMARK    6  A    between atoms: C12_14  and  C13_16 
REMARK    7  A    between atoms: C13_16  and  O4_17 
REMARK    8  A    between atoms: C26_31  and  O6_32 
REMARK    9  A    between atoms: C29_35  and  C30_36 
REMARK   10  A    between atoms: C30_36  and  C32_38 
REMARK   11  A    between atoms: C32_38  and  O7_39 
REMARK   12  A    between atoms: C32_38  and  C34_41 
REMARK   13  A    between atoms: C34_41  and  C36_43 
REMARK   14  A    between atoms: C36_43  and  O9_45 
ROOT
HETATM    1  C3  UNL     1      -6.333  47.198 -21.598  1.00  0.00     0.090 C 
HETATM    2  C22 UNL     1      -7.535  47.963 -22.167  1.00  0.00     0.046 C 
HETATM    3  C23 UNL     1      -8.603  47.763 -21.120  1.00  0.00     0.072 C 
HETATM    4  C24 UNL     1      -7.808  47.641 -19.816  1.00  0.00     0.168 C 
HETATM    5  C25 UNL     1      -7.895  48.901 -18.949  1.00  0.00     0.100 C 
HETATM    6  C26 UNL     1      -9.100  48.807 -18.030  1.00  0.00     0.129 C 
HETATM    7  C27 UNL     1      -9.028  47.552 -17.123  1.00  0.00     0.040 C 
HETATM    8  C28 UNL     1     -10.463  47.030 -16.936  1.00  0.00     0.015 C 
HETATM    9  C29 UNL     1      -8.061  46.501 -17.724  1.00  0.00     0.137 C 
HETATM   10  O10 UNL     1      -8.311  46.487 -19.137  1.00  0.00    -0.349 OA
HETATM   11  O11 UNL     1      -6.431  47.440 -20.180  1.00  0.00    -0.341 OA
ENDROOT
BRANCH   1  12
HETATM   12  C2  UNL     1      -6.496  45.674 -21.857  1.00  0.00     0.036 C 
HETATM   13  C1  UNL     1      -7.397  45.300 -23.025  1.00  0.00     0.008 C 
ENDBRANCH   1  12
BRANCH   1  14
HETATM   14  C4  UNL     1      -4.982  47.718 -22.161  1.00  0.00     0.157 C 
HETATM   15  C5  UNL     1      -3.715  47.091 -21.603  1.00  0.00     0.038 C 
HETATM   16  C6  UNL     1      -2.650  48.055 -22.084  1.00  0.00     0.043 C 
HETATM   17  C7  UNL     1      -3.372  49.418 -22.087  1.00  0.00     0.084 C 
HETATM   18  C8  UNL     1      -2.879  50.243 -20.894  1.00  0.00     0.049 C 
HETATM   19  O5  UNL     1      -4.774  49.120 -21.887  1.00  0.00    -0.370 OA
BRANCH  17  20
HETATM   20  C9  UNL     1      -3.198  50.100 -23.468  1.00  0.00     0.160 C 
HETATM   21  O1  UNL     1      -2.027  50.930 -23.525  1.00  0.00    -0.375 OA
HETATM   22  C10 UNL     1      -2.078  51.570 -24.814  1.00  0.00     0.152 C 
HETATM   23  C19 UNL     1      -3.564  51.859 -25.053  1.00  0.00     0.041 C 
HETATM   24  C20 UNL     1      -4.322  50.946 -24.083  1.00  0.00     0.016 C 
HETATM   25  C21 UNL     1      -5.165  51.785 -23.134  1.00  0.00     0.012 C 
BRANCH  22  26
HETATM   26  C11 UNL     1      -1.176  52.822 -24.873  1.00  0.00     0.158 C 
HETATM   27  O2  UNL     1      -1.152  53.414 -26.179  1.00  0.00    -0.345 OA
HETATM   28  C12 UNL     1      -0.374  52.751 -27.189  1.00  0.00     0.187 C 
HETATM   29  C14 UNL     1       1.096  52.604 -26.720  1.00  0.00     0.046 C 
HETATM   30  C15 UNL     1       1.991  51.856 -27.710  1.00  0.00     0.015 C 
HETATM   31  C16 UNL     1       1.158  51.919 -25.346  1.00  0.00     0.016 C 
HETATM   32  C17 UNL     1       0.268  52.661 -24.341  1.00  0.00     0.014 C 
HETATM   33  C18 UNL     1       0.367  52.023 -22.958  1.00  0.00     0.012 C 
BRANCH  28  34
HETATM   34  O3  UNL     1      -0.960  51.500 -27.541  1.00  0.00    -0.363 OA
HETATM   35  H17 UNL     1      -0.420  50.787 -27.169  1.00  0.00     0.213 HD
ENDBRANCH  28  34
BRANCH  28  36
HETATM   36  C13 UNL     1      -0.497  53.666 -28.436  1.00  0.00     0.232 C 
BRANCH  36  37
HETATM   37  O4  UNL     1      -1.798  54.246 -28.550  1.00  0.00    -0.396 OA
HETATM   38  H20 UNL     1      -2.415  53.490 -28.479  1.00  0.00     0.209 HD
ENDBRANCH  36  37
ENDBRANCH  28  36
ENDBRANCH  22  26
ENDBRANCH  17  20
ENDBRANCH   1  14
BRANCH   6  39
HETATM   39  O6  UNL     1      -9.180  49.971 -17.206  1.00  0.00    -0.395 OA
HETATM   40  H44 UNL     1      -9.274  50.745 -17.790  1.00  0.00     0.210 HD
ENDBRANCH   6  39
BRANCH   9  41
HETATM   41  C30 UNL     1      -8.131  45.035 -17.178  1.00  0.00     0.041 C 
HETATM   42  C31 UNL     1      -8.653  44.108 -18.296  1.00  0.00     0.015 C 
BRANCH  41  43
HETATM   43  C32 UNL     1      -6.742  44.545 -16.628  1.00  0.00     0.141 C 
BRANCH  43  44
HETATM   44  O7  UNL     1      -6.615  43.163 -16.986  1.00  0.00    -0.389 OA
HETATM   45  C33 UNL     1      -6.414  42.277 -15.895  1.00  0.00     0.202 C 
ENDBRANCH  43  44
BRANCH  43  46
HETATM   46  C34 UNL     1      -5.538  45.367 -17.178  1.00  0.00     0.109 C 
HETATM   47  C35 UNL     1      -4.856  44.689 -18.368  1.00  0.00     0.024 C 
BRANCH  46  48
HETATM   48  C36 UNL     1      -4.497  45.755 -16.146  1.00  0.00     0.145 C 
HETATM   49  O8  UNL     1      -3.388  45.254 -16.034  1.00  0.00    -0.650 OA
BRANCH  48  50
HETATM   50  O9  UNL     1      -4.814  46.806 -15.367  1.00  0.00    -0.776 OA
HETATM   51  H62 UNL     1      -4.005  46.947 -14.827  1.00  0.00     0.167 HD
ENDBRANCH  48  50
ENDBRANCH  46  48
ENDBRANCH  43  46
ENDBRANCH  41  43
ENDBRANCH   9  41
TORSDOF 14
ENDMDL
MODEL 7
REMARK minimizedAffinity -8.95918465
REMARK CNNscore 0.580215275
REMARK CNNaffinity 7.67945623
REMARK  14 active torsions:
REMARK  status: ('A' for Active; 'I' for Inactive)
REMARK    1  A    between atoms: C2_2  and  C3_3 
REMARK    2  A    between atoms: C3_3  and  C4_4 
REMARK    3  A    between atoms: C7_7  and  C9_9 
REMARK    4  A    between atoms: C10_11  and  C11_12 
REMARK    5  A    between atoms: C12_14  and  O3_15 
REMARK    6  A    between atoms: C12_14  and  C13_16 
REMARK    7  A    between atoms: C13_16  and  O4_17 
REMARK    8  A    between atoms: C26_31  and  O6_32 
REMARK    9  A    between atoms: C29_35  and  C30_36 
REMARK   10  A    between atoms: C30_36  and  C32_38 
REMARK   11  A    between atoms: C32_38  and  O7_39 
REMARK   12  A    between atoms: C32_38  and  C34_41 
REMARK   13  A    between atoms: C34_41  and  C36_43 
REMARK   14  A    between atoms: C36_43  and  O9_45 
ROOT
HETATM    1  C3  UNL     1      -1.792  50.966 -21.525  1.00  0.00     0.090 C 
HETATM    2  C22 UNL     1      -3.206  51.555 -21.606  1.00  0.00     0.046 C 
HETATM    3  C23 UNL     1      -3.411  51.766 -23.086  1.00  0.00     0.072 C 
HETATM    4  C24 UNL     1      -2.569  50.657 -23.726  1.00  0.00     0.168 C 
HETATM    5  C25 UNL     1      -3.421  49.510 -24.278  1.00  0.00     0.100 C 
HETATM    6  C26 UNL     1      -3.818  49.811 -25.713  1.00  0.00     0.129 C 
HETATM    7  C27 UNL     1      -2.574  50.019 -26.615  1.00  0.00     0.040 C 
HETATM    8  C28 UNL     1      -2.926  51.101 -27.650  1.00  0.00     0.015 C 
HETATM    9  C29 UNL     1      -1.331  50.365 -25.757  1.00  0.00     0.137 C 
HETATM   10  O10 UNL     1      -1.782  51.279 -24.746  1.00  0.00    -0.349 OA
HETATM   11  O11 UNL     1      -1.716  50.128 -22.697  1.00  0.00    -0.341 OA
ENDROOT
BRANCH   1  12
HETATM   12  C2  UNL     1      -0.732  52.097 -21.651  1.00  0.00     0.036 C 
HETATM   13  C1  UNL     1       0.158  52.300 -20.434  1.00  0.00     0.008 C 
ENDBRANCH   1  12
BRANCH   1  14
HETATM   14  C4  UNL     1      -1.570  50.137 -20.231  1.00  0.00     0.157 C 
HETATM   15  C5  UNL     1      -0.862  48.800 -20.380  1.00  0.00     0.038 C 
HETATM   16  C6  UNL     1      -1.146  48.145 -19.043  1.00  0.00     0.043 C 
HETATM   17  C7  UNL     1      -2.537  48.691 -18.661  1.00  0.00     0.084 C 
HETATM   18  C8  UNL     1      -3.577  47.585 -18.865  1.00  0.00     0.049 C 
HETATM   19  O5  UNL     1      -2.812  49.755 -19.602  1.00  0.00    -0.370 OA
BRANCH  17  20
HETATM   20  C9  UNL     1      -2.491  49.286 -17.232  1.00  0.00     0.160 C 
HETATM   21  O1  UNL     1      -1.156  49.616 -16.817  1.00  0.00    -0.375 OA
HETATM   22  C10 UNL     1      -1.277  50.040 -15.447  1.00  0.00     0.152 C 
HETATM   23  C19 UNL     1      -2.353  49.129 -14.845  1.00  0.00     0.041 C 
HETATM   24  C20 UNL     1      -3.111  48.542 -16.040  1.00  0.00     0.016 C 
HETATM   25  C21 UNL     1      -2.999  47.024 -16.030  1.00  0.00     0.012 C 
BRANCH  22  26
HETATM   26  C11 UNL     1       0.076  49.990 -14.705  1.00  0.00     0.158 C 
HETATM   27  O2  UNL     1      -0.083  49.766 -13.298  1.00  0.00    -0.345 OA
HETATM   28  C12 UNL     1      -0.531  50.874 -12.500  1.00  0.00     0.187 C 
HETATM   29  C14 UNL     1       0.430  52.079 -12.671  1.00  0.00     0.046 C 
HETATM   30  C15 UNL     1       0.001  53.328 -11.900  1.00  0.00     0.015 C 
HETATM   31  C16 UNL     1       0.606  52.421 -14.158  1.00  0.00     0.016 C 
HETATM   32  C17 UNL     1       1.040  51.177 -14.943  1.00  0.00     0.014 C 
HETATM   33  C18 UNL     1       1.274  51.520 -16.412  1.00  0.00     0.012 C 
BRANCH  28  34
HETATM   34  O3  UNL     1      -1.882  51.209 -12.809  1.00  0.00    -0.363 OA
HETATM   35  H17 UNL     1      -1.890  52.035 -13.313  1.00  0.00     0.213 HD
ENDBRANCH  28  34
BRANCH  28  36
HETATM   36  C13 UNL     1      -0.528  50.331 -11.046  1.00  0.00     0.232 C 
BRANCH  36  37
HETATM   37  O4  UNL     1       0.777  49.931 -10.626  1.00  0.00    -0.396 OA
HETATM   38  H20 UNL     1       1.097  49.336 -11.333  1.00  0.00     0.209 HD
ENDBRANCH  36  37
ENDBRANCH  28  36
ENDBRANCH  22  26
ENDBRANCH  17  20
ENDBRANCH   1  14
BRANCH   6  39
HETATM   39  O6  UNL     1      -4.600  48.739 -26.241  1.00  0.00    -0.395 OA
HETATM   40  H44 UNL     1      -5.399  48.654 -25.692  1.00  0.00     0.210 HD
ENDBRANCH   6  39
BRANCH   9  41
HETATM   41  C30 UNL     1      -0.082  50.976 -26.477  1.00  0.00     0.041 C 
HETATM   42  C31 UNL     1      -0.514  51.519 -27.856  1.00  0.00     0.015 C 
BRANCH  41  43
HETATM   43  C32 UNL     1       0.609  52.092 -25.612  1.00  0.00     0.141 C 
BRANCH  43  44
HETATM   44  O7  UNL     1       1.958  52.210 -26.083  1.00  0.00    -0.389 OA
HETATM   45  C33 UNL     1       2.614  50.977 -26.340  1.00  0.00     0.202 C 
ENDBRANCH  43  44
BRANCH  43  46
HETATM   46  C34 UNL     1      -0.120  53.467 -25.686  1.00  0.00     0.109 C 
HETATM   47  C35 UNL     1      -0.165  54.034 -27.107  1.00  0.00     0.024 C 
BRANCH  46  48
HETATM   48  C36 UNL     1       0.400  54.524 -24.730  1.00  0.00     0.145 C 
HETATM   49  O8  UNL     1       0.864  54.310 -23.621  1.00  0.00    -0.650 OA
BRANCH  48  50
HETATM   50  O9  UNL     1       0.428  55.780 -25.213  1.00  0.00    -0.776 OA
HETATM   51  H62 UNL     1       0.854  56.295 -24.492  1.00  0.00     0.167 HD
ENDBRANCH  48  50
ENDBRANCH  46  48
ENDBRANCH  43  46
ENDBRANCH  41  43
ENDBRANCH   9  41
TORSDOF 14
ENDMDL
MODEL 8
REMARK minimizedAffinity -8.02370167
REMARK CNNscore 0.566099524
REMARK CNNaffinity 7.25219965
REMARK  14 active torsions:
REMARK  status: ('A' for Active; 'I' for Inactive)
REMARK    1  A    between atoms: C2_2  and  C3_3 
REMARK    2  A    between atoms: C3_3  and  C4_4 
REMARK    3  A    between atoms: C7_7  and  C9_9 
REMARK    4  A    between atoms: C10_11  and  C11_12 
REMARK    5  A    between atoms: C12_14  and  O3_15 
REMARK    6  A    between atoms: C12_14  and  C13_16 
REMARK    7  A    between atoms: C13_16  and  O4_17 
REMARK    8  A    between atoms: C26_31  and  O6_32 
REMARK    9  A    between atoms: C29_35  and  C30_36 
REMARK   10  A    between atoms: C30_36  and  C32_38 
REMARK   11  A    between atoms: C32_38  and  O7_39 
REMARK   12  A    between atoms: C32_38  and  C34_41 
REMARK   13  A    between atoms: C34_41  and  C36_43 
REMARK   14  A    between atoms: C36_43  and  O9_45 
ROOT
HETATM    1  C3  UNL     1      -4.642  49.145 -23.156  1.00  0.00     0.090 C 
HETATM    2  C22 UNL     1      -3.788  48.085 -22.449  1.00  0.00     0.046 C 
HETATM    3  C23 UNL     1      -2.405  48.690 -22.456  1.00  0.00     0.072 C 
HETATM    4  C24 UNL     1      -2.673  50.197 -22.403  1.00  0.00     0.168 C 
HETATM    5  C25 UNL     1      -2.390  50.802 -21.025  1.00  0.00     0.100 C 
HETATM    6  C26 UNL     1      -0.934  51.225 -20.941  1.00  0.00     0.129 C 
HETATM    7  C27 UNL     1      -0.574  52.251 -22.046  1.00  0.00     0.040 C 
HETATM    8  C28 UNL     1       0.871  51.970 -22.489  1.00  0.00     0.015 C 
HETATM    9  C29 UNL     1      -1.601  52.184 -23.206  1.00  0.00     0.137 C 
HETATM   10  O10 UNL     1      -1.868  50.791 -23.426  1.00  0.00    -0.349 OA
HETATM   11  O11 UNL     1      -4.068  50.387 -22.699  1.00  0.00    -0.341 OA
ENDROOT
BRANCH   1  12
HETATM   12  C2  UNL     1      -4.454  49.045 -24.696  1.00  0.00     0.036 C 
HETATM   13  C1  UNL     1      -3.329  48.132 -25.162  1.00  0.00     0.008 C 
ENDBRANCH   1  12
BRANCH   1  14
HETATM   14  C4  UNL     1      -6.143  49.048 -22.770  1.00  0.00     0.157 C 
HETATM   15  C5  UNL     1      -6.577  49.765 -21.501  1.00  0.00     0.038 C 
HETATM   16  C6  UNL     1      -7.948  49.169 -21.258  1.00  0.00     0.043 C 
HETATM   17  C7  UNL     1      -7.817  47.730 -21.797  1.00  0.00     0.084 C 
HETATM   18  C8  UNL     1      -7.732  46.763 -20.612  1.00  0.00     0.049 C 
HETATM   19  O5  UNL     1      -6.558  47.691 -22.509  1.00  0.00    -0.370 OA
BRANCH  17  20
HETATM   20  C9  UNL     1      -8.966  47.438 -22.795  1.00  0.00     0.160 C 
HETATM   21  O1  UNL     1     -10.147  46.944 -22.142  1.00  0.00    -0.375 OA
HETATM   22  C10 UNL     1     -11.060  46.618 -23.207  1.00  0.00     0.152 C 
HETATM   23  C19 UNL     1     -10.179  46.047 -24.322  1.00  0.00     0.041 C 
HETATM   24  C20 UNL     1      -8.754  46.510 -24.000  1.00  0.00     0.016 C 
HETATM   25  C21 UNL     1      -7.848  45.304 -23.803  1.00  0.00     0.012 C 
BRANCH  22  26
HETATM   26  C11 UNL     1     -12.177  45.662 -22.736  1.00  0.00     0.158 C 
HETATM   27  O2  UNL     1     -12.525  44.696 -23.737  1.00  0.00    -0.345 OA
HETATM   28  C12 UNL     1     -13.320  45.152 -24.844  1.00  0.00     0.187 C 
HETATM   29  C14 UNL     1     -14.640  45.783 -24.331  1.00  0.00     0.046 C 
HETATM   30  C15 UNL     1     -15.528  46.350 -25.439  1.00  0.00     0.015 C 
HETATM   31  C16 UNL     1     -14.347  46.875 -23.291  1.00  0.00     0.016 C 
HETATM   32  C17 UNL     1     -13.459  46.320 -22.171  1.00  0.00     0.014 C 
HETATM   33  C18 UNL     1     -13.209  47.381 -21.102  1.00  0.00     0.012 C 
BRANCH  28  34
HETATM   34  O3  UNL     1     -12.576  46.046 -25.669  1.00  0.00    -0.363 OA
HETATM   35  H17 UNL     1     -12.905  46.946 -25.529  1.00  0.00     0.213 HD
ENDBRANCH  28  34
BRANCH  28  36
HETATM   36  C13 UNL     1     -13.576  43.876 -25.689  1.00  0.00     0.232 C 
BRANCH  36  37
HETATM   37  O4  UNL     1     -13.216  44.058 -27.059  1.00  0.00    -0.396 OA
HETATM   38  H20 UNL     1     -13.672  44.881 -27.330  1.00  0.00     0.209 HD
ENDBRANCH  36  37
ENDBRANCH  28  36
ENDBRANCH  22  26
ENDBRANCH  17  20
ENDBRANCH   1  14
BRANCH   6  39
HETATM   39  O6  UNL     1      -0.664  51.805 -19.664  1.00  0.00    -0.395 OA
HETATM   40  H44 UNL     1      -0.848  51.131 -18.986  1.00  0.00     0.210 HD
ENDBRANCH   6  39
BRANCH   9  41
HETATM   41  C30 UNL     1      -1.220  52.852 -24.569  1.00  0.00     0.041 C 
HETATM   42  C31 UNL     1       0.035  53.728 -24.366  1.00  0.00     0.015 C 
BRANCH  41  43
HETATM   43  C32 UNL     1      -0.999  51.788 -25.706  1.00  0.00     0.141 C 
BRANCH  43  44
HETATM   44  O7  UNL     1      -2.263  51.601 -26.355  1.00  0.00    -0.389 OA
HETATM   45  C33 UNL     1      -3.320  52.405 -25.853  1.00  0.00     0.202 C 
ENDBRANCH  43  44
BRANCH  43  46
HETATM   46  C34 UNL     1       0.091  52.208 -26.737  1.00  0.00     0.109 C 
HETATM   47  C35 UNL     1       1.496  52.232 -26.133  1.00  0.00     0.024 C 
BRANCH  46  48
HETATM   48  C36 UNL     1      -0.176  53.515 -27.461  1.00  0.00     0.145 C 
HETATM   49  O8  UNL     1       0.036  54.631 -27.011  1.00  0.00    -0.650 OA
BRANCH  48  50
HETATM   50  O9  UNL     1      -0.589  53.399 -28.736  1.00  0.00    -0.776 OA
HETATM   51  H62 UNL     1      -0.635  54.329 -29.050  1.00  0.00     0.167 HD
ENDBRANCH  48  50
ENDBRANCH  46  48
ENDBRANCH  43  46
ENDBRANCH  41  43
ENDBRANCH   9  41
TORSDOF 14
ENDMDL
MODEL 9
REMARK minimizedAffinity -8.94684505
REMARK CNNscore 0.497348905
REMARK CNNaffinity 8.10619354
REMARK  14 active torsions:
REMARK  status: ('A' for Active; 'I' for Inactive)
REMARK    1  A    between atoms: C2_2  and  C3_3 
REMARK    2  A    between atoms: C3_3  and  C4_4 
REMARK    3  A    between atoms: C7_7  and  C9_9 
REMARK    4  A    between atoms: C10_11  and  C11_12 
REMARK    5  A    between atoms: C12_14  and  O3_15 
REMARK    6  A    between atoms: C12_14  and  C13_16 
REMARK    7  A    between atoms: C13_16  and  O4_17 
REMARK    8  A    between atoms: C26_31  and  O6_32 
REMARK    9  A    between atoms: C29_35  and  C30_36 
REMARK   10  A    between atoms: C30_36  and  C32_38 
REMARK   11  A    between atoms: C32_38  and  O7_39 
REMARK   12  A    between atoms: C32_38  and  C34_41 
REMARK   13  A    between atoms: C34_41  and  C36_43 
REMARK   14  A    between atoms: C36_43  and  O9_45 
ROOT
HETATM    1  C3  UNL     1      -4.976  49.651 -22.234  1.00  0.00     0.090 C 
HETATM    2  C22 UNL     1      -6.232  49.502 -23.102  1.00  0.00     0.046 C 
HETATM    3  C23 UNL     1      -5.797  50.046 -24.441  1.00  0.00     0.072 C 
HETATM    4  C24 UNL     1      -4.300  49.724 -24.490  1.00  0.00     0.168 C 
HETATM    5  C25 UNL     1      -3.976  48.550 -25.420  1.00  0.00     0.100 C 
HETATM    6  C26 UNL     1      -3.743  49.065 -26.830  1.00  0.00     0.129 C 
HETATM    7  C27 UNL     1      -2.591  50.101 -26.874  1.00  0.00     0.040 C 
HETATM    8  C28 UNL     1      -2.955  51.156 -27.932  1.00  0.00     0.015 C 
HETATM    9  C29 UNL     1      -2.341  50.698 -25.466  1.00  0.00     0.137 C 
HETATM   10  O10 UNL     1      -3.636  50.926 -24.891  1.00  0.00    -0.349 OA
HETATM   11  O11 UNL     1      -3.904  49.361 -23.155  1.00  0.00    -0.341 OA
ENDROOT
BRANCH   1  12
HETATM   12  C2  UNL     1      -4.831  51.119 -21.747  1.00  0.00     0.036 C 
HETATM   13  C1  UNL     1      -3.427  51.540 -21.340  1.00  0.00     0.008 C 
ENDBRANCH   1  12
BRANCH   1  14
HETATM   14  C4  UNL     1      -4.965  48.662 -21.037  1.00  0.00     0.157 C 
HETATM   15  C5  UNL     1      -5.727  47.358 -21.211  1.00  0.00     0.038 C 
HETATM   16  C6  UNL     1      -5.802  46.847 -19.787  1.00  0.00     0.043 C 
HETATM   17  C7  UNL     1      -5.876  48.136 -18.943  1.00  0.00     0.084 C 
HETATM   18  C8  UNL     1      -7.309  48.313 -18.431  1.00  0.00     0.049 C 
HETATM   19  O5  UNL     1      -5.582  49.219 -19.857  1.00  0.00    -0.370 OA
BRANCH  17  20
HETATM   20  C9  UNL     1      -4.789  48.103 -17.840  1.00  0.00     0.160 C 
HETATM   21  O1  UNL     1      -3.522  48.597 -18.303  1.00  0.00    -0.375 OA
HETATM   22  C10 UNL     1      -2.611  48.391 -17.207  1.00  0.00     0.152 C 
HETATM   23  C19 UNL     1      -3.037  47.057 -16.585  1.00  0.00     0.041 C 
HETATM   24  C20 UNL     1      -4.464  46.807 -17.084  1.00  0.00     0.016 C 
HETATM   25  C21 UNL     1      -4.518  45.506 -17.871  1.00  0.00     0.012 C 
BRANCH  22  26
HETATM   26  C11 UNL     1      -1.138  48.428 -17.667  1.00  0.00     0.158 C 
HETATM   27  O2  UNL     1      -0.347  49.337 -16.889  1.00  0.00    -0.345 OA
HETATM   28  C12 UNL     1      -0.511  50.741 -17.148  1.00  0.00     0.187 C 
HETATM   29  C14 UNL     1      -0.229  51.045 -18.642  1.00  0.00     0.046 C 
HETATM   30  C15 UNL     1      -0.435  52.512 -19.025  1.00  0.00     0.015 C 
HETATM   31  C16 UNL     1      -1.088  50.148 -19.546  1.00  0.00     0.016 C 
HETATM   32  C17 UNL     1      -0.890  48.673 -19.175  1.00  0.00     0.014 C 
HETATM   33  C18 UNL     1      -1.693  47.769 -20.106  1.00  0.00     0.012 C 
BRANCH  28  34
HETATM   34  O3  UNL     1      -1.802  51.186 -16.737  1.00  0.00    -0.363 OA
HETATM   35  H17 UNL     1      -2.341  51.346 -17.524  1.00  0.00     0.213 HD
ENDBRANCH  28  34
BRANCH  28  36
HETATM   36  C13 UNL     1       0.517  51.430 -16.211  1.00  0.00     0.232 C 
BRANCH  36  37
HETATM   37  O4  UNL     1       1.079  50.517 -15.268  1.00  0.00    -0.396 OA
HETATM   38  H20 UNL     1       0.308  50.079 -14.853  1.00  0.00     0.209 HD
ENDBRANCH  36  37
ENDBRANCH  28  36
ENDBRANCH  22  26
ENDBRANCH  17  20
ENDBRANCH   1  14
BRANCH   6  39
HETATM   39  O6  UNL     1      -3.425  47.980 -27.702  1.00  0.00    -0.395 OA
HETATM   40  H44 UNL     1      -4.179  47.363 -27.699  1.00  0.00     0.210 HD
ENDBRANCH   6  39
BRANCH   9  41
HETATM   41  C30 UNL     1      -1.497  52.012 -25.360  1.00  0.00     0.041 C 
HETATM   42  C31 UNL     1      -2.086  52.899 -24.242  1.00  0.00     0.015 C 
BRANCH  41  43
HETATM   43  C32 UNL     1       0.027  51.716 -25.113  1.00  0.00     0.141 C 
BRANCH  43  44
HETATM   44  O7  UNL     1       0.670  51.738 -26.394  1.00  0.00    -0.389 OA
HETATM   45  C33 UNL     1       2.032  51.335 -26.389  1.00  0.00     0.202 C 
ENDBRANCH  43  44
BRANCH  43  46
HETATM   46  C34 UNL     1       0.702  52.731 -24.143  1.00  0.00     0.109 C 
HETATM   47  C35 UNL     1       0.088  52.703 -22.741  1.00  0.00     0.024 C 
BRANCH  46  48
HETATM   48  C36 UNL     1       0.762  54.161 -24.646  1.00  0.00     0.145 C 
HETATM   49  O8  UNL     1       0.169  54.594 -25.623  1.00  0.00    -0.650 OA
BRANCH  48  50
HETATM   50  O9  UNL     1       1.455  55.019 -23.876  1.00  0.00    -0.776 OA
HETATM   51  H62 UNL     1       1.319  55.887 -24.317  1.00  0.00     0.167 HD
ENDBRANCH  48  50
ENDBRANCH  46  48
ENDBRANCH  43  46
ENDBRANCH  41  43
ENDBRANCH   9  41
TORSDOF 14
ENDMDL
