MODEL 1
REMARK minimizedAffinity -6.61704969
REMARK CNNscore 0.546570897
REMARK CNNaffinity 5.87894392
REMARK  7 active torsions:
REMARK  status: ('A' for Active; 'I' for Inactive)
REMARK    1  A    between atoms: C2_2  and  C4_4 
REMARK    2  A    between atoms: C7_7  and  O1_9 
REMARK    3  A    between atoms: C9_10  and  C10_11 
REMARK    4  A    between atoms: C11_12  and  C12_13 
REMARK    5  A    between atoms: C14_15  and  C15_16 
REMARK    6  A    between atoms: C24_26  and  C26_28 
REMARK    7  A    between atoms: C29_32  and  O4_34 
ROOT
HETATM    1  C15 UNL     1       3.661  11.434  16.642  1.00  0.00     0.149 C 
HETATM    2  C16 UNL     1       2.718  12.193  17.575  1.00  0.00     0.054 C 
HETATM    3  C17 UNL     1       3.278  11.989  19.016  1.00  0.00     0.050 C 
HETATM    4  C18 UNL     1       4.714  11.499  18.670  1.00  0.00     0.272 C 
HETATM    5  O2  UNL     1       5.644  12.530  18.344  1.00  0.00    -0.360 OA
HETATM    6  C19 UNL     1       6.283  13.108  19.464  1.00  0.00     0.171 C 
HETATM    7  C20 UNL     1       5.557  14.367  19.903  1.00  0.00     0.027 C 
HETATM    8  C21 UNL     1       4.111  14.468  19.429  1.00  0.00     0.012 C 
HETATM    9  C22 UNL     1       3.165  13.321  19.856  1.00  0.00     0.032 C 
HETATM   10  C23 UNL     1       3.168  13.118  21.389  1.00  0.00    -0.066 C 
HETATM   11  C24 UNL     1       2.646  14.000  22.280  1.00  0.00    -0.021 C 
HETATM   12  C25 UNL     1       2.688  13.845  23.775  1.00  0.00     0.052 C 
HETATM   13  C27 UNL     1       3.762  11.804  21.840  1.00  0.00     0.038 C 
HETATM   14  C28 UNL     1       3.109  10.590  21.180  1.00  0.00     0.042 C 
HETATM   15  C29 UNL     1       2.479  10.861  19.793  1.00  0.00     0.067 C 
HETATM   16  C30 UNL     1       0.975  11.176  19.985  1.00  0.00     0.047 C 
HETATM   17  O5  UNL     1       4.578  10.717  17.473  1.00  0.00    -0.351 OA
ENDROOT
BRANCH   1  18
HETATM   18  C14 UNL     1       3.221  10.542  15.514  1.00  0.00     0.011 C 
HETATM   19  C12 UNL     1       2.123   9.806  15.237  1.00  0.00    -0.064 C 
HETATM   20  C13 UNL     1       0.957   9.593  16.158  1.00  0.00     0.048 C 
BRANCH  19  21
HETATM   21  C11 UNL     1       2.075   9.118  13.938  1.00  0.00     0.003 C 
HETATM   22  C10 UNL     1       2.987   8.266  13.444  1.00  0.00    -0.018 C 
BRANCH  22  23
HETATM   23  C9  UNL     1       2.972   7.551  12.104  1.00  0.00     0.050 C 
HETATM   24  C4  UNL     1       2.079   8.108  10.948  1.00  0.00     0.024 C 
HETATM   25  C5  UNL     1       2.888   7.860   9.648  1.00  0.00     0.013 C 
HETATM   26  C6  UNL     1       4.062   6.980  10.049  1.00  0.00     0.039 C 
HETATM   27  C7  UNL     1       4.386   7.416  11.479  1.00  0.00     0.062 C 
HETATM   28  C8  UNL     1       5.220   8.703  11.509  1.00  0.00     0.046 C 
BRANCH  24  29
HETATM   29  C2  UNL     1       0.674   7.509  10.982  1.00  0.00    -0.088 C 
HETATM   30  C1  UNL     1       0.406   6.191  10.985  1.00  0.00     0.014 C 
HETATM   31  C3  UNL     1      -0.459   8.501  11.032  1.00  0.00     0.043 C 
ENDBRANCH  24  29
BRANCH  27  32
HETATM   32  O1  UNL     1       5.123   6.381  12.132  1.00  0.00    -0.390 OA
HETATM   33  H14 UNL     1       5.982   6.302  11.685  1.00  0.00     0.210 HD
ENDBRANCH  27  32
ENDBRANCH  22  23
ENDBRANCH  19  21
ENDBRANCH   1  18
BRANCH  15  34
HETATM   34  O4  UNL     1       2.533   9.622  19.080  1.00  0.00    -0.389 OA
HETATM   35  H44 UNL     1       1.988   8.962  19.543  1.00  0.00     0.210 HD
ENDBRANCH  15  34
BRANCH  11  36
HETATM   36  C26 UNL     1       1.970  15.265  21.852  1.00  0.00     0.265 C 
HETATM   37  O3  UNL     1       1.812  16.235  22.583  1.00  0.00    -0.302 OA
ENDBRANCH  11  36
TORSDOF 7
ENDMDL
MODEL 2
REMARK minimizedAffinity -6.88374996
REMARK CNNscore 0.544933379
REMARK CNNaffinity 6.37868118
REMARK  7 active torsions:
REMARK  status: ('A' for Active; 'I' for Inactive)
REMARK    1  A    between atoms: C2_2  and  C4_4 
REMARK    2  A    between atoms: C7_7  and  O1_9 
REMARK    3  A    between atoms: C9_10  and  C10_11 
REMARK    4  A    between atoms: C11_12  and  C12_13 
REMARK    5  A    between atoms: C14_15  and  C15_16 
REMARK    6  A    between atoms: C24_26  and  C26_28 
REMARK    7  A    between atoms: C29_32  and  O4_34 
ROOT
HETATM    1  C15 UNL     1     -12.898  13.906   0.223  1.00  0.00     0.149 C 
HETATM    2  C16 UNL     1     -12.611  12.648  -0.595  1.00  0.00     0.054 C 
HETATM    3  C17 UNL     1     -13.962  12.248  -1.263  1.00  0.00     0.050 C 
HETATM    4  C18 UNL     1     -14.745  13.581  -1.084  1.00  0.00     0.272 C 
HETATM    5  O2  UNL     1     -14.449  14.591  -2.047  1.00  0.00    -0.360 OA
HETATM    6  C19 UNL     1     -15.203  14.493  -3.239  1.00  0.00     0.171 C 
HETATM    7  C20 UNL     1     -14.431  13.730  -4.300  1.00  0.00     0.027 C 
HETATM    8  C21 UNL     1     -13.315  12.841  -3.760  1.00  0.00     0.012 C 
HETATM    9  C22 UNL     1     -13.732  11.753  -2.744  1.00  0.00     0.032 C 
HETATM   10  C23 UNL     1     -14.854  10.848  -3.303  1.00  0.00    -0.066 C 
HETATM   11  C24 UNL     1     -14.691   9.962  -4.320  1.00  0.00    -0.021 C 
HETATM   12  C25 UNL     1     -15.782   9.115  -4.912  1.00  0.00     0.052 C 
HETATM   13  C27 UNL     1     -16.176  10.981  -2.582  1.00  0.00     0.038 C 
HETATM   14  C28 UNL     1     -16.064  10.759  -1.074  1.00  0.00     0.042 C 
HETATM   15  C29 UNL     1     -14.675  11.075  -0.469  1.00  0.00     0.067 C 
HETATM   16  C30 UNL     1     -13.852   9.766  -0.409  1.00  0.00     0.047 C 
HETATM   17  O5  UNL     1     -14.311  14.118   0.175  1.00  0.00    -0.351 OA
ENDROOT
BRANCH   1  18
HETATM   18  C14 UNL     1     -12.413  14.150   1.626  1.00  0.00     0.011 C 
HETATM   19  C12 UNL     1     -11.233  14.479   2.195  1.00  0.00    -0.064 C 
HETATM   20  C13 UNL     1      -9.919  14.601   1.479  1.00  0.00     0.048 C 
BRANCH  19  21
HETATM   21  C11 UNL     1     -11.218  14.698   3.649  1.00  0.00     0.003 C 
HETATM   22  C10 UNL     1     -11.105  15.874   4.286  1.00  0.00    -0.018 C 
BRANCH  22  23
HETATM   23  C9  UNL     1     -11.074  16.129   5.783  1.00  0.00     0.050 C 
HETATM   24  C4  UNL     1     -10.448  17.455   6.322  1.00  0.00     0.024 C 
HETATM   25  C5  UNL     1     -11.313  17.850   7.547  1.00  0.00     0.013 C 
HETATM   26  C6  UNL     1     -12.219  16.660   7.818  1.00  0.00     0.039 C 
HETATM   27  C7  UNL     1     -12.482  16.066   6.433  1.00  0.00     0.062 C 
HETATM   28  C8  UNL     1     -13.567  16.839   5.675  1.00  0.00     0.046 C 
BRANCH  24  29
HETATM   29  C2  UNL     1      -8.949  17.306   6.586  1.00  0.00    -0.088 C 
HETATM   30  C1  UNL     1      -8.300  17.856   7.627  1.00  0.00     0.014 C 
HETATM   31  C3  UNL     1      -8.192  16.461   5.595  1.00  0.00     0.043 C 
ENDBRANCH  24  29
BRANCH  27  32
HETATM   32  O1  UNL     1     -12.905  14.708   6.576  1.00  0.00    -0.390 OA
HETATM   33  H14 UNL     1     -13.768  14.713   7.023  1.00  0.00     0.210 HD
ENDBRANCH  27  32
ENDBRANCH  22  23
ENDBRANCH  19  21
ENDBRANCH   1  18
BRANCH  15  34
HETATM   34  O4  UNL     1     -14.909  11.454   0.890  1.00  0.00    -0.389 OA
HETATM   35  H44 UNL     1     -15.292  10.701   1.373  1.00  0.00     0.210 HD
ENDBRANCH  15  34
BRANCH  11  36
HETATM   36  C26 UNL     1     -13.369   9.746  -4.988  1.00  0.00     0.265 C 
HETATM   37  O3  UNL     1     -12.396   9.253  -4.433  1.00  0.00    -0.302 OA
ENDBRANCH  11  36
TORSDOF 7
ENDMDL
MODEL 3
REMARK minimizedAffinity -7.60313606
REMARK CNNscore 0.519702315
REMARK CNNaffinity 6.08892441
REMARK  7 active torsions:
REMARK  status: ('A' for Active; 'I' for Inactive)
REMARK    1  A    between atoms: C2_2  and  C4_4 
REMARK    2  A    between atoms: C7_7  and  O1_9 
REMARK    3  A    between atoms: C9_10  and  C10_11 
REMARK    4  A    between atoms: C11_12  and  C12_13 
REMARK    5  A    between atoms: C14_15  and  C15_16 
REMARK    6  A    between atoms: C24_26  and  C26_28 
REMARK    7  A    between atoms: C29_32  and  O4_34 
ROOT
HETATM    1  C15 UNL     1      -2.326  10.659  14.406  1.00  0.00     0.149 C 
HETATM    2  C16 UNL     1      -3.310  11.148  15.469  1.00  0.00     0.054 C 
HETATM    3  C17 UNL     1      -2.460  11.922  16.522  1.00  0.00     0.050 C 
HETATM    4  C18 UNL     1      -1.160  12.142  15.695  1.00  0.00     0.272 C 
HETATM    5  O2  UNL     1      -1.204  13.234  14.778  1.00  0.00    -0.360 OA
HETATM    6  C19 UNL     1      -0.864  14.482  15.346  1.00  0.00     0.171 C 
HETATM    7  C20 UNL     1      -2.112  15.232  15.775  1.00  0.00     0.027 C 
HETATM    8  C21 UNL     1      -3.345  14.357  15.977  1.00  0.00     0.012 C 
HETATM    9  C22 UNL     1      -3.217  13.216  17.014  1.00  0.00     0.032 C 
HETATM   10  C23 UNL     1      -2.758  13.746  18.393  1.00  0.00    -0.066 C 
HETATM   11  C24 UNL     1      -3.519  14.523  19.208  1.00  0.00    -0.021 C 
HETATM   12  C25 UNL     1      -3.070  15.092  20.525  1.00  0.00     0.052 C 
HETATM   13  C27 UNL     1      -1.382  13.282  18.810  1.00  0.00     0.038 C 
HETATM   14  C28 UNL     1      -1.227  11.762  18.786  1.00  0.00     0.042 C 
HETATM   15  C29 UNL     1      -2.161  11.026  17.796  1.00  0.00     0.067 C 
HETATM   16  C30 UNL     1      -3.431  10.573  18.556  1.00  0.00     0.047 C 
HETATM   17  O5  UNL     1      -1.014  10.968  14.882  1.00  0.00    -0.351 OA
ENDROOT
BRANCH   1  18
HETATM   18  C14 UNL     1      -2.320   9.278  13.811  1.00  0.00     0.011 C 
HETATM   19  C12 UNL     1      -3.260   8.400  13.398  1.00  0.00    -0.064 C 
HETATM   20  C13 UNL     1      -4.744   8.573  13.546  1.00  0.00     0.048 C 
BRANCH  19  21
HETATM   21  C11 UNL     1      -2.797   7.145  12.789  1.00  0.00     0.003 C 
HETATM   22  C10 UNL     1      -2.992   5.902  13.256  1.00  0.00    -0.018 C 
BRANCH  22  23
HETATM   23  C9  UNL     1      -2.516   4.590  12.656  1.00  0.00     0.050 C 
HETATM   24  C4  UNL     1      -3.258   3.999  11.414  1.00  0.00     0.024 C 
HETATM   25  C5  UNL     1      -2.152   3.344  10.548  1.00  0.00     0.013 C 
HETATM   26  C6  UNL     1      -0.893   3.356  11.400  1.00  0.00     0.039 C 
HETATM   27  C7  UNL     1      -1.021   4.628  12.240  1.00  0.00     0.062 C 
HETATM   28  C8  UNL     1      -0.612   5.878  11.452  1.00  0.00     0.046 C 
BRANCH  24  29
HETATM   29  C2  UNL     1      -4.410   3.084  11.828  1.00  0.00    -0.088 C 
HETATM   30  C1  UNL     1      -4.381   1.741  11.754  1.00  0.00     0.014 C 
HETATM   31  C3  UNL     1      -5.635   3.776  12.367  1.00  0.00     0.043 C 
ENDBRANCH  24  29
BRANCH  27  32
HETATM   32  O1  UNL     1      -0.180   4.519  13.390  1.00  0.00    -0.390 OA
HETATM   33  H14 UNL     1       0.742   4.505  13.083  1.00  0.00     0.210 HD
ENDBRANCH  27  32
ENDBRANCH  22  23
ENDBRANCH  19  21
ENDBRANCH   1  18
BRANCH  15  34
HETATM   34  O4  UNL     1      -1.480   9.826  17.421  1.00  0.00    -0.389 OA
HETATM   35  H44 UNL     1      -1.360   9.265  18.207  1.00  0.00     0.210 HD
ENDBRANCH  15  34
BRANCH  11  36
HETATM   36  C26 UNL     1      -4.919  14.920  18.857  1.00  0.00     0.265 C 
HETATM   37  O3  UNL     1      -5.236  16.041  18.479  1.00  0.00    -0.302 OA
ENDBRANCH  11  36
TORSDOF 7
ENDMDL
MODEL 4
REMARK minimizedAffinity -7.06727362
REMARK CNNscore 0.426463544
REMARK CNNaffinity 5.55174494
REMARK  7 active torsions:
REMARK  status: ('A' for Active; 'I' for Inactive)
REMARK    1  A    between atoms: C2_2  and  C4_4 
REMARK    2  A    between atoms: C7_7  and  O1_9 
REMARK    3  A    between atoms: C9_10  and  C10_11 
REMARK    4  A    between atoms: C11_12  and  C12_13 
REMARK    5  A    between atoms: C14_15  and  C15_16 
REMARK    6  A    between atoms: C24_26  and  C26_28 
REMARK    7  A    between atoms: C29_32  and  O4_34 
ROOT
HETATM    1  C15 UNL     1       2.925  10.300  17.274  1.00  0.00     0.149 C 
HETATM    2  C16 UNL     1       3.771  11.398  17.918  1.00  0.00     0.054 C 
HETATM    3  C17 UNL     1       2.981  11.870  19.177  1.00  0.00     0.050 C 
HETATM    4  C18 UNL     1       1.994  10.676  19.327  1.00  0.00     0.272 C 
HETATM    5  O2  UNL     1       2.532   9.522  19.970  1.00  0.00    -0.360 OA
HETATM    6  C19 UNL     1       2.454   9.556  21.381  1.00  0.00     0.171 C 
HETATM    7  C20 UNL     1       3.750  10.076  21.975  1.00  0.00     0.027 C 
HETATM    8  C21 UNL     1       4.615  10.884  21.013  1.00  0.00     0.012 C 
HETATM    9  C22 UNL     1       3.960  12.138  20.386  1.00  0.00     0.032 C 
HETATM   10  C23 UNL     1       3.402  13.092  21.467  1.00  0.00    -0.066 C 
HETATM   11  C24 UNL     1       4.171  13.813  22.325  1.00  0.00    -0.021 C 
HETATM   12  C25 UNL     1       3.646  14.703  23.417  1.00  0.00     0.052 C 
HETATM   13  C27 UNL     1       1.896  13.215  21.471  1.00  0.00     0.038 C 
HETATM   14  C28 UNL     1       1.322  13.615  20.112  1.00  0.00     0.042 C 
HETATM   15  C29 UNL     1       2.188  13.214  18.894  1.00  0.00     0.067 C 
HETATM   16  C30 UNL     1       3.095  14.409  18.515  1.00  0.00     0.047 C 
HETATM   17  O5  UNL     1       1.687  10.257  17.988  1.00  0.00    -0.351 OA
ENDROOT
BRANCH   1  18
HETATM   18  C14 UNL     1       2.646  10.182  15.801  1.00  0.00     0.011 C 
HETATM   19  C12 UNL     1       3.395  10.085  14.681  1.00  0.00    -0.064 C 
HETATM   20  C13 UNL     1       4.892  10.184  14.618  1.00  0.00     0.048 C 
BRANCH  19  21
HETATM   21  C11 UNL     1       2.688   9.909  13.404  1.00  0.00     0.003 C 
HETATM   22  C10 UNL     1       2.529   8.763  12.723  1.00  0.00    -0.018 C 
BRANCH  22  23
HETATM   23  C9  UNL     1       1.817   8.553  11.397  1.00  0.00     0.050 C 
HETATM   24  C4  UNL     1       2.414   7.552  10.356  1.00  0.00     0.024 C 
HETATM   25  C5  UNL     1       1.190   6.882   9.681  1.00  0.00     0.013 C 
HETATM   26  C6  UNL     1      -0.027   7.661  10.156  1.00  0.00     0.039 C 
HETATM   27  C7  UNL     1       0.341   8.105  11.573  1.00  0.00     0.062 C 
HETATM   28  C8  UNL     1       0.136   6.980  12.596  1.00  0.00     0.046 C 
BRANCH  24  29
HETATM   29  C2  UNL     1       3.400   8.241   9.412  1.00  0.00    -0.088 C 
HETATM   30  C1  UNL     1       4.617   8.685   9.773  1.00  0.00     0.014 C 
HETATM   31  C3  UNL     1       2.940   8.396   7.986  1.00  0.00     0.043 C 
ENDBRANCH  24  29
BRANCH  27  32
HETATM   32  O1  UNL     1      -0.476   9.215  11.946  1.00  0.00    -0.390 OA
HETATM   33  H14 UNL     1      -1.394   8.900  12.004  1.00  0.00     0.210 HD
ENDBRANCH  27  32
ENDBRANCH  22  23
ENDBRANCH  19  21
ENDBRANCH   1  18
BRANCH  15  34
HETATM   34  O4  UNL     1       1.283  13.044  17.799  1.00  0.00    -0.389 OA
HETATM   35  H44 UNL     1       0.852  13.894  17.604  1.00  0.00     0.210 HD
ENDBRANCH  15  34
BRANCH  11  36
HETATM   36  C26 UNL     1       5.667  13.778  22.281  1.00  0.00     0.265 C 
HETATM   37  O3  UNL     1       6.332  14.224  21.356  1.00  0.00    -0.302 OA
ENDBRANCH  11  36
TORSDOF 7
ENDMDL
MODEL 5
REMARK minimizedAffinity -8.04884624
REMARK CNNscore 0.384278864
REMARK CNNaffinity 6.12669897
REMARK  7 active torsions:
REMARK  status: ('A' for Active; 'I' for Inactive)
REMARK    1  A    between atoms: C2_2  and  C4_4 
REMARK    2  A    between atoms: C7_7  and  O1_9 
REMARK    3  A    between atoms: C9_10  and  C10_11 
REMARK    4  A    between atoms: C11_12  and  C12_13 
REMARK    5  A    between atoms: C14_15  and  C15_16 
REMARK    6  A    between atoms: C24_26  and  C26_28 
REMARK    7  A    between atoms: C29_32  and  O4_34 
ROOT
HETATM    1  C15 UNL     1      -3.528   9.994  14.591  1.00  0.00     0.149 C 
HETATM    2  C16 UNL     1      -4.133  10.782  15.752  1.00  0.00     0.054 C 
HETATM    3  C17 UNL     1      -2.934  11.452  16.491  1.00  0.00     0.050 C 
HETATM    4  C18 UNL     1      -1.840  11.308  15.394  1.00  0.00     0.272 C 
HETATM    5  O2  UNL     1      -1.885  12.290  14.360  1.00  0.00    -0.360 OA
HETATM    6  C19 UNL     1      -1.195  13.485  14.667  1.00  0.00     0.171 C 
HETATM    7  C20 UNL     1      -2.147  14.523  15.231  1.00  0.00     0.027 C 
HETATM    8  C21 UNL     1      -3.444  13.956  15.801  1.00  0.00     0.012 C 
HETATM    9  C22 UNL     1      -3.300  12.920  16.940  1.00  0.00     0.032 C 
HETATM   10  C23 UNL     1      -2.448  13.468  18.108  1.00  0.00    -0.066 C 
HETATM   11  C24 UNL     1      -2.841  14.464  18.944  1.00  0.00    -0.021 C 
HETATM   12  C25 UNL     1      -2.005  15.047  20.048  1.00  0.00     0.052 C 
HETATM   13  C27 UNL     1      -1.126  12.761  18.297  1.00  0.00     0.038 C 
HETATM   14  C28 UNL     1      -1.270  11.248  18.455  1.00  0.00     0.042 C 
HETATM   15  C29 UNL     1      -2.527  10.638  17.790  1.00  0.00     0.067 C 
HETATM   16  C30 UNL     1      -3.652  10.544  18.849  1.00  0.00     0.047 C 
HETATM   17  O5  UNL     1      -2.108  10.057  14.741  1.00  0.00    -0.351 OA
ENDROOT
BRANCH   1  18
HETATM   18  C14 UNL     1      -3.919   8.593  14.207  1.00  0.00     0.011 C 
HETATM   19  C12 UNL     1      -3.433   7.650  13.370  1.00  0.00    -0.064 C 
HETATM   20  C13 UNL     1      -2.286   7.832  12.419  1.00  0.00     0.048 C 
BRANCH  19  21
HETATM   21  C11 UNL     1      -4.107   6.343  13.355  1.00  0.00     0.003 C 
HETATM   22  C10 UNL     1      -3.902   5.342  12.485  1.00  0.00    -0.018 C 
BRANCH  22  23
HETATM   23  C9  UNL     1      -4.591   3.988  12.436  1.00  0.00     0.050 C 
HETATM   24  C4  UNL     1      -6.066   3.895  11.930  1.00  0.00     0.024 C 
HETATM   25  C5  UNL     1      -6.150   2.557  11.151  1.00  0.00     0.013 C 
HETATM   26  C6  UNL     1      -4.844   1.829  11.432  1.00  0.00     0.039 C 
HETATM   27  C7  UNL     1      -3.814   2.950  11.582  1.00  0.00     0.062 C 
HETATM   28  C8  UNL     1      -3.338   3.475  10.222  1.00  0.00     0.046 C 
BRANCH  24  29
HETATM   29  C2  UNL     1      -7.067   4.065  13.072  1.00  0.00    -0.088 C 
HETATM   30  C1  UNL     1      -7.493   3.067  13.867  1.00  0.00     0.014 C 
HETATM   31  C3  UNL     1      -7.571   5.467  13.298  1.00  0.00     0.043 C 
ENDBRANCH  24  29
BRANCH  27  32
HETATM   32  O1  UNL     1      -2.683   2.458  12.302  1.00  0.00    -0.390 OA
HETATM   33  H14 UNL     1      -2.252   1.783  11.751  1.00  0.00     0.210 HD
ENDBRANCH  27  32
ENDBRANCH  22  23
ENDBRANCH  19  21
ENDBRANCH   1  18
BRANCH  15  34
HETATM   34  O4  UNL     1      -2.188   9.290  17.456  1.00  0.00    -0.389 OA
HETATM   35  H44 UNL     1      -2.000   8.794  18.272  1.00  0.00     0.210 HD
ENDBRANCH  15  34
BRANCH  11  36
HETATM   36  C26 UNL     1      -4.184  15.118  18.833  1.00  0.00     0.265 C 
HETATM   37  O3  UNL     1      -5.242  14.545  19.060  1.00  0.00    -0.302 OA
ENDBRANCH  11  36
TORSDOF 7
ENDMDL
MODEL 6
REMARK minimizedAffinity -6.69538069
REMARK CNNscore 0.348339736
REMARK CNNaffinity 6.03283167
REMARK  7 active torsions:
REMARK  status: ('A' for Active; 'I' for Inactive)
REMARK    1  A    between atoms: C2_2  and  C4_4 
REMARK    2  A    between atoms: C7_7  and  O1_9 
REMARK    3  A    between atoms: C9_10  and  C10_11 
REMARK    4  A    between atoms: C11_12  and  C12_13 
REMARK    5  A    between atoms: C14_15  and  C15_16 
REMARK    6  A    between atoms: C24_26  and  C26_28 
REMARK    7  A    between atoms: C29_32  and  O4_34 
ROOT
HETATM    1  C15 UNL     1     -12.280   9.309  24.966  1.00  0.00     0.149 C 
HETATM    2  C16 UNL     1     -11.178   9.573  23.940  1.00  0.00     0.054 C 
HETATM    3  C17 UNL     1     -11.637  10.820  23.124  1.00  0.00     0.050 C 
HETATM    4  C18 UNL     1     -12.739  11.365  24.078  1.00  0.00     0.272 C 
HETATM    5  O2  UNL     1     -12.260  12.134  25.179  1.00  0.00    -0.360 OA
HETATM    6  C19 UNL     1     -12.061  13.503  24.886  1.00  0.00     0.171 C 
HETATM    7  C20 UNL     1     -10.614  13.765  24.509  1.00  0.00     0.027 C 
HETATM    8  C21 UNL     1      -9.842  12.533  24.047  1.00  0.00     0.012 C 
HETATM    9  C22 UNL     1     -10.418  11.777  22.827  1.00  0.00     0.032 C 
HETATM   10  C23 UNL     1     -10.616  12.716  21.614  1.00  0.00    -0.066 C 
HETATM   11  C24 UNL     1      -9.602  13.275  20.903  1.00  0.00    -0.021 C 
HETATM   12  C25 UNL     1      -9.776  14.233  19.758  1.00  0.00     0.052 C 
HETATM   13  C27 UNL     1     -12.060  12.935  21.228  1.00  0.00     0.038 C 
HETATM   14  C28 UNL     1     -12.819  11.632  20.976  1.00  0.00     0.042 C 
HETATM   15  C29 UNL     1     -12.268  10.399  21.731  1.00  0.00     0.067 C 
HETATM   16  C30 UNL     1     -11.288   9.645  20.800  1.00  0.00     0.047 C 
HETATM   17  O5  UNL     1     -13.352  10.205  24.663  1.00  0.00    -0.351 OA
ENDROOT
BRANCH   1  18
HETATM   18  C14 UNL     1     -12.849   7.954  25.288  1.00  0.00     0.011 C 
HETATM   19  C12 UNL     1     -14.041   7.484  25.713  1.00  0.00    -0.064 C 
HETATM   20  C13 UNL     1     -15.219   8.323  26.117  1.00  0.00     0.048 C 
BRANCH  19  21
HETATM   21  C11 UNL     1     -14.194   6.027  25.833  1.00  0.00     0.003 C 
HETATM   22  C10 UNL     1     -14.081   5.294  26.951  1.00  0.00    -0.018 C 
BRANCH  22  23
HETATM   23  C9  UNL     1     -14.220   3.789  27.103  1.00  0.00     0.050 C 
HETATM   24  C4  UNL     1     -13.043   2.861  26.660  1.00  0.00     0.024 C 
HETATM   25  C5  UNL     1     -13.030   1.696  27.683  1.00  0.00     0.013 C 
HETATM   26  C6  UNL     1     -14.302   1.847  28.503  1.00  0.00     0.039 C 
HETATM   27  C7  UNL     1     -14.533   3.358  28.561  1.00  0.00     0.062 C 
HETATM   28  C8  UNL     1     -13.656   4.031  29.624  1.00  0.00     0.046 C 
BRANCH  24  29
HETATM   29  C2  UNL     1     -13.166   2.456  25.191  1.00  0.00    -0.088 C 
HETATM   30  C1  UNL     1     -14.321   2.134  24.583  1.00  0.00     0.014 C 
HETATM   31  C3  UNL     1     -11.881   2.448  24.405  1.00  0.00     0.043 C 
ENDBRANCH  24  29
BRANCH  27  32
HETATM   32  O1  UNL     1     -15.903   3.614  28.873  1.00  0.00    -0.390 OA
HETATM   33  H14 UNL     1     -16.066   3.293  29.776  1.00  0.00     0.210 HD
ENDBRANCH  27  32
ENDBRANCH  22  23
ENDBRANCH  19  21
ENDBRANCH   1  18
BRANCH  15  34
HETATM   34  O4  UNL     1     -13.380   9.520  21.925  1.00  0.00    -0.389 OA
HETATM   35  H44 UNL     1     -13.714   9.228  21.059  1.00  0.00     0.210 HD
ENDBRANCH  15  34
BRANCH  11  36
HETATM   36  C26 UNL     1      -8.163  13.001  21.211  1.00  0.00     0.265 C 
HETATM   37  O3  UNL     1      -7.228  13.468  20.572  1.00  0.00    -0.302 OA
ENDBRANCH  11  36
TORSDOF 7
ENDMDL
MODEL 7
REMARK minimizedAffinity -9.22727966
REMARK CNNscore 0.337592423
REMARK CNNaffinity 6.46268415
REMARK  7 active torsions:
REMARK  status: ('A' for Active; 'I' for Inactive)
REMARK    1  A    between atoms: C2_2  and  C4_4 
REMARK    2  A    between atoms: C7_7  and  O1_9 
REMARK    3  A    between atoms: C9_10  and  C10_11 
REMARK    4  A    between atoms: C11_12  and  C12_13 
REMARK    5  A    between atoms: C14_15  and  C15_16 
REMARK    6  A    between atoms: C24_26  and  C26_28 
REMARK    7  A    between atoms: C29_32  and  O4_34 
ROOT
HETATM    1  C15 UNL     1      -0.724   5.092  11.127  1.00  0.00     0.149 C 
HETATM    2  C16 UNL     1      -0.162   6.396  10.562  1.00  0.00     0.054 C 
HETATM    3  C17 UNL     1       1.312   6.485  11.064  1.00  0.00     0.050 C 
HETATM    4  C18 UNL     1       1.530   5.006  11.493  1.00  0.00     0.272 C 
HETATM    5  O2  UNL     1       1.839   4.106  10.430  1.00  0.00    -0.360 OA
HETATM    6  C19 UNL     1       3.212   4.047  10.102  1.00  0.00     0.171 C 
HETATM    7  C20 UNL     1       3.528   4.984   8.950  1.00  0.00     0.027 C 
HETATM    8  C21 UNL     1       2.507   6.097   8.735  1.00  0.00     0.012 C 
HETATM    9  C22 UNL     1       2.258   7.044   9.932  1.00  0.00     0.032 C 
HETATM   10  C23 UNL     1       3.574   7.675  10.444  1.00  0.00    -0.066 C 
HETATM   11  C24 UNL     1       4.304   8.591   9.756  1.00  0.00    -0.021 C 
HETATM   12  C25 UNL     1       5.612   9.174  10.214  1.00  0.00     0.052 C 
HETATM   13  C27 UNL     1       3.977   7.230  11.831  1.00  0.00     0.038 C 
HETATM   14  C28 UNL     1       2.882   7.448  12.875  1.00  0.00     0.042 C 
HETATM   15  C29 UNL     1       1.439   7.451  12.317  1.00  0.00     0.067 C 
HETATM   16  C30 UNL     1       1.022   8.913  12.027  1.00  0.00     0.047 C 
HETATM   17  O5  UNL     1       0.266   4.562  12.011  1.00  0.00    -0.351 OA
ENDROOT
BRANCH   1  18
HETATM   18  C14 UNL     1      -2.079   4.944  11.763  1.00  0.00     0.011 C 
HETATM   19  C12 UNL     1      -2.911   3.915  12.035  1.00  0.00    -0.064 C 
HETATM   20  C13 UNL     1      -2.699   2.487  11.625  1.00  0.00     0.048 C 
BRANCH  19  21
HETATM   21  C11 UNL     1      -4.153   4.219  12.761  1.00  0.00     0.003 C 
HETATM   22  C10 UNL     1      -4.678   5.434  12.986  1.00  0.00    -0.018 C 
BRANCH  22  23
HETATM   23  C9  UNL     1      -5.950   5.779  13.741  1.00  0.00     0.050 C 
HETATM   24  C4  UNL     1      -6.845   4.628  14.303  1.00  0.00     0.024 C 
HETATM   25  C5  UNL     1      -7.400   5.159  15.650  1.00  0.00     0.013 C 
HETATM   26  C6  UNL     1      -7.027   6.632  15.703  1.00  0.00     0.039 C 
HETATM   27  C7  UNL     1      -5.693   6.707  14.958  1.00  0.00     0.062 C 
HETATM   28  C8  UNL     1      -4.517   6.281  15.846  1.00  0.00     0.046 C 
BRANCH  24  29
HETATM   29  C2  UNL     1      -7.891   4.177  13.284  1.00  0.00    -0.088 C 
HETATM   30  C1  UNL     1      -8.104   2.898  12.925  1.00  0.00     0.014 C 
HETATM   31  C3  UNL     1      -8.729   5.272  12.677  1.00  0.00     0.043 C 
ENDBRANCH  24  29
BRANCH  27  32
HETATM   32  O1  UNL     1      -5.472   8.050  14.523  1.00  0.00    -0.390 OA
HETATM   33  H14 UNL     1      -5.357   8.602  15.315  1.00  0.00     0.210 HD
ENDBRANCH  27  32
ENDBRANCH  22  23
ENDBRANCH  19  21
ENDBRANCH   1  18
BRANCH  15  34
HETATM   34  O4  UNL     1       0.597   7.006  13.384  1.00  0.00    -0.389 OA
HETATM   35  H44 UNL     1       0.645   7.643  14.117  1.00  0.00     0.210 HD
ENDBRANCH  15  34
BRANCH  11  36
HETATM   36  C26 UNL     1       3.877   9.115   8.420  1.00  0.00     0.265 C 
HETATM   37  O3  UNL     1       2.956   8.644   7.766  1.00  0.00    -0.302 OA
ENDBRANCH  11  36
TORSDOF 7
ENDMDL
MODEL 8
REMARK minimizedAffinity -8.10105896
REMARK CNNscore 0.296837926
REMARK CNNaffinity 5.83820105
REMARK  7 active torsions:
REMARK  status: ('A' for Active; 'I' for Inactive)
REMARK    1  A    between atoms: C2_2  and  C4_4 
REMARK    2  A    between atoms: C7_7  and  O1_9 
REMARK    3  A    between atoms: C9_10  and  C10_11 
REMARK    4  A    between atoms: C11_12  and  C12_13 
REMARK    5  A    between atoms: C14_15  and  C15_16 
REMARK    6  A    between atoms: C24_26  and  C26_28 
REMARK    7  A    between atoms: C29_32  and  O4_34 
ROOT
HETATM    1  C15 UNL     1      -0.367   9.925  16.542  1.00  0.00     0.149 C 
HETATM    2  C16 UNL     1       0.371   9.874  15.205  1.00  0.00     0.054 C 
HETATM    3  C17 UNL     1       0.033   8.487  14.577  1.00  0.00     0.050 C 
HETATM    4  C18 UNL     1      -1.204   8.105  15.441  1.00  0.00     0.272 C 
HETATM    5  O2  UNL     1      -2.434   8.703  15.037  1.00  0.00    -0.360 OA
HETATM    6  C19 UNL     1      -3.120   7.991  14.027  1.00  0.00     0.171 C 
HETATM    7  C20 UNL     1      -2.786   8.551  12.656  1.00  0.00     0.027 C 
HETATM    8  C21 UNL     1      -1.491   9.355  12.593  1.00  0.00     0.012 C 
HETATM    9  C22 UNL     1      -0.201   8.617  13.021  1.00  0.00     0.032 C 
HETATM   10  C23 UNL     1      -0.004   7.304  12.228  1.00  0.00    -0.066 C 
HETATM   11  C24 UNL     1       0.294   7.244  10.904  1.00  0.00    -0.021 C 
HETATM   12  C25 UNL     1       0.435   5.979  10.106  1.00  0.00     0.052 C 
HETATM   13  C27 UNL     1      -0.116   6.050  13.065  1.00  0.00     0.038 C 
HETATM   14  C28 UNL     1       0.821   6.047  14.272  1.00  0.00     0.042 C 
HETATM   15  C29 UNL     1       1.209   7.448  14.802  1.00  0.00     0.067 C 
HETATM   16  C30 UNL     1       2.551   7.868  14.153  1.00  0.00     0.047 C 
HETATM   17  O5  UNL     1      -0.937   8.631  16.751  1.00  0.00    -0.351 OA
ENDROOT
BRANCH   1  18
HETATM   18  C14 UNL     1       0.227  10.414  17.834  1.00  0.00     0.011 C 
HETATM   19  C12 UNL     1      -0.197  11.181  18.862  1.00  0.00    -0.064 C 
HETATM   20  C13 UNL     1      -1.507  11.912  18.927  1.00  0.00     0.048 C 
BRANCH  19  21
HETATM   21  C11 UNL     1       0.716  11.354  20.002  1.00  0.00     0.003 C 
HETATM   22  C10 UNL     1       2.014  11.691  19.952  1.00  0.00    -0.018 C 
BRANCH  22  23
HETATM   23  C9  UNL     1       2.982  11.864  21.109  1.00  0.00     0.050 C 
HETATM   24  C4  UNL     1       2.479  12.503  22.443  1.00  0.00     0.024 C 
HETATM   25  C5  UNL     1       3.234  11.752  23.570  1.00  0.00     0.013 C 
HETATM   26  C6  UNL     1       4.291  10.910  22.873  1.00  0.00     0.039 C 
HETATM   27  C7  UNL     1       3.648  10.529  21.539  1.00  0.00     0.062 C 
HETATM   28  C8  UNL     1       2.676   9.353  21.688  1.00  0.00     0.046 C 
BRANCH  24  29
HETATM   29  C2  UNL     1       2.635  14.023  22.434  1.00  0.00    -0.088 C 
HETATM   30  C1  UNL     1       2.495  14.798  21.344  1.00  0.00     0.014 C 
HETATM   31  C3  UNL     1       2.951  14.656  23.765  1.00  0.00     0.043 C 
ENDBRANCH  24  29
BRANCH  27  32
HETATM   32  O1  UNL     1       4.670  10.160  20.611  1.00  0.00    -0.390 OA
HETATM   33  H14 UNL     1       5.087   9.345  20.939  1.00  0.00     0.210 HD
ENDBRANCH  27  32
ENDBRANCH  22  23
ENDBRANCH  19  21
ENDBRANCH   1  18
BRANCH  15  34
HETATM   34  O4  UNL     1       1.481   7.286  16.196  1.00  0.00    -0.389 OA
HETATM   35  H44 UNL     1       2.243   6.692  16.309  1.00  0.00     0.210 HD
ENDBRANCH  15  34
BRANCH  11  36
HETATM   36  C26 UNL     1       0.501   8.473  10.075  1.00  0.00     0.265 C 
HETATM   37  O3  UNL     1      -0.300   8.876   9.241  1.00  0.00    -0.302 OA
ENDBRANCH  11  36
TORSDOF 7
ENDMDL
MODEL 9
REMARK minimizedAffinity -8.47857571
REMARK CNNscore 0.294366717
REMARK CNNaffinity 6.14427805
REMARK  7 active torsions:
REMARK  status: ('A' for Active; 'I' for Inactive)
REMARK    1  A    between atoms: C2_2  and  C4_4 
REMARK    2  A    between atoms: C7_7  and  O1_9 
REMARK    3  A    between atoms: C9_10  and  C10_11 
REMARK    4  A    between atoms: C11_12  and  C12_13 
REMARK    5  A    between atoms: C14_15  and  C15_16 
REMARK    6  A    between atoms: C24_26  and  C26_28 
REMARK    7  A    between atoms: C29_32  and  O4_34 
ROOT
HETATM    1  C15 UNL     1      -0.344   9.328  15.926  1.00  0.00     0.149 C 
HETATM    2  C16 UNL     1      -0.605   7.835  15.729  1.00  0.00     0.054 C 
HETATM    3  C17 UNL     1      -1.763   7.731  14.692  1.00  0.00     0.050 C 
HETATM    4  C18 UNL     1      -1.720   9.172  14.107  1.00  0.00     0.272 C 
HETATM    5  O2  UNL     1      -0.716   9.394  13.118  1.00  0.00    -0.360 OA
HETATM    6  C19 UNL     1      -1.109   9.045  11.806  1.00  0.00     0.171 C 
HETATM    7  C20 UNL     1      -0.654   7.637  11.467  1.00  0.00     0.027 C 
HETATM    8  C21 UNL     1      -0.352   6.757  12.676  1.00  0.00     0.012 C 
HETATM    9  C22 UNL     1      -1.508   6.546  13.681  1.00  0.00     0.032 C 
HETATM   10  C23 UNL     1      -2.779   6.006  12.986  1.00  0.00    -0.066 C 
HETATM   11  C24 UNL     1      -2.894   4.761  12.456  1.00  0.00    -0.021 C 
HETATM   12  C25 UNL     1      -4.101   4.239  11.729  1.00  0.00     0.052 C 
HETATM   13  C27 UNL     1      -3.942   6.971  12.982  1.00  0.00     0.038 C 
HETATM   14  C28 UNL     1      -4.314   7.471  14.378  1.00  0.00     0.042 C 
HETATM   15  C29 UNL     1      -3.156   7.464  15.404  1.00  0.00     0.067 C 
HETATM   16  C30 UNL     1      -3.208   6.139  16.203  1.00  0.00     0.047 C 
HETATM   17  O5  UNL     1      -1.364  10.025  15.207  1.00  0.00    -0.351 OA
ENDROOT
BRANCH   1  18
HETATM   18  C14 UNL     1      -0.137   9.998  17.257  1.00  0.00     0.011 C 
HETATM   19  C12 UNL     1      -0.935  10.402  18.269  1.00  0.00    -0.064 C 
HETATM   20  C13 UNL     1      -2.436  10.364  18.268  1.00  0.00     0.048 C 
BRANCH  19  21
HETATM   21  C11 UNL     1      -0.287  10.966  19.462  1.00  0.00     0.003 C 
HETATM   22  C10 UNL     1       1.016  10.904  19.776  1.00  0.00    -0.018 C 
BRANCH  22  23
HETATM   23  C9  UNL     1       1.711  11.465  21.005  1.00  0.00     0.050 C 
HETATM   24  C4  UNL     1       3.000  10.766  21.543  1.00  0.00     0.024 C 
HETATM   25  C5  UNL     1       3.906  11.914  22.059  1.00  0.00     0.013 C 
HETATM   26  C6  UNL     1       3.045  13.168  22.033  1.00  0.00     0.039 C 
HETATM   27  C7  UNL     1       2.111  12.956  20.841  1.00  0.00     0.062 C 
HETATM   28  C8  UNL     1       2.797  13.288  19.510  1.00  0.00     0.046 C 
BRANCH  24  29
HETATM   29  C2  UNL     1       2.668   9.673  22.559  1.00  0.00    -0.088 C 
HETATM   30  C1  UNL     1       2.133   8.480  22.247  1.00  0.00     0.014 C 
HETATM   31  C3  UNL     1       2.995   9.993  23.995  1.00  0.00     0.043 C 
ENDBRANCH  24  29
BRANCH  27  32
HETATM   32  O1  UNL     1       0.966  13.798  20.984  1.00  0.00    -0.390 OA
HETATM   33  H14 UNL     1       1.266  14.720  20.917  1.00  0.00     0.210 HD
ENDBRANCH  27  32
ENDBRANCH  22  23
ENDBRANCH  19  21
ENDBRANCH   1  18
BRANCH  15  34
HETATM   34  O4  UNL     1      -3.449   8.501  16.344  1.00  0.00    -0.389 OA
HETATM   35  H44 UNL     1      -4.275   8.287  16.811  1.00  0.00     0.210 HD
ENDBRANCH  15  34
BRANCH  11  36
HETATM   36  C26 UNL     1      -1.787   3.756  12.528  1.00  0.00     0.265 C 
HETATM   37  O3  UNL     1      -1.558   2.929  11.654  1.00  0.00    -0.302 OA
ENDBRANCH  11  36
TORSDOF 7
ENDMDL
