MODEL 1
REMARK minimizedAffinity -9.35112572
REMARK CNNscore 0.650434077
REMARK CNNaffinity 7.59407377
REMARK  12 active torsions:
REMARK  status: ('A' for Active; 'I' for Inactive)
REMARK    1  A    between atoms: O1_2  and  C2_3 
REMARK    2  A    between atoms: C4_5  and  O2_6 
REMARK    3  A    between atoms: O2_6  and  C5_7 
REMARK    4  A    between atoms: C8_10  and  C9_11 
REMARK    5  A    between atoms: N1_12  and  C10_14 
REMARK    6  A    between atoms: C10_14  and  C11_15 
REMARK    7  A    between atoms: C11_15  and  C12_16 
REMARK    8  A    between atoms: C12_16  and  O3_17 
REMARK    9  A    between atoms: C18_23  and  C19_24 
REMARK   10  A    between atoms: C25_32  and  O6_33 
REMARK   11  A    between atoms: C29_37  and  O7_38 
REMARK   12  A    between atoms: C33_43  and  O9_44 
ROOT
HETATM    1  C5  UNL     1      -2.455  49.711 -24.441  1.00  0.00     0.127 C 
HETATM    2  C6  UNL     1      -1.611  50.704 -23.669  1.00  0.00     0.033 C 
HETATM    3  C7  UNL     1      -2.375  51.230 -22.466  1.00  0.00     0.021 C 
HETATM    4  C8  UNL     1      -2.960  50.120 -21.536  1.00  0.00     0.026 C 
HETATM    5  C13 UNL     1      -2.283  50.330 -20.115  1.00  0.00     0.009 C 
HETATM    6  C14 UNL     1      -2.841  51.534 -19.350  1.00  0.00     0.007 C 
HETATM    7  C15 UNL     1      -1.913  51.819 -18.176  1.00  0.00     0.013 C 
HETATM    8  C16 UNL     1      -1.955  50.702 -17.115  1.00  0.00    -0.005 C 
HETATM    9  C17 UNL     1      -3.234  50.945 -16.264  1.00  0.00     0.019 C 
HETATM   10  C18 UNL     1      -0.717  50.773 -16.124  1.00  0.00     0.028 C 
HETATM   11  C23 UNL     1      -0.416  49.294 -15.839  1.00  0.00     0.013 C 
HETATM   12  C24 UNL     1      -0.640  48.605 -17.185  1.00  0.00     0.040 C 
HETATM   13  C25 UNL     1      -1.944  49.228 -17.716  1.00  0.00     0.070 C 
HETATM   14  C26 UNL     1      -2.275  49.058 -19.247  1.00  0.00     0.026 C 
HETATM   15  C27 UNL     1      -1.417  47.981 -19.968  1.00  0.00     0.011 C 
HETATM   16  C28 UNL     1      -1.417  48.080 -21.506  1.00  0.00     0.039 C 
HETATM   17  C29 UNL     1      -2.733  48.649 -22.063  1.00  0.00     0.073 C 
HETATM   18  C30 UNL     1      -2.823  48.494 -23.604  1.00  0.00     0.071 C 
ENDROOT
BRANCH   1  19
HETATM   19  O2  UNL     1      -1.713  49.334 -25.606  1.00  0.00    -0.356 OA
BRANCH  19  20
HETATM   20  C4  UNL     1      -0.968  50.418 -26.162  1.00  0.00     0.263 C 
HETATM   21  C3  UNL     1      -1.958  51.472 -26.649  1.00  0.00     0.095 C 
HETATM   22  C2  UNL     1      -1.185  52.623 -27.294  1.00  0.00     0.156 C 
HETATM   23  C33 UNL     1      -0.152  53.185 -26.304  1.00  0.00     0.175 C 
HETATM   24  C31 UNL     1       0.705  52.084 -25.653  1.00  0.00     0.151 C 
HETATM   25  O8  UNL     1      -0.081  50.977 -25.192  1.00  0.00    -0.354 OA
HETATM   26  C32 UNL     1       1.833  51.582 -26.560  1.00  0.00     0.042 C 
BRANCH  22  27
HETATM   27  O1  UNL     1      -2.046  53.719 -27.656  1.00  0.00    -0.388 OA
HETATM   28  C1  UNL     1      -1.487  54.601 -28.625  1.00  0.00     0.202 C 
ENDBRANCH  22  27
BRANCH  23  29
HETATM   29  O9  UNL     1      -0.851  53.894 -25.265  1.00  0.00    -0.390 OA
HETATM   30  H51 UNL     1      -1.566  54.378 -25.727  1.00  0.00     0.210 HD
ENDBRANCH  23  29
ENDBRANCH  19  20
ENDBRANCH   1  19
BRANCH  17  31
HETATM   31  O7  UNL     1      -3.727  47.758 -21.494  1.00  0.00    -0.389 OA
HETATM   32  H43 UNL     1      -3.977  47.111 -22.178  1.00  0.00     0.210 HD
ENDBRANCH  17  31
BRANCH   4  33
HETATM   33  C9  UNL     1      -4.490  50.254 -21.457  1.00  0.00     0.068 C 
HETATM   34  N1  UNL     1      -5.143  49.809 -20.436  1.00  0.00    -0.401 N 
ATOM     35  H1  UNL     1      -4.707  49.271 -19.688  1.00  0.00     0.158 HD
BRANCH  34  36
HETATM   36  C10 UNL     1      -6.575  50.150 -20.447  1.00  0.00     0.121 C 
BRANCH  36  37
HETATM   37  C11 UNL     1      -7.362  49.014 -21.100  1.00  0.00     0.045 C 
BRANCH  37  38
HETATM   38  C12 UNL     1      -7.702  49.317 -22.552  1.00  0.00     0.165 C 
BRANCH  38  39
HETATM   39  O3  UNL     1      -7.402  50.670 -22.878  1.00  0.00    -0.401 OA
HETATM   40  H20 UNL     1      -6.442  50.797 -22.758  1.00  0.00     0.209 HD
ENDBRANCH  38  39
ENDBRANCH  37  38
ENDBRANCH  36  37
ENDBRANCH  34  36
ENDBRANCH   4  33
BRANCH  13  41
HETATM   41  O6  UNL     1      -2.966  48.444 -17.031  1.00  0.00    -0.389 OA
HETATM   42  H37 UNL     1      -2.942  47.544 -17.400  1.00  0.00     0.210 HD
ENDBRANCH  13  41
BRANCH  10  43
HETATM   43  C19 UNL     1       0.520  51.533 -16.567  1.00  0.00    -0.045 A 
HETATM   44  C20 UNL     1       1.571  51.846 -15.799  1.00  0.00     0.087 A 
HETATM   45  C21 UNL     1       2.534  52.556 -16.643  1.00  0.00     0.283 A 
HETATM   46  O4  UNL     1       3.621  52.976 -16.273  1.00  0.00    -0.260 OA
HETATM   47  O5  UNL     1       2.028  52.664 -17.900  1.00  0.00    -0.314 OA
HETATM   48  C22 UNL     1       0.761  52.011 -17.953  1.00  0.00     0.213 A 
ENDBRANCH  10  43
TORSDOF 12
ENDMDL
MODEL 2
REMARK minimizedAffinity -9.52230835
REMARK CNNscore 0.531997681
REMARK CNNaffinity 7.60002327
REMARK  12 active torsions:
REMARK  status: ('A' for Active; 'I' for Inactive)
REMARK    1  A    between atoms: O1_2  and  C2_3 
REMARK    2  A    between atoms: C4_5  and  O2_6 
REMARK    3  A    between atoms: O2_6  and  C5_7 
REMARK    4  A    between atoms: C8_10  and  C9_11 
REMARK    5  A    between atoms: N1_12  and  C10_14 
REMARK    6  A    between atoms: C10_14  and  C11_15 
REMARK    7  A    between atoms: C11_15  and  C12_16 
REMARK    8  A    between atoms: C12_16  and  O3_17 
REMARK    9  A    between atoms: C18_23  and  C19_24 
REMARK   10  A    between atoms: C25_32  and  O6_33 
REMARK   11  A    between atoms: C29_37  and  O7_38 
REMARK   12  A    between atoms: C33_43  and  O9_44 
ROOT
HETATM    1  C5  UNL     1      -3.451  50.972 -26.531  1.00  0.00     0.127 C 
HETATM    2  C6  UNL     1      -2.800  51.795 -25.440  1.00  0.00     0.033 C 
HETATM    3  C7  UNL     1      -3.689  51.845 -24.209  1.00  0.00     0.021 C 
HETATM    4  C8  UNL     1      -4.145  50.445 -23.684  1.00  0.00     0.026 C 
HETATM    5  C13 UNL     1      -3.572  50.317 -22.209  1.00  0.00     0.009 C 
HETATM    6  C14 UNL     1      -4.338  51.162 -21.186  1.00  0.00     0.007 C 
HETATM    7  C15 UNL     1      -3.518  51.209 -19.904  1.00  0.00     0.013 C 
HETATM    8  C16 UNL     1      -3.443  49.834 -19.209  1.00  0.00    -0.005 C 
HETATM    9  C17 UNL     1      -4.781  49.652 -18.439  1.00  0.00     0.019 C 
HETATM   10  C18 UNL     1      -2.276  49.772 -18.135  1.00  0.00     0.028 C 
HETATM   11  C23 UNL     1      -1.773  48.326 -18.254  1.00  0.00     0.013 C 
HETATM   12  C24 UNL     1      -1.830  48.036 -19.755  1.00  0.00     0.040 C 
HETATM   13  C25 UNL     1      -3.186  48.614 -20.199  1.00  0.00     0.070 C 
HETATM   14  C26 UNL     1      -3.417  48.859 -21.739  1.00  0.00     0.026 C 
HETATM   15  C27 UNL     1      -2.377  48.159 -22.656  1.00  0.00     0.011 C 
HETATM   16  C28 UNL     1      -2.320  48.701 -24.098  1.00  0.00     0.039 C 
HETATM   17  C29 UNL     1      -3.678  49.235 -24.584  1.00  0.00     0.073 C 
HETATM   18  C30 UNL     1      -3.673  49.526 -26.108  1.00  0.00     0.071 C 
ENDROOT
BRANCH   1  19
HETATM   19  O2  UNL     1      -2.609  51.050 -27.686  1.00  0.00    -0.356 OA
BRANCH  19  20
HETATM   20  C4  UNL     1      -1.314  51.578 -27.392  1.00  0.00     0.263 C 
HETATM   21  C3  UNL     1      -1.429  53.099 -27.330  1.00  0.00     0.095 C 
HETATM   22  C2  UNL     1      -0.044  53.692 -27.065  1.00  0.00     0.156 C 
HETATM   23  C33 UNL     1       0.554  53.084 -25.786  1.00  0.00     0.175 C 
HETATM   24  C31 UNL     1       0.469  51.547 -25.765  1.00  0.00     0.151 C 
HETATM   25  O8  UNL     1      -0.823  51.063 -26.154  1.00  0.00    -0.354 OA
HETATM   26  C32 UNL     1       1.556  50.871 -26.606  1.00  0.00     0.042 C 
BRANCH  22  27
HETATM   27  O1  UNL     1      -0.096  55.116 -26.858  1.00  0.00    -0.388 OA
HETATM   28  C1  UNL     1       0.382  55.534 -25.582  1.00  0.00     0.202 C 
ENDBRANCH  22  27
BRANCH  23  29
HETATM   29  O9  UNL     1      -0.168  53.598 -24.652  1.00  0.00    -0.390 OA
HETATM   30  H51 UNL     1      -0.316  54.544 -24.856  1.00  0.00     0.210 HD
ENDBRANCH  23  29
ENDBRANCH  19  20
ENDBRANCH   1  19
BRANCH  17  31
HETATM   31  O7  UNL     1      -4.555  48.097 -24.379  1.00  0.00    -0.389 OA
HETATM   32  H43 UNL     1      -4.674  47.651 -25.237  1.00  0.00     0.210 HD
ENDBRANCH  17  31
BRANCH   4  33
HETATM   33  C9  UNL     1      -5.679  50.353 -23.704  1.00  0.00     0.068 C 
HETATM   34  N1  UNL     1      -6.292  49.363 -23.146  1.00  0.00    -0.401 N 
ATOM     35  H1  UNL     1      -5.805  48.556 -22.756  1.00  0.00     0.158 HD
BRANCH  34  36
HETATM   36  C10 UNL     1      -7.757  49.503 -23.123  1.00  0.00     0.121 C 
BRANCH  36  37
HETATM   37  C11 UNL     1      -8.393  48.297 -23.814  1.00  0.00     0.045 C 
BRANCH  37  38
HETATM   38  C12 UNL     1      -8.850  48.625 -25.227  1.00  0.00     0.165 C 
BRANCH  38  39
HETATM   39  O3  UNL     1      -9.142  50.012 -25.363  1.00  0.00    -0.401 OA
HETATM   40  H20 UNL     1      -8.319  50.506 -25.188  1.00  0.00     0.209 HD
ENDBRANCH  38  39
ENDBRANCH  37  38
ENDBRANCH  36  37
ENDBRANCH  34  36
ENDBRANCH   4  33
BRANCH  13  41
HETATM   41  O6  UNL     1      -4.111  47.540 -19.855  1.00  0.00    -0.389 OA
HETATM   42  H37 UNL     1      -3.937  46.798 -20.461  1.00  0.00     0.210 HD
ENDBRANCH  13  41
BRANCH  10  43
HETATM   43  C19 UNL     1      -1.146  50.780 -18.236  1.00  0.00    -0.045 A 
HETATM   44  C20 UNL     1      -0.808  51.479 -19.327  1.00  0.00     0.087 A 
HETATM   45  C21 UNL     1       0.317  52.342 -18.963  1.00  0.00     0.283 A 
HETATM   46  O4  UNL     1       0.872  53.131 -19.713  1.00  0.00    -0.260 OA
HETATM   47  O5  UNL     1       0.637  52.129 -17.659  1.00  0.00    -0.314 OA
HETATM   48  C22 UNL     1      -0.265  51.173 -17.106  1.00  0.00     0.213 A 
ENDBRANCH  10  43
TORSDOF 12
ENDMDL
MODEL 3
REMARK minimizedAffinity -7.58257437
REMARK CNNscore 0.48907426
REMARK CNNaffinity 6.40257502
REMARK  12 active torsions:
REMARK  status: ('A' for Active; 'I' for Inactive)
REMARK    1  A    between atoms: O1_2  and  C2_3 
REMARK    2  A    between atoms: C4_5  and  O2_6 
REMARK    3  A    between atoms: O2_6  and  C5_7 
REMARK    4  A    between atoms: C8_10  and  C9_11 
REMARK    5  A    between atoms: N1_12  and  C10_14 
REMARK    6  A    between atoms: C10_14  and  C11_15 
REMARK    7  A    between atoms: C11_15  and  C12_16 
REMARK    8  A    between atoms: C12_16  and  O3_17 
REMARK    9  A    between atoms: C18_23  and  C19_24 
REMARK   10  A    between atoms: C25_32  and  O6_33 
REMARK   11  A    between atoms: C29_37  and  O7_38 
REMARK   12  A    between atoms: C33_43  and  O9_44 
ROOT
HETATM    1  C5  UNL     1      -7.132  48.314 -25.158  1.00  0.00     0.127 C 
HETATM    2  C6  UNL     1      -8.501  48.745 -24.677  1.00  0.00     0.033 C 
HETATM    3  C7  UNL     1      -9.484  48.786 -25.835  1.00  0.00     0.021 C 
HETATM    4  C8  UNL     1      -9.553  47.468 -26.672  1.00  0.00     0.026 C 
HETATM    5  C13 UNL     1     -11.045  46.942 -26.547  1.00  0.00     0.009 C 
HETATM    6  C14 UNL     1     -12.044  47.749 -27.382  1.00  0.00     0.007 C 
HETATM    7  C15 UNL     1     -13.450  47.365 -26.939  1.00  0.00     0.013 C 
HETATM    8  C16 UNL     1     -13.802  45.911 -27.314  1.00  0.00    -0.005 C 
HETATM    9  C17 UNL     1     -14.195  45.922 -28.818  1.00  0.00     0.019 C 
HETATM   10  C18 UNL     1     -15.061  45.375 -26.508  1.00  0.00     0.028 C 
HETATM   11  C23 UNL     1     -14.719  43.896 -26.276  1.00  0.00     0.013 C 
HETATM   12  C24 UNL     1     -13.218  43.904 -25.985  1.00  0.00     0.040 C 
HETATM   13  C25 UNL     1     -12.635  44.863 -27.039  1.00  0.00     0.070 C 
HETATM   14  C26 UNL     1     -11.183  45.429 -26.802  1.00  0.00     0.026 C 
HETATM   15  C27 UNL     1     -10.378  44.675 -25.707  1.00  0.00     0.011 C 
HETATM   16  C28 UNL     1      -9.152  45.438 -25.167  1.00  0.00     0.039 C 
HETATM   17  C29 UNL     1      -8.520  46.362 -26.220  1.00  0.00     0.073 C 
HETATM   18  C30 UNL     1      -7.146  46.914 -25.756  1.00  0.00     0.071 C 
ENDROOT
BRANCH   1  19
HETATM   19  O2  UNL     1      -6.242  48.392 -24.040  1.00  0.00    -0.356 OA
BRANCH  19  20
HETATM   20  C4  UNL     1      -5.190  49.339 -24.236  1.00  0.00     0.263 C 
HETATM   21  C3  UNL     1      -4.846  49.949 -22.880  1.00  0.00     0.095 C 
HETATM   22  C2  UNL     1      -3.755  51.003 -23.070  1.00  0.00     0.156 C 
HETATM   23  C33 UNL     1      -2.537  50.381 -23.773  1.00  0.00     0.175 C 
HETATM   24  C31 UNL     1      -2.924  49.583 -25.031  1.00  0.00     0.151 C 
HETATM   25  O8  UNL     1      -4.041  48.713 -24.808  1.00  0.00    -0.354 OA
HETATM   26  C32 UNL     1      -3.187  50.470 -26.252  1.00  0.00     0.042 C 
BRANCH  22  27
HETATM   27  O1  UNL     1      -3.282  51.526 -21.814  1.00  0.00    -0.388 OA
HETATM   28  C1  UNL     1      -4.191  51.348 -20.732  1.00  0.00     0.202 C 
ENDBRANCH  22  27
BRANCH  23  29
HETATM   29  O9  UNL     1      -1.879  49.493 -22.851  1.00  0.00    -0.390 OA
HETATM   30  H51 UNL     1      -1.904  49.960 -21.990  1.00  0.00     0.210 HD
ENDBRANCH  23  29
ENDBRANCH  19  20
ENDBRANCH   1  19
BRANCH  17  31
HETATM   31  O7  UNL     1      -8.255  45.453 -27.320  1.00  0.00    -0.389 OA
HETATM   32  H43 UNL     1      -7.311  45.211 -27.289  1.00  0.00     0.210 HD
ENDBRANCH  17  31
BRANCH   4  33
HETATM   33  C9  UNL     1      -9.175  47.755 -28.134  1.00  0.00     0.068 C 
HETATM   34  N1  UNL     1      -8.764  48.924 -28.496  1.00  0.00    -0.401 N 
ATOM     35  H1  UNL     1      -8.758  49.729 -27.871  1.00  0.00     0.158 HD
BRANCH  34  36
HETATM   36  C10 UNL     1      -8.302  48.989 -29.892  1.00  0.00     0.121 C 
BRANCH  36  37
HETATM   37  C11 UNL     1      -9.375  48.404 -30.809  1.00  0.00     0.045 C 
BRANCH  37  38
HETATM   38  C12 UNL     1      -8.787  47.453 -31.841  1.00  0.00     0.165 C 
BRANCH  38  39
HETATM   39  O3  UNL     1      -8.406  48.150 -33.023  1.00  0.00    -0.401 OA
HETATM   40  H20 UNL     1      -7.716  48.795 -32.776  1.00  0.00     0.209 HD
ENDBRANCH  38  39
ENDBRANCH  37  38
ENDBRANCH  36  37
ENDBRANCH  34  36
ENDBRANCH   4  33
BRANCH  13  41
HETATM   41  O6  UNL     1     -12.506  44.001 -28.209  1.00  0.00    -0.389 OA
HETATM   42  H37 UNL     1     -11.797  43.361 -28.024  1.00  0.00     0.210 HD
ENDBRANCH  13  41
BRANCH  10  43
HETATM   43  C19 UNL     1     -15.450  46.082 -25.222  1.00  0.00    -0.045 A 
HETATM   44  C20 UNL     1     -14.605  46.564 -24.302  1.00  0.00     0.087 A 
HETATM   45  C21 UNL     1     -15.413  47.180 -23.248  1.00  0.00     0.283 A 
HETATM   46  O4  UNL     1     -14.970  47.737 -22.254  1.00  0.00    -0.260 OA
HETATM   47  O5  UNL     1     -16.730  47.040 -23.557  1.00  0.00    -0.314 OA
HETATM   48  C22 UNL     1     -16.847  46.379 -24.815  1.00  0.00     0.213 A 
ENDBRANCH  10  43
TORSDOF 12
ENDMDL
MODEL 4
REMARK minimizedAffinity -8.28930855
REMARK CNNscore 0.480400115
REMARK CNNaffinity 5.96091509
REMARK  12 active torsions:
REMARK  status: ('A' for Active; 'I' for Inactive)
REMARK    1  A    between atoms: O1_2  and  C2_3 
REMARK    2  A    between atoms: C4_5  and  O2_6 
REMARK    3  A    between atoms: O2_6  and  C5_7 
REMARK    4  A    between atoms: C8_10  and  C9_11 
REMARK    5  A    between atoms: N1_12  and  C10_14 
REMARK    6  A    between atoms: C10_14  and  C11_15 
REMARK    7  A    between atoms: C11_15  and  C12_16 
REMARK    8  A    between atoms: C12_16  and  O3_17 
REMARK    9  A    between atoms: C18_23  and  C19_24 
REMARK   10  A    between atoms: C25_32  and  O6_33 
REMARK   11  A    between atoms: C29_37  and  O7_38 
REMARK   12  A    between atoms: C33_43  and  O9_44 
ROOT
HETATM    1  C5  UNL     1       5.687  64.568 -34.618  1.00  0.00     0.127 C 
HETATM    2  C6  UNL     1       6.891  64.538 -35.535  1.00  0.00     0.033 C 
HETATM    3  C7  UNL     1       6.531  65.091 -36.904  1.00  0.00     0.021 C 
HETATM    4  C8  UNL     1       5.859  66.501 -36.876  1.00  0.00     0.026 C 
HETATM    5  C13 UNL     1       6.822  67.466 -37.689  1.00  0.00     0.009 C 
HETATM    6  C14 UNL     1       6.754  67.254 -39.205  1.00  0.00     0.007 C 
HETATM    7  C15 UNL     1       7.927  67.990 -39.838  1.00  0.00     0.013 C 
HETATM    8  C16 UNL     1       7.791  69.521 -39.711  1.00  0.00    -0.005 C 
HETATM    9  C17 UNL     1       6.805  69.974 -40.824  1.00  0.00     0.019 C 
HETATM   10  C18 UNL     1       9.167  70.266 -39.978  1.00  0.00     0.028 C 
HETATM   11  C23 UNL     1       9.115  71.450 -39.001  1.00  0.00     0.013 C 
HETATM   12  C24 UNL     1       8.469  70.864 -37.744  1.00  0.00     0.040 C 
HETATM   13  C25 UNL     1       7.300  70.018 -38.281  1.00  0.00     0.070 C 
HETATM   14  C26 UNL     1       6.656  68.951 -37.315  1.00  0.00     0.026 C 
HETATM   15  C27 UNL     1       7.049  69.125 -35.823  1.00  0.00     0.011 C 
HETATM   16  C28 UNL     1       6.787  67.890 -34.938  1.00  0.00     0.039 C 
HETATM   17  C29 UNL     1       5.589  67.058 -35.423  1.00  0.00     0.073 C 
HETATM   18  C30 UNL     1       5.173  65.982 -34.385  1.00  0.00     0.071 C 
ENDROOT
BRANCH   1  19
HETATM   19  O2  UNL     1       6.071  63.947 -33.387  1.00  0.00    -0.356 OA
BRANCH  19  20
HETATM   20  C4  UNL     1       7.277  63.190 -33.501  1.00  0.00     0.263 C 
HETATM   21  C3  UNL     1       7.001  61.998 -34.412  1.00  0.00     0.095 C 
HETATM   22  C2  UNL     1       8.266  61.143 -34.511  1.00  0.00     0.156 C 
HETATM   23  C33 UNL     1       9.446  62.003 -34.992  1.00  0.00     0.175 C 
HETATM   24  C31 UNL     1       9.585  63.315 -34.200  1.00  0.00     0.151 C 
HETATM   25  O8  UNL     1       8.332  63.992 -34.035  1.00  0.00    -0.354 OA
HETATM   26  C32 UNL     1      10.263  63.130 -32.839  1.00  0.00     0.042 C 
BRANCH  22  27
HETATM   27  O1  UNL     1       8.123  60.072 -35.463  1.00  0.00    -0.388 OA
HETATM   28  C1  UNL     1       6.989  59.240 -35.235  1.00  0.00     0.202 C 
ENDBRANCH  22  27
BRANCH  23  29
HETATM   29  O9  UNL     1       9.243  62.325 -36.380  1.00  0.00    -0.390 OA
HETATM   30  H51 UNL     1       8.895  61.503 -36.782  1.00  0.00     0.210 HD
ENDBRANCH  23  29
ENDBRANCH  19  20
ENDBRANCH   1  19
BRANCH  17  31
HETATM   31  O7  UNL     1       4.519  68.039 -35.459  1.00  0.00    -0.389 OA
HETATM   32  H43 UNL     1       3.983  67.929 -34.652  1.00  0.00     0.210 HD
ENDBRANCH  17  31
BRANCH   4  33
HETATM   33  C9  UNL     1       4.462  66.429 -37.512  1.00  0.00     0.068 C 
HETATM   34  N1  UNL     1       3.508  65.766 -36.948  1.00  0.00    -0.401 N 
ATOM     35  H1  UNL     1       3.649  65.187 -36.120  1.00  0.00     0.158 HD
BRANCH  34  36
HETATM   36  C10 UNL     1       2.201  65.922 -37.605  1.00  0.00     0.121 C 
BRANCH  36  37
HETATM   37  C11 UNL     1       2.344  66.863 -38.801  1.00  0.00     0.045 C 
BRANCH  37  38
HETATM   38  C12 UNL     1       1.240  66.653 -39.826  1.00  0.00     0.165 C 
BRANCH  38  39
HETATM   39  O3  UNL     1       1.770  66.587 -41.146  1.00  0.00    -0.401 OA
HETATM   40  H20 UNL     1       2.371  65.819 -41.185  1.00  0.00     0.209 HD
ENDBRANCH  38  39
ENDBRANCH  37  38
ENDBRANCH  36  37
ENDBRANCH  34  36
ENDBRANCH   4  33
BRANCH  13  41
HETATM   41  O6  UNL     1       6.255  71.017 -38.474  1.00  0.00    -0.389 OA
HETATM   42  H37 UNL     1       5.971  71.318 -37.594  1.00  0.00     0.210 HD
ENDBRANCH  13  41
BRANCH  10  43
HETATM   43  C19 UNL     1      10.455  69.473 -39.849  1.00  0.00    -0.045 A 
HETATM   44  C20 UNL     1      11.039  69.099 -38.703  1.00  0.00     0.087 A 
HETATM   45  C21 UNL     1      12.240  68.338 -39.052  1.00  0.00     0.283 A 
HETATM   46  O4  UNL     1      13.009  67.828 -38.251  1.00  0.00    -0.260 OA
HETATM   47  O5  UNL     1      12.355  68.285 -40.406  1.00  0.00    -0.314 OA
HETATM   48  C22 UNL     1      11.243  68.955 -40.997  1.00  0.00     0.213 A 
ENDBRANCH  10  43
TORSDOF 12
ENDMDL
MODEL 5
REMARK minimizedAffinity -8.06708241
REMARK CNNscore 0.475539893
REMARK CNNaffinity 6.65465689
REMARK  12 active torsions:
REMARK  status: ('A' for Active; 'I' for Inactive)
REMARK    1  A    between atoms: O1_2  and  C2_3 
REMARK    2  A    between atoms: C4_5  and  O2_6 
REMARK    3  A    between atoms: O2_6  and  C5_7 
REMARK    4  A    between atoms: C8_10  and  C9_11 
REMARK    5  A    between atoms: N1_12  and  C10_14 
REMARK    6  A    between atoms: C10_14  and  C11_15 
REMARK    7  A    between atoms: C11_15  and  C12_16 
REMARK    8  A    between atoms: C12_16  and  O3_17 
REMARK    9  A    between atoms: C18_23  and  C19_24 
REMARK   10  A    between atoms: C25_32  and  O6_33 
REMARK   11  A    between atoms: C29_37  and  O7_38 
REMARK   12  A    between atoms: C33_43  and  O9_44 
ROOT
HETATM    1  C5  UNL     1      -6.359  48.563 -24.418  1.00  0.00     0.127 C 
HETATM    2  C6  UNL     1      -5.409  49.734 -24.281  1.00  0.00     0.033 C 
HETATM    3  C7  UNL     1      -5.528  50.357 -22.901  1.00  0.00     0.021 C 
HETATM    4  C8  UNL     1      -5.375  49.346 -21.720  1.00  0.00     0.026 C 
HETATM    5  C13 UNL     1      -4.113  49.827 -20.886  1.00  0.00     0.009 C 
HETATM    6  C14 UNL     1      -4.386  51.072 -20.036  1.00  0.00     0.007 C 
HETATM    7  C15 UNL     1      -3.049  51.614 -19.548  1.00  0.00     0.013 C 
HETATM    8  C16 UNL     1      -2.369  50.666 -18.539  1.00  0.00    -0.005 C 
HETATM    9  C17 UNL     1      -3.058  50.911 -17.167  1.00  0.00     0.019 C 
HETATM   10  C18 UNL     1      -0.828  51.000 -18.352  1.00  0.00     0.028 C 
HETATM   11  C23 UNL     1      -0.196  49.615 -18.154  1.00  0.00     0.013 C 
HETATM   12  C24 UNL     1      -0.962  48.716 -19.126  1.00  0.00     0.040 C 
HETATM   13  C25 UNL     1      -2.433  49.128 -18.941  1.00  0.00     0.070 C 
HETATM   14  C26 UNL     1      -3.465  48.703 -20.055  1.00  0.00     0.026 C 
HETATM   15  C27 UNL     1      -2.935  47.618 -21.032  1.00  0.00     0.011 C 
HETATM   16  C28 UNL     1      -3.732  47.488 -22.345  1.00  0.00     0.039 C 
HETATM   17  C29 UNL     1      -5.219  47.842 -22.173  1.00  0.00     0.073 C 
HETATM   18  C30 UNL     1      -6.054  47.453 -23.421  1.00  0.00     0.071 C 
ENDROOT
BRANCH   1  19
HETATM   19  O2  UNL     1      -6.264  48.090 -25.766  1.00  0.00    -0.356 OA
BRANCH  19  20
HETATM   20  C4  UNL     1      -7.445  47.414 -26.199  1.00  0.00     0.263 C 
HETATM   21  C3  UNL     1      -8.642  48.309 -25.890  1.00  0.00     0.095 C 
HETATM   22  C2  UNL     1      -9.925  47.585 -26.300  1.00  0.00     0.156 C 
HETATM   23  C33 UNL     1      -9.849  47.177 -27.781  1.00  0.00     0.175 C 
HETATM   24  C31 UNL     1      -8.534  46.458 -28.131  1.00  0.00     0.151 C 
HETATM   25  O8  UNL     1      -7.384  47.128 -27.597  1.00  0.00    -0.354 OA
HETATM   26  C32 UNL     1      -8.522  44.985 -27.715  1.00  0.00     0.042 C 
BRANCH  22  27
HETATM   27  O1  UNL     1     -11.087  48.423 -26.164  1.00  0.00    -0.388 OA
HETATM   28  C1  UNL     1     -12.287  47.837 -26.661  1.00  0.00     0.202 C 
ENDBRANCH  22  27
BRANCH  23  29
HETATM   29  O9  UNL     1      -9.953  48.363 -28.589  1.00  0.00    -0.390 OA
HETATM   30  H51 UNL     1     -10.637  48.909 -28.150  1.00  0.00     0.210 HD
ENDBRANCH  23  29
ENDBRANCH  19  20
ENDBRANCH   1  19
BRANCH  17  31
HETATM   31  O7  UNL     1      -5.632  46.955 -21.101  1.00  0.00    -0.389 OA
HETATM   32  H43 UNL     1      -6.089  46.193 -21.501  1.00  0.00     0.210 HD
ENDBRANCH  17  31
BRANCH   4  33
HETATM   33  C9  UNL     1      -6.651  49.345 -20.862  1.00  0.00     0.068 C 
HETATM   34  N1  UNL     1      -6.742  48.606 -19.808  1.00  0.00    -0.401 N 
ATOM     35  H1  UNL     1      -6.030  47.925 -19.544  1.00  0.00     0.158 HD
BRANCH  34  36
HETATM   36  C10 UNL     1      -7.964  48.835 -19.020  1.00  0.00     0.121 C 
BRANCH  36  37
HETATM   37  C11 UNL     1      -7.768  48.283 -17.608  1.00  0.00     0.045 C 
BRANCH  37  38
HETATM   38  C12 UNL     1      -6.626  47.280 -17.542  1.00  0.00     0.165 C 
BRANCH  38  39
HETATM   39  O3  UNL     1      -5.417  47.904 -17.122  1.00  0.00    -0.401 OA
HETATM   40  H20 UNL     1      -5.564  48.258 -16.224  1.00  0.00     0.209 HD
ENDBRANCH  38  39
ENDBRANCH  37  38
ENDBRANCH  36  37
ENDBRANCH  34  36
ENDBRANCH   4  33
BRANCH  13  41
HETATM   41  O6  UNL     1      -2.827  48.360 -17.765  1.00  0.00    -0.389 OA
HETATM   42  H37 UNL     1      -2.853  47.422 -18.022  1.00  0.00     0.210 HD
ENDBRANCH  13  41
BRANCH  10  43
HETATM   43  C19 UNL     1      -0.126  51.800 -19.434  1.00  0.00    -0.045 A 
HETATM   44  C20 UNL     1       0.371  53.037 -19.304  1.00  0.00     0.087 A 
HETATM   45  C21 UNL     1       0.975  53.402 -20.586  1.00  0.00     0.283 A 
HETATM   46  O4  UNL     1       1.540  54.460 -20.823  1.00  0.00    -0.260 OA
HETATM   47  O5  UNL     1       0.814  52.376 -21.463  1.00  0.00    -0.314 OA
HETATM   48  C22 UNL     1       0.150  51.298 -20.806  1.00  0.00     0.213 A 
ENDBRANCH  10  43
TORSDOF 12
ENDMDL
MODEL 6
REMARK minimizedAffinity -7.29043102
REMARK CNNscore 0.403504878
REMARK CNNaffinity 6.28114939
REMARK  12 active torsions:
REMARK  status: ('A' for Active; 'I' for Inactive)
REMARK    1  A    between atoms: O1_2  and  C2_3 
REMARK    2  A    between atoms: C4_5  and  O2_6 
REMARK    3  A    between atoms: O2_6  and  C5_7 
REMARK    4  A    between atoms: C8_10  and  C9_11 
REMARK    5  A    between atoms: N1_12  and  C10_14 
REMARK    6  A    between atoms: C10_14  and  C11_15 
REMARK    7  A    between atoms: C11_15  and  C12_16 
REMARK    8  A    between atoms: C12_16  and  O3_17 
REMARK    9  A    between atoms: C18_23  and  C19_24 
REMARK   10  A    between atoms: C25_32  and  O6_33 
REMARK   11  A    between atoms: C29_37  and  O7_38 
REMARK   12  A    between atoms: C33_43  and  O9_44 
ROOT
HETATM    1  C5  UNL     1     -13.784  45.607 -27.562  1.00  0.00     0.127 C 
HETATM    2  C6  UNL     1     -13.639  46.000 -29.017  1.00  0.00     0.033 C 
HETATM    3  C7  UNL     1     -12.572  47.071 -29.176  1.00  0.00     0.021 C 
HETATM    4  C8  UNL     1     -11.194  46.711 -28.533  1.00  0.00     0.026 C 
HETATM    5  C13 UNL     1     -10.141  46.701 -29.721  1.00  0.00     0.009 C 
HETATM    6  C14 UNL     1      -9.763  48.104 -30.208  1.00  0.00     0.007 C 
HETATM    7  C15 UNL     1      -9.017  47.961 -31.527  1.00  0.00     0.013 C 
HETATM    8  C16 UNL     1      -7.640  47.289 -31.348  1.00  0.00    -0.005 C 
HETATM    9  C17 UNL     1      -6.672  48.390 -30.830  1.00  0.00     0.019 C 
HETATM   10  C18 UNL     1      -7.050  46.761 -32.724  1.00  0.00     0.028 C 
HETATM   11  C23 UNL     1      -6.320  45.474 -32.316  1.00  0.00     0.013 C 
HETATM   12  C24 UNL     1      -7.234  44.848 -31.261  1.00  0.00     0.040 C 
HETATM   13  C25 UNL     1      -7.647  46.033 -30.370  1.00  0.00     0.070 C 
HETATM   14  C26 UNL     1      -8.894  45.847 -29.424  1.00  0.00     0.026 C 
HETATM   15  C27 UNL     1      -9.344  44.371 -29.249  1.00  0.00     0.011 C 
HETATM   16  C28 UNL     1     -10.770  44.193 -28.690  1.00  0.00     0.039 C 
HETATM   17  C29 UNL     1     -11.185  45.339 -27.752  1.00  0.00     0.073 C 
HETATM   18  C30 UNL     1     -12.500  45.018 -26.993  1.00  0.00     0.071 C 
ENDROOT
BRANCH   1  19
HETATM   19  O2  UNL     1     -14.865  44.674 -27.477  1.00  0.00    -0.356 OA
BRANCH  19  20
HETATM   20  C4  UNL     1     -15.999  45.201 -26.787  1.00  0.00     0.263 C 
HETATM   21  C3  UNL     1     -17.244  44.495 -27.315  1.00  0.00     0.095 C 
HETATM   22  C2  UNL     1     -18.478  45.078 -26.625  1.00  0.00     0.156 C 
HETATM   23  C33 UNL     1     -18.330  44.969 -25.099  1.00  0.00     0.175 C 
HETATM   24  C31 UNL     1     -16.973  45.492 -24.596  1.00  0.00     0.151 C 
HETATM   25  O8  UNL     1     -15.873  45.005 -25.377  1.00  0.00    -0.354 OA
HETATM   26  C32 UNL     1     -16.912  47.019 -24.502  1.00  0.00     0.042 C 
BRANCH  22  27
HETATM   27  O1  UNL     1     -19.680  44.367 -26.974  1.00  0.00    -0.388 OA
HETATM   28  C1  UNL     1     -19.535  43.493 -28.089  1.00  0.00     0.202 C 
ENDBRANCH  22  27
BRANCH  23  29
HETATM   29  O9  UNL     1     -18.455  43.585 -24.724  1.00  0.00    -0.390 OA
HETATM   30  H51 UNL     1     -19.178  43.236 -25.284  1.00  0.00     0.210 HD
ENDBRANCH  23  29
ENDBRANCH  19  20
ENDBRANCH   1  19
BRANCH  17  31
HETATM   31  O7  UNL     1     -10.122  45.338 -26.764  1.00  0.00    -0.389 OA
HETATM   32  H43 UNL     1     -10.447  44.871 -25.973  1.00  0.00     0.210 HD
ENDBRANCH  17  31
BRANCH   4  33
HETATM   33  C9  UNL     1     -10.828  47.751 -27.462  1.00  0.00     0.068 C 
HETATM   34  N1  UNL     1      -9.607  47.895 -27.066  1.00  0.00    -0.401 N 
ATOM     35  H1  UNL     1      -8.851  47.277 -27.361  1.00  0.00     0.158 HD
BRANCH  34  36
HETATM   36  C10 UNL     1      -9.405  49.031 -26.153  1.00  0.00     0.121 C 
BRANCH  36  37
HETATM   37  C11 UNL     1      -8.970  48.508 -24.784  1.00  0.00     0.045 C 
BRANCH  37  38
HETATM   38  C12 UNL     1      -7.461  48.573 -24.602  1.00  0.00     0.165 C 
BRANCH  38  39
HETATM   39  O3  UNL     1      -7.031  49.903 -24.333  1.00  0.00    -0.401 OA
HETATM   40  H20 UNL     1      -7.450  50.186 -23.498  1.00  0.00     0.209 HD
ENDBRANCH  38  39
ENDBRANCH  37  38
ENDBRANCH  36  37
ENDBRANCH  34  36
ENDBRANCH   4  33
BRANCH  13  41
HETATM   41  O6  UNL     1      -6.512  46.151 -29.462  1.00  0.00    -0.389 OA
HETATM   42  H37 UNL     1      -6.522  45.373 -28.876  1.00  0.00     0.210 HD
ENDBRANCH  13  41
BRANCH  10  43
HETATM   43  C19 UNL     1      -8.006  46.535 -33.881  1.00  0.00    -0.045 A 
HETATM   44  C20 UNL     1      -8.154  47.330 -34.949  1.00  0.00     0.087 A 
HETATM   45  C21 UNL     1      -9.163  46.716 -35.814  1.00  0.00     0.283 A 
HETATM   46  O4  UNL     1      -9.537  47.163 -36.888  1.00  0.00    -0.260 OA
HETATM   47  O5  UNL     1      -9.608  45.569 -35.235  1.00  0.00    -0.314 OA
HETATM   48  C22 UNL     1      -8.902  45.357 -34.014  1.00  0.00     0.213 A 
ENDBRANCH  10  43
TORSDOF 12
ENDMDL
MODEL 7
REMARK minimizedAffinity -8.82890511
REMARK CNNscore 0.319004089
REMARK CNNaffinity 6.99271011
REMARK  12 active torsions:
REMARK  status: ('A' for Active; 'I' for Inactive)
REMARK    1  A    between atoms: O1_2  and  C2_3 
REMARK    2  A    between atoms: C4_5  and  O2_6 
REMARK    3  A    between atoms: O2_6  and  C5_7 
REMARK    4  A    between atoms: C8_10  and  C9_11 
REMARK    5  A    between atoms: N1_12  and  C10_14 
REMARK    6  A    between atoms: C10_14  and  C11_15 
REMARK    7  A    between atoms: C11_15  and  C12_16 
REMARK    8  A    between atoms: C12_16  and  O3_17 
REMARK    9  A    between atoms: C18_23  and  C19_24 
REMARK   10  A    between atoms: C25_32  and  O6_33 
REMARK   11  A    between atoms: C29_37  and  O7_38 
REMARK   12  A    between atoms: C33_43  and  O9_44 
ROOT
HETATM    1  C5  UNL     1      -3.122  51.611 -24.464  1.00  0.00     0.127 C 
HETATM    2  C6  UNL     1      -3.386  50.176 -24.867  1.00  0.00     0.033 C 
HETATM    3  C7  UNL     1      -3.241  49.252 -23.670  1.00  0.00     0.021 C 
HETATM    4  C8  UNL     1      -4.087  49.669 -22.424  1.00  0.00     0.026 C 
HETATM    5  C13 UNL     1      -5.085  48.467 -22.145  1.00  0.00     0.009 C 
HETATM    6  C14 UNL     1      -4.405  47.248 -21.513  1.00  0.00     0.007 C 
HETATM    7  C15 UNL     1      -5.372  46.074 -21.590  1.00  0.00     0.013 C 
HETATM    8  C16 UNL     1      -6.604  46.274 -20.684  1.00  0.00    -0.005 C 
HETATM    9  C17 UNL     1      -6.157  45.911 -19.240  1.00  0.00     0.019 C 
HETATM   10  C18 UNL     1      -7.790  45.288 -21.065  1.00  0.00     0.028 C 
HETATM   11  C23 UNL     1      -9.042  46.140 -20.810  1.00  0.00     0.013 C 
HETATM   12  C24 UNL     1      -8.645  47.536 -21.294  1.00  0.00     0.040 C 
HETATM   13  C25 UNL     1      -7.224  47.738 -20.736  1.00  0.00     0.070 C 
HETATM   14  C26 UNL     1      -6.342  48.886 -21.360  1.00  0.00     0.026 C 
HETATM   15  C27 UNL     1      -7.139  49.903 -22.223  1.00  0.00     0.011 C 
HETATM   16  C28 UNL     1      -6.276  50.768 -23.163  1.00  0.00     0.039 C 
HETATM   17  C29 UNL     1      -4.869  51.029 -22.601  1.00  0.00     0.073 C 
HETATM   18  C30 UNL     1      -4.111  52.109 -23.418  1.00  0.00     0.071 C 
ENDROOT
BRANCH   1  19
HETATM   19  O2  UNL     1      -3.180  52.407 -25.652  1.00  0.00    -0.356 OA
BRANCH  19  20
HETATM   20  C4  UNL     1      -1.891  52.840 -26.091  1.00  0.00     0.263 C 
HETATM   21  C3  UNL     1      -0.966  51.627 -26.108  1.00  0.00     0.095 C 
HETATM   22  C2  UNL     1       0.435  52.074 -26.528  1.00  0.00     0.156 C 
HETATM   23  C33 UNL     1       0.373  52.797 -27.883  1.00  0.00     0.175 C 
HETATM   24  C31 UNL     1      -0.717  53.883 -27.926  1.00  0.00     0.151 C 
HETATM   25  O8  UNL     1      -1.967  53.427 -27.391  1.00  0.00    -0.354 OA
HETATM   26  C32 UNL     1      -0.298  55.186 -27.239  1.00  0.00     0.042 C 
BRANCH  22  27
HETATM   27  O1  UNL     1       1.331  50.959 -26.698  1.00  0.00    -0.388 OA
HETATM   28  C1  UNL     1       2.687  51.251 -26.375  1.00  0.00     0.202 C 
ENDBRANCH  22  27
BRANCH  23  29
HETATM   29  O9  UNL     1       0.093  51.826 -28.909  1.00  0.00    -0.390 OA
HETATM   30  H51 UNL     1       0.630  51.044 -28.669  1.00  0.00     0.210 HD
ENDBRANCH  23  29
ENDBRANCH  19  20
ENDBRANCH   1  19
BRANCH  17  31
HETATM   31  O7  UNL     1      -5.152  51.611 -21.302  1.00  0.00    -0.389 OA
HETATM   32  H43 UNL     1      -5.058  52.578 -21.379  1.00  0.00     0.210 HD
ENDBRANCH  17  31
BRANCH   4  33
HETATM   33  C9  UNL     1      -3.161  49.925 -21.224  1.00  0.00     0.068 C 
HETATM   34  N1  UNL     1      -1.896  50.119 -21.391  1.00  0.00    -0.401 N 
ATOM     35  H1  UNL     1      -1.432  50.018 -22.294  1.00  0.00     0.158 HD
BRANCH  34  36
HETATM   36  C10 UNL     1      -1.181  50.498 -20.161  1.00  0.00     0.121 C 
BRANCH  36  37
HETATM   37  C11 UNL     1      -0.767  51.967 -20.248  1.00  0.00     0.045 C 
BRANCH  37  38
HETATM   38  C12 UNL     1       0.263  52.332 -19.190  1.00  0.00     0.165 C 
BRANCH  38  39
HETATM   39  O3  UNL     1       0.248  53.730 -18.918  1.00  0.00    -0.401 OA
HETATM   40  H20 UNL     1      -0.637  53.954 -18.572  1.00  0.00     0.209 HD
ENDBRANCH  38  39
ENDBRANCH  37  38
ENDBRANCH  36  37
ENDBRANCH  34  36
ENDBRANCH   4  33
BRANCH  13  41
HETATM   41  O6  UNL     1      -7.485  48.177 -19.370  1.00  0.00    -0.389 OA
HETATM   42  H37 UNL     1      -7.872  49.068 -19.417  1.00  0.00     0.210 HD
ENDBRANCH  13  41
BRANCH  10  43
HETATM   43  C19 UNL     1      -7.794  44.664 -22.448  1.00  0.00    -0.045 A 
HETATM   44  C20 UNL     1      -7.507  43.388 -22.738  1.00  0.00     0.087 A 
HETATM   45  C21 UNL     1      -7.659  43.224 -24.185  1.00  0.00     0.283 A 
HETATM   46  O4  UNL     1      -7.492  42.180 -24.798  1.00  0.00    -0.260 OA
HETATM   47  O5  UNL     1      -8.021  44.415 -24.733  1.00  0.00    -0.314 OA
HETATM   48  C22 UNL     1      -8.163  45.383 -23.695  1.00  0.00     0.213 A 
ENDBRANCH  10  43
TORSDOF 12
ENDMDL
MODEL 8
REMARK minimizedAffinity -7.41340733
REMARK CNNscore 0.275430053
REMARK CNNaffinity 6.28488684
REMARK  12 active torsions:
REMARK  status: ('A' for Active; 'I' for Inactive)
REMARK    1  A    between atoms: O1_2  and  C2_3 
REMARK    2  A    between atoms: C4_5  and  O2_6 
REMARK    3  A    between atoms: O2_6  and  C5_7 
REMARK    4  A    between atoms: C8_10  and  C9_11 
REMARK    5  A    between atoms: N1_12  and  C10_14 
REMARK    6  A    between atoms: C10_14  and  C11_15 
REMARK    7  A    between atoms: C11_15  and  C12_16 
REMARK    8  A    between atoms: C12_16  and  O3_17 
REMARK    9  A    between atoms: C18_23  and  C19_24 
REMARK   10  A    between atoms: C25_32  and  O6_33 
REMARK   11  A    between atoms: C29_37  and  O7_38 
REMARK   12  A    between atoms: C33_43  and  O9_44 
ROOT
HETATM    1  C5  UNL     1      -7.337  47.050 -18.454  1.00  0.00     0.127 C 
HETATM    2  C6  UNL     1      -5.876  47.439 -18.387  1.00  0.00     0.033 C 
HETATM    3  C7  UNL     1      -5.164  47.060 -19.675  1.00  0.00     0.021 C 
HETATM    4  C8  UNL     1      -5.848  47.596 -20.973  1.00  0.00     0.026 C 
HETATM    5  C13 UNL     1      -4.784  48.543 -21.675  1.00  0.00     0.009 C 
HETATM    6  C14 UNL     1      -3.649  47.776 -22.360  1.00  0.00     0.007 C 
HETATM    7  C15 UNL     1      -2.549  48.770 -22.708  1.00  0.00     0.013 C 
HETATM    8  C16 UNL     1      -2.986  49.765 -23.802  1.00  0.00    -0.005 C 
HETATM    9  C17 UNL     1      -2.849  49.020 -25.160  1.00  0.00     0.019 C 
HETATM   10  C18 UNL     1      -2.035  51.034 -23.870  1.00  0.00     0.028 C 
HETATM   11  C23 UNL     1      -3.002  52.173 -24.224  1.00  0.00     0.013 C 
HETATM   12  C24 UNL     1      -4.263  51.852 -23.419  1.00  0.00     0.040 C 
HETATM   13  C25 UNL     1      -4.460  50.338 -23.615  1.00  0.00     0.070 C 
HETATM   14  C26 UNL     1      -5.419  49.582 -22.618  1.00  0.00     0.026 C 
HETATM   15  C27 UNL     1      -6.324  50.520 -21.773  1.00  0.00     0.011 C 
HETATM   16  C28 UNL     1      -6.951  49.861 -20.528  1.00  0.00     0.039 C 
HETATM   17  C29 UNL     1      -7.208  48.357 -20.720  1.00  0.00     0.073 C 
HETATM   18  C30 UNL     1      -8.075  47.767 -19.576  1.00  0.00     0.071 C 
ENDROOT
BRANCH   1  19
HETATM   19  O2  UNL     1      -7.918  47.346 -17.180  1.00  0.00    -0.356 OA
BRANCH  19  20
HETATM   20  C4  UNL     1      -8.734  46.284 -16.684  1.00  0.00     0.263 C 
HETATM   21  C3  UNL     1      -9.291  46.710 -15.328  1.00  0.00     0.095 C 
HETATM   22  C2  UNL     1     -10.130  45.568 -14.753  1.00  0.00     0.156 C 
HETATM   23  C33 UNL     1     -11.228  45.166 -15.751  1.00  0.00     0.175 C 
HETATM   24  C31 UNL     1     -10.684  44.945 -17.174  1.00  0.00     0.151 C 
HETATM   25  O8  UNL     1      -9.798  45.993 -17.591  1.00  0.00    -0.354 OA
HETATM   26  C32 UNL     1     -10.006  43.584 -17.356  1.00  0.00     0.042 C 
BRANCH  22  27
HETATM   27  O1  UNL     1     -10.800  45.948 -13.536  1.00  0.00    -0.388 OA
HETATM   28  C1  UNL     1     -11.102  44.855 -12.674  1.00  0.00     0.202 C 
ENDBRANCH  22  27
BRANCH  23  29
HETATM   29  O9  UNL     1     -12.214  46.214 -15.795  1.00  0.00    -0.390 OA
HETATM   30  H51 UNL     1     -12.322  46.498 -14.864  1.00  0.00     0.210 HD
ENDBRANCH  23  29
ENDBRANCH  19  20
ENDBRANCH   1  19
BRANCH  17  31
HETATM   31  O7  UNL     1      -8.024  48.328 -21.920  1.00  0.00    -0.389 OA
HETATM   32  H43 UNL     1      -8.954  48.225 -21.649  1.00  0.00     0.210 HD
ENDBRANCH  17  31
BRANCH   4  33
HETATM   33  C9  UNL     1      -6.243  46.421 -21.882  1.00  0.00     0.068 C 
HETATM   34  N1  UNL     1      -6.754  45.343 -21.388  1.00  0.00    -0.401 N 
ATOM     35  H1  UNL     1      -6.832  45.174 -20.385  1.00  0.00     0.158 HD
BRANCH  34  36
HETATM   36  C10 UNL     1      -7.214  44.380 -22.401  1.00  0.00     0.121 C 
BRANCH  36  37
HETATM   37  C11 UNL     1      -6.574  43.018 -22.134  1.00  0.00     0.045 C 
BRANCH  37  38
HETATM   38  C12 UNL     1      -6.473  42.718 -20.645  1.00  0.00     0.165 C 
BRANCH  38  39
HETATM   39  O3  UNL     1      -5.243  43.192 -20.108  1.00  0.00    -0.401 OA
HETATM   40  H20 UNL     1      -5.223  44.161 -20.225  1.00  0.00     0.209 HD
ENDBRANCH  38  39
ENDBRANCH  37  38
ENDBRANCH  36  37
ENDBRANCH  34  36
ENDBRANCH   4  33
BRANCH  13  41
HETATM   41  O6  UNL     1      -5.144  50.276 -24.901  1.00  0.00    -0.389 OA
HETATM   42  H37 UNL     1      -6.039  50.637 -24.775  1.00  0.00     0.210 HD
ENDBRANCH  13  41
BRANCH  10  43
HETATM   43  C19 UNL     1      -1.182  51.363 -22.658  1.00  0.00    -0.045 A 
HETATM   44  C20 UNL     1       0.003  51.987 -22.673  1.00  0.00     0.087 A 
HETATM   45  C21 UNL     1       0.449  52.112 -21.285  1.00  0.00     0.283 A 
HETATM   46  O4  UNL     1       1.486  52.647 -20.923  1.00  0.00    -0.260 OA
HETATM   47  O5  UNL     1      -0.478  51.545 -20.467  1.00  0.00    -0.314 OA
HETATM   48  C22 UNL     1      -1.568  51.071 -21.253  1.00  0.00     0.213 A 
ENDBRANCH  10  43
TORSDOF 12
ENDMDL
MODEL 9
REMARK minimizedAffinity -7.05038595
REMARK CNNscore 0.250866026
REMARK CNNaffinity 6.13789606
REMARK  12 active torsions:
REMARK  status: ('A' for Active; 'I' for Inactive)
REMARK    1  A    between atoms: O1_2  and  C2_3 
REMARK    2  A    between atoms: C4_5  and  O2_6 
REMARK    3  A    between atoms: O2_6  and  C5_7 
REMARK    4  A    between atoms: C8_10  and  C9_11 
REMARK    5  A    between atoms: N1_12  and  C10_14 
REMARK    6  A    between atoms: C10_14  and  C11_15 
REMARK    7  A    between atoms: C11_15  and  C12_16 
REMARK    8  A    between atoms: C12_16  and  O3_17 
REMARK    9  A    between atoms: C18_23  and  C19_24 
REMARK   10  A    between atoms: C25_32  and  O6_33 
REMARK   11  A    between atoms: C29_37  and  O7_38 
REMARK   12  A    between atoms: C33_43  and  O9_44 
ROOT
HETATM    1  C5  UNL     1      -8.528  47.567 -23.879  1.00  0.00     0.127 C 
HETATM    2  C6  UNL     1      -7.763  46.840 -22.794  1.00  0.00     0.033 C 
HETATM    3  C7  UNL     1      -6.268  46.914 -23.055  1.00  0.00     0.021 C 
HETATM    4  C8  UNL     1      -5.722  48.360 -23.280  1.00  0.00     0.026 C 
HETATM    5  C13 UNL     1      -4.662  48.616 -22.126  1.00  0.00     0.009 C 
HETATM    6  C14 UNL     1      -3.338  47.877 -22.344  1.00  0.00     0.007 C 
HETATM    7  C15 UNL     1      -2.543  47.939 -21.046  1.00  0.00     0.013 C 
HETATM    8  C16 UNL     1      -2.074  49.370 -20.717  1.00  0.00    -0.005 C 
HETATM    9  C17 UNL     1      -0.816  49.638 -21.591  1.00  0.00     0.019 C 
HETATM   10  C18 UNL     1      -1.626  49.518 -19.201  1.00  0.00     0.028 C 
HETATM   11  C23 UNL     1      -2.079  50.941 -18.844  1.00  0.00     0.013 C 
HETATM   12  C24 UNL     1      -3.424  51.092 -19.557  1.00  0.00     0.040 C 
HETATM   13  C25 UNL     1      -3.179  50.492 -20.953  1.00  0.00     0.070 C 
HETATM   14  C26 UNL     1      -4.436  50.110 -21.824  1.00  0.00     0.026 C 
HETATM   15  C27 UNL     1      -5.773  50.711 -21.309  1.00  0.00     0.011 C 
HETATM   16  C28 UNL     1      -7.041  50.038 -21.870  1.00  0.00     0.039 C 
HETATM   17  C29 UNL     1      -6.837  49.478 -23.287  1.00  0.00     0.073 C 
HETATM   18  C30 UNL     1      -8.178  49.048 -23.938  1.00  0.00     0.071 C 
ENDROOT
BRANCH   1  19
HETATM   19  O2  UNL     1      -9.923  47.374 -23.622  1.00  0.00    -0.356 OA
BRANCH  19  20
HETATM   20  C4  UNL     1     -10.223  46.058 -23.157  1.00  0.00     0.263 C 
HETATM   21  C3  UNL     1     -11.465  46.141 -22.273  1.00  0.00     0.095 C 
HETATM   22  C2  UNL     1     -11.778  44.749 -21.722  1.00  0.00     0.156 C 
HETATM   23  C33 UNL     1     -11.932  43.747 -22.877  1.00  0.00     0.175 C 
HETATM   24  C31 UNL     1     -10.771  43.822 -23.885  1.00  0.00     0.151 C 
HETATM   25  O8  UNL     1     -10.449  45.170 -24.252  1.00  0.00    -0.354 OA
HETATM   26  C32 UNL     1      -9.510  43.093 -23.409  1.00  0.00     0.042 C 
BRANCH  22  27
HETATM   27  O1  UNL     1     -13.017  44.723 -20.988  1.00  0.00    -0.388 OA
HETATM   28  C1  UNL     1     -13.486  46.010 -20.597  1.00  0.00     0.202 C 
ENDBRANCH  22  27
BRANCH  23  29
HETATM   29  O9  UNL     1     -13.160  44.032 -23.572  1.00  0.00    -0.390 OA
HETATM   30  H51 UNL     1     -13.806  44.240 -22.866  1.00  0.00     0.210 HD
ENDBRANCH  23  29
ENDBRANCH  19  20
ENDBRANCH   1  19
BRANCH  17  31
HETATM   31  O7  UNL     1      -6.370  50.640 -24.021  1.00  0.00    -0.389 OA
HETATM   32  H43 UNL     1      -7.125  51.006 -24.516  1.00  0.00     0.210 HD
ENDBRANCH  17  31
BRANCH   4  33
HETATM   33  C9  UNL     1      -5.078  48.468 -24.671  1.00  0.00     0.068 C 
HETATM   34  N1  UNL     1      -3.822  48.733 -24.803  1.00  0.00    -0.401 N 
ATOM     35  H1  UNL     1      -3.220  48.978 -24.017  1.00  0.00     0.158 HD
BRANCH  34  36
HETATM   36  C10 UNL     1      -3.335  48.651 -26.190  1.00  0.00     0.121 C 
BRANCH  36  37
HETATM   37  C11 UNL     1      -4.500  48.308 -27.117  1.00  0.00     0.045 C 
BRANCH  37  38
HETATM   38  C12 UNL     1      -4.189  48.638 -28.569  1.00  0.00     0.165 C 
BRANCH  38  39
HETATM   39  O3  UNL     1      -3.815  50.004 -28.717  1.00  0.00    -0.401 OA
HETATM   40  H20 UNL     1      -3.004  50.146 -28.193  1.00  0.00     0.209 HD
ENDBRANCH  38  39
ENDBRANCH  37  38
ENDBRANCH  36  37
ENDBRANCH  34  36
ENDBRANCH   4  33
BRANCH  13  41
HETATM   41  O6  UNL     1      -2.561  51.603 -21.668  1.00  0.00    -0.389 OA
HETATM   42  H37 UNL     1      -3.244  52.284 -21.797  1.00  0.00     0.210 HD
ENDBRANCH  13  41
BRANCH  10  43
HETATM   43  C19 UNL     1      -2.122  48.492 -18.198  1.00  0.00    -0.045 A 
HETATM   44  C20 UNL     1      -2.076  48.605 -16.865  1.00  0.00     0.087 A 
HETATM   45  C21 UNL     1      -2.681  47.397 -16.302  1.00  0.00     0.283 A 
HETATM   46  O4  UNL     1      -2.822  47.170 -15.109  1.00  0.00    -0.260 OA
HETATM   47  O5  UNL     1      -3.066  46.578 -17.316  1.00  0.00    -0.314 OA
HETATM   48  C22 UNL     1      -2.778  47.209 -18.562  1.00  0.00     0.213 A 
ENDBRANCH  10  43
TORSDOF 12
ENDMDL
