MODEL 1
REMARK minimizedAffinity -7.34200525
REMARK CNNscore 0.789848387
REMARK CNNaffinity 6.9624157
REMARK  13 active torsions:
REMARK  status: ('A' for Active; 'I' for Inactive)
REMARK    1  A    between atoms: C4_4  and  C5_5 
REMARK    2  A    between atoms: C5_5  and  C6_6 
REMARK    3  A    between atoms: C6_6  and  C7_7 
REMARK    4  A    between atoms: C9_9  and  C10_10 
REMARK    5  A    between atoms: C11_11  and  C12_12 
REMARK    6  A    between atoms: C14_14  and  C15_15 
REMARK    7  A    between atoms: C18_18  and  C19_19 
REMARK    8  A    between atoms: C19_19  and  C20_20 
REMARK    9  A    between atoms: C20_20  and  C21_21 
REMARK   10  A    between atoms: C21_21  and  O1_22 
REMARK   11  A    between atoms: C23_24  and  C25_26 
REMARK   12  A    between atoms: C28_30  and  O3_32 
REMARK   13  A    between atoms: C30_33  and  O4_34 
ROOT
HETATM    1  C15 UNL     1      -0.060  52.024 -13.512  1.00  0.00     0.149 C 
HETATM    2  C16 UNL     1      -1.355  52.608 -12.967  1.00  0.00     0.054 C 
HETATM    3  C17 UNL     1      -1.357  52.251 -11.459  1.00  0.00     0.050 C 
HETATM    4  C18 UNL     1      -0.816  53.456 -10.553  1.00  0.00     0.032 C 
HETATM    5  C22 UNL     1      -1.003  53.213  -9.026  1.00  0.00    -0.066 C 
HETATM    6  C23 UNL     1      -0.730  54.148  -8.073  1.00  0.00    -0.021 C 
HETATM    7  C24 UNL     1      -0.434  55.603  -8.318  1.00  0.00     0.052 C 
HETATM    8  C26 UNL     1      -1.555  51.839  -8.676  1.00  0.00     0.038 C 
HETATM    9  C27 UNL     1      -2.806  51.452  -9.474  1.00  0.00     0.042 C 
HETATM   10  C28 UNL     1      -2.811  51.919 -10.947  1.00  0.00     0.067 C 
HETATM   11  C29 UNL     1      -3.797  53.097 -11.099  1.00  0.00     0.047 C 
HETATM   12  C30 UNL     1      -0.414  51.009 -11.457  1.00  0.00     0.270 C 
HETATM   13  O5  UNL     1       0.281  50.910 -12.692  1.00  0.00    -0.351 OA
ENDROOT
BRANCH   4  14
HETATM   14  C19 UNL     1       0.573  54.048 -10.940  1.00  0.00     0.012 C 
BRANCH  14  15
HETATM   15  C20 UNL     1       1.796  53.635 -10.110  1.00  0.00     0.027 C 
BRANCH  15  16
HETATM   16  C21 UNL     1       2.626  52.573 -10.833  1.00  0.00     0.164 C 
BRANCH  16  17
HETATM   17  O1  UNL     1       2.843  52.982 -12.175  1.00  0.00    -0.401 OA
HETATM   18  H32 UNL     1       3.309  52.260 -12.632  1.00  0.00     0.209 HD
ENDBRANCH  16  17
ENDBRANCH  15  16
ENDBRANCH  14  15
ENDBRANCH   4  14
BRANCH  10  19
HETATM   19  O3  UNL     1      -3.401  50.872 -11.734  1.00  0.00    -0.389 OA
HETATM   20  H44 UNL     1      -2.778  50.113 -11.691  1.00  0.00     0.210 HD
ENDBRANCH  10  19
BRANCH  12  21
HETATM   21  O4  UNL     1      -1.108  49.777 -11.318  1.00  0.00    -0.370 OA
HETATM   22  H46 UNL     1      -0.403  49.111 -11.439  1.00  0.00     0.212 HD
ENDBRANCH  12  21
BRANCH   1  23
HETATM   23  C14 UNL     1      -0.039  51.650 -14.968  1.00  0.00     0.011 C 
HETATM   24  C12 UNL     1       0.983  51.627 -15.851  1.00  0.00    -0.063 C 
HETATM   25  C13 UNL     1       2.415  51.916 -15.484  1.00  0.00     0.048 C 
BRANCH  24  26
HETATM   26  C11 UNL     1       0.682  51.328 -17.254  1.00  0.00     0.006 C 
HETATM   27  C10 UNL     1       0.398  52.213 -18.227  1.00  0.00     0.001 C 
BRANCH  27  28
HETATM   28  C9  UNL     1       0.049  51.811 -19.575  1.00  0.00     0.002 C 
HETATM   29  C7  UNL     1       0.382  52.444 -20.720  1.00  0.00    -0.084 C 
HETATM   30  C8  UNL     1       1.262  53.665 -20.821  1.00  0.00     0.043 C 
BRANCH  29  31
HETATM   31  C6  UNL     1      -0.107  51.897 -22.056  1.00  0.00     0.037 C 
BRANCH  31  32
HETATM   32  C5  UNL     1      -1.448  51.143 -22.000  1.00  0.00     0.031 C 
BRANCH  32  33
HETATM   33  C4  UNL     1      -1.294  49.652 -21.849  1.00  0.00    -0.024 C 
HETATM   34  C2  UNL     1      -2.248  48.702 -21.913  1.00  0.00    -0.091 C 
HETATM   35  C1  UNL     1      -1.882  47.247 -21.753  1.00  0.00     0.042 C 
HETATM   36  C3  UNL     1      -3.717  48.941 -22.133  1.00  0.00     0.042 C 
ENDBRANCH  32  33
ENDBRANCH  31  32
ENDBRANCH  29  31
ENDBRANCH  27  28
ENDBRANCH  24  26
ENDBRANCH   1  23
BRANCH   6  37
HETATM   37  C25 UNL     1      -0.670  53.808  -6.610  1.00  0.00     0.265 C 
HETATM   38  O2  UNL     1      -1.202  54.491  -5.738  1.00  0.00    -0.302 OA
ENDBRANCH   6  37
TORSDOF 13
ENDMDL
MODEL 2
REMARK minimizedAffinity -8.48154259
REMARK CNNscore 0.78704077
REMARK CNNaffinity 6.72569418
REMARK  13 active torsions:
REMARK  status: ('A' for Active; 'I' for Inactive)
REMARK    1  A    between atoms: C4_4  and  C5_5 
REMARK    2  A    between atoms: C5_5  and  C6_6 
REMARK    3  A    between atoms: C6_6  and  C7_7 
REMARK    4  A    between atoms: C9_9  and  C10_10 
REMARK    5  A    between atoms: C11_11  and  C12_12 
REMARK    6  A    between atoms: C14_14  and  C15_15 
REMARK    7  A    between atoms: C18_18  and  C19_19 
REMARK    8  A    between atoms: C19_19  and  C20_20 
REMARK    9  A    between atoms: C20_20  and  C21_21 
REMARK   10  A    between atoms: C21_21  and  O1_22 
REMARK   11  A    between atoms: C23_24  and  C25_26 
REMARK   12  A    between atoms: C28_30  and  O3_32 
REMARK   13  A    between atoms: C30_33  and  O4_34 
ROOT
HETATM    1  C15 UNL     1      -0.514  51.760 -18.564  1.00  0.00     0.149 C 
HETATM    2  C16 UNL     1      -0.367  50.520 -19.434  1.00  0.00     0.054 C 
HETATM    3  C17 UNL     1      -1.552  50.582 -20.431  1.00  0.00     0.050 C 
HETATM    4  C18 UNL     1      -1.124  51.219 -21.837  1.00  0.00     0.032 C 
HETATM    5  C22 UNL     1      -2.230  51.102 -22.929  1.00  0.00    -0.066 C 
HETATM    6  C23 UNL     1      -2.047  51.462 -24.230  1.00  0.00    -0.021 C 
HETATM    7  C24 UNL     1      -0.732  51.805 -24.879  1.00  0.00     0.052 C 
HETATM    8  C26 UNL     1      -3.540  50.512 -22.430  1.00  0.00     0.038 C 
HETATM    9  C27 UNL     1      -3.372  49.207 -21.643  1.00  0.00     0.042 C 
HETATM   10  C28 UNL     1      -2.120  49.145 -20.740  1.00  0.00     0.067 C 
HETATM   11  C29 UNL     1      -1.081  48.201 -21.384  1.00  0.00     0.047 C 
HETATM   12  C30 UNL     1      -2.552  51.472 -19.631  1.00  0.00     0.270 C 
HETATM   13  O5  UNL     1      -1.898  52.097 -18.537  1.00  0.00    -0.351 OA
ENDROOT
BRANCH   4  14
HETATM   14  C19 UNL     1      -0.422  52.609 -21.786  1.00  0.00     0.012 C 
BRANCH  14  15
HETATM   15  C20 UNL     1       1.112  52.650 -21.784  1.00  0.00     0.027 C 
BRANCH  15  16
HETATM   16  C21 UNL     1       1.634  53.850 -20.992  1.00  0.00     0.164 C 
BRANCH  16  17
HETATM   17  O1  UNL     1       1.985  54.889 -21.894  1.00  0.00    -0.401 OA
HETATM   18  H32 UNL     1       2.381  55.610 -21.374  1.00  0.00     0.209 HD
ENDBRANCH  16  17
ENDBRANCH  15  16
ENDBRANCH  14  15
ENDBRANCH   4  14
BRANCH  10  19
HETATM   19  O3  UNL     1      -2.491  48.472 -19.526  1.00  0.00    -0.389 OA
HETATM   20  H44 UNL     1      -3.128  49.064 -19.069  1.00  0.00     0.210 HD
ENDBRANCH  10  19
BRANCH  12  21
HETATM   21  O4  UNL     1      -3.623  50.736 -19.057  1.00  0.00    -0.370 OA
HETATM   22  H46 UNL     1      -4.087  51.405 -18.517  1.00  0.00     0.212 HD
ENDBRANCH  12  21
BRANCH   1  23
HETATM   23  C14 UNL     1       0.053  51.690 -17.174  1.00  0.00     0.011 C 
HETATM   24  C12 UNL     1       0.219  50.634 -16.348  1.00  0.00    -0.063 C 
HETATM   25  C13 UNL     1      -0.083  49.210 -16.736  1.00  0.00     0.048 C 
BRANCH  24  26
HETATM   26  C11 UNL     1       0.697  50.885 -14.986  1.00  0.00     0.006 C 
HETATM   27  C10 UNL     1       1.810  51.552 -14.628  1.00  0.00     0.001 C 
BRANCH  27  28
HETATM   28  C9  UNL     1       2.231  51.692 -13.248  1.00  0.00     0.002 C 
HETATM   29  C7  UNL     1       3.193  50.984 -12.620  1.00  0.00    -0.084 C 
HETATM   30  C8  UNL     1       4.083  49.951 -13.266  1.00  0.00     0.043 C 
BRANCH  29  31
HETATM   31  C6  UNL     1       3.478  51.239 -11.144  1.00  0.00     0.037 C 
BRANCH  31  32
HETATM   32  C5  UNL     1       3.210  52.679 -10.668  1.00  0.00     0.031 C 
BRANCH  32  33
HETATM   33  C4  UNL     1       4.413  53.343 -10.051  1.00  0.00    -0.024 C 
HETATM   34  C2  UNL     1       4.793  54.632 -10.138  1.00  0.00    -0.091 C 
HETATM   35  C1  UNL     1       6.034  55.108  -9.422  1.00  0.00     0.042 C 
HETATM   36  C3  UNL     1       4.087  55.709 -10.915  1.00  0.00     0.042 C 
ENDBRANCH  32  33
ENDBRANCH  31  32
ENDBRANCH  29  31
ENDBRANCH  27  28
ENDBRANCH  24  26
ENDBRANCH   1  23
BRANCH   6  37
HETATM   37  C25 UNL     1      -3.191  51.584 -25.197  1.00  0.00     0.265 C 
HETATM   38  O2  UNL     1      -3.468  52.627 -25.785  1.00  0.00    -0.302 OA
ENDBRANCH   6  37
TORSDOF 13
ENDMDL
MODEL 3
REMARK minimizedAffinity -7.59410763
REMARK CNNscore 0.752863646
REMARK CNNaffinity 7.02015686
REMARK  13 active torsions:
REMARK  status: ('A' for Active; 'I' for Inactive)
REMARK    1  A    between atoms: C4_4  and  C5_5 
REMARK    2  A    between atoms: C5_5  and  C6_6 
REMARK    3  A    between atoms: C6_6  and  C7_7 
REMARK    4  A    between atoms: C9_9  and  C10_10 
REMARK    5  A    between atoms: C11_11  and  C12_12 
REMARK    6  A    between atoms: C14_14  and  C15_15 
REMARK    7  A    between atoms: C18_18  and  C19_19 
REMARK    8  A    between atoms: C19_19  and  C20_20 
REMARK    9  A    between atoms: C20_20  and  C21_21 
REMARK   10  A    between atoms: C21_21  and  O1_22 
REMARK   11  A    between atoms: C23_24  and  C25_26 
REMARK   12  A    between atoms: C28_30  and  O3_32 
REMARK   13  A    between atoms: C30_33  and  O4_34 
ROOT
HETATM    1  C15 UNL     1      -0.090  51.895 -13.608  1.00  0.00     0.149 C 
HETATM    2  C16 UNL     1      -1.379  52.517 -13.093  1.00  0.00     0.054 C 
HETATM    3  C17 UNL     1      -1.403  52.201 -11.575  1.00  0.00     0.050 C 
HETATM    4  C18 UNL     1      -0.849  53.420 -10.696  1.00  0.00     0.032 C 
HETATM    5  C22 UNL     1      -1.055  53.220  -9.165  1.00  0.00    -0.066 C 
HETATM    6  C23 UNL     1      -0.774  54.175  -8.234  1.00  0.00    -0.021 C 
HETATM    7  C24 UNL     1      -0.448  55.618  -8.515  1.00  0.00     0.052 C 
HETATM    8  C26 UNL     1      -1.637  51.867  -8.785  1.00  0.00     0.038 C 
HETATM    9  C27 UNL     1      -2.886  51.482  -9.586  1.00  0.00     0.042 C 
HETATM   10  C28 UNL     1      -2.868  51.910 -11.071  1.00  0.00     0.067 C 
HETATM   11  C29 UNL     1      -3.830  53.101 -11.264  1.00  0.00     0.047 C 
HETATM   12  C30 UNL     1      -0.484  50.942 -11.531  1.00  0.00     0.270 C 
HETATM   13  O5  UNL     1       0.221  50.798 -12.755  1.00  0.00    -0.351 OA
ENDROOT
BRANCH   4  14
HETATM   14  C19 UNL     1       0.555  53.975 -11.084  1.00  0.00     0.012 C 
BRANCH  14  15
HETATM   15  C20 UNL     1       1.285  54.875 -10.078  1.00  0.00     0.027 C 
BRANCH  15  16
HETATM   16  C21 UNL     1       2.620  55.366 -10.639  1.00  0.00     0.164 C 
BRANCH  16  17
HETATM   17  O1  UNL     1       3.145  56.372  -9.786  1.00  0.00    -0.401 OA
HETATM   18  H32 UNL     1       3.955  56.718 -10.200  1.00  0.00     0.209 HD
ENDBRANCH  16  17
ENDBRANCH  15  16
ENDBRANCH  14  15
ENDBRANCH   4  14
BRANCH  10  19
HETATM   19  O3  UNL     1      -3.470  50.853 -11.836  1.00  0.00    -0.389 OA
HETATM   20  H44 UNL     1      -2.862  50.085 -11.766  1.00  0.00     0.210 HD
ENDBRANCH  10  19
BRANCH  12  21
HETATM   21  O4  UNL     1      -1.201  49.728 -11.367  1.00  0.00    -0.370 OA
HETATM   22  H46 UNL     1      -0.509  49.045 -11.463  1.00  0.00     0.212 HD
ENDBRANCH  12  21
BRANCH   1  23
HETATM   23  C14 UNL     1      -0.062  51.483 -15.053  1.00  0.00     0.011 C 
HETATM   24  C12 UNL     1       0.946  51.511 -15.953  1.00  0.00    -0.063 C 
HETATM   25  C13 UNL     1       2.358  51.917 -15.617  1.00  0.00     0.048 C 
BRANCH  24  26
HETATM   26  C11 UNL     1       0.649  51.151 -17.341  1.00  0.00     0.006 C 
HETATM   27  C10 UNL     1       0.096  51.939 -18.282  1.00  0.00     0.001 C 
BRANCH  27  28
HETATM   28  C9  UNL     1      -0.218  51.466 -19.616  1.00  0.00     0.002 C 
HETATM   29  C7  UNL     1       0.078  52.078 -20.782  1.00  0.00    -0.084 C 
HETATM   30  C8  UNL     1       0.874  53.352 -20.924  1.00  0.00     0.043 C 
BRANCH  29  31
HETATM   31  C6  UNL     1      -0.367  51.452 -22.098  1.00  0.00     0.037 C 
BRANCH  31  32
HETATM   32  C5  UNL     1      -0.539  52.442 -23.265  1.00  0.00     0.031 C 
BRANCH  32  33
HETATM   33  C4  UNL     1       0.327  52.123 -24.456  1.00  0.00    -0.024 C 
HETATM   34  C2  UNL     1       0.034  51.351 -25.521  1.00  0.00    -0.091 C 
HETATM   35  C1  UNL     1       1.042  51.172 -26.630  1.00  0.00     0.042 C 
HETATM   36  C3  UNL     1      -1.252  50.602 -25.739  1.00  0.00     0.042 C 
ENDBRANCH  32  33
ENDBRANCH  31  32
ENDBRANCH  29  31
ENDBRANCH  27  28
ENDBRANCH  24  26
ENDBRANCH   1  23
BRANCH   6  37
HETATM   37  C25 UNL     1      -0.736  53.874  -6.762  1.00  0.00     0.265 C 
HETATM   38  O2  UNL     1       0.295  53.574  -6.164  1.00  0.00    -0.302 OA
ENDBRANCH   6  37
TORSDOF 13
ENDMDL
MODEL 4
REMARK minimizedAffinity -8.54729462
REMARK CNNscore 0.70041424
REMARK CNNaffinity 6.76945543
REMARK  13 active torsions:
REMARK  status: ('A' for Active; 'I' for Inactive)
REMARK    1  A    between atoms: C4_4  and  C5_5 
REMARK    2  A    between atoms: C5_5  and  C6_6 
REMARK    3  A    between atoms: C6_6  and  C7_7 
REMARK    4  A    between atoms: C9_9  and  C10_10 
REMARK    5  A    between atoms: C11_11  and  C12_12 
REMARK    6  A    between atoms: C14_14  and  C15_15 
REMARK    7  A    between atoms: C18_18  and  C19_19 
REMARK    8  A    between atoms: C19_19  and  C20_20 
REMARK    9  A    between atoms: C20_20  and  C21_21 
REMARK   10  A    between atoms: C21_21  and  O1_22 
REMARK   11  A    between atoms: C23_24  and  C25_26 
REMARK   12  A    between atoms: C28_30  and  O3_32 
REMARK   13  A    between atoms: C30_33  and  O4_34 
ROOT
HETATM    1  C15 UNL     1      -3.155  49.885 -25.736  1.00  0.00     0.149 C 
HETATM    2  C16 UNL     1      -1.656  49.894 -25.996  1.00  0.00     0.054 C 
HETATM    3  C17 UNL     1      -1.196  51.335 -25.661  1.00  0.00     0.050 C 
HETATM    4  C18 UNL     1      -0.608  51.451 -24.175  1.00  0.00     0.032 C 
HETATM    5  C22 UNL     1       0.056  52.829 -23.880  1.00  0.00    -0.066 C 
HETATM    6  C23 UNL     1       0.729  53.112 -22.729  1.00  0.00    -0.021 C 
HETATM    7  C24 UNL     1       1.139  52.119 -21.675  1.00  0.00     0.052 C 
HETATM    8  C26 UNL     1      -0.076  53.840 -25.009  1.00  0.00     0.038 C 
HETATM    9  C27 UNL     1       0.328  53.292 -26.382  1.00  0.00     0.042 C 
HETATM   10  C28 UNL     1      -0.055  51.817 -26.636  1.00  0.00     0.067 C 
HETATM   11  C29 UNL     1       1.217  50.946 -26.568  1.00  0.00     0.047 C 
HETATM   12  C30 UNL     1      -2.532  52.115 -25.856  1.00  0.00     0.270 C 
HETATM   13  O5  UNL     1      -3.627  51.214 -25.932  1.00  0.00    -0.351 OA
ENDROOT
BRANCH   4  14
HETATM   14  C19 UNL     1      -1.516  50.920 -23.025  1.00  0.00     0.012 C 
BRANCH  14  15
HETATM   15  C20 UNL     1      -2.391  51.927 -22.266  1.00  0.00     0.027 C 
BRANCH  15  16
HETATM   16  C21 UNL     1      -3.869  51.756 -22.620  1.00  0.00     0.164 C 
BRANCH  16  17
HETATM   17  O1  UNL     1      -4.649  51.859 -21.438  1.00  0.00    -0.401 OA
HETATM   18  H32 UNL     1      -5.575  51.675 -21.679  1.00  0.00     0.209 HD
ENDBRANCH  16  17
ENDBRANCH  15  16
ENDBRANCH  14  15
ENDBRANCH   4  14
BRANCH  10  19
HETATM   19  O3  UNL     1      -0.476  51.706 -28.006  1.00  0.00    -0.389 OA
HETATM   20  H44 UNL     1      -1.309  52.221 -28.078  1.00  0.00     0.210 HD
ENDBRANCH  10  19
BRANCH  12  21
HETATM   21  O4  UNL     1      -2.576  52.861 -27.064  1.00  0.00    -0.370 OA
HETATM   22  H46 UNL     1      -3.494  53.195 -27.085  1.00  0.00     0.212 HD
ENDBRANCH  12  21
BRANCH   1  23
HETATM   23  C14 UNL     1      -3.977  48.898 -26.517  1.00  0.00     0.011 C 
HETATM   24  C12 UNL     1      -4.277  48.855 -27.833  1.00  0.00    -0.063 C 
HETATM   25  C13 UNL     1      -3.728  49.822 -28.850  1.00  0.00     0.048 C 
BRANCH  24  26
HETATM   26  C11 UNL     1      -5.210  47.826 -28.301  1.00  0.00     0.006 C 
HETATM   27  C10 UNL     1      -6.518  47.983 -28.574  1.00  0.00     0.001 C 
BRANCH  27  28
HETATM   28  C9  UNL     1      -7.373  46.882 -28.971  1.00  0.00     0.002 C 
HETATM   29  C7  UNL     1      -7.978  45.992 -28.156  1.00  0.00    -0.084 C 
HETATM   30  C8  UNL     1      -7.943  46.021 -26.648  1.00  0.00     0.043 C 
BRANCH  29  31
HETATM   31  C6  UNL     1      -8.816  44.867 -28.753  1.00  0.00     0.037 C 
BRANCH  31  32
HETATM   32  C5  UNL     1     -10.113  44.545 -27.989  1.00  0.00     0.031 C 
BRANCH  32  33
HETATM   33  C4  UNL     1     -11.282  45.400 -28.402  1.00  0.00    -0.024 C 
HETATM   34  C2  UNL     1     -12.585  45.061 -28.470  1.00  0.00    -0.091 C 
HETATM   35  C1  UNL     1     -13.615  46.080 -28.892  1.00  0.00     0.042 C 
HETATM   36  C3  UNL     1     -13.159  43.705 -28.160  1.00  0.00     0.042 C 
ENDBRANCH  32  33
ENDBRANCH  31  32
ENDBRANCH  29  31
ENDBRANCH  27  28
ENDBRANCH  24  26
ENDBRANCH   1  23
BRANCH   6  37
HETATM   37  C25 UNL     1       1.132  54.512 -22.360  1.00  0.00     0.265 C 
HETATM   38  O2  UNL     1       1.845  54.775 -21.394  1.00  0.00    -0.302 OA
ENDBRANCH   6  37
TORSDOF 13
ENDMDL
MODEL 5
REMARK minimizedAffinity -7.58598995
REMARK CNNscore 0.651603162
REMARK CNNaffinity 6.64287996
REMARK  13 active torsions:
REMARK  status: ('A' for Active; 'I' for Inactive)
REMARK    1  A    between atoms: C4_4  and  C5_5 
REMARK    2  A    between atoms: C5_5  and  C6_6 
REMARK    3  A    between atoms: C6_6  and  C7_7 
REMARK    4  A    between atoms: C9_9  and  C10_10 
REMARK    5  A    between atoms: C11_11  and  C12_12 
REMARK    6  A    between atoms: C14_14  and  C15_15 
REMARK    7  A    between atoms: C18_18  and  C19_19 
REMARK    8  A    between atoms: C19_19  and  C20_20 
REMARK    9  A    between atoms: C20_20  and  C21_21 
REMARK   10  A    between atoms: C21_21  and  O1_22 
REMARK   11  A    between atoms: C23_24  and  C25_26 
REMARK   12  A    between atoms: C28_30  and  O3_32 
REMARK   13  A    between atoms: C30_33  and  O4_34 
ROOT
HETATM    1  C15 UNL     1      -1.732  51.254 -18.363  1.00  0.00     0.149 C 
HETATM    2  C16 UNL     1      -1.257  50.066 -19.186  1.00  0.00     0.054 C 
HETATM    3  C17 UNL     1      -2.097  50.115 -20.488  1.00  0.00     0.050 C 
HETATM    4  C18 UNL     1      -1.314  50.838 -21.684  1.00  0.00     0.032 C 
HETATM    5  C22 UNL     1      -2.038  50.717 -23.058  1.00  0.00    -0.066 C 
HETATM    6  C23 UNL     1      -1.502  51.148 -24.235  1.00  0.00    -0.021 C 
HETATM    7  C24 UNL     1      -0.078  51.587 -24.452  1.00  0.00     0.052 C 
HETATM    8  C26 UNL     1      -3.397  50.039 -22.989  1.00  0.00     0.038 C 
HETATM    9  C27 UNL     1      -3.389  48.708 -22.228  1.00  0.00     0.042 C 
HETATM   10  C28 UNL     1      -2.457  48.666 -20.996  1.00  0.00     0.067 C 
HETATM   11  C29 UNL     1      -1.218  47.808 -21.330  1.00  0.00     0.047 C 
HETATM   12  C30 UNL     1      -3.342  50.914 -19.996  1.00  0.00     0.270 C 
HETATM   13  O5  UNL     1      -3.080  51.518 -18.738  1.00  0.00    -0.351 OA
ENDROOT
BRANCH   4  14
HETATM   14  C19 UNL     1      -0.746  52.258 -21.385  1.00  0.00     0.012 C 
BRANCH  14  15
HETATM   15  C20 UNL     1       0.743  52.388 -21.038  1.00  0.00     0.027 C 
BRANCH  15  16
HETATM   16  C21 UNL     1       1.030  53.698 -20.302  1.00  0.00     0.164 C 
BRANCH  16  17
HETATM   17  O1  UNL     1       1.870  54.513 -21.106  1.00  0.00    -0.401 OA
HETATM   18  H32 UNL     1       2.096  55.306 -20.588  1.00  0.00     0.209 HD
ENDBRANCH  16  17
ENDBRANCH  15  16
ENDBRANCH  14  15
ENDBRANCH   4  14
BRANCH  10  19
HETATM   19  O3  UNL     1      -3.127  47.919 -19.969  1.00  0.00    -0.389 OA
HETATM   20  H44 UNL     1      -3.906  48.456 -19.703  1.00  0.00     0.210 HD
ENDBRANCH  10  19
BRANCH  12  21
HETATM   21  O4  UNL     1      -4.487  50.098 -19.789  1.00  0.00    -0.370 OA
HETATM   22  H46 UNL     1      -5.131  50.717 -19.391  1.00  0.00     0.212 HD
ENDBRANCH  12  21
BRANCH   1  23
HETATM   23  C14 UNL     1      -1.597  51.147 -16.870  1.00  0.00     0.011 C 
HETATM   24  C12 UNL     1      -0.497  51.167 -16.085  1.00  0.00    -0.063 C 
HETATM   25  C13 UNL     1       0.897  51.403 -16.604  1.00  0.00     0.048 C 
BRANCH  24  26
HETATM   26  C11 UNL     1      -0.662  50.922 -14.650  1.00  0.00     0.006 C 
HETATM   27  C10 UNL     1      -0.103  51.614 -13.641  1.00  0.00     0.001 C 
BRANCH  27  28
HETATM   28  C9  UNL     1      -0.278  51.249 -12.249  1.00  0.00     0.002 C 
HETATM   29  C7  UNL     1      -0.348  52.090 -11.195  1.00  0.00    -0.084 C 
HETATM   30  C8  UNL     1      -0.339  53.597 -11.275  1.00  0.00     0.043 C 
BRANCH  29  31
HETATM   31  C6  UNL     1      -0.496  51.526  -9.787  1.00  0.00     0.037 C 
BRANCH  31  32
HETATM   32  C5  UNL     1      -1.757  51.983  -9.031  1.00  0.00     0.031 C 
BRANCH  32  33
HETATM   33  C4  UNL     1      -2.985  51.180  -9.369  1.00  0.00    -0.024 C 
HETATM   34  C2  UNL     1      -3.975  51.487 -10.231  1.00  0.00    -0.091 C 
HETATM   35  C1  UNL     1      -5.121  50.528 -10.445  1.00  0.00     0.042 C 
HETATM   36  C3  UNL     1      -4.075  52.749 -11.043  1.00  0.00     0.042 C 
ENDBRANCH  32  33
ENDBRANCH  31  32
ENDBRANCH  29  31
ENDBRANCH  27  28
ENDBRANCH  24  26
ENDBRANCH   1  23
BRANCH   6  37
HETATM   37  C25 UNL     1      -2.315  51.257 -25.494  1.00  0.00     0.265 C 
HETATM   38  O2  UNL     1      -2.195  50.484 -26.442  1.00  0.00    -0.302 OA
ENDBRANCH   6  37
TORSDOF 13
ENDMDL
MODEL 6
REMARK minimizedAffinity -6.82699156
REMARK CNNscore 0.633070469
REMARK CNNaffinity 6.36461067
REMARK  13 active torsions:
REMARK  status: ('A' for Active; 'I' for Inactive)
REMARK    1  A    between atoms: C4_4  and  C5_5 
REMARK    2  A    between atoms: C5_5  and  C6_6 
REMARK    3  A    between atoms: C6_6  and  C7_7 
REMARK    4  A    between atoms: C9_9  and  C10_10 
REMARK    5  A    between atoms: C11_11  and  C12_12 
REMARK    6  A    between atoms: C14_14  and  C15_15 
REMARK    7  A    between atoms: C18_18  and  C19_19 
REMARK    8  A    between atoms: C19_19  and  C20_20 
REMARK    9  A    between atoms: C20_20  and  C21_21 
REMARK   10  A    between atoms: C21_21  and  O1_22 
REMARK   11  A    between atoms: C23_24  and  C25_26 
REMARK   12  A    between atoms: C28_30  and  O3_32 
REMARK   13  A    between atoms: C30_33  and  O4_34 
ROOT
HETATM    1  C15 UNL     1       1.022  51.024 -14.116  1.00  0.00     0.149 C 
HETATM    2  C16 UNL     1       0.478  52.207 -13.329  1.00  0.00     0.054 C 
HETATM    3  C17 UNL     1       0.407  51.717 -11.860  1.00  0.00     0.050 C 
HETATM    4  C18 UNL     1       1.690  52.163 -11.012  1.00  0.00     0.032 C 
HETATM    5  C22 UNL     1       1.554  51.873  -9.488  1.00  0.00    -0.066 C 
HETATM    6  C23 UNL     1       2.466  52.275  -8.558  1.00  0.00    -0.021 C 
HETATM    7  C24 UNL     1       3.604  53.233  -8.789  1.00  0.00     0.052 C 
HETATM    8  C26 UNL     1       0.287  51.124  -9.106  1.00  0.00     0.038 C 
HETATM    9  C27 UNL     1      -0.993  51.734  -9.689  1.00  0.00     0.042 C 
HETATM   10  C28 UNL     1      -0.852  52.307 -11.117  1.00  0.00     0.067 C 
HETATM   11  C29 UNL     1      -0.853  53.849 -11.044  1.00  0.00     0.047 C 
HETATM   12  C30 UNL     1       0.317  50.176 -12.077  1.00  0.00     0.270 C 
HETATM   13  O5  UNL     1       0.648  49.841 -13.417  1.00  0.00    -0.351 OA
ENDROOT
BRANCH   4  14
HETATM   14  C19 UNL     1       3.082  51.794 -11.611  1.00  0.00     0.012 C 
BRANCH  14  15
HETATM   15  C20 UNL     1       3.587  50.355 -11.441  1.00  0.00     0.027 C 
BRANCH  15  16
HETATM   16  C21 UNL     1       4.933  50.321 -10.716  1.00  0.00     0.164 C 
BRANCH  16  17
HETATM   17  O1  UNL     1       5.899  49.698 -11.550  1.00  0.00    -0.401 OA
HETATM   18  H32 UNL     1       6.725  49.624 -11.040  1.00  0.00     0.209 HD
ENDBRANCH  16  17
ENDBRANCH  15  16
ENDBRANCH  14  15
ENDBRANCH   4  14
BRANCH  10  19
HETATM   19  O3  UNL     1      -2.058  51.996 -11.832  1.00  0.00    -0.389 OA
HETATM   20  H44 UNL     1      -2.073  51.018 -11.931  1.00  0.00     0.210 HD
ENDBRANCH  10  19
BRANCH  12  21
HETATM   21  O4  UNL     1      -0.988  49.654 -11.872  1.00  0.00    -0.370 OA
HETATM   22  H46 UNL     1      -0.899  48.719 -12.143  1.00  0.00     0.212 HD
ENDBRANCH  12  21
BRANCH   1  23
HETATM   23  C14 UNL     1       0.642  50.938 -15.568  1.00  0.00     0.011 C 
HETATM   24  C12 UNL     1       1.125  51.601 -16.641  1.00  0.00    -0.063 C 
HETATM   25  C13 UNL     1       2.281  52.566 -16.580  1.00  0.00     0.048 C 
BRANCH  24  26
HETATM   26  C11 UNL     1       0.473  51.395 -17.937  1.00  0.00     0.006 C 
HETATM   27  C10 UNL     1       0.259  52.318 -18.892  1.00  0.00     0.001 C 
BRANCH  27  28
HETATM   28  C9  UNL     1      -0.455  52.026 -20.119  1.00  0.00     0.002 C 
HETATM   29  C7  UNL     1      -0.177  52.503 -21.351  1.00  0.00    -0.084 C 
HETATM   30  C8  UNL     1       0.997  53.382 -21.704  1.00  0.00     0.043 C 
BRANCH  29  31
HETATM   31  C6  UNL     1      -1.064  52.118 -22.529  1.00  0.00     0.037 C 
BRANCH  31  32
HETATM   32  C5  UNL     1      -0.679  52.764 -23.873  1.00  0.00     0.031 C 
BRANCH  32  33
HETATM   33  C4  UNL     1       0.409  52.023 -24.606  1.00  0.00    -0.024 C 
HETATM   34  C2  UNL     1       0.860  52.225 -25.859  1.00  0.00    -0.091 C 
HETATM   35  C1  UNL     1       1.984  51.380 -26.408  1.00  0.00     0.042 C 
HETATM   36  C3  UNL     1       0.339  53.250 -26.829  1.00  0.00     0.042 C 
ENDBRANCH  32  33
ENDBRANCH  31  32
ENDBRANCH  29  31
ENDBRANCH  27  28
ENDBRANCH  24  26
ENDBRANCH   1  23
BRANCH   6  37
HETATM   37  C25 UNL     1       2.447  51.766  -7.144  1.00  0.00     0.265 C 
HETATM   38  O2  UNL     1       3.398  51.882  -6.374  1.00  0.00    -0.302 OA
ENDBRANCH   6  37
TORSDOF 13
ENDMDL
MODEL 7
REMARK minimizedAffinity -7.65099239
REMARK CNNscore 0.576143861
REMARK CNNaffinity 6.55784845
REMARK  13 active torsions:
REMARK  status: ('A' for Active; 'I' for Inactive)
REMARK    1  A    between atoms: C4_4  and  C5_5 
REMARK    2  A    between atoms: C5_5  and  C6_6 
REMARK    3  A    between atoms: C6_6  and  C7_7 
REMARK    4  A    between atoms: C9_9  and  C10_10 
REMARK    5  A    between atoms: C11_11  and  C12_12 
REMARK    6  A    between atoms: C14_14  and  C15_15 
REMARK    7  A    between atoms: C18_18  and  C19_19 
REMARK    8  A    between atoms: C19_19  and  C20_20 
REMARK    9  A    between atoms: C20_20  and  C21_21 
REMARK   10  A    between atoms: C21_21  and  O1_22 
REMARK   11  A    between atoms: C23_24  and  C25_26 
REMARK   12  A    between atoms: C28_30  and  O3_32 
REMARK   13  A    between atoms: C30_33  and  O4_34 
ROOT
HETATM    1  C15 UNL     1       0.140  51.223 -18.380  1.00  0.00     0.149 C 
HETATM    2  C16 UNL     1      -0.371  50.046 -19.198  1.00  0.00     0.054 C 
HETATM    3  C17 UNL     1      -1.433  50.648 -20.153  1.00  0.00     0.050 C 
HETATM    4  C18 UNL     1      -0.829  50.968 -21.601  1.00  0.00     0.032 C 
HETATM    5  C22 UNL     1      -1.912  51.373 -22.646  1.00  0.00    -0.066 C 
HETATM    6  C23 UNL     1      -1.648  51.572 -23.968  1.00  0.00    -0.021 C 
HETATM    7  C24 UNL     1      -0.367  51.226 -24.679  1.00  0.00     0.052 C 
HETATM    8  C26 UNL     1      -3.315  51.497 -22.074  1.00  0.00     0.038 C 
HETATM    9  C27 UNL     1      -3.752  50.290 -21.235  1.00  0.00     0.042 C 
HETATM   10  C28 UNL     1      -2.636  49.653 -20.376  1.00  0.00     0.067 C 
HETATM   11  C29 UNL     1      -2.212  48.313 -21.013  1.00  0.00     0.047 C 
HETATM   12  C30 UNL     1      -1.841  51.926 -19.359  1.00  0.00     0.270 C 
HETATM   13  O5  UNL     1      -0.910  52.184 -18.318  1.00  0.00    -0.351 OA
ENDROOT
BRANCH   4  14
HETATM   14  C19 UNL     1       0.455  51.851 -21.639  1.00  0.00     0.012 C 
BRANCH  14  15
HETATM   15  C20 UNL     1       0.301  53.368 -21.463  1.00  0.00     0.027 C 
BRANCH  15  16
HETATM   16  C21 UNL     1       1.616  54.013 -21.025  1.00  0.00     0.164 C 
BRANCH  16  17
HETATM   17  O1  UNL     1       1.977  55.021 -21.957  1.00  0.00    -0.401 OA
HETATM   18  H32 UNL     1       2.850  55.366 -21.697  1.00  0.00     0.209 HD
ENDBRANCH  16  17
ENDBRANCH  15  16
ENDBRANCH  14  15
ENDBRANCH   4  14
BRANCH  10  19
HETATM   19  O3  UNL     1      -3.219  49.269 -19.121  1.00  0.00    -0.389 OA
HETATM   20  H44 UNL     1      -3.468  50.104 -18.668  1.00  0.00     0.210 HD
ENDBRANCH  10  19
BRANCH  12  21
HETATM   21  O4  UNL     1      -3.101  51.809 -18.713  1.00  0.00    -0.370 OA
HETATM   22  H46 UNL     1      -3.158  52.631 -18.188  1.00  0.00     0.212 HD
ENDBRANCH  12  21
BRANCH   1  23
HETATM   23  C14 UNL     1       0.677  50.920 -17.009  1.00  0.00     0.011 C 
HETATM   24  C12 UNL     1       1.661  51.518 -16.303  1.00  0.00    -0.063 C 
HETATM   25  C13 UNL     1       2.399  52.747 -16.767  1.00  0.00     0.048 C 
BRANCH  24  26
HETATM   26  C11 UNL     1       2.054  50.926 -15.021  1.00  0.00     0.006 C 
HETATM   27  C10 UNL     1       3.173  51.185 -14.319  1.00  0.00     0.001 C 
BRANCH  27  28
HETATM   28  C9  UNL     1       3.503  50.495 -13.087  1.00  0.00     0.002 C 
HETATM   29  C7  UNL     1       3.334  50.959 -11.831  1.00  0.00    -0.084 C 
HETATM   30  C8  UNL     1       2.687  52.271 -11.461  1.00  0.00     0.043 C 
BRANCH  29  31
HETATM   31  C6  UNL     1       3.776  50.108 -10.646  1.00  0.00     0.037 C 
BRANCH  31  32
HETATM   32  C5  UNL     1       5.295  49.878 -10.539  1.00  0.00     0.031 C 
BRANCH  32  33
HETATM   33  C4  UNL     1       5.986  50.843  -9.612  1.00  0.00    -0.024 C 
HETATM   34  C2  UNL     1       6.170  50.739  -8.281  1.00  0.00    -0.091 C 
HETATM   35  C1  UNL     1       6.913  51.816  -7.530  1.00  0.00     0.042 C 
HETATM   36  C3  UNL     1       5.686  49.611  -7.411  1.00  0.00     0.042 C 
ENDBRANCH  32  33
ENDBRANCH  31  32
ENDBRANCH  29  31
ENDBRANCH  27  28
ENDBRANCH  24  26
ENDBRANCH   1  23
BRANCH   6  37
HETATM   37  C25 UNL     1      -2.644  52.207 -24.897  1.00  0.00     0.265 C 
HETATM   38  O2  UNL     1      -2.323  52.804 -25.923  1.00  0.00    -0.302 OA
ENDBRANCH   6  37
TORSDOF 13
ENDMDL
MODEL 8
REMARK minimizedAffinity -7.08416939
REMARK CNNscore 0.5681355
REMARK CNNaffinity 6.42366743
REMARK  13 active torsions:
REMARK  status: ('A' for Active; 'I' for Inactive)
REMARK    1  A    between atoms: C4_4  and  C5_5 
REMARK    2  A    between atoms: C5_5  and  C6_6 
REMARK    3  A    between atoms: C6_6  and  C7_7 
REMARK    4  A    between atoms: C9_9  and  C10_10 
REMARK    5  A    between atoms: C11_11  and  C12_12 
REMARK    6  A    between atoms: C14_14  and  C15_15 
REMARK    7  A    between atoms: C18_18  and  C19_19 
REMARK    8  A    between atoms: C19_19  and  C20_20 
REMARK    9  A    between atoms: C20_20  and  C21_21 
REMARK   10  A    between atoms: C21_21  and  O1_22 
REMARK   11  A    between atoms: C23_24  and  C25_26 
REMARK   12  A    between atoms: C28_30  and  O3_32 
REMARK   13  A    between atoms: C30_33  and  O4_34 
ROOT
HETATM    1  C15 UNL     1      -0.186  51.450 -13.798  1.00  0.00     0.149 C 
HETATM    2  C16 UNL     1      -1.478  52.119 -13.354  1.00  0.00     0.054 C 
HETATM    3  C17 UNL     1      -1.531  51.915 -11.818  1.00  0.00     0.050 C 
HETATM    4  C18 UNL     1      -0.982  53.192 -11.021  1.00  0.00     0.032 C 
HETATM    5  C22 UNL     1      -1.218  53.107  -9.483  1.00  0.00    -0.066 C 
HETATM    6  C23 UNL     1      -0.944  54.126  -8.621  1.00  0.00    -0.021 C 
HETATM    7  C24 UNL     1      -0.600  55.542  -9.001  1.00  0.00     0.052 C 
HETATM    8  C26 UNL     1      -1.818  51.791  -9.016  1.00  0.00     0.038 C 
HETATM    9  C27 UNL     1      -3.056  51.357  -9.809  1.00  0.00     0.042 C 
HETATM   10  C28 UNL     1      -3.008  51.674 -11.321  1.00  0.00     0.067 C 
HETATM   11  C29 UNL     1      -3.955  52.855 -11.619  1.00  0.00     0.047 C 
HETATM   12  C30 UNL     1      -0.625  50.656 -11.665  1.00  0.00     0.270 C 
HETATM   13  O5  UNL     1       0.101  50.416 -12.861  1.00  0.00    -0.351 OA
ENDROOT
BRANCH   4  14
HETATM   14  C19 UNL     1       0.434  53.705 -11.423  1.00  0.00     0.012 C 
BRANCH  14  15
HETATM   15  C20 UNL     1       1.657  53.062 -10.756  1.00  0.00     0.027 C 
BRANCH  15  16
HETATM   16  C21 UNL     1       2.664  54.121 -10.304  1.00  0.00     0.164 C 
BRANCH  16  17
HETATM   17  O1  UNL     1       2.454  55.314 -11.045  1.00  0.00    -0.401 OA
HETATM   18  H32 UNL     1       3.151  55.945 -10.791  1.00  0.00     0.209 HD
ENDBRANCH  16  17
ENDBRANCH  15  16
ENDBRANCH  14  15
ENDBRANCH   4  14
BRANCH  10  19
HETATM   19  O3  UNL     1      -3.605  50.569 -12.017  1.00  0.00    -0.389 OA
HETATM   20  H44 UNL     1      -3.006  49.802 -11.879  1.00  0.00     0.210 HD
ENDBRANCH  10  19
BRANCH  12  21
HETATM   21  O4  UNL     1      -1.357  49.463 -11.425  1.00  0.00    -0.370 OA
HETATM   22  H46 UNL     1      -0.668  48.770 -11.458  1.00  0.00     0.212 HD
ENDBRANCH  12  21
BRANCH   1  23
HETATM   23  C14 UNL     1      -0.135  50.932 -15.208  1.00  0.00     0.011 C 
HETATM   24  C12 UNL     1       0.625  51.317 -16.256  1.00  0.00    -0.063 C 
HETATM   25  C13 UNL     1       1.704  52.366 -16.169  1.00  0.00     0.048 C 
BRANCH  24  26
HETATM   26  C11 UNL     1       0.373  50.701 -17.562  1.00  0.00     0.006 C 
HETATM   27  C10 UNL     1      -0.676  50.925 -18.374  1.00  0.00     0.001 C 
BRANCH  27  28
HETATM   28  C9  UNL     1      -0.867  50.214 -19.622  1.00  0.00     0.002 C 
HETATM   29  C7  UNL     1      -1.440  49.002 -19.784  1.00  0.00    -0.084 C 
HETATM   30  C8  UNL     1      -2.073  48.180 -18.688  1.00  0.00     0.043 C 
BRANCH  29  31
HETATM   31  C6  UNL     1      -1.523  48.384 -21.174  1.00  0.00     0.037 C 
BRANCH  31  32
HETATM   32  C5  UNL     1      -1.868  49.370 -22.306  1.00  0.00     0.031 C 
BRANCH  32  33
HETATM   33  C4  UNL     1      -2.801  48.795 -23.340  1.00  0.00    -0.024 C 
HETATM   34  C2  UNL     1      -2.910  49.122 -24.642  1.00  0.00    -0.091 C 
HETATM   35  C1  UNL     1      -3.904  48.408 -25.525  1.00  0.00     0.042 C 
HETATM   36  C3  UNL     1      -2.115  50.183 -25.354  1.00  0.00     0.042 C 
ENDBRANCH  32  33
ENDBRANCH  31  32
ENDBRANCH  29  31
ENDBRANCH  27  28
ENDBRANCH  24  26
ENDBRANCH   1  23
BRANCH   6  37
HETATM   37  C25 UNL     1      -0.935  53.933  -7.130  1.00  0.00     0.265 C 
HETATM   38  O2  UNL     1       0.068  53.605  -6.500  1.00  0.00    -0.302 OA
ENDBRANCH   6  37
TORSDOF 13
ENDMDL
MODEL 9
REMARK minimizedAffinity -9.33979034
REMARK CNNscore 0.508225322
REMARK CNNaffinity 6.69655848
REMARK  13 active torsions:
REMARK  status: ('A' for Active; 'I' for Inactive)
REMARK    1  A    between atoms: C4_4  and  C5_5 
REMARK    2  A    between atoms: C5_5  and  C6_6 
REMARK    3  A    between atoms: C6_6  and  C7_7 
REMARK    4  A    between atoms: C9_9  and  C10_10 
REMARK    5  A    between atoms: C11_11  and  C12_12 
REMARK    6  A    between atoms: C14_14  and  C15_15 
REMARK    7  A    between atoms: C18_18  and  C19_19 
REMARK    8  A    between atoms: C19_19  and  C20_20 
REMARK    9  A    between atoms: C20_20  and  C21_21 
REMARK   10  A    between atoms: C21_21  and  O1_22 
REMARK   11  A    between atoms: C23_24  and  C25_26 
REMARK   12  A    between atoms: C28_30  and  O3_32 
REMARK   13  A    between atoms: C30_33  and  O4_34 
ROOT
HETATM    1  C15 UNL     1      -3.004  50.240 -26.143  1.00  0.00     0.149 C 
HETATM    2  C16 UNL     1      -1.490  50.181 -26.277  1.00  0.00     0.054 C 
HETATM    3  C17 UNL     1      -0.987  51.560 -25.779  1.00  0.00     0.050 C 
HETATM    4  C18 UNL     1      -0.524  51.515 -24.245  1.00  0.00     0.032 C 
HETATM    5  C22 UNL     1       0.182  52.821 -23.775  1.00  0.00    -0.066 C 
HETATM    6  C23 UNL     1       0.766  52.966 -22.552  1.00  0.00    -0.021 C 
HETATM    7  C24 UNL     1       1.031  51.864 -21.560  1.00  0.00     0.052 C 
HETATM    8  C26 UNL     1       0.201  53.929 -24.816  1.00  0.00     0.038 C 
HETATM    9  C27 UNL     1       0.695  53.476 -26.195  1.00  0.00     0.042 C 
HETATM   10  C28 UNL     1       0.258  52.053 -26.610  1.00  0.00     0.067 C 
HETATM   11  C29 UNL     1       1.473  51.105 -26.516  1.00  0.00     0.047 C 
HETATM   12  C30 UNL     1      -2.258  52.431 -26.013  1.00  0.00     0.270 C 
HETATM   13  O5  UNL     1      -3.388  51.606 -26.259  1.00  0.00    -0.351 OA
ENDROOT
BRANCH   4  14
HETATM   14  C19 UNL     1      -1.556  50.944 -23.225  1.00  0.00     0.012 C 
BRANCH  14  15
HETATM   15  C20 UNL     1      -2.622  51.892 -22.661  1.00  0.00     0.027 C 
BRANCH  15  16
HETATM   16  C21 UNL     1      -3.899  51.136 -22.292  1.00  0.00     0.164 C 
BRANCH  16  17
HETATM   17  O1  UNL     1      -4.791  52.019 -21.628  1.00  0.00    -0.401 OA
HETATM   18  H32 UNL     1      -5.562  51.498 -21.341  1.00  0.00     0.209 HD
ENDBRANCH  16  17
ENDBRANCH  15  16
ENDBRANCH  14  15
ENDBRANCH   4  14
BRANCH  10  19
HETATM   19  O3  UNL     1      -0.047  52.083 -28.014  1.00  0.00    -0.389 OA
HETATM   20  H44 UNL     1      -0.843  52.651 -28.109  1.00  0.00     0.210 HD
ENDBRANCH  10  19
BRANCH  12  21
HETATM   21  O4  UNL     1      -2.158  53.277 -27.149  1.00  0.00    -0.370 OA
HETATM   22  H46 UNL     1      -3.052  53.667 -27.216  1.00  0.00     0.212 HD
ENDBRANCH  12  21
BRANCH   1  23
HETATM   23  C14 UNL     1      -3.806  49.373 -27.074  1.00  0.00     0.011 C 
HETATM   24  C12 UNL     1      -4.783  48.477 -26.813  1.00  0.00    -0.063 C 
HETATM   25  C13 UNL     1      -5.347  48.228 -25.438  1.00  0.00     0.048 C 
BRANCH  24  26
HETATM   26  C11 UNL     1      -5.312  47.682 -27.924  1.00  0.00     0.006 C 
HETATM   27  C10 UNL     1      -6.118  48.108 -28.913  1.00  0.00     0.001 C 
BRANCH  27  28
HETATM   28  C9  UNL     1      -6.641  47.223 -29.935  1.00  0.00     0.002 C 
HETATM   29  C7  UNL     1      -7.551  47.529 -30.884  1.00  0.00    -0.084 C 
HETATM   30  C8  UNL     1      -8.147  48.896 -31.115  1.00  0.00     0.043 C 
BRANCH  29  31
HETATM   31  C6  UNL     1      -8.017  46.455 -31.859  1.00  0.00     0.037 C 
BRANCH  31  32
HETATM   32  C5  UNL     1      -7.536  46.639 -33.310  1.00  0.00     0.031 C 
BRANCH  32  33
HETATM   33  C4  UNL     1      -6.182  47.291 -33.416  1.00  0.00    -0.024 C 
HETATM   34  C2  UNL     1      -4.975  46.765 -33.131  1.00  0.00    -0.091 C 
HETATM   35  C1  UNL     1      -3.723  47.586 -33.325  1.00  0.00     0.042 C 
HETATM   36  C3  UNL     1      -4.720  45.379 -32.606  1.00  0.00     0.042 C 
ENDBRANCH  32  33
ENDBRANCH  31  32
ENDBRANCH  29  31
ENDBRANCH  27  28
ENDBRANCH  24  26
ENDBRANCH   1  23
BRANCH   6  37
HETATM   37  C25 UNL     1       1.208  54.303 -22.028  1.00  0.00     0.265 C 
HETATM   38  O2  UNL     1       1.505  54.500 -20.852  1.00  0.00    -0.302 OA
ENDBRANCH   6  37
TORSDOF 13
ENDMDL
