MODEL 1
REMARK minimizedAffinity -9.46969128
REMARK  6 active torsions:
REMARK  status: ('A' for Active; 'I' for Inactive)
REMARK    1  A    between atoms: C2_2  and  C30_32 
REMARK    2  A    between atoms: C3_3  and  C4_4 
REMARK    3  A    between atoms: C4_4  and  C5_6 
REMARK    4  A    between atoms: C5_6  and  C6_7 
REMARK    5  A    between atoms: C6_7  and  C8_9 
REMARK    6  A    between atoms: C30_32  and  O4_34 
ROOT
HETATM    1  C8  UNL     1      -0.928   6.055  11.888  1.00  0.00    -0.001 C 
HETATM    2  C9  UNL     1      -1.669   7.246  12.567  1.00  0.00     0.007 C 
HETATM    3  C10 UNL     1      -0.614   8.310  12.915  1.00  0.00     0.015 C 
HETATM    4  C11 UNL     1       0.646   7.884  12.134  1.00  0.00    -0.013 C 
HETATM    5  C12 UNL     1       0.467   8.438  10.688  1.00  0.00     0.021 C 
HETATM    6  C13 UNL     1       1.995   8.392  12.614  1.00  0.00    -0.070 C 
HETATM    7  C14 UNL     1       2.152   9.498  13.364  1.00  0.00    -0.022 C 
HETATM    8  C15 UNL     1       3.511  10.020  13.720  1.00  0.00     0.034 C 
HETATM    9  C16 UNL     1       4.433   9.844  12.503  1.00  0.00     0.013 C 
HETATM   10  C17 UNL     1       5.770  10.647  12.572  1.00  0.00     0.018 C 
HETATM   11  C18 UNL     1       5.520  12.119  12.180  1.00  0.00     0.023 C 
HETATM   12  C19 UNL     1       6.421  10.643  13.968  1.00  0.00     0.023 C 
HETATM   13  C20 UNL     1       6.756  10.087  11.536  1.00  0.00     0.135 C 
HETATM   14  O2  UNL     1       7.972  10.268  11.628  1.00  0.00    -0.297 OA
HETATM   15  C21 UNL     1       6.182   9.393  10.319  1.00  0.00     0.080 C 
HETATM   16  C22 UNL     1       5.094   8.357  10.626  1.00  0.00     0.017 C 
HETATM   17  C23 UNL     1       4.588   8.335  12.092  1.00  0.00    -0.031 C 
HETATM   18  C24 UNL     1       5.634   7.569  12.949  1.00  0.00     0.016 C 
HETATM   19  C25 UNL     1       3.217   7.534  12.277  1.00  0.00     0.024 C 
HETATM   20  C26 UNL     1       2.944   6.449  11.205  1.00  0.00     0.010 C 
HETATM   21  C27 UNL     1       1.619   5.667  11.348  1.00  0.00     0.011 C 
HETATM   22  C28 UNL     1       0.567   6.320  12.270  1.00  0.00    -0.029 C 
HETATM   23  C29 UNL     1       0.800   5.813  13.729  1.00  0.00     0.016 C 
ENDROOT
BRANCH   1  24
HETATM   24  C6  UNL     1      -1.588   4.686  12.229  1.00  0.00    -0.007 C 
HETATM   25  C7  UNL     1      -1.612   3.734  11.027  1.00  0.00     0.011 C 
BRANCH  24  26
HETATM   26  C5  UNL     1      -3.036   4.896  12.732  1.00  0.00     0.087 C 
BRANCH  26  27
HETATM   27  C4  UNL     1      -4.066   4.193  11.865  1.00  0.00     0.150 C 
HETATM   28  O1  UNL     1      -3.836   3.924  10.688  1.00  0.00    -0.293 OA
BRANCH  27  29
HETATM   29  C3  UNL     1      -5.375   3.875  12.503  1.00  0.00     0.063 C 
HETATM   30  C2  UNL     1      -6.148   2.819  12.190  1.00  0.00     0.015 C 
HETATM   31  C1  UNL     1      -5.832   1.734  11.207  1.00  0.00     0.055 C 
BRANCH  30  32
HETATM   32  C30 UNL     1      -7.422   2.740  12.939  1.00  0.00     0.171 C 
HETATM   33  O3  UNL     1      -7.812   3.529  13.782  1.00  0.00    -0.646 OA
BRANCH  32  34
HETATM   34  O4  UNL     1      -8.162   1.678  12.589  1.00  0.00    -0.773 OA
HETATM   35  H44 UNL     1      -8.966   1.754  13.144  1.00  0.00     0.167 HD
ENDBRANCH  32  34
ENDBRANCH  30  32
ENDBRANCH  27  29
ENDBRANCH  26  27
ENDBRANCH  24  26
ENDBRANCH   1  24
TORSDOF 6
ENDMDL
MODEL 2
REMARK minimizedAffinity -9.25697517
REMARK  6 active torsions:
REMARK  status: ('A' for Active; 'I' for Inactive)
REMARK    1  A    between atoms: C2_2  and  C30_32 
REMARK    2  A    between atoms: C3_3  and  C4_4 
REMARK    3  A    between atoms: C4_4  and  C5_6 
REMARK    4  A    between atoms: C5_6  and  C6_7 
REMARK    5  A    between atoms: C6_7  and  C8_9 
REMARK    6  A    between atoms: C30_32  and  O4_34 
ROOT
HETATM    1  C8  UNL     1       1.193   7.147  13.528  1.00  0.00    -0.001 C 
HETATM    2  C9  UNL     1       0.359   8.015  14.518  1.00  0.00     0.007 C 
HETATM    3  C10 UNL     1      -1.105   7.553  14.420  1.00  0.00     0.015 C 
HETATM    4  C11 UNL     1      -1.044   6.218  13.650  1.00  0.00    -0.013 C 
HETATM    5  C12 UNL     1      -0.700   5.124  14.707  1.00  0.00     0.021 C 
HETATM    6  C13 UNL     1      -2.301   5.737  12.944  1.00  0.00    -0.070 C 
HETATM    7  C14 UNL     1      -3.543   6.130  13.282  1.00  0.00    -0.022 C 
HETATM    8  C15 UNL     1      -4.757   5.544  12.627  1.00  0.00     0.034 C 
HETATM    9  C16 UNL     1      -4.516   4.042  12.411  1.00  0.00     0.013 C 
HETATM   10  C17 UNL     1      -5.795   3.215  12.072  1.00  0.00     0.018 C 
HETATM   11  C18 UNL     1      -6.582   2.910  13.364  1.00  0.00     0.023 C 
HETATM   12  C19 UNL     1      -6.754   3.931  11.102  1.00  0.00     0.023 C 
HETATM   13  C20 UNL     1      -5.384   1.855  11.488  1.00  0.00     0.135 C 
HETATM   14  O2  UNL     1      -6.155   1.179  10.802  1.00  0.00    -0.297 OA
HETATM   15  C21 UNL     1      -4.028   1.303  11.873  1.00  0.00     0.080 C 
HETATM   16  C22 UNL     1      -2.871   2.301  11.751  1.00  0.00     0.017 C 
HETATM   17  C23 UNL     1      -3.284   3.770  11.473  1.00  0.00    -0.031 C 
HETATM   18  C24 UNL     1      -3.623   3.896   9.962  1.00  0.00     0.016 C 
HETATM   19  C25 UNL     1      -2.107   4.819  11.734  1.00  0.00     0.024 C 
HETATM   20  C26 UNL     1      -0.675   4.239  11.612  1.00  0.00     0.010 C 
HETATM   21  C27 UNL     1       0.486   5.226  11.874  1.00  0.00     0.011 C 
HETATM   22  C28 UNL     1       0.091   6.526  12.606  1.00  0.00    -0.029 C 
HETATM   23  C29 UNL     1      -0.322   7.592  11.541  1.00  0.00     0.016 C 
ENDROOT
BRANCH   1  24
HETATM   24  C6  UNL     1       2.372   7.948  12.900  1.00  0.00    -0.007 C 
HETATM   25  C7  UNL     1       2.399   9.410  13.366  1.00  0.00     0.011 C 
BRANCH  24  26
HETATM   26  C5  UNL     1       2.284   7.916  11.356  1.00  0.00     0.087 C 
BRANCH  26  27
HETATM   27  C4  UNL     1       3.612   7.578  10.701  1.00  0.00     0.150 C 
HETATM   28  O1  UNL     1       4.431   8.450  10.425  1.00  0.00    -0.293 OA
BRANCH  27  29
HETATM   29  C3  UNL     1       3.855   6.142  10.381  1.00  0.00     0.063 C 
HETATM   30  C2  UNL     1       3.379   5.503   9.297  1.00  0.00     0.015 C 
HETATM   31  C1  UNL     1       2.581   6.101   8.179  1.00  0.00     0.055 C 
BRANCH  30  32
HETATM   32  C30 UNL     1       3.729   4.067   9.221  1.00  0.00     0.171 C 
HETATM   33  O3  UNL     1       4.580   3.570   8.504  1.00  0.00    -0.646 OA
BRANCH  32  34
HETATM   34  O4  UNL     1       3.005   3.313  10.061  1.00  0.00    -0.773 OA
HETATM   35  H44 UNL     1       3.342   2.404   9.918  1.00  0.00     0.167 HD
ENDBRANCH  32  34
ENDBRANCH  30  32
ENDBRANCH  27  29
ENDBRANCH  26  27
ENDBRANCH  24  26
ENDBRANCH   1  24
TORSDOF 6
ENDMDL
MODEL 3
REMARK minimizedAffinity -9.25082779
REMARK  6 active torsions:
REMARK  status: ('A' for Active; 'I' for Inactive)
REMARK    1  A    between atoms: C2_2  and  C30_32 
REMARK    2  A    between atoms: C3_3  and  C4_4 
REMARK    3  A    between atoms: C4_4  and  C5_6 
REMARK    4  A    between atoms: C5_6  and  C6_7 
REMARK    5  A    between atoms: C6_7  and  C8_9 
REMARK    6  A    between atoms: C30_32  and  O4_34 
ROOT
HETATM    1  C8  UNL     1      -6.537   6.975  13.893  1.00  0.00    -0.001 C 
HETATM    2  C9  UNL     1      -6.707   8.219  14.817  1.00  0.00     0.007 C 
HETATM    3  C10 UNL     1      -5.299   8.716  15.189  1.00  0.00     0.015 C 
HETATM    4  C11 UNL     1      -4.355   7.984  14.214  1.00  0.00    -0.013 C 
HETATM    5  C12 UNL     1      -4.371   8.812  12.892  1.00  0.00     0.021 C 
HETATM    6  C13 UNL     1      -2.892   7.842  14.601  1.00  0.00    -0.070 C 
HETATM    7  C14 UNL     1      -2.270   8.651  15.478  1.00  0.00    -0.022 C 
HETATM    8  C15 UNL     1      -0.799   8.538  15.744  1.00  0.00     0.034 C 
HETATM    9  C16 UNL     1      -0.086   8.241  14.416  1.00  0.00     0.013 C 
HETATM   10  C17 UNL     1       1.461   8.443  14.443  1.00  0.00     0.018 C 
HETATM   11  C18 UNL     1       1.798   9.942  14.297  1.00  0.00     0.023 C 
HETATM   12  C19 UNL     1       2.126   7.941  15.738  1.00  0.00     0.023 C 
HETATM   13  C20 UNL     1       2.089   7.741  13.230  1.00  0.00     0.135 C 
HETATM   14  O2  UNL     1       3.280   7.422  13.205  1.00  0.00    -0.297 OA
HETATM   15  C21 UNL     1       1.225   7.548  12.001  1.00  0.00     0.080 C 
HETATM   16  C22 UNL     1      -0.168   6.973  12.280  1.00  0.00     0.017 C 
HETATM   17  C23 UNL     1      -0.566   6.886  13.778  1.00  0.00    -0.031 C 
HETATM   18  C24 UNL     1       0.130   5.639  14.388  1.00  0.00     0.016 C 
HETATM   19  C25 UNL     1      -2.131   6.654  14.004  1.00  0.00     0.024 C 
HETATM   20  C26 UNL     1      -2.867   5.967  12.827  1.00  0.00     0.010 C 
HETATM   21  C27 UNL     1      -4.386   5.742  13.009  1.00  0.00     0.011 C 
HETATM   22  C28 UNL     1      -5.043   6.573  14.132  1.00  0.00    -0.029 C 
HETATM   23  C29 UNL     1      -4.957   5.765  15.466  1.00  0.00     0.016 C 
ENDROOT
BRANCH   1  24
HETATM   24  C6  UNL     1      -7.669   5.928  14.109  1.00  0.00    -0.007 C 
HETATM   25  C7  UNL     1      -7.299   4.877  15.162  1.00  0.00     0.011 C 
BRANCH  24  26
HETATM   26  C5  UNL     1      -8.002   5.211  12.780  1.00  0.00     0.087 C 
BRANCH  26  27
HETATM   27  C4  UNL     1      -7.485   3.783  12.738  1.00  0.00     0.150 C 
HETATM   28  O1  UNL     1      -8.186   2.839  13.093  1.00  0.00    -0.293 OA
BRANCH  27  29
HETATM   29  C3  UNL     1      -6.081   3.591  12.277  1.00  0.00     0.063 C 
HETATM   30  C2  UNL     1      -5.602   2.465  11.717  1.00  0.00     0.015 C 
HETATM   31  C1  UNL     1      -6.375   1.225  11.387  1.00  0.00     0.055 C 
BRANCH  30  32
HETATM   32  C30 UNL     1      -4.162   2.507  11.376  1.00  0.00     0.171 C 
HETATM   33  O3  UNL     1      -3.260   1.969  11.993  1.00  0.00    -0.646 OA
BRANCH  32  34
HETATM   34  O4  UNL     1      -3.915   3.213  10.263  1.00  0.00    -0.773 OA
HETATM   35  H44 UNL     1      -2.943   3.150  10.151  1.00  0.00     0.167 HD
ENDBRANCH  32  34
ENDBRANCH  30  32
ENDBRANCH  27  29
ENDBRANCH  26  27
ENDBRANCH  24  26
ENDBRANCH   1  24
TORSDOF 6
ENDMDL
MODEL 4
REMARK minimizedAffinity -9.14306545
REMARK  6 active torsions:
REMARK  status: ('A' for Active; 'I' for Inactive)
REMARK    1  A    between atoms: C2_2  and  C30_32 
REMARK    2  A    between atoms: C3_3  and  C4_4 
REMARK    3  A    between atoms: C4_4  and  C5_6 
REMARK    4  A    between atoms: C5_6  and  C6_7 
REMARK    5  A    between atoms: C6_7  and  C8_9 
REMARK    6  A    between atoms: C30_32  and  O4_34 
ROOT
HETATM    1  C8  UNL     1       1.762   7.300  13.809  1.00  0.00    -0.001 C 
HETATM    2  C9  UNL     1       1.899   7.477  15.351  1.00  0.00     0.007 C 
HETATM    3  C10 UNL     1       0.478   7.513  15.941  1.00  0.00     0.015 C 
HETATM    4  C11 UNL     1      -0.433   7.015  14.800  1.00  0.00    -0.013 C 
HETATM    5  C12 UNL     1      -0.379   5.457  14.851  1.00  0.00     0.021 C 
HETATM    6  C13 UNL     1      -1.907   7.385  14.844  1.00  0.00    -0.070 C 
HETATM    7  C14 UNL     1      -2.558   7.721  15.972  1.00  0.00    -0.022 C 
HETATM    8  C15 UNL     1      -4.036   7.971  15.980  1.00  0.00     0.034 C 
HETATM    9  C16 UNL     1      -4.707   6.956  15.042  1.00  0.00     0.013 C 
HETATM   10  C17 UNL     1      -6.255   6.839  15.199  1.00  0.00     0.018 C 
HETATM   11  C18 UNL     1      -6.594   5.951  16.415  1.00  0.00     0.023 C 
HETATM   12  C19 UNL     1      -6.958   8.194  15.405  1.00  0.00     0.023 C 
HETATM   13  C20 UNL     1      -6.842   6.129  13.971  1.00  0.00     0.135 C 
HETATM   14  O2  UNL     1      -8.030   6.239  13.659  1.00  0.00    -0.297 OA
HETATM   15  C21 UNL     1      -5.940   5.186  13.203  1.00  0.00     0.080 C 
HETATM   16  C22 UNL     1      -4.553   5.751  12.873  1.00  0.00     0.017 C 
HETATM   17  C23 UNL     1      -4.202   7.098  13.559  1.00  0.00    -0.031 C 
HETATM   18  C24 UNL     1      -4.911   8.236  12.776  1.00  0.00     0.016 C 
HETATM   19  C25 UNL     1      -2.643   7.449  13.503  1.00  0.00     0.024 C 
HETATM   20  C26 UNL     1      -1.868   6.796  12.331  1.00  0.00     0.010 C 
HETATM   21  C27 UNL     1      -0.355   7.105  12.257  1.00  0.00     0.011 C 
HETATM   22  C28 UNL     1       0.264   7.672  13.553  1.00  0.00    -0.029 C 
HETATM   23  C29 UNL     1       0.139   9.229  13.525  1.00  0.00     0.016 C 
ENDROOT
BRANCH   1  24
HETATM   24  C6  UNL     1       2.892   8.041  13.035  1.00  0.00    -0.007 C 
HETATM   25  C7  UNL     1       3.035   9.505  13.470  1.00  0.00     0.011 C 
BRANCH  24  26
HETATM   26  C5  UNL     1       2.623   7.995  11.512  1.00  0.00     0.087 C 
BRANCH  26  27
HETATM   27  C4  UNL     1       3.851   7.599  10.712  1.00  0.00     0.150 C 
HETATM   28  O1  UNL     1       4.658   8.438  10.320  1.00  0.00    -0.293 OA
BRANCH  27  29
HETATM   29  C3  UNL     1       4.010   6.150  10.399  1.00  0.00     0.063 C 
HETATM   30  C2  UNL     1       3.485   5.532   9.325  1.00  0.00     0.015 C 
HETATM   31  C1  UNL     1       2.706   6.167   8.214  1.00  0.00     0.055 C 
BRANCH  30  32
HETATM   32  C30 UNL     1       3.753   4.078   9.255  1.00  0.00     0.171 C 
HETATM   33  O3  UNL     1       4.629   3.538   8.603  1.00  0.00    -0.646 OA
BRANCH  32  34
HETATM   34  O4  UNL     1       2.917   3.360  10.019  1.00  0.00    -0.773 OA
HETATM   35  H44 UNL     1       3.209   2.434   9.889  1.00  0.00     0.167 HD
ENDBRANCH  32  34
ENDBRANCH  30  32
ENDBRANCH  27  29
ENDBRANCH  26  27
ENDBRANCH  24  26
ENDBRANCH   1  24
TORSDOF 6
ENDMDL
MODEL 5
REMARK minimizedAffinity -9.12251568
REMARK  6 active torsions:
REMARK  status: ('A' for Active; 'I' for Inactive)
REMARK    1  A    between atoms: C2_2  and  C30_32 
REMARK    2  A    between atoms: C3_3  and  C4_4 
REMARK    3  A    between atoms: C4_4  and  C5_6 
REMARK    4  A    between atoms: C5_6  and  C6_7 
REMARK    5  A    between atoms: C6_7  and  C8_9 
REMARK    6  A    between atoms: C30_32  and  O4_34 
ROOT
HETATM    1  C8  UNL     1      -1.367   5.851  11.833  1.00  0.00    -0.001 C 
HETATM    2  C9  UNL     1      -2.023   6.943  12.731  1.00  0.00     0.007 C 
HETATM    3  C10 UNL     1      -0.921   7.942  13.125  1.00  0.00     0.015 C 
HETATM    4  C11 UNL     1       0.256   7.619  12.184  1.00  0.00    -0.013 C 
HETATM    5  C12 UNL     1      -0.039   8.367  10.848  1.00  0.00     0.021 C 
HETATM    6  C13 UNL     1       1.652   8.048  12.605  1.00  0.00    -0.070 C 
HETATM    7  C14 UNL     1       1.895   9.040  13.481  1.00  0.00    -0.022 C 
HETATM    8  C15 UNL     1       3.289   9.499  13.782  1.00  0.00     0.034 C 
HETATM    9  C16 UNL     1       4.098   9.486  12.475  1.00  0.00     0.013 C 
HETATM   10  C17 UNL     1       5.450  10.263  12.532  1.00  0.00     0.018 C 
HETATM   11  C18 UNL     1       5.194  11.776  12.367  1.00  0.00     0.023 C 
HETATM   12  C19 UNL     1       6.221  10.064  13.851  1.00  0.00     0.023 C 
HETATM   13  C20 UNL     1       6.331   9.844  11.345  1.00  0.00     0.135 C 
HETATM   14  O2  UNL     1       7.553  10.003  11.352  1.00  0.00    -0.297 OA
HETATM   15  C21 UNL     1       5.639   9.326  10.102  1.00  0.00     0.080 C 
HETATM   16  C22 UNL     1       4.563   8.265  10.361  1.00  0.00     0.017 C 
HETATM   17  C23 UNL     1       4.188   8.046  11.851  1.00  0.00    -0.031 C 
HETATM   18  C24 UNL     1       5.290   7.164  12.498  1.00  0.00     0.016 C 
HETATM   19  C25 UNL     1       2.824   7.236  12.047  1.00  0.00     0.024 C 
HETATM   20  C26 UNL     1       2.437   6.310  10.866  1.00  0.00     0.010 C 
HETATM   21  C27 UNL     1       1.115   5.524  11.019  1.00  0.00     0.011 C 
HETATM   22  C28 UNL     1       0.161   6.051  12.112  1.00  0.00    -0.029 C 
HETATM   23  C29 UNL     1       0.512   5.348  13.462  1.00  0.00     0.016 C 
ENDROOT
BRANCH   1  24
HETATM   24  C6  UNL     1      -2.020   4.453  12.043  1.00  0.00    -0.007 C 
HETATM   25  C7  UNL     1      -2.604   3.880  10.745  1.00  0.00     0.011 C 
BRANCH  24  26
HETATM   26  C5  UNL     1      -3.141   4.535  13.105  1.00  0.00     0.087 C 
BRANCH  26  27
HETATM   27  C4  UNL     1      -4.386   3.762  12.705  1.00  0.00     0.150 C 
HETATM   28  O1  UNL     1      -4.321   2.595  12.328  1.00  0.00    -0.293 OA
BRANCH  27  29
HETATM   29  C3  UNL     1      -5.680   4.499  12.762  1.00  0.00     0.063 C 
HETATM   30  C2  UNL     1      -6.896   3.926  12.703  1.00  0.00     0.015 C 
HETATM   31  C1  UNL     1      -7.196   2.459  12.638  1.00  0.00     0.055 C 
BRANCH  30  32
HETATM   32  C30 UNL     1      -8.031   4.875  12.743  1.00  0.00     0.171 C 
HETATM   33  O3  UNL     1      -8.523   5.449  11.788  1.00  0.00    -0.646 OA
BRANCH  32  34
HETATM   34  O4  UNL     1      -8.513   5.052  13.982  1.00  0.00    -0.773 OA
HETATM   35  H44 UNL     1      -9.254   5.683  13.861  1.00  0.00     0.167 HD
ENDBRANCH  32  34
ENDBRANCH  30  32
ENDBRANCH  27  29
ENDBRANCH  26  27
ENDBRANCH  24  26
ENDBRANCH   1  24
TORSDOF 6
ENDMDL
MODEL 6
REMARK minimizedAffinity -9.03273678
REMARK  6 active torsions:
REMARK  status: ('A' for Active; 'I' for Inactive)
REMARK    1  A    between atoms: C2_2  and  C30_32 
REMARK    2  A    between atoms: C3_3  and  C4_4 
REMARK    3  A    between atoms: C4_4  and  C5_6 
REMARK    4  A    between atoms: C5_6  and  C6_7 
REMARK    5  A    between atoms: C6_7  and  C8_9 
REMARK    6  A    between atoms: C30_32  and  O4_34 
ROOT
HETATM    1  C8  UNL     1      -0.042   8.363  13.631  1.00  0.00    -0.001 C 
HETATM    2  C9  UNL     1       0.090   7.533  12.319  1.00  0.00     0.007 C 
HETATM    3  C10 UNL     1      -1.246   6.801  12.097  1.00  0.00     0.015 C 
HETATM    4  C11 UNL     1      -2.230   7.477  13.073  1.00  0.00    -0.013 C 
HETATM    5  C12 UNL     1      -2.739   8.764  12.352  1.00  0.00     0.021 C 
HETATM    6  C13 UNL     1      -3.475   6.709  13.486  1.00  0.00    -0.070 C 
HETATM    7  C14 UNL     1      -4.006   5.706  12.763  1.00  0.00    -0.022 C 
HETATM    8  C15 UNL     1      -5.296   5.052  13.157  1.00  0.00     0.034 C 
HETATM    9  C16 UNL     1      -6.249   6.136  13.686  1.00  0.00     0.013 C 
HETATM   10  C17 UNL     1      -7.741   5.695  13.805  1.00  0.00     0.018 C 
HETATM   11  C18 UNL     1      -8.421   5.762  12.421  1.00  0.00     0.023 C 
HETATM   12  C19 UNL     1      -7.921   4.263  14.341  1.00  0.00     0.023 C 
HETATM   13  C20 UNL     1      -8.497   6.686  14.703  1.00  0.00     0.135 C 
HETATM   14  O2  UNL     1      -9.554   6.386  15.261  1.00  0.00    -0.297 OA
HETATM   15  C21 UNL     1      -7.962   8.100  14.798  1.00  0.00     0.080 C 
HETATM   16  C22 UNL     1      -6.454   8.200  15.054  1.00  0.00     0.017 C 
HETATM   17  C23 UNL     1      -5.671   6.864  14.953  1.00  0.00    -0.031 C 
HETATM   18  C24 UNL     1      -5.896   6.074  16.271  1.00  0.00     0.016 C 
HETATM   19  C25 UNL     1      -4.089   7.065  14.843  1.00  0.00     0.024 C 
HETATM   20  C26 UNL     1      -3.554   8.389  15.443  1.00  0.00     0.010 C 
HETATM   21  C27 UNL     1      -2.029   8.620  15.339  1.00  0.00     0.011 C 
HETATM   22  C28 UNL     1      -1.298   7.726  14.314  1.00  0.00    -0.029 C 
HETATM   23  C29 UNL     1      -0.857   6.408  15.029  1.00  0.00     0.016 C 
ENDROOT
BRANCH   1  24
HETATM   24  C6  UNL     1       1.306   8.448  14.406  1.00  0.00    -0.007 C 
HETATM   25  C7  UNL     1       2.021   9.788  14.189  1.00  0.00     0.011 C 
BRANCH  24  26
HETATM   26  C5  UNL     1       2.249   7.301  13.975  1.00  0.00     0.087 C 
BRANCH  26  27
HETATM   27  C4  UNL     1       2.966   7.591  12.668  1.00  0.00     0.150 C 
HETATM   28  O1  UNL     1       3.537   8.662  12.474  1.00  0.00    -0.293 OA
BRANCH  27  29
HETATM   29  C3  UNL     1       2.915   6.529  11.624  1.00  0.00     0.063 C 
HETATM   30  C2  UNL     1       3.459   6.626  10.397  1.00  0.00     0.015 C 
HETATM   31  C1  UNL     1       4.267   7.769   9.861  1.00  0.00     0.055 C 
BRANCH  30  32
HETATM   32  C30 UNL     1       3.242   5.449   9.527  1.00  0.00     0.171 C 
HETATM   33  O3  UNL     1       3.351   5.420   8.314  1.00  0.00    -0.646 OA
BRANCH  32  34
HETATM   34  O4  UNL     1       2.910   4.349  10.219  1.00  0.00    -0.773 OA
HETATM   35  H44 UNL     1       2.809   3.657   9.533  1.00  0.00     0.167 HD
ENDBRANCH  32  34
ENDBRANCH  30  32
ENDBRANCH  27  29
ENDBRANCH  26  27
ENDBRANCH  24  26
ENDBRANCH   1  24
TORSDOF 6
ENDMDL
MODEL 7
REMARK minimizedAffinity -8.8468771
REMARK  6 active torsions:
REMARK  status: ('A' for Active; 'I' for Inactive)
REMARK    1  A    between atoms: C2_2  and  C30_32 
REMARK    2  A    between atoms: C3_3  and  C4_4 
REMARK    3  A    between atoms: C4_4  and  C5_6 
REMARK    4  A    between atoms: C5_6  and  C6_7 
REMARK    5  A    between atoms: C6_7  and  C8_9 
REMARK    6  A    between atoms: C30_32  and  O4_34 
ROOT
HETATM    1  C8  UNL     1      -2.379   6.133  13.272  1.00  0.00    -0.001 C 
HETATM    2  C9  UNL     1      -2.263   5.147  12.071  1.00  0.00     0.007 C 
HETATM    3  C10 UNL     1      -0.834   5.266  11.511  1.00  0.00     0.015 C 
HETATM    4  C11 UNL     1      -0.054   6.043  12.590  1.00  0.00    -0.013 C 
HETATM    5  C12 UNL     1       0.380   4.989  13.655  1.00  0.00     0.021 C 
HETATM    6  C13 UNL     1       1.217   6.767  12.176  1.00  0.00    -0.070 C 
HETATM    7  C14 UNL     1       1.941   6.441  11.090  1.00  0.00    -0.022 C 
HETATM    8  C15 UNL     1       3.245   7.114  10.785  1.00  0.00     0.034 C 
HETATM    9  C16 UNL     1       3.998   7.336  12.106  1.00  0.00     0.013 C 
HETATM   10  C17 UNL     1       5.509   7.696  11.947  1.00  0.00     0.018 C 
HETATM   11  C18 UNL     1       6.329   6.414  11.687  1.00  0.00     0.023 C 
HETATM   12  C19 UNL     1       5.793   8.672  10.790  1.00  0.00     0.023 C 
HETATM   13  C20 UNL     1       6.036   8.283  13.265  1.00  0.00     0.135 C 
HETATM   14  O2  UNL     1       7.051   8.982  13.309  1.00  0.00    -0.297 OA
HETATM   15  C21 UNL     1       5.332   7.885  14.546  1.00  0.00     0.080 C 
HETATM   16  C22 UNL     1       3.803   7.988  14.496  1.00  0.00     0.017 C 
HETATM   17  C23 UNL     1       3.198   8.262  13.093  1.00  0.00    -0.031 C 
HETATM   18  C24 UNL     1       3.363   9.775  12.787  1.00  0.00     0.016 C 
HETATM   19  C25 UNL     1       1.627   7.980  13.016  1.00  0.00     0.024 C 
HETATM   20  C26 UNL     1       0.876   8.089  14.367  1.00  0.00     0.010 C 
HETATM   21  C27 UNL     1      -0.644   7.807  14.328  1.00  0.00     0.011 C 
HETATM   22  C28 UNL     1      -1.143   7.071  13.066  1.00  0.00    -0.029 C 
HETATM   23  C29 UNL     1      -1.506   8.134  11.980  1.00  0.00     0.016 C 
ENDROOT
BRANCH   1  24
HETATM   24  C6  UNL     1      -3.808   6.742  13.391  1.00  0.00    -0.007 C 
HETATM   25  C7  UNL     1      -3.823   8.041  14.207  1.00  0.00     0.011 C 
BRANCH  24  26
HETATM   26  C5  UNL     1      -4.774   5.727  14.044  1.00  0.00     0.087 C 
BRANCH  26  27
HETATM   27  C4  UNL     1      -5.928   5.346  13.133  1.00  0.00     0.150 C 
HETATM   28  O1  UNL     1      -7.011   5.922  13.196  1.00  0.00    -0.293 OA
BRANCH  27  29
HETATM   29  C3  UNL     1      -5.691   4.221  12.185  1.00  0.00     0.063 C 
HETATM   30  C2  UNL     1      -6.345   3.045  12.205  1.00  0.00     0.015 C 
HETATM   31  C1  UNL     1      -7.468   2.657  13.119  1.00  0.00     0.055 C 
BRANCH  30  32
HETATM   32  C30 UNL     1      -5.904   2.072  11.181  1.00  0.00     0.171 C 
HETATM   33  O3  UNL     1      -6.010   0.860  11.246  1.00  0.00    -0.646 OA
BRANCH  32  34
HETATM   34  O4  UNL     1      -5.358   2.663  10.108  1.00  0.00    -0.773 OA
HETATM   35  H44 UNL     1      -5.125   1.916   9.517  1.00  0.00     0.167 HD
ENDBRANCH  32  34
ENDBRANCH  30  32
ENDBRANCH  27  29
ENDBRANCH  26  27
ENDBRANCH  24  26
ENDBRANCH   1  24
TORSDOF 6
ENDMDL
MODEL 8
REMARK minimizedAffinity -8.68850708
REMARK  6 active torsions:
REMARK  status: ('A' for Active; 'I' for Inactive)
REMARK    1  A    between atoms: C2_2  and  C30_32 
REMARK    2  A    between atoms: C3_3  and  C4_4 
REMARK    3  A    between atoms: C4_4  and  C5_6 
REMARK    4  A    between atoms: C5_6  and  C6_7 
REMARK    5  A    between atoms: C6_7  and  C8_9 
REMARK    6  A    between atoms: C30_32  and  O4_34 
ROOT
HETATM    1  C8  UNL     1      -1.521   6.786  13.457  1.00  0.00    -0.001 C 
HETATM    2  C9  UNL     1      -1.527   7.048  14.994  1.00  0.00     0.007 C 
HETATM    3  C10 UNL     1      -0.098   7.446  15.401  1.00  0.00     0.015 C 
HETATM    4  C11 UNL     1       0.621   7.743  14.070  1.00  0.00    -0.013 C 
HETATM    5  C12 UNL     1       0.249   9.210  13.695  1.00  0.00     0.021 C 
HETATM    6  C13 UNL     1       2.140   7.676  14.043  1.00  0.00    -0.070 C 
HETATM    7  C14 UNL     1       2.912   7.811  15.136  1.00  0.00    -0.022 C 
HETATM    8  C15 UNL     1       4.407   7.847  15.042  1.00  0.00     0.034 C 
HETATM    9  C16 UNL     1       4.796   8.647  13.789  1.00  0.00     0.013 C 
HETATM   10  C17 UNL     1       6.293   9.084  13.728  1.00  0.00     0.018 C 
HETATM   11  C18 UNL     1       6.511  10.336  14.603  1.00  0.00     0.023 C 
HETATM   12  C19 UNL     1       7.273   8.000  14.217  1.00  0.00     0.023 C 
HETATM   13  C20 UNL     1       6.648   9.496  12.292  1.00  0.00     0.135 C 
HETATM   14  O2  UNL     1       7.812   9.518  11.887  1.00  0.00    -0.297 OA
HETATM   15  C21 UNL     1       5.526   9.992  11.403  1.00  0.00     0.080 C 
HETATM   16  C22 UNL     1       4.270   9.112  11.405  1.00  0.00     0.017 C 
HETATM   17  C23 UNL     1       4.246   7.986  12.473  1.00  0.00    -0.031 C 
HETATM   18  C24 UNL     1       5.129   6.817  11.957  1.00  0.00     0.016 C 
HETATM   19  C25 UNL     1       2.794   7.356  12.696  1.00  0.00     0.024 C 
HETATM   20  C26 UNL     1       1.833   7.484  11.488  1.00  0.00     0.010 C 
HETATM   21  C27 UNL     1       0.415   6.898  11.678  1.00  0.00     0.011 C 
HETATM   22  C28 UNL     1       0.005   6.634  13.142  1.00  0.00    -0.029 C 
HETATM   23  C29 UNL     1       0.447   5.187  13.531  1.00  0.00     0.016 C 
ENDROOT
BRANCH   1  24
HETATM   24  C6  UNL     1      -2.516   5.657  13.054  1.00  0.00    -0.007 C 
HETATM   25  C7  UNL     1      -2.100   4.947  11.760  1.00  0.00     0.011 C 
BRANCH  24  26
HETATM   26  C5  UNL     1      -3.940   6.232  12.875  1.00  0.00     0.087 C 
BRANCH  26  27
HETATM   27  C4  UNL     1      -4.992   5.440  13.633  1.00  0.00     0.150 C 
HETATM   28  O1  UNL     1      -5.436   5.831  14.709  1.00  0.00    -0.293 OA
BRANCH  27  29
HETATM   29  C3  UNL     1      -5.431   4.154  13.022  1.00  0.00     0.063 C 
HETATM   30  C2  UNL     1      -6.711   3.755  12.903  1.00  0.00     0.015 C 
HETATM   31  C1  UNL     1      -7.934   4.530  13.290  1.00  0.00     0.055 C 
BRANCH  30  32
HETATM   32  C30 UNL     1      -6.890   2.418  12.293  1.00  0.00     0.171 C 
HETATM   33  O3  UNL     1      -6.079   1.827  11.603  1.00  0.00    -0.646 OA
BRANCH  32  34
HETATM   34  O4  UNL     1      -8.078   1.870  12.588  1.00  0.00    -0.773 OA
HETATM   35  H44 UNL     1      -8.058   1.000  12.139  1.00  0.00     0.167 HD
ENDBRANCH  32  34
ENDBRANCH  30  32
ENDBRANCH  27  29
ENDBRANCH  26  27
ENDBRANCH  24  26
ENDBRANCH   1  24
TORSDOF 6
ENDMDL
MODEL 9
REMARK minimizedAffinity -8.62532616
REMARK  6 active torsions:
REMARK  status: ('A' for Active; 'I' for Inactive)
REMARK    1  A    between atoms: C2_2  and  C30_32 
REMARK    2  A    between atoms: C3_3  and  C4_4 
REMARK    3  A    between atoms: C4_4  and  C5_6 
REMARK    4  A    between atoms: C5_6  and  C6_7 
REMARK    5  A    between atoms: C6_7  and  C8_9 
REMARK    6  A    between atoms: C30_32  and  O4_34 
ROOT
HETATM    1  C8  UNL     1      -3.209   6.214  13.665  1.00  0.00    -0.001 C 
HETATM    2  C9  UNL     1      -1.897   6.460  12.861  1.00  0.00     0.007 C 
HETATM    3  C10 UNL     1      -1.424   7.891  13.172  1.00  0.00     0.015 C 
HETATM    4  C11 UNL     1      -2.258   8.322  14.396  1.00  0.00    -0.013 C 
HETATM    5  C12 UNL     1      -1.527   7.738  15.644  1.00  0.00     0.021 C 
HETATM    6  C13 UNL     1      -2.424   9.809  14.666  1.00  0.00    -0.070 C 
HETATM    7  C14 UNL     1      -1.576  10.749  14.210  1.00  0.00    -0.022 C 
HETATM    8  C15 UNL     1      -1.722  12.190  14.594  1.00  0.00     0.034 C 
HETATM    9  C16 UNL     1      -2.139  12.260  16.070  1.00  0.00     0.013 C 
HETATM   10  C17 UNL     1      -1.991  13.668  16.728  1.00  0.00     0.018 C 
HETATM   11  C18 UNL     1      -0.520  13.910  17.125  1.00  0.00     0.023 C 
HETATM   12  C19 UNL     1      -2.421  14.826  15.809  1.00  0.00     0.023 C 
HETATM   13  C20 UNL     1      -2.801  13.710  18.033  1.00  0.00     0.135 C 
HETATM   14  O2  UNL     1      -3.164  14.773  18.541  1.00  0.00    -0.297 OA
HETATM   15  C21 UNL     1      -3.051  12.400  18.750  1.00  0.00     0.080 C 
HETATM   16  C22 UNL     1      -3.555  11.263  17.853  1.00  0.00     0.017 C 
HETATM   17  C23 UNL     1      -3.518  11.551  16.329  1.00  0.00    -0.031 C 
HETATM   18  C24 UNL     1      -4.742  12.441  15.978  1.00  0.00     0.016 C 
HETATM   19  C25 UNL     1      -3.678  10.236  15.433  1.00  0.00     0.024 C 
HETATM   20  C26 UNL     1      -4.422   9.064  16.120  1.00  0.00     0.010 C 
HETATM   21  C27 UNL     1      -4.579   7.772  15.284  1.00  0.00     0.011 C 
HETATM   22  C28 UNL     1      -3.645   7.665  14.060  1.00  0.00    -0.029 C 
HETATM   23  C29 UNL     1      -4.357   8.318  12.832  1.00  0.00     0.016 C 
ENDROOT
BRANCH   1  24
HETATM   24  C6  UNL     1      -4.196   5.285  12.899  1.00  0.00    -0.007 C 
HETATM   25  C7  UNL     1      -5.606   5.305  13.504  1.00  0.00     0.011 C 
BRANCH  24  26
HETATM   26  C5  UNL     1      -3.674   3.830  12.893  1.00  0.00     0.087 C 
BRANCH  26  27
HETATM   27  C4  UNL     1      -3.917   3.124  11.571  1.00  0.00     0.150 C 
HETATM   28  O1  UNL     1      -4.884   3.400  10.866  1.00  0.00    -0.293 OA
BRANCH  27  29
HETATM   29  C3  UNL     1      -2.944   2.062  11.188  1.00  0.00     0.063 C 
HETATM   30  C2  UNL     1      -1.618   2.247  11.045  1.00  0.00     0.015 C 
HETATM   31  C1  UNL     1      -0.855   3.511  11.298  1.00  0.00     0.055 C 
BRANCH  30  32
HETATM   32  C30 UNL     1      -0.867   1.043  10.622  1.00  0.00     0.171 C 
HETATM   33  O3  UNL     1      -0.319   0.242  11.358  1.00  0.00    -0.646 OA
BRANCH  32  34
HETATM   34  O4  UNL     1      -0.847   0.888   9.290  1.00  0.00    -0.773 OA
HETATM   35  H44 UNL     1      -0.336   0.063   9.154  1.00  0.00     0.167 HD
ENDBRANCH  32  34
ENDBRANCH  30  32
ENDBRANCH  27  29
ENDBRANCH  26  27
ENDBRANCH  24  26
ENDBRANCH   1  24
TORSDOF 6
ENDMDL
