MODEL 1
REMARK minimizedAffinity -8.67385483
REMARK CNNscore 0.508180261
REMARK CNNaffinity 6.51129007
REMARK  5 active torsions:
REMARK  status: ('A' for Active; 'I' for Inactive)
REMARK    1  A    between atoms: C2_2  and  C4_4 
REMARK    2  A    between atoms: C10_11  and  O2_12 
REMARK    3  A    between atoms: C13_15  and  O3_16 
REMARK    4  A    between atoms: C33_39  and  O6_40 
REMARK    5  A    between atoms: C38_46  and  O8_47 
ROOT
HETATM    1  C4  UNL     1     -14.006   5.858  23.119  1.00  0.00     0.181 C 
HETATM    2  O1  UNL     1     -12.771   6.416  23.582  1.00  0.00    -0.370 OA
HETATM    3  C5  UNL     1     -12.838   7.807  23.975  1.00  0.00     0.163 C 
HETATM    4  C6  UNL     1     -11.370   8.237  24.050  1.00  0.00     0.036 C 
HETATM    5  C7  UNL     1     -11.155   9.745  24.121  1.00  0.00     0.016 C 
HETATM    6  C8  UNL     1     -11.888  10.529  22.985  1.00  0.00     0.008 C 
HETATM    7  C9  UNL     1     -11.366   9.977  21.617  1.00  0.00     0.020 C 
HETATM    8  C10 UNL     1     -13.415  10.193  23.116  1.00  0.00     0.103 C 
HETATM    9  C11 UNL     1     -14.246  11.012  22.114  1.00  0.00     0.047 C 
HETATM   10  C12 UNL     1     -14.064  12.517  22.303  1.00  0.00     0.073 C 
HETATM   11  C13 UNL     1     -12.605  12.990  22.142  1.00  0.00     0.180 C 
HETATM   12  O4  UNL     1     -12.283  12.805  20.755  1.00  0.00    -0.320 OA
HETATM   13  C15 UNL     1     -10.963  13.236  20.353  1.00  0.00     0.302 C 
HETATM   14  O5  UNL     1     -10.674  12.466  19.184  1.00  0.00    -0.346 OA
HETATM   15  C16 UNL     1     -10.254  13.143  17.996  1.00  0.00     0.064 C 
HETATM   16  C17 UNL     1     -11.178  14.296  17.589  1.00  0.00     0.046 C 
HETATM   17  C18 UNL     1     -10.372  12.069  16.893  1.00  0.00     0.046 C 
HETATM   18  C19 UNL     1      -8.767  13.509  18.114  1.00  0.00     0.060 C 
HETATM   19  C20 UNL     1      -8.070  14.327  17.003  1.00  0.00     0.023 C 
HETATM   20  C21 UNL     1      -7.150  14.971  18.066  1.00  0.00     0.054 C 
HETATM   21  C22 UNL     1      -5.778  14.417  18.320  1.00  0.00    -0.078 C 
HETATM   22  C23 UNL     1      -5.024  13.950  17.311  1.00  0.00     0.015 C 
HETATM   23  C24 UNL     1      -5.279  14.493  19.750  1.00  0.00     0.073 C 
HETATM   24  C25 UNL     1      -6.239  13.899  20.759  1.00  0.00    -0.044 A 
HETATM   25  C26 UNL     1      -5.764  13.398  21.974  1.00  0.00     0.010 A 
HETATM   26  C27 UNL     1      -6.637  12.859  22.920  1.00  0.00     0.031 A 
HETATM   27  C28 UNL     1      -7.998  12.812  22.600  1.00  0.00     0.044 A 
HETATM   28  N1  UNL     1      -9.055  12.338  23.345  1.00  0.00    -0.357 N 
HETATM   29  C29 UNL     1     -10.216  12.468  22.639  1.00  0.00     0.036 A 
HETATM   30  C30 UNL     1      -9.916  13.004  21.403  1.00  0.00     0.033 A 
HETATM   31  C31 UNL     1      -8.514  13.291  21.392  1.00  0.00     0.013 A 
HETATM   32  C32 UNL     1      -7.624  13.903  20.472  1.00  0.00    -0.003 A 
HETATM   33  C33 UNL     1      -8.227  14.549  19.161  1.00  0.00     0.100 C 
HETATM   34  C34 UNL     1     -11.627  12.127  23.108  1.00  0.00     0.066 C 
HETATM   35  C35 UNL     1     -11.779  12.676  24.559  1.00  0.00     0.029 C 
HETATM   36  C36 UNL     1     -13.666   8.679  23.035  1.00  0.00     0.147 A 
HETATM   37  O7  UNL     1     -15.099   8.412  23.156  1.00  0.00    -0.360 OA
HETATM   38  C37 UNL     1     -14.473   8.009  21.941  1.00  0.00     0.194 A 
HETATM   39  C38 UNL     1     -14.351   6.532  21.759  1.00  0.00     0.183 C 
HETATM   40  H40 UNL     1      -8.973  11.970  24.282  1.00  0.00     0.166 HD
ENDROOT
BRANCH   1  41
HETATM   41  C2  UNL     1     -13.873   4.339  23.014  1.00  0.00    -0.062 C 
HETATM   42  C1  UNL     1     -14.461   3.594  22.060  1.00  0.00     0.016 C 
HETATM   43  C3  UNL     1     -12.986   3.688  24.043  1.00  0.00     0.045 C 
ENDBRANCH   1  41
BRANCH  39  44
HETATM   44  O8  UNL     1     -13.333   6.323  20.775  1.00  0.00    -0.390 OA
HETATM   45  H47 UNL     1     -12.803   5.558  21.073  1.00  0.00     0.210 HD
ENDBRANCH  39  44
BRANCH   8  46
HETATM   46  O2  UNL     1     -13.877  10.579  24.421  1.00  0.00    -0.386 OA
HETATM   47  H15 UNL     1     -14.798  10.261  24.489  1.00  0.00     0.210 HD
ENDBRANCH   8  46
BRANCH  11  48
HETATM   48  O3  UNL     1     -12.512  14.388  22.497  1.00  0.00    -0.359 OA
HETATM   49  C14 UNL     1     -11.201  14.906  22.661  1.00  0.00     0.205 C 
ENDBRANCH  11  48
BRANCH  33  50
HETATM   50  O6  UNL     1      -9.113  15.658  19.475  1.00  0.00    -0.384 OA
HETATM   51  H41 UNL     1      -8.653  16.137  20.189  1.00  0.00     0.211 HD
ENDBRANCH  33  50
TORSDOF 5
ENDMDL
MODEL 2
REMARK minimizedAffinity -6.79920721
REMARK CNNscore 0.406734079
REMARK CNNaffinity 6.61663246
REMARK  5 active torsions:
REMARK  status: ('A' for Active; 'I' for Inactive)
REMARK    1  A    between atoms: C2_2  and  C4_4 
REMARK    2  A    between atoms: C10_11  and  O2_12 
REMARK    3  A    between atoms: C13_15  and  O3_16 
REMARK    4  A    between atoms: C33_39  and  O6_40 
REMARK    5  A    between atoms: C38_46  and  O8_47 
ROOT
HETATM    1  C4  UNL     1       4.461  18.641  -4.919  1.00  0.00     0.181 C 
HETATM    2  O1  UNL     1       4.521  19.296  -3.647  1.00  0.00    -0.370 OA
HETATM    3  C5  UNL     1       5.230  18.566  -2.617  1.00  0.00     0.163 C 
HETATM    4  C6  UNL     1       4.823  19.275  -1.322  1.00  0.00     0.036 C 
HETATM    5  C7  UNL     1       5.164  18.509  -0.047  1.00  0.00     0.016 C 
HETATM    6  C8  UNL     1       4.630  17.040  -0.048  1.00  0.00     0.008 C 
HETATM    7  C9  UNL     1       3.078  17.101  -0.238  1.00  0.00     0.020 C 
HETATM    8  C10 UNL     1       5.265  16.328  -1.293  1.00  0.00     0.103 C 
HETATM    9  C11 UNL     1       4.897  14.835  -1.319  1.00  0.00     0.047 C 
HETATM   10  C12 UNL     1       5.354  14.103  -0.059  1.00  0.00     0.073 C 
HETATM   11  C13 UNL     1       4.752  14.673   1.242  1.00  0.00     0.180 C 
HETATM   12  O4  UNL     1       3.350  14.369   1.192  1.00  0.00    -0.320 OA
HETATM   13  C15 UNL     1       2.578  14.768   2.348  1.00  0.00     0.302 C 
HETATM   14  O5  UNL     1       1.242  14.904   1.859  1.00  0.00    -0.346 OA
HETATM   15  C16 UNL     1       0.184  14.218   2.534  1.00  0.00     0.064 C 
HETATM   16  C17 UNL     1       0.461  12.726   2.749  1.00  0.00     0.046 C 
HETATM   17  C18 UNL     1      -1.006  14.312   1.555  1.00  0.00     0.046 C 
HETATM   18  C19 UNL     1      -0.207  14.999   3.798  1.00  0.00     0.060 C 
HETATM   19  C20 UNL     1      -1.271  14.437   4.769  1.00  0.00     0.023 C 
HETATM   20  C21 UNL     1      -0.533  15.107   5.951  1.00  0.00     0.054 C 
HETATM   21  C22 UNL     1      -0.978  16.446   6.465  1.00  0.00    -0.078 C 
HETATM   22  C23 UNL     1      -2.282  16.764   6.523  1.00  0.00     0.015 C 
HETATM   23  C24 UNL     1       0.115  17.364   6.979  1.00  0.00     0.073 C 
HETATM   24  C25 UNL     1       1.245  17.571   5.993  1.00  0.00    -0.044 A 
HETATM   25  C26 UNL     1       2.018  18.734   6.041  1.00  0.00     0.010 A 
HETATM   26  C27 UNL     1       3.072  18.934   5.148  1.00  0.00     0.031 A 
HETATM   27  C28 UNL     1       3.309  17.946   4.187  1.00  0.00     0.044 A 
HETATM   28  N1  UNL     1       4.273  17.897   3.203  1.00  0.00    -0.357 N 
HETATM   29  C29 UNL     1       4.132  16.754   2.472  1.00  0.00     0.036 A 
HETATM   30  C30 UNL     1       3.045  16.057   2.958  1.00  0.00     0.033 A 
HETATM   31  C31 UNL     1       2.553  16.774   4.096  1.00  0.00     0.013 A 
HETATM   32  C32 UNL     1       1.535  16.550   5.057  1.00  0.00    -0.003 A 
HETATM   33  C33 UNL     1       0.761  15.171   5.025  1.00  0.00     0.100 C 
HETATM   34  C34 UNL     1       5.020  16.271   1.329  1.00  0.00     0.066 C 
HETATM   35  C35 UNL     1       6.500  16.487   1.769  1.00  0.00     0.029 C 
HETATM   36  C36 UNL     1       4.929  17.070  -2.596  1.00  0.00     0.147 A 
HETATM   37  O7  UNL     1       5.534  16.370  -3.729  1.00  0.00    -0.360 OA
HETATM   38  C37 UNL     1       4.113  16.475  -3.727  1.00  0.00     0.194 A 
HETATM   39  C38 UNL     1       3.550  17.388  -4.765  1.00  0.00     0.183 C 
HETATM   40  H40 UNL     1       4.984  18.601   3.066  1.00  0.00     0.166 HD
ENDROOT
BRANCH   1  41
HETATM   41  C2  UNL     1       3.952  19.622  -5.975  1.00  0.00    -0.062 C 
HETATM   42  C1  UNL     1       3.238  19.261  -7.057  1.00  0.00     0.016 C 
HETATM   43  C3  UNL     1       4.261  21.074  -5.721  1.00  0.00     0.045 C 
ENDBRANCH   1  41
BRANCH  39  44
HETATM   44  O8  UNL     1       2.226  17.727  -4.338  1.00  0.00    -0.390 OA
HETATM   45  H47 UNL     1       2.100  18.677  -4.533  1.00  0.00     0.210 HD
ENDBRANCH  39  44
BRANCH   8  46
HETATM   46  O2  UNL     1       6.697  16.381  -1.192  1.00  0.00    -0.386 OA
HETATM   47  H15 UNL     1       7.043  16.017  -2.031  1.00  0.00     0.210 HD
ENDBRANCH   8  46
BRANCH  11  48
HETATM   48  O3  UNL     1       5.366  14.025   2.380  1.00  0.00    -0.359 OA
HETATM   49  C14 UNL     1       6.487  13.202   2.102  1.00  0.00     0.205 C 
ENDBRANCH  11  48
BRANCH  33  50
HETATM   50  O6  UNL     1       1.653  14.056   5.297  1.00  0.00    -0.384 OA
HETATM   51  H41 UNL     1       2.221  14.376   6.021  1.00  0.00     0.211 HD
ENDBRANCH  33  50
TORSDOF 5
ENDMDL
MODEL 3
REMARK minimizedAffinity -6.3781867
REMARK CNNscore 0.35521403
REMARK CNNaffinity 6.2182827
REMARK  5 active torsions:
REMARK  status: ('A' for Active; 'I' for Inactive)
REMARK    1  A    between atoms: C2_2  and  C4_4 
REMARK    2  A    between atoms: C10_11  and  O2_12 
REMARK    3  A    between atoms: C13_15  and  O3_16 
REMARK    4  A    between atoms: C33_39  and  O6_40 
REMARK    5  A    between atoms: C38_46  and  O8_47 
ROOT
HETATM    1  C4  UNL     1      -9.855  -6.481  -5.062  1.00  0.00     0.181 C 
HETATM    2  O1  UNL     1      -8.732  -7.270  -5.470  1.00  0.00    -0.370 OA
HETATM    3  C5  UNL     1      -8.839  -8.683  -5.178  1.00  0.00     0.163 C 
HETATM    4  C6  UNL     1      -7.409  -9.202  -5.353  1.00  0.00     0.036 C 
HETATM    5  C7  UNL     1      -7.169 -10.598  -4.787  1.00  0.00     0.016 C 
HETATM    6  C8  UNL     1      -7.616 -10.746  -3.297  1.00  0.00     0.008 C 
HETATM    7  C9  UNL     1      -6.829  -9.685  -2.459  1.00  0.00     0.020 C 
HETATM    8  C10 UNL     1      -9.145 -10.398  -3.247  1.00  0.00     0.103 C 
HETATM    9  C11 UNL     1      -9.716 -10.630  -1.838  1.00  0.00     0.047 C 
HETATM   10  C12 UNL     1      -9.533 -12.072  -1.369  1.00  0.00     0.073 C 
HETATM   11  C13 UNL     1      -8.060 -12.526  -1.317  1.00  0.00     0.180 C 
HETATM   12  O4  UNL     1      -7.453 -11.770  -0.258  1.00  0.00    -0.320 OA
HETATM   13  C15 UNL     1      -6.065 -12.069   0.013  1.00  0.00     0.302 C 
HETATM   14  O5  UNL     1      -5.555 -10.884   0.629  1.00  0.00    -0.346 OA
HETATM   15  C16 UNL     1      -4.869 -10.994   1.879  1.00  0.00     0.064 C 
HETATM   16  C17 UNL     1      -5.649 -11.781   2.938  1.00  0.00     0.046 C 
HETATM   17  C18 UNL     1      -4.781  -9.537   2.384  1.00  0.00     0.046 C 
HETATM   18  C19 UNL     1      -3.432 -11.476   1.633  1.00  0.00     0.060 C 
HETATM   19  C20 UNL     1      -2.488 -11.766   2.823  1.00  0.00     0.023 C 
HETATM   20  C21 UNL     1      -1.799 -12.875   1.995  1.00  0.00     0.054 C 
HETATM   21  C22 UNL     1      -0.530 -12.586   1.244  1.00  0.00    -0.078 C 
HETATM   22  C23 UNL     1       0.408 -11.775   1.760  1.00  0.00     0.015 C 
HETATM   23  C24 UNL     1      -0.348 -13.321  -0.071  1.00  0.00     0.073 C 
HETATM   24  C25 UNL     1      -1.521 -13.169  -1.017  1.00  0.00    -0.044 A 
HETATM   25  C26 UNL     1      -1.333 -13.290  -2.396  1.00  0.00     0.010 A 
HETATM   26  C27 UNL     1      -2.406 -13.165  -3.281  1.00  0.00     0.031 A 
HETATM   27  C28 UNL     1      -3.666 -12.887  -2.743  1.00  0.00     0.044 A 
HETATM   28  N1  UNL     1      -4.873 -12.720  -3.386  1.00  0.00    -0.357 N 
HETATM   29  C29 UNL     1      -5.850 -12.444  -2.474  1.00  0.00     0.036 A 
HETATM   30  C30 UNL     1      -5.276 -12.398  -1.220  1.00  0.00     0.033 A 
HETATM   31  C31 UNL     1      -3.896 -12.746  -1.371  1.00  0.00     0.013 A 
HETATM   32  C32 UNL     1      -2.811 -12.949  -0.480  1.00  0.00    -0.003 A 
HETATM   33  C33 UNL     1      -3.098 -12.906   1.074  1.00  0.00     0.100 C 
HETATM   34  C34 UNL     1      -7.340 -12.248  -2.745  1.00  0.00     0.066 C 
HETATM   35  C35 UNL     1      -7.782 -13.370  -3.733  1.00  0.00     0.029 C 
HETATM   36  C36 UNL     1      -9.419  -8.990  -3.800  1.00  0.00     0.147 A 
HETATM   37  O7  UNL     1     -10.852  -8.706  -3.729  1.00  0.00    -0.360 OA
HETATM   38  C37 UNL     1      -9.992  -7.852  -2.980  1.00  0.00     0.194 A 
HETATM   39  C38 UNL     1      -9.879  -6.459  -3.506  1.00  0.00     0.183 C 
HETATM   40  H40 UNL     1      -5.005 -12.810  -4.384  1.00  0.00     0.166 HD
ENDROOT
BRANCH   1  41
HETATM   41  C2  UNL     1      -9.749  -5.085  -5.676  1.00  0.00    -0.062 C 
HETATM   42  C1  UNL     1     -10.055  -4.797  -6.954  1.00  0.00     0.016 C 
HETATM   43  C3  UNL     1      -9.309  -3.992  -4.738  1.00  0.00     0.045 C 
ENDBRANCH   1  41
BRANCH  39  44
HETATM   44  O8  UNL     1      -8.680  -5.908  -2.951  1.00  0.00    -0.390 OA
HETATM   45  H47 UNL     1      -8.250  -5.392  -3.661  1.00  0.00     0.210 HD
ENDBRANCH  39  44
BRANCH   8  46
HETATM   46  O2  UNL     1      -9.864 -11.287  -4.116  1.00  0.00    -0.386 OA
HETATM   47  H15 UNL     1     -10.788 -10.970  -4.128  1.00  0.00     0.210 HD
ENDBRANCH   8  46
BRANCH  11  48
HETATM   48  O3  UNL     1      -8.002 -13.940  -1.022  1.00  0.00    -0.359 OA
HETATM   49  C14 UNL     1      -9.046 -14.453  -0.211  1.00  0.00     0.205 C 
ENDBRANCH  11  48
BRANCH  33  50
HETATM   50  O6  UNL     1      -3.996 -13.976   1.478  1.00  0.00    -0.384 OA
HETATM   51  H41 UNL     1      -3.686 -14.751   0.975  1.00  0.00     0.211 HD
ENDBRANCH  33  50
TORSDOF 5
ENDMDL
MODEL 4
REMARK minimizedAffinity -6.65529442
REMARK CNNscore 0.296475798
REMARK CNNaffinity 6.19645691
REMARK  5 active torsions:
REMARK  status: ('A' for Active; 'I' for Inactive)
REMARK    1  A    between atoms: C2_2  and  C4_4 
REMARK    2  A    between atoms: C10_11  and  O2_12 
REMARK    3  A    between atoms: C13_15  and  O3_16 
REMARK    4  A    between atoms: C33_39  and  O6_40 
REMARK    5  A    between atoms: C38_46  and  O8_47 
ROOT
HETATM    1  C4  UNL     1      14.704 -11.794   2.875  1.00  0.00     0.181 C 
HETATM    2  O1  UNL     1      15.770 -11.189   3.617  1.00  0.00    -0.370 OA
HETATM    3  C5  UNL     1      15.348 -10.358   4.724  1.00  0.00     0.163 C 
HETATM    4  C6  UNL     1      16.606  -9.560   5.082  1.00  0.00     0.036 C 
HETATM    5  C7  UNL     1      16.359  -8.368   6.001  1.00  0.00     0.016 C 
HETATM    6  C8  UNL     1      15.242  -7.407   5.479  1.00  0.00     0.008 C 
HETATM    7  C9  UNL     1      15.671  -6.909   4.059  1.00  0.00     0.020 C 
HETATM    8  C10 UNL     1      13.935  -8.263   5.342  1.00  0.00     0.103 C 
HETATM    9  C11 UNL     1      12.738  -7.382   4.948  1.00  0.00     0.047 C 
HETATM   10  C12 UNL     1      12.482  -6.267   5.960  1.00  0.00     0.073 C 
HETATM   11  C13 UNL     1      13.678  -5.312   6.148  1.00  0.00     0.180 C 
HETATM   12  O4  UNL     1      13.803  -4.593   4.912  1.00  0.00    -0.320 OA
HETATM   13  C15 UNL     1      14.842  -3.587   4.872  1.00  0.00     0.302 C 
HETATM   14  O5  UNL     1      15.152  -3.446   3.484  1.00  0.00    -0.346 OA
HETATM   15  C16 UNL     1      15.140  -2.139   2.902  1.00  0.00     0.064 C 
HETATM   16  C17 UNL     1      13.854  -1.355   3.184  1.00  0.00     0.046 C 
HETATM   17  C18 UNL     1      15.173  -2.409   1.382  1.00  0.00     0.046 C 
HETATM   18  C19 UNL     1      16.443  -1.408   3.260  1.00  0.00     0.060 C 
HETATM   19  C20 UNL     1      16.660   0.061   2.831  1.00  0.00     0.023 C 
HETATM   20  C21 UNL     1      17.504   0.299   4.105  1.00  0.00     0.054 C 
HETATM   21  C22 UNL     1      19.003   0.211   4.051  1.00  0.00    -0.078 C 
HETATM   22  C23 UNL     1      19.682   0.660   2.983  1.00  0.00     0.015 C 
HETATM   23  C24 UNL     1      19.687  -0.331   5.292  1.00  0.00     0.073 C 
HETATM   24  C25 UNL     1      19.137  -1.664   5.753  1.00  0.00    -0.044 A 
HETATM   25  C26 UNL     1      19.939  -2.541   6.489  1.00  0.00     0.010 A 
HETATM   26  C27 UNL     1      19.443  -3.767   6.933  1.00  0.00     0.031 A 
HETATM   27  C28 UNL     1      18.128  -4.101   6.593  1.00  0.00     0.044 A 
HETATM   28  N1  UNL     1      17.406  -5.233   6.901  1.00  0.00    -0.357 N 
HETATM   29  C29 UNL     1      16.160  -5.154   6.350  1.00  0.00     0.036 A 
HETATM   30  C30 UNL     1      16.070  -3.971   5.645  1.00  0.00     0.033 A 
HETATM   31  C31 UNL     1      17.296  -3.259   5.848  1.00  0.00     0.013 A 
HETATM   32  C32 UNL     1      17.789  -1.985   5.468  1.00  0.00    -0.003 A 
HETATM   33  C33 UNL     1      16.807  -0.990   4.730  1.00  0.00     0.100 C 
HETATM   34  C34 UNL     1      15.020  -6.158   6.493  1.00  0.00     0.066 C 
HETATM   35  C35 UNL     1      14.953  -6.573   7.994  1.00  0.00     0.029 C 
HETATM   36  C36 UNL     1      14.148  -9.468   4.411  1.00  0.00     0.147 A 
HETATM   37  O7  UNL     1      12.906 -10.233   4.308  1.00  0.00    -0.360 OA
HETATM   38  C37 UNL     1      13.413  -9.670   3.102  1.00  0.00     0.194 A 
HETATM   39  C38 UNL     1      13.948 -10.662   2.122  1.00  0.00     0.183 C 
HETATM   40  H40 UNL     1      17.753  -5.994   7.469  1.00  0.00     0.166 HD
ENDROOT
BRANCH   1  41
HETATM   41  C2  UNL     1      15.275 -12.856   1.936  1.00  0.00    -0.062 C 
HETATM   42  C1  UNL     1      16.571 -12.933   1.583  1.00  0.00     0.016 C 
HETATM   43  C3  UNL     1      14.291 -13.880   1.433  1.00  0.00     0.045 C 
ENDBRANCH   1  41
BRANCH  39  44
HETATM   44  O8  UNL     1      14.801  -9.937   1.229  1.00  0.00    -0.390 OA
HETATM   45  H47 UNL     1      15.581 -10.502   1.062  1.00  0.00     0.210 HD
ENDBRANCH  39  44
BRANCH   8  46
HETATM   46  O2  UNL     1      13.603  -8.833   6.619  1.00  0.00    -0.386 OA
HETATM   47  H15 UNL     1      12.848  -9.433   6.463  1.00  0.00     0.210 HD
ENDBRANCH   8  46
BRANCH  11  48
HETATM   48  O3  UNL     1      13.398  -4.399   7.234  1.00  0.00    -0.359 OA
HETATM   49  C14 UNL     1      12.331  -4.760   8.096  1.00  0.00     0.205 C 
ENDBRANCH  11  48
BRANCH  33  50
HETATM   50  O6  UNL     1      15.691  -0.615   5.583  1.00  0.00    -0.384 OA
HETATM   51  H41 UNL     1      16.095  -0.475   6.459  1.00  0.00     0.211 HD
ENDBRANCH  33  50
TORSDOF 5
ENDMDL
MODEL 5
REMARK minimizedAffinity -7.22722006
REMARK CNNscore 0.270088911
REMARK CNNaffinity 6.29243231
REMARK  5 active torsions:
REMARK  status: ('A' for Active; 'I' for Inactive)
REMARK    1  A    between atoms: C2_2  and  C4_4 
REMARK    2  A    between atoms: C10_11  and  O2_12 
REMARK    3  A    between atoms: C13_15  and  O3_16 
REMARK    4  A    between atoms: C33_39  and  O6_40 
REMARK    5  A    between atoms: C38_46  and  O8_47 
ROOT
HETATM    1  C4  UNL     1     -10.342  16.322  21.933  1.00  0.00     0.181 C 
HETATM    2  O1  UNL     1      -9.584  15.219  21.421  1.00  0.00    -0.370 OA
HETATM    3  C5  UNL     1      -9.205  15.332  20.029  1.00  0.00     0.163 C 
HETATM    4  C6  UNL     1      -8.767  13.913  19.654  1.00  0.00     0.036 C 
HETATM    5  C7  UNL     1      -8.629  13.670  18.154  1.00  0.00     0.016 C 
HETATM    6  C8  UNL     1      -9.902  14.074  17.342  1.00  0.00     0.008 C 
HETATM    7  C9  UNL     1     -11.106  13.251  17.910  1.00  0.00     0.020 C 
HETATM    8  C10 UNL     1     -10.154  15.596  17.622  1.00  0.00     0.103 C 
HETATM    9  C11 UNL     1     -11.320  16.127  16.772  1.00  0.00     0.047 C 
HETATM   10  C12 UNL     1     -11.076  15.944  15.275  1.00  0.00     0.073 C 
HETATM   11  C13 UNL     1     -10.870  14.475  14.855  1.00  0.00     0.180 C 
HETATM   12  O4  UNL     1     -12.136  13.829  15.049  1.00  0.00    -0.320 OA
HETATM   13  C15 UNL     1     -12.198  12.436  14.666  1.00  0.00     0.302 C 
HETATM   14  O5  UNL     1     -13.268  11.896  15.444  1.00  0.00    -0.346 OA
HETATM   15  C16 UNL     1     -14.309  11.173  14.780  1.00  0.00     0.064 C 
HETATM   16  C17 UNL     1     -14.919  11.928  13.594  1.00  0.00     0.046 C 
HETATM   17  C18 UNL     1     -15.418  11.054  15.848  1.00  0.00     0.046 C 
HETATM   18  C19 UNL     1     -13.826   9.749  14.470  1.00  0.00     0.060 C 
HETATM   19  C20 UNL     1     -14.723   8.772  13.675  1.00  0.00     0.023 C 
HETATM   20  C21 UNL     1     -13.459   8.120  13.067  1.00  0.00     0.054 C 
HETATM   21  C22 UNL     1     -12.882   6.872  13.672  1.00  0.00    -0.078 C 
HETATM   22  C23 UNL     1     -13.680   5.910  14.164  1.00  0.00     0.015 C 
HETATM   23  C24 UNL     1     -11.372   6.738  13.617  1.00  0.00     0.073 C 
HETATM   24  C25 UNL     1     -10.637   7.937  14.177  1.00  0.00    -0.044 A 
HETATM   25  C26 UNL     1      -9.347   7.793  14.697  1.00  0.00     0.010 A 
HETATM   26  C27 UNL     1      -8.651   8.890  15.205  1.00  0.00     0.031 A 
HETATM   27  C28 UNL     1      -9.296  10.131  15.202  1.00  0.00     0.044 A 
HETATM   28  N1  UNL     1      -8.838  11.355  15.638  1.00  0.00    -0.357 N 
HETATM   29  C29 UNL     1      -9.806  12.301  15.465  1.00  0.00     0.036 A 
HETATM   30  C30 UNL     1     -10.925  11.688  14.938  1.00  0.00     0.033 A 
HETATM   31  C31 UNL     1     -10.589  10.317  14.703  1.00  0.00     0.013 A 
HETATM   32  C32 UNL     1     -11.255   9.208  14.122  1.00  0.00    -0.003 A 
HETATM   33  C33 UNL     1     -12.667   9.447  13.452  1.00  0.00     0.100 C 
HETATM   34  C34 UNL     1      -9.702  13.796  15.755  1.00  0.00     0.066 C 
HETATM   35  C35 UNL     1      -8.327  14.280  15.203  1.00  0.00     0.029 C 
HETATM   36  C36 UNL     1     -10.310  15.873  19.126  1.00  0.00     0.147 A 
HETATM   37  O7  UNL     1     -10.548  17.300  19.340  1.00  0.00    -0.360 OA
HETATM   38  C37 UNL     1     -11.576  16.409  19.764  1.00  0.00     0.194 A 
HETATM   39  C38 UNL     1     -11.738  16.298  21.245  1.00  0.00     0.183 C 
HETATM   40  H40 UNL     1      -7.913  11.519  16.011  1.00  0.00     0.166 HD
ENDROOT
BRANCH   1  41
HETATM   41  C2  UNL     1     -10.427  16.220  23.456  1.00  0.00    -0.062 C 
HETATM   42  C1  UNL     1     -11.079  17.102  24.235  1.00  0.00     0.016 C 
HETATM   43  C3  UNL     1      -9.757  15.018  24.069  1.00  0.00     0.045 C 
ENDBRANCH   1  41
BRANCH  39  44
HETATM   44  O8  UNL     1     -12.444  15.077  21.489  1.00  0.00    -0.390 OA
HETATM   45  H47 UNL     1     -12.033  14.663  22.273  1.00  0.00     0.210 HD
ENDBRANCH  39  44
BRANCH   8  46
HETATM   46  O2  UNL     1      -8.998  16.351  17.223  1.00  0.00    -0.386 OA
HETATM   47  H15 UNL     1      -9.161  17.272  17.506  1.00  0.00     0.210 HD
ENDBRANCH   8  46
BRANCH  11  48
HETATM   48  O3  UNL     1     -10.487  14.423  13.462  1.00  0.00    -0.359 OA
HETATM   49  C14 UNL     1     -10.880  15.527  12.663  1.00  0.00     0.205 C 
ENDBRANCH  11  48
BRANCH  33  50
HETATM   50  O6  UNL     1     -12.569  10.343  12.312  1.00  0.00    -0.384 OA
HETATM   51  H41 UNL     1     -11.759  10.057  11.851  1.00  0.00     0.211 HD
ENDBRANCH  33  50
TORSDOF 5
ENDMDL
MODEL 6
REMARK minimizedAffinity -6.78281975
REMARK CNNscore 0.261854649
REMARK CNNaffinity 5.98760176
REMARK  5 active torsions:
REMARK  status: ('A' for Active; 'I' for Inactive)
REMARK    1  A    between atoms: C2_2  and  C4_4 
REMARK    2  A    between atoms: C10_11  and  O2_12 
REMARK    3  A    between atoms: C13_15  and  O3_16 
REMARK    4  A    between atoms: C33_39  and  O6_40 
REMARK    5  A    between atoms: C38_46  and  O8_47 
ROOT
HETATM    1  C4  UNL     1      -2.967  17.845   6.844  1.00  0.00     0.181 C 
HETATM    2  O1  UNL     1      -3.288  17.129   5.646  1.00  0.00    -0.370 OA
HETATM    3  C5  UNL     1      -2.372  16.061   5.308  1.00  0.00     0.163 C 
HETATM    4  C6  UNL     1      -2.711  15.736   3.850  1.00  0.00     0.036 C 
HETATM    5  C7  UNL     1      -1.676  14.872   3.138  1.00  0.00     0.016 C 
HETATM    6  C8  UNL     1      -0.222  15.438   3.240  1.00  0.00     0.008 C 
HETATM    7  C9  UNL     1      -0.231  16.878   2.628  1.00  0.00     0.020 C 
HETATM    8  C10 UNL     1       0.118  15.539   4.768  1.00  0.00     0.103 C 
HETATM    9  C11 UNL     1       1.578  15.974   4.979  1.00  0.00     0.047 C 
HETATM   10  C12 UNL     1       2.569  15.013   4.325  1.00  0.00     0.073 C 
HETATM   11  C13 UNL     1       2.379  14.866   2.803  1.00  0.00     0.180 C 
HETATM   12  O4  UNL     1       2.748  16.132   2.236  1.00  0.00    -0.320 OA
HETATM   13  C15 UNL     1       2.698  16.215   0.793  1.00  0.00     0.302 C 
HETATM   14  O5  UNL     1       2.528  17.608   0.519  1.00  0.00    -0.346 OA
HETATM   15  C16 UNL     1       3.426  18.247  -0.393  1.00  0.00     0.064 C 
HETATM   16  C17 UNL     1       4.904  18.003  -0.071  1.00  0.00     0.046 C 
HETATM   17  C18 UNL     1       3.166  19.754  -0.176  1.00  0.00     0.046 C 
HETATM   18  C19 UNL     1       3.008  17.920  -1.835  1.00  0.00     0.060 C 
HETATM   19  C20 UNL     1       3.859  18.412  -3.028  1.00  0.00     0.023 C 
HETATM   20  C21 UNL     1       3.458  17.149  -3.824  1.00  0.00     0.054 C 
HETATM   21  C22 UNL     1       2.319  17.195  -4.802  1.00  0.00    -0.078 C 
HETATM   22  C23 UNL     1       2.107  18.281  -5.564  1.00  0.00     0.015 C 
HETATM   23  C24 UNL     1       1.491  15.931  -4.926  1.00  0.00     0.073 C 
HETATM   24  C25 UNL     1       0.976  15.412  -3.600  1.00  0.00    -0.044 A 
HETATM   25  C26 UNL     1      -0.186  14.635  -3.551  1.00  0.00     0.010 A 
HETATM   26  C27 UNL     1      -0.667  14.139  -2.339  1.00  0.00     0.031 A 
HETATM   27  C28 UNL     1       0.035  14.466  -1.175  1.00  0.00     0.044 A 
HETATM   28  N1  UNL     1      -0.222  14.109   0.131  1.00  0.00    -0.357 N 
HETATM   29  C29 UNL     1       0.711  14.666   0.957  1.00  0.00     0.036 A 
HETATM   30  C30 UNL     1       1.574  15.424   0.192  1.00  0.00     0.033 A 
HETATM   31  C31 UNL     1       1.194  15.249  -1.178  1.00  0.00     0.013 A 
HETATM   32  C32 UNL     1       1.712  15.685  -2.424  1.00  0.00    -0.003 A 
HETATM   33  C33 UNL     1       3.085  16.468  -2.434  1.00  0.00     0.100 C 
HETATM   34  C34 UNL     1       0.838  14.481   2.466  1.00  0.00     0.066 C 
HETATM   35  C35 UNL     1       0.646  12.963   2.765  1.00  0.00     0.029 C 
HETATM   36  C36 UNL     1      -0.902  16.415   5.513  1.00  0.00     0.147 A 
HETATM   37  O7  UNL     1      -0.544  16.487   6.929  1.00  0.00    -0.360 OA
HETATM   38  C37 UNL     1      -0.556  17.716   6.209  1.00  0.00     0.194 A 
HETATM   39  C38 UNL     1      -1.661  18.649   6.580  1.00  0.00     0.183 C 
HETATM   40  H40 UNL     1      -0.981  13.508   0.419  1.00  0.00     0.166 HD
ENDROOT
BRANCH   1  41
HETATM   41  C2  UNL     1      -4.145  18.735   7.239  1.00  0.00    -0.062 C 
HETATM   42  C1  UNL     1      -4.639  19.720   6.465  1.00  0.00     0.016 C 
HETATM   43  C3  UNL     1      -4.782  18.424   8.568  1.00  0.00     0.045 C 
ENDBRANCH   1  41
BRANCH  39  44
HETATM   44  O8  UNL     1      -1.800  19.572   5.494  1.00  0.00    -0.390 OA
HETATM   45  H47 UNL     1      -2.758  19.712   5.362  1.00  0.00     0.210 HD
ENDBRANCH  39  44
BRANCH   8  46
HETATM   46  O2  UNL     1       0.002  14.239   5.368  1.00  0.00    -0.386 OA
HETATM   47  H15 UNL     1       0.123  14.370   6.329  1.00  0.00     0.210 HD
ENDBRANCH   8  46
BRANCH  11  48
HETATM   48  O3  UNL     1       3.249  13.822   2.308  1.00  0.00    -0.359 OA
HETATM   49  C14 UNL     1       4.641  14.079   2.385  1.00  0.00     0.205 C 
ENDBRANCH  11  48
BRANCH  33  50
HETATM   50  O6  UNL     1       4.175  15.635  -1.952  1.00  0.00    -0.384 OA
HETATM   51  H41 UNL     1       4.010  14.766  -2.361  1.00  0.00     0.211 HD
ENDBRANCH  33  50
TORSDOF 5
ENDMDL
MODEL 7
REMARK minimizedAffinity -6.81813192
REMARK CNNscore 0.259821177
REMARK CNNaffinity 5.54424477
REMARK  5 active torsions:
REMARK  status: ('A' for Active; 'I' for Inactive)
REMARK    1  A    between atoms: C2_2  and  C4_4 
REMARK    2  A    between atoms: C10_11  and  O2_12 
REMARK    3  A    between atoms: C13_15  and  O3_16 
REMARK    4  A    between atoms: C33_39  and  O6_40 
REMARK    5  A    between atoms: C38_46  and  O8_47 
ROOT
HETATM    1  C4  UNL     1      -0.034  15.193   3.751  1.00  0.00     0.181 C 
HETATM    2  O1  UNL     1      -1.438  15.412   3.930  1.00  0.00    -0.370 OA
HETATM    3  C5  UNL     1      -1.806  16.770   4.268  1.00  0.00     0.163 C 
HETATM    4  C6  UNL     1      -3.249  16.645   4.765  1.00  0.00     0.036 C 
HETATM    5  C7  UNL     1      -3.776  17.876   5.496  1.00  0.00     0.016 C 
HETATM    6  C8  UNL     1      -2.845  18.348   6.660  1.00  0.00     0.008 C 
HETATM    7  C9  UNL     1      -2.694  17.154   7.660  1.00  0.00     0.020 C 
HETATM    8  C10 UNL     1      -1.445  18.656   6.023  1.00  0.00     0.103 C 
HETATM    9  C11 UNL     1      -0.483  19.246   7.068  1.00  0.00     0.047 C 
HETATM   10  C12 UNL     1      -1.024  20.531   7.692  1.00  0.00     0.073 C 
HETATM   11  C13 UNL     1      -2.379  20.353   8.406  1.00  0.00     0.180 C 
HETATM   12  O4  UNL     1      -2.113  19.533   9.553  1.00  0.00    -0.320 OA
HETATM   13  C15 UNL     1      -3.245  19.272  10.415  1.00  0.00     0.302 C 
HETATM   14  O5  UNL     1      -2.913  18.054  11.086  1.00  0.00    -0.346 OA
HETATM   15  C16 UNL     1      -2.984  18.008  12.514  1.00  0.00     0.064 C 
HETATM   16  C17 UNL     1      -2.229  19.150  13.202  1.00  0.00     0.046 C 
HETATM   17  C18 UNL     1      -2.247  16.702  12.882  1.00  0.00     0.046 C 
HETATM   18  C19 UNL     1      -4.449  17.838  12.946  1.00  0.00     0.060 C 
HETATM   19  C20 UNL     1      -4.829  17.845  14.445  1.00  0.00     0.023 C 
HETATM   20  C21 UNL     1      -6.190  18.487  14.088  1.00  0.00     0.054 C 
HETATM   21  C22 UNL     1      -7.414  17.633  13.928  1.00  0.00    -0.078 C 
HETATM   22  C23 UNL     1      -7.624  16.571  14.724  1.00  0.00     0.015 C 
HETATM   23  C24 UNL     1      -8.417  18.088  12.885  1.00  0.00     0.073 C 
HETATM   24  C25 UNL     1      -7.805  18.324  11.520  1.00  0.00    -0.044 A 
HETATM   25  C26 UNL     1      -8.589  18.213  10.368  1.00  0.00     0.010 A 
HETATM   26  C27 UNL     1      -8.044  18.441   9.103  1.00  0.00     0.031 A 
HETATM   27  C28 UNL     1      -6.684  18.755   9.026  1.00  0.00     0.044 A 
HETATM   28  N1  UNL     1      -5.909  19.023   7.918  1.00  0.00    -0.357 N 
HETATM   29  C29 UNL     1      -4.621  19.263   8.299  1.00  0.00     0.036 A 
HETATM   30  C30 UNL     1      -4.538  19.121   9.669  1.00  0.00     0.033 A 
HETATM   31  C31 UNL     1      -5.861  18.864  10.152  1.00  0.00     0.013 A 
HETATM   32  C32 UNL     1      -6.445  18.704  11.434  1.00  0.00    -0.003 A 
HETATM   33  C33 UNL     1      -5.540  18.944  12.708  1.00  0.00     0.100 C 
HETATM   34  C34 UNL     1      -3.451  19.659   7.403  1.00  0.00     0.066 C 
HETATM   35  C35 UNL     1      -3.968  20.753   6.421  1.00  0.00     0.029 C 
HETATM   36  C36 UNL     1      -0.881  17.429   5.288  1.00  0.00     0.147 A 
HETATM   37  O7  UNL     1       0.425  17.758   4.716  1.00  0.00    -0.360 OA
HETATM   38  C37 UNL     1       0.395  16.713   5.685  1.00  0.00     0.194 A 
HETATM   39  C38 UNL     1       0.651  15.347   5.141  1.00  0.00     0.183 C 
HETATM   40  H40 UNL     1      -6.260  19.053   6.971  1.00  0.00     0.166 HD
ENDROOT
BRANCH   1  41
HETATM   41  C2  UNL     1       0.192  13.817   3.125  1.00  0.00    -0.062 C 
HETATM   42  C1  UNL     1       1.398  13.342   2.763  1.00  0.00     0.016 C 
HETATM   43  C3  UNL     1      -1.038  12.964   2.961  1.00  0.00     0.045 C 
ENDBRANCH   1  41
BRANCH  39  44
HETATM   44  O8  UNL     1       0.141  14.419   6.105  1.00  0.00    -0.390 OA
HETATM   45  H47 UNL     1      -0.296  13.702   5.605  1.00  0.00     0.210 HD
ENDBRANCH  39  44
BRANCH   8  46
HETATM   46  O2  UNL     1      -1.594  19.663   5.009  1.00  0.00    -0.386 OA
HETATM   47  H15 UNL     1      -0.721  19.746   4.578  1.00  0.00     0.210 HD
ENDBRANCH   8  46
BRANCH  11  48
HETATM   48  O3  UNL     1      -2.879  21.646   8.817  1.00  0.00    -0.359 OA
HETATM   49  C14 UNL     1      -1.902  22.634   9.100  1.00  0.00     0.205 C 
ENDBRANCH  11  48
BRANCH  33  50
HETATM   50  O6  UNL     1      -5.080  20.322  12.779  1.00  0.00    -0.384 OA
HETATM   51  H41 UNL     1      -5.860  20.848  12.525  1.00  0.00     0.211 HD
ENDBRANCH  33  50
TORSDOF 5
ENDMDL
MODEL 8
REMARK minimizedAffinity -7.33506632
REMARK CNNscore 0.253877044
REMARK CNNaffinity 6.07743979
REMARK  5 active torsions:
REMARK  status: ('A' for Active; 'I' for Inactive)
REMARK    1  A    between atoms: C2_2  and  C4_4 
REMARK    2  A    between atoms: C10_11  and  O2_12 
REMARK    3  A    between atoms: C13_15  and  O3_16 
REMARK    4  A    between atoms: C33_39  and  O6_40 
REMARK    5  A    between atoms: C38_46  and  O8_47 
ROOT
HETATM    1  C4  UNL     1     -17.015  -1.445  13.622  1.00  0.00     0.181 C 
HETATM    2  O1  UNL     1     -17.055  -0.775  14.887  1.00  0.00    -0.370 OA
HETATM    3  C5  UNL     1     -17.880   0.414  14.923  1.00  0.00     0.163 C 
HETATM    4  C6  UNL     1     -17.452   1.117  16.214  1.00  0.00     0.036 C 
HETATM    5  C7  UNL     1     -17.925   2.562  16.335  1.00  0.00     0.016 C 
HETATM    6  C8  UNL     1     -17.553   3.440  15.096  1.00  0.00     0.008 C 
HETATM    7  C9  UNL     1     -15.997   3.396  14.935  1.00  0.00     0.020 C 
HETATM    8  C10 UNL     1     -18.210   2.758  13.845  1.00  0.00     0.103 C 
HETATM    9  C11 UNL     1     -18.006   3.612  12.582  1.00  0.00     0.047 C 
HETATM   10  C12 UNL     1     -18.589   5.015  12.731  1.00  0.00     0.073 C 
HETATM   11  C13 UNL     1     -17.983   5.819  13.898  1.00  0.00     0.180 C 
HETATM   12  O4  UNL     1     -16.621   6.082  13.528  1.00  0.00    -0.320 OA
HETATM   13  C15 UNL     1     -15.858   6.881  14.462  1.00  0.00     0.302 C 
HETATM   14  O5  UNL     1     -14.496   6.529  14.207  1.00  0.00    -0.346 OA
HETATM   15  C16 UNL     1     -13.547   7.570  13.960  1.00  0.00     0.064 C 
HETATM   16  C17 UNL     1     -13.993   8.560  12.878  1.00  0.00     0.046 C 
HETATM   17  C18 UNL     1     -12.315   6.826  13.401  1.00  0.00     0.046 C 
HETATM   18  C19 UNL     1     -13.126   8.205  15.293  1.00  0.00     0.060 C 
HETATM   19  C20 UNL     1     -12.169   9.419  15.316  1.00  0.00     0.023 C 
HETATM   20  C21 UNL     1     -12.878   9.943  16.587  1.00  0.00     0.054 C 
HETATM   21  C22 UNL     1     -12.311   9.653  17.947  1.00  0.00    -0.078 C 
HETATM   22  C23 UNL     1     -10.984   9.645  18.155  1.00  0.00     0.015 C 
HETATM   23  C24 UNL     1     -13.318   9.454  19.064  1.00  0.00     0.073 C 
HETATM   24  C25 UNL     1     -14.379   8.421  18.746  1.00  0.00    -0.044 A 
HETATM   25  C26 UNL     1     -15.022   7.732  19.778  1.00  0.00     0.010 A 
HETATM   26  C27 UNL     1     -16.011   6.786  19.503  1.00  0.00     0.031 A 
HETATM   27  C28 UNL     1     -16.315   6.531  18.163  1.00  0.00     0.044 A 
HETATM   28  N1  UNL     1     -17.237   5.660  17.626  1.00  0.00    -0.357 N 
HETATM   29  C29 UNL     1     -17.191   5.716  16.263  1.00  0.00     0.036 A 
HETATM   30  C30 UNL     1     -16.207   6.612  15.897  1.00  0.00     0.033 A 
HETATM   31  C31 UNL     1     -15.687   7.189  17.100  1.00  0.00     0.013 A 
HETATM   32  C32 UNL     1     -14.738   8.200  17.396  1.00  0.00    -0.003 A 
HETATM   33  C33 UNL     1     -14.118   9.023  16.197  1.00  0.00     0.100 C 
HETATM   34  C34 UNL     1     -18.080   4.965  15.275  1.00  0.00     0.066 C 
HETATM   35  C35 UNL     1     -19.544   5.065  15.801  1.00  0.00     0.029 C 
HETATM   36  C36 UNL     1     -17.743   1.302  13.689  1.00  0.00     0.147 A 
HETATM   37  O7  UNL     1     -18.374   0.708  12.511  1.00  0.00    -0.360 OA
HETATM   38  C37 UNL     1     -16.952   0.786  12.504  1.00  0.00     0.194 A 
HETATM   39  C38 UNL     1     -16.252  -0.527  12.624  1.00  0.00     0.183 C 
HETATM   40  H40 UNL     1     -17.862   5.084  18.171  1.00  0.00     0.166 HD
ENDROOT
BRANCH   1  41
HETATM   41  C2  UNL     1     -16.360  -2.816  13.791  1.00  0.00    -0.062 C 
HETATM   42  C1  UNL     1     -16.299  -3.747  12.821  1.00  0.00     0.016 C 
HETATM   43  C3  UNL     1     -15.723  -3.075  15.131  1.00  0.00     0.045 C 
ENDBRANCH   1  41
BRANCH  39  44
HETATM   44  O8  UNL     1     -14.917  -0.242  13.057  1.00  0.00    -0.390 OA
HETATM   45  H47 UNL     1     -14.681  -0.925  13.715  1.00  0.00     0.210 HD
ENDBRANCH  39  44
BRANCH   8  46
HETATM   46  O2  UNL     1     -19.631   2.675  14.040  1.00  0.00    -0.386 OA
HETATM   47  H15 UNL     1     -19.981   2.158  13.288  1.00  0.00     0.210 HD
ENDBRANCH   8  46
BRANCH  11  48
HETATM   48  O3  UNL     1     -18.709   7.060  14.056  1.00  0.00    -0.359 OA
HETATM   49  C14 UNL     1     -19.211   7.647  12.866  1.00  0.00     0.205 C 
ENDBRANCH  11  48
BRANCH  33  50
HETATM   50  O6  UNL     1     -15.136   9.790  15.497  1.00  0.00    -0.384 OA
HETATM   51  H41 UNL     1     -15.695  10.151  16.209  1.00  0.00     0.211 HD
ENDBRANCH  33  50
TORSDOF 5
ENDMDL
MODEL 9
REMARK minimizedAffinity -6.14146662
REMARK CNNscore 0.247007787
REMARK CNNaffinity 5.93400526
REMARK  5 active torsions:
REMARK  status: ('A' for Active; 'I' for Inactive)
REMARK    1  A    between atoms: C2_2  and  C4_4 
REMARK    2  A    between atoms: C10_11  and  O2_12 
REMARK    3  A    between atoms: C13_15  and  O3_16 
REMARK    4  A    between atoms: C33_39  and  O6_40 
REMARK    5  A    between atoms: C38_46  and  O8_47 
ROOT
HETATM    1  C4  UNL     1      -4.862 -10.936   7.342  1.00  0.00     0.181 C 
HETATM    2  O1  UNL     1      -6.084 -10.324   6.913  1.00  0.00    -0.370 OA
HETATM    3  C5  UNL     1      -6.999 -11.206   6.220  1.00  0.00     0.163 C 
HETATM    4  C6  UNL     1      -7.997 -10.251   5.560  1.00  0.00     0.036 C 
HETATM    5  C7  UNL     1      -8.879 -10.894   4.494  1.00  0.00     0.016 C 
HETATM    6  C8  UNL     1      -8.067 -11.662   3.402  1.00  0.00     0.008 C 
HETATM    7  C9  UNL     1      -7.082 -10.642   2.739  1.00  0.00     0.020 C 
HETATM    8  C10 UNL     1      -7.232 -12.761   4.148  1.00  0.00     0.103 C 
HETATM    9  C11 UNL     1      -6.484 -13.658   3.147  1.00  0.00     0.047 C 
HETATM   10  C12 UNL     1      -7.431 -14.351   2.170  1.00  0.00     0.073 C 
HETATM   11  C13 UNL     1      -8.277 -13.375   1.327  1.00  0.00     0.180 C 
HETATM   12  O4  UNL     1      -7.353 -12.710   0.452  1.00  0.00    -0.320 OA
HETATM   13  C15 UNL     1      -7.935 -11.772  -0.482  1.00  0.00     0.302 C 
HETATM   14  O5  UNL     1      -6.871 -10.870  -0.796  1.00  0.00    -0.346 OA
HETATM   15  C16 UNL     1      -6.552 -10.628  -2.169  1.00  0.00     0.064 C 
HETATM   16  C17 UNL     1      -6.345 -11.909  -2.985  1.00  0.00     0.046 C 
HETATM   17  C18 UNL     1      -5.185  -9.911  -2.113  1.00  0.00     0.046 C 
HETATM   18  C19 UNL     1      -7.561  -9.632  -2.760  1.00  0.00     0.060 C 
HETATM   19  C20 UNL     1      -7.504  -9.255  -4.259  1.00  0.00     0.023 C 
HETATM   20  C21 UNL     1      -9.041  -9.078  -4.263  1.00  0.00     0.054 C 
HETATM   21  C22 UNL     1      -9.650  -7.716  -4.091  1.00  0.00    -0.078 C 
HETATM   22  C23 UNL     1      -9.080  -6.631  -4.640  1.00  0.00     0.015 C 
HETATM   23  C24 UNL     1     -10.966  -7.661  -3.339  1.00  0.00     0.073 C 
HETATM   24  C25 UNL     1     -10.924  -8.351  -1.992  1.00  0.00    -0.044 A 
HETATM   25  C26 UNL     1     -11.798  -7.961  -0.973  1.00  0.00     0.010 A 
HETATM   26  C27 UNL     1     -11.780  -8.595   0.270  1.00  0.00     0.031 A 
HETATM   27  C28 UNL     1     -10.842  -9.612   0.470  1.00  0.00     0.044 A 
HETATM   28  N1  UNL     1     -10.619 -10.388   1.587  1.00  0.00    -0.357 N 
HETATM   29  C29 UNL     1      -9.588 -11.252   1.354  1.00  0.00     0.036 A 
HETATM   30  C30 UNL     1      -9.106 -11.022   0.081  1.00  0.00     0.033 A 
HETATM   31  C31 UNL     1      -9.942 -10.025  -0.517  1.00  0.00     0.013 A 
HETATM   32  C32 UNL     1     -10.021  -9.423  -1.798  1.00  0.00    -0.003 A 
HETATM   33  C33 UNL     1      -9.084  -9.974  -2.946  1.00  0.00     0.100 C 
HETATM   34  C34 UNL     1      -9.052 -12.327   2.295  1.00  0.00     0.066 C 
HETATM   35  C35 UNL     1     -10.282 -13.061   2.910  1.00  0.00     0.029 C 
HETATM   36  C36 UNL     1      -6.322 -12.142   5.222  1.00  0.00     0.147 A 
HETATM   37  O7  UNL     1      -5.560 -13.198   5.887  1.00  0.00    -0.360 OA
HETATM   38  C37 UNL     1      -4.808 -12.206   5.193  1.00  0.00     0.194 A 
HETATM   39  C38 UNL     1      -4.033 -11.280   6.071  1.00  0.00     0.183 C 
HETATM   40  H40 UNL     1     -11.158 -10.329   2.440  1.00  0.00     0.166 HD
ENDROOT
BRANCH   1  41
HETATM   41  C2  UNL     1      -4.127  -9.995   8.296  1.00  0.00    -0.062 C 
HETATM   42  C1  UNL     1      -4.379  -9.912   9.616  1.00  0.00     0.016 C 
HETATM   43  C3  UNL     1      -3.036  -9.161   7.679  1.00  0.00     0.045 C 
ENDBRANCH   1  41
BRANCH  39  44
HETATM   44  O8  UNL     1      -3.737 -10.121   5.283  1.00  0.00    -0.390 OA
HETATM   45  H47 UNL     1      -3.853  -9.345   5.867  1.00  0.00     0.210 HD
ENDBRANCH  39  44
BRANCH   8  46
HETATM   46  O2  UNL     1      -8.122 -13.629   4.868  1.00  0.00    -0.386 OA
HETATM   47  H15 UNL     1      -7.555 -14.228   5.391  1.00  0.00     0.210 HD
ENDBRANCH   8  46
BRANCH  11  48
HETATM   48  O3  UNL     1      -9.248 -14.121   0.559  1.00  0.00    -0.359 OA
HETATM   49  C14 UNL     1      -8.846 -15.408   0.121  1.00  0.00     0.205 C 
ENDBRANCH  11  48
BRANCH  33  50
HETATM   50  O6  UNL     1      -9.394 -11.357  -3.267  1.00  0.00    -0.384 OA
HETATM   51  H41 UNL     1     -10.368 -11.392  -3.259  1.00  0.00     0.211 HD
ENDBRANCH  33  50
TORSDOF 5
ENDMDL
