MODEL 1
REMARK minimizedAffinity -8.31517982
REMARK CNNscore 0.55775249
REMARK CNNaffinity 6.48797798
REMARK  5 active torsions:
REMARK  status: ('A' for Active; 'I' for Inactive)
REMARK    1  A    between atoms: C2_2  and  C4_4 
REMARK    2  A    between atoms: C7_7  and  C8_8 
REMARK    3  A    between atoms: C8_8  and  O2_10 
REMARK    4  A    between atoms: C11_13  and  C12_14 
REMARK    5  A    between atoms: C12_14  and  O4_16 
ROOT
HETATM    1  C4  UNL     1       1.148   8.384  10.538  1.00  0.00     0.019 C 
HETATM    2  C5  UNL     1       2.650   7.999  10.411  1.00  0.00     0.011 C 
HETATM    3  C6  UNL     1       2.948   6.974  11.527  1.00  0.00     0.021 C 
HETATM    4  C7  UNL     1       1.838   7.224  12.558  1.00  0.00     0.050 C 
HETATM    5  C9  UNL     1       1.581   6.103  13.586  1.00  0.00     0.022 C 
HETATM    6  C10 UNL     1       0.226   5.384  13.460  1.00  0.00     0.023 C 
HETATM    7  C11 UNL     1      -1.057   6.247  13.126  1.00  0.00     0.057 C 
HETATM    8  C13 UNL     1      -0.642   7.575  12.398  1.00  0.00     0.011 C 
HETATM    9  C14 UNL     1      -1.822   8.280  11.741  1.00  0.00     0.007 C 
HETATM   10  C15 UNL     1      -3.115   8.115  12.557  1.00  0.00     0.006 C 
HETATM   11  C16 UNL     1      -2.872   7.972  14.087  1.00  0.00     0.003 C 
HETATM   12  C17 UNL     1      -4.177   8.214  15.014  1.00  0.00    -0.035 C 
HETATM   13  C18 UNL     1      -3.728   9.212  16.140  1.00  0.00     0.016 C 
HETATM   14  C19 UNL     1      -5.311   8.961  14.245  1.00  0.00     0.017 C 
HETATM   15  C20 UNL     1      -6.645   8.951  14.971  1.00  0.00     0.080 C 
HETATM   16  C21 UNL     1      -7.166   7.538  15.052  1.00  0.00     0.135 C 
HETATM   17  O5  UNL     1      -8.383   7.335  15.026  1.00  0.00    -0.297 OA
HETATM   18  C22 UNL     1      -6.143   6.391  15.183  1.00  0.00     0.017 C 
HETATM   19  C23 UNL     1      -6.770   5.370  16.168  1.00  0.00     0.023 C 
HETATM   20  C24 UNL     1      -6.033   5.704  13.816  1.00  0.00     0.023 C 
HETATM   21  C25 UNL     1      -4.785   6.958  15.760  1.00  0.00     0.009 C 
HETATM   22  C26 UNL     1      -3.725   5.905  16.107  1.00  0.00     0.007 C 
HETATM   23  C27 UNL     1      -2.825   5.547  14.941  1.00  0.00     0.011 C 
HETATM   24  C28 UNL     1      -1.950   6.704  14.417  1.00  0.00    -0.022 C 
HETATM   25  C29 UNL     1      -0.971   7.098  15.568  1.00  0.00     0.017 C 
HETATM   26  C30 UNL     1       0.638   7.373  11.584  1.00  0.00     0.018 C 
ENDROOT
BRANCH   4  27
HETATM   27  C8  UNL     1       2.314   8.445  13.368  1.00  0.00     0.149 C 
HETATM   28  O1  UNL     1       3.136   8.408  14.273  1.00  0.00    -0.649 OA
BRANCH  27  29
HETATM   29  O2  UNL     1       1.765   9.625  13.045  1.00  0.00    -0.776 OA
HETATM   30  H11 UNL     1       2.197  10.257  13.659  1.00  0.00     0.167 HD
ENDBRANCH  27  29
ENDBRANCH   4  27
BRANCH   1  31
HETATM   31  C2  UNL     1       0.499   8.451   9.165  1.00  0.00    -0.088 C 
HETATM   32  C1  UNL     1      -0.731   8.928   8.915  1.00  0.00     0.014 C 
HETATM   33  C3  UNL     1       1.340   7.904   8.040  1.00  0.00     0.043 C 
ENDBRANCH   1  31
BRANCH   7  34
HETATM   34  C12 UNL     1      -1.827   5.257  12.201  1.00  0.00     0.149 C 
HETATM   35  O3  UNL     1      -3.038   5.096  12.161  1.00  0.00    -0.649 OA
BRANCH  34  36
HETATM   36  O4  UNL     1      -1.071   4.433  11.462  1.00  0.00    -0.776 OA
HETATM   37  H16 UNL     1      -1.728   3.875  10.995  1.00  0.00     0.167 HD
ENDBRANCH  34  36
ENDBRANCH   7  34
TORSDOF 5
ENDMDL
MODEL 2
REMARK minimizedAffinity -6.14473534
REMARK CNNscore 0.525459051
REMARK CNNaffinity 5.83897781
REMARK  5 active torsions:
REMARK  status: ('A' for Active; 'I' for Inactive)
REMARK    1  A    between atoms: C2_2  and  C4_4 
REMARK    2  A    between atoms: C7_7  and  C8_8 
REMARK    3  A    between atoms: C8_8  and  O2_10 
REMARK    4  A    between atoms: C11_13  and  C12_14 
REMARK    5  A    between atoms: C12_14  and  O4_16 
ROOT
HETATM    1  C4  UNL     1     -18.094  -4.409  15.638  1.00  0.00     0.019 C 
HETATM    2  C5  UNL     1     -17.250  -5.708  15.488  1.00  0.00     0.011 C 
HETATM    3  C6  UNL     1     -15.798  -5.270  15.204  1.00  0.00     0.021 C 
HETATM    4  C7  UNL     1     -15.947  -3.844  14.654  1.00  0.00     0.050 C 
HETATM    5  C9  UNL     1     -14.683  -2.959  14.668  1.00  0.00     0.022 C 
HETATM    6  C10 UNL     1     -14.726  -1.755  15.627  1.00  0.00     0.023 C 
HETATM    7  C11 UNL     1     -16.076  -0.940  15.752  1.00  0.00     0.057 C 
HETATM    8  C13 UNL     1     -17.294  -1.842  15.343  1.00  0.00     0.011 C 
HETATM    9  C14 UNL     1     -18.633  -1.252  15.767  1.00  0.00     0.007 C 
HETATM   10  C15 UNL     1     -18.634   0.284  15.683  1.00  0.00     0.006 C 
HETATM   11  C16 UNL     1     -17.694   0.849  14.580  1.00  0.00     0.003 C 
HETATM   12  C17 UNL     1     -17.966   2.392  14.172  1.00  0.00    -0.035 C 
HETATM   13  C18 UNL     1     -18.027   2.419  12.602  1.00  0.00     0.016 C 
HETATM   14  C19 UNL     1     -19.372   2.881  14.637  1.00  0.00     0.017 C 
HETATM   15  C20 UNL     1     -19.554   4.387  14.538  1.00  0.00     0.080 C 
HETATM   16  C21 UNL     1     -18.620   5.073  15.502  1.00  0.00     0.135 C 
HETATM   17  O5  UNL     1     -18.964   6.134  16.031  1.00  0.00    -0.297 OA
HETATM   18  C22 UNL     1     -17.250   4.421  15.780  1.00  0.00     0.017 C 
HETATM   19  C23 UNL     1     -16.235   5.589  15.882  1.00  0.00     0.023 C 
HETATM   20  C24 UNL     1     -17.322   3.751  17.158  1.00  0.00     0.023 C 
HETATM   21  C25 UNL     1     -16.873   3.459  14.584  1.00  0.00     0.009 C 
HETATM   22  C26 UNL     1     -15.458   2.867  14.636  1.00  0.00     0.007 C 
HETATM   23  C27 UNL     1     -15.373   1.571  15.417  1.00  0.00     0.011 C 
HETATM   24  C28 UNL     1     -16.175   0.399  14.818  1.00  0.00    -0.022 C 
HETATM   25  C29 UNL     1     -15.540   0.068  13.430  1.00  0.00     0.017 C 
HETATM   26  C30 UNL     1     -17.010  -3.314  15.653  1.00  0.00     0.018 C 
ENDROOT
BRANCH   4  27
HETATM   27  C8  UNL     1     -16.323  -4.027  13.171  1.00  0.00     0.149 C 
HETATM   28  O1  UNL     1     -16.003  -4.984  12.480  1.00  0.00    -0.649 OA
BRANCH  27  29
HETATM   29  O2  UNL     1     -17.047  -3.046  12.615  1.00  0.00    -0.776 OA
HETATM   30  H11 UNL     1     -17.182  -3.351  11.692  1.00  0.00     0.167 HD
ENDBRANCH  27  29
ENDBRANCH   4  27
BRANCH   1  31
HETATM   31  C2  UNL     1     -19.063  -4.537  16.802  1.00  0.00    -0.088 C 
HETATM   32  C1  UNL     1     -20.398  -4.425  16.712  1.00  0.00     0.014 C 
HETATM   33  C3  UNL     1     -18.415  -4.785  18.141  1.00  0.00     0.043 C 
ENDBRANCH   1  31
BRANCH   7  34
HETATM   34  C12 UNL     1     -16.053  -0.594  17.271  1.00  0.00     0.149 C 
HETATM   35  O3  UNL     1     -16.498  -1.282  18.178  1.00  0.00    -0.649 OA
BRANCH  34  36
HETATM   36  O4  UNL     1     -15.597   0.626  17.590  1.00  0.00    -0.776 OA
HETATM   37  H16 UNL     1     -15.702   0.664  18.564  1.00  0.00     0.167 HD
ENDBRANCH  34  36
ENDBRANCH   7  34
TORSDOF 5
ENDMDL
MODEL 3
REMARK minimizedAffinity -6.57801485
REMARK CNNscore 0.382697433
REMARK CNNaffinity 5.8549943
REMARK  5 active torsions:
REMARK  status: ('A' for Active; 'I' for Inactive)
REMARK    1  A    between atoms: C2_2  and  C4_4 
REMARK    2  A    between atoms: C7_7  and  C8_8 
REMARK    3  A    between atoms: C8_8  and  O2_10 
REMARK    4  A    between atoms: C11_13  and  C12_14 
REMARK    5  A    between atoms: C12_14  and  O4_16 
ROOT
HETATM    1  C4  UNL     1     -11.509  10.427  22.042  1.00  0.00     0.019 C 
HETATM    2  C5  UNL     1     -11.713  11.706  21.180  1.00  0.00     0.011 C 
HETATM    3  C6  UNL     1     -13.123  11.611  20.560  1.00  0.00     0.021 C 
HETATM    4  C7  UNL     1     -13.441  10.109  20.605  1.00  0.00     0.050 C 
HETATM    5  C9  UNL     1     -14.923   9.709  20.460  1.00  0.00     0.022 C 
HETATM    6  C10 UNL     1     -15.568   9.086  21.712  1.00  0.00     0.023 C 
HETATM    7  C11 UNL     1     -14.715   8.069  22.572  1.00  0.00     0.057 C 
HETATM    8  C13 UNL     1     -13.182   8.324  22.349  1.00  0.00     0.011 C 
HETATM    9  C14 UNL     1     -12.312   7.632  23.392  1.00  0.00     0.007 C 
HETATM   10  C15 UNL     1     -12.905   6.282  23.827  1.00  0.00     0.006 C 
HETATM   11  C16 UNL     1     -13.734   5.577  22.716  1.00  0.00     0.003 C 
HETATM   12  C17 UNL     1     -14.019   4.003  22.967  1.00  0.00    -0.035 C 
HETATM   13  C18 UNL     1     -13.641   3.277  21.626  1.00  0.00     0.016 C 
HETATM   14  C19 UNL     1     -13.057   3.397  24.036  1.00  0.00     0.017 C 
HETATM   15  C20 UNL     1     -13.474   2.016  24.512  1.00  0.00     0.080 C 
HETATM   16  C21 UNL     1     -14.785   2.109  25.251  1.00  0.00     0.135 C 
HETATM   17  O5  UNL     1     -15.013   1.338  26.186  1.00  0.00    -0.297 OA
HETATM   18  C22 UNL     1     -15.807   3.169  24.790  1.00  0.00     0.017 C 
HETATM   19  C23 UNL     1     -17.200   2.496  24.904  1.00  0.00     0.023 C 
HETATM   20  C24 UNL     1     -15.769   4.325  25.798  1.00  0.00     0.023 C 
HETATM   21  C25 UNL     1     -15.507   3.574  23.292  1.00  0.00     0.009 C 
HETATM   22  C26 UNL     1     -16.545   4.495  22.637  1.00  0.00     0.007 C 
HETATM   23  C27 UNL     1     -16.270   5.969  22.861  1.00  0.00     0.011 C 
HETATM   24  C28 UNL     1     -14.960   6.487  22.234  1.00  0.00    -0.022 C 
HETATM   25  C29 UNL     1     -15.100   6.340  20.686  1.00  0.00     0.017 C 
HETATM   26  C30 UNL     1     -12.915   9.797  22.031  1.00  0.00     0.018 C 
ENDROOT
BRANCH   4  27
HETATM   27  C8  UNL     1     -12.717   9.513  19.382  1.00  0.00     0.149 C 
HETATM   28  O1  UNL     1     -12.830   9.920  18.234  1.00  0.00    -0.649 OA
BRANCH  27  29
HETATM   29  O2  UNL     1     -11.917   8.463  19.617  1.00  0.00    -0.776 OA
HETATM   30  H11 UNL     1     -11.556   8.244  18.731  1.00  0.00     0.167 HD
ENDBRANCH  27  29
ENDBRANCH   4  27
BRANCH   1  31
HETATM   31  C2  UNL     1     -10.841  10.776  23.362  1.00  0.00    -0.088 C 
HETATM   32  C1  UNL     1      -9.987  11.795  23.549  1.00  0.00     0.014 C 
HETATM   33  C3  UNL     1     -11.186   9.859  24.508  1.00  0.00     0.043 C 
ENDBRANCH   1  31
BRANCH   7  34
HETATM   34  C12 UNL     1     -15.196   8.443  24.006  1.00  0.00     0.149 C 
HETATM   35  O3  UNL     1     -14.862   9.427  24.649  1.00  0.00    -0.649 OA
BRANCH  34  36
HETATM   36  O4  UNL     1     -15.966   7.536  24.624  1.00  0.00    -0.776 OA
HETATM   37  H16 UNL     1     -16.123   7.930  25.507  1.00  0.00     0.167 HD
ENDBRANCH  34  36
ENDBRANCH   7  34
TORSDOF 5
ENDMDL
MODEL 4
REMARK minimizedAffinity -5.81858158
REMARK CNNscore 0.3551673
REMARK CNNaffinity 5.58941698
REMARK  5 active torsions:
REMARK  status: ('A' for Active; 'I' for Inactive)
REMARK    1  A    between atoms: C2_2  and  C4_4 
REMARK    2  A    between atoms: C7_7  and  C8_8 
REMARK    3  A    between atoms: C8_8  and  O2_10 
REMARK    4  A    between atoms: C11_13  and  C12_14 
REMARK    5  A    between atoms: C12_14  and  O4_16 
ROOT
HETATM    1  C4  UNL     1     -19.512  -4.834  15.995  1.00  0.00     0.019 C 
HETATM    2  C5  UNL     1     -18.987  -6.258  16.340  1.00  0.00     0.011 C 
HETATM    3  C6  UNL     1     -17.449  -6.162  16.420  1.00  0.00     0.021 C 
HETATM    4  C7  UNL     1     -17.117  -4.907  15.598  1.00  0.00     0.050 C 
HETATM    5  C9  UNL     1     -15.725  -4.281  15.819  1.00  0.00     0.022 C 
HETATM    6  C10 UNL     1     -15.721  -2.892  16.485  1.00  0.00     0.023 C 
HETATM    7  C11 UNL     1     -16.830  -1.848  16.057  1.00  0.00     0.057 C 
HETATM    8  C13 UNL     1     -18.084  -2.595  15.481  1.00  0.00     0.011 C 
HETATM    9  C14 UNL     1     -19.309  -1.695  15.377  1.00  0.00     0.007 C 
HETATM   10  C15 UNL     1     -18.929  -0.249  15.016  1.00  0.00     0.006 C 
HETATM   11  C16 UNL     1     -17.639  -0.141  14.153  1.00  0.00     0.003 C 
HETATM   12  C17 UNL     1     -17.431   1.280  13.407  1.00  0.00    -0.035 C 
HETATM   13  C18 UNL     1     -17.093   0.938  11.911  1.00  0.00     0.016 C 
HETATM   14  C19 UNL     1     -18.753   2.106  13.340  1.00  0.00     0.017 C 
HETATM   15  C20 UNL     1     -18.546   3.551  12.917  1.00  0.00     0.080 C 
HETATM   16  C21 UNL     1     -17.747   4.276  13.970  1.00  0.00     0.135 C 
HETATM   17  O5  UNL     1     -17.951   5.476  14.170  1.00  0.00    -0.297 OA
HETATM   18  C22 UNL     1     -16.681   3.481  14.753  1.00  0.00     0.017 C 
HETATM   19  C23 UNL     1     -15.478   4.443  14.932  1.00  0.00     0.023 C 
HETATM   20  C24 UNL     1     -17.248   3.187  16.148  1.00  0.00     0.023 C 
HETATM   21  C25 UNL     1     -16.256   2.208  13.919  1.00  0.00     0.009 C 
HETATM   22  C26 UNL     1     -15.077   1.408  14.491  1.00  0.00     0.007 C 
HETATM   23  C27 UNL     1     -15.496   0.345  15.488  1.00  0.00     0.011 C 
HETATM   24  C28 UNL     1     -16.377  -0.779  14.905  1.00  0.00    -0.022 C 
HETATM   25  C29 UNL     1     -15.513  -1.541  13.850  1.00  0.00     0.017 C 
HETATM   26  C30 UNL     1     -18.240  -3.975  16.125  1.00  0.00     0.018 C 
ENDROOT
BRANCH   4  27
HETATM   27  C8  UNL     1     -17.146  -5.375  14.130  1.00  0.00     0.149 C 
HETATM   28  O1  UNL     1     -16.748  -6.461  13.733  1.00  0.00    -0.649 OA
BRANCH  27  29
HETATM   29  O2  UNL     1     -17.639  -4.505  13.237  1.00  0.00    -0.776 OA
HETATM   30  H11 UNL     1     -17.576  -4.986  12.385  1.00  0.00     0.167 HD
ENDBRANCH  27  29
ENDBRANCH   4  27
BRANCH   1  31
HETATM   31  C2  UNL     1     -20.742  -4.505  16.826  1.00  0.00    -0.088 C 
HETATM   32  C1  UNL     1     -22.012  -4.627  16.408  1.00  0.00     0.014 C 
HETATM   33  C3  UNL     1     -20.449  -3.985  18.210  1.00  0.00     0.043 C 
ENDBRANCH   1  31
BRANCH   7  34
HETATM   34  C12 UNL     1     -17.103  -1.154  17.424  1.00  0.00     0.149 C 
HETATM   35  O3  UNL     1     -17.806  -0.172  17.611  1.00  0.00    -0.649 OA
BRANCH  34  36
HETATM   36  O4  UNL     1     -16.411  -1.623  18.472  1.00  0.00    -0.776 OA
HETATM   37  H16 UNL     1     -16.686  -1.041  19.210  1.00  0.00     0.167 HD
ENDBRANCH  34  36
ENDBRANCH   7  34
TORSDOF 5
ENDMDL
MODEL 5
REMARK minimizedAffinity -6.78867912
REMARK CNNscore 0.293966204
REMARK CNNaffinity 5.83008146
REMARK  5 active torsions:
REMARK  status: ('A' for Active; 'I' for Inactive)
REMARK    1  A    between atoms: C2_2  and  C4_4 
REMARK    2  A    between atoms: C7_7  and  C8_8 
REMARK    3  A    between atoms: C8_8  and  O2_10 
REMARK    4  A    between atoms: C11_13  and  C12_14 
REMARK    5  A    between atoms: C12_14  and  O4_16 
ROOT
HETATM    1  C4  UNL     1       4.232  10.556  22.258  1.00  0.00     0.019 C 
HETATM    2  C5  UNL     1       5.505  11.016  23.027  1.00  0.00     0.011 C 
HETATM    3  C6  UNL     1       5.889  12.403  22.469  1.00  0.00     0.021 C 
HETATM    4  C7  UNL     1       5.221  12.439  21.087  1.00  0.00     0.050 C 
HETATM    5  C9  UNL     1       5.044  13.827  20.438  1.00  0.00     0.022 C 
HETATM    6  C10 UNL     1       3.589  14.310  20.288  1.00  0.00     0.023 C 
HETATM    7  C11 UNL     1       2.488  13.259  19.857  1.00  0.00     0.057 C 
HETATM    8  C13 UNL     1       2.948  11.806  20.233  1.00  0.00     0.011 C 
HETATM    9  C14 UNL     1       1.811  10.794  20.171  1.00  0.00     0.007 C 
HETATM   10  C15 UNL     1       0.818  11.117  19.042  1.00  0.00     0.006 C 
HETATM   11  C16 UNL     1       1.469  11.835  17.825  1.00  0.00     0.003 C 
HETATM   12  C17 UNL     1       0.587  11.820  16.468  1.00  0.00    -0.035 C 
HETATM   13  C18 UNL     1       1.561  11.356  15.326  1.00  0.00     0.016 C 
HETATM   14  C19 UNL     1      -0.531  10.732  16.508  1.00  0.00     0.017 C 
HETATM   15  C20 UNL     1      -1.556  10.875  15.395  1.00  0.00     0.080 C 
HETATM   16  C21 UNL     1      -2.325  12.158  15.577  1.00  0.00     0.135 C 
HETATM   17  O5  UNL     1      -3.508  12.213  15.229  1.00  0.00    -0.297 OA
HETATM   18  C22 UNL     1      -1.588  13.370  16.184  1.00  0.00     0.017 C 
HETATM   19  C23 UNL     1      -2.101  14.612  15.409  1.00  0.00     0.023 C 
HETATM   20  C24 UNL     1      -2.046  13.514  17.641  1.00  0.00     0.023 C 
HETATM   21  C25 UNL     1      -0.030  13.194  15.984  1.00  0.00     0.009 C 
HETATM   22  C26 UNL     1       0.826  14.402  16.385  1.00  0.00     0.007 C 
HETATM   23  C27 UNL     1       1.235  14.395  17.845  1.00  0.00     0.011 C 
HETATM   24  C28 UNL     1       2.145  13.222  18.258  1.00  0.00    -0.022 C 
HETATM   25  C29 UNL     1       3.485  13.378  17.472  1.00  0.00     0.017 C 
HETATM   26  C30 UNL     1       3.849  11.823  21.470  1.00  0.00     0.018 C 
ENDROOT
BRANCH   4  27
HETATM   27  C8  UNL     1       6.174  11.655  20.164  1.00  0.00     0.149 C 
HETATM   28  O1  UNL     1       5.823  10.813  19.348  1.00  0.00    -0.649 OA
BRANCH  27  29
HETATM   29  O2  UNL     1       7.480  11.925  20.288  1.00  0.00    -0.776 OA
HETATM   30  H11 UNL     1       7.903  11.340  19.625  1.00  0.00     0.167 HD
ENDBRANCH  27  29
ENDBRANCH   4  27
BRANCH   1  31
HETATM   31  C2  UNL     1       3.234   9.924  23.215  1.00  0.00    -0.088 C 
HETATM   32  C1  UNL     1       2.746  10.511  24.320  1.00  0.00     0.014 C 
HETATM   33  C3  UNL     1       2.813   8.522  22.856  1.00  0.00     0.043 C 
ENDBRANCH   1  31
BRANCH   7  34
HETATM   34  C12 UNL     1       1.279  13.758  20.704  1.00  0.00     0.149 C 
HETATM   35  O3  UNL     1       0.108  13.775  20.355  1.00  0.00    -0.649 OA
BRANCH  34  36
HETATM   36  O4  UNL     1       1.578  14.319  21.883  1.00  0.00    -0.776 OA
HETATM   37  H16 UNL     1       0.707  14.599  22.234  1.00  0.00     0.167 HD
ENDBRANCH  34  36
ENDBRANCH   7  34
TORSDOF 5
ENDMDL
MODEL 6
REMARK minimizedAffinity -6.22981691
REMARK CNNscore 0.257436246
REMARK CNNaffinity 5.25409603
REMARK  5 active torsions:
REMARK  status: ('A' for Active; 'I' for Inactive)
REMARK    1  A    between atoms: C2_2  and  C4_4 
REMARK    2  A    between atoms: C7_7  and  C8_8 
REMARK    3  A    between atoms: C8_8  and  O2_10 
REMARK    4  A    between atoms: C11_13  and  C12_14 
REMARK    5  A    between atoms: C12_14  and  O4_16 
ROOT
HETATM    1  C4  UNL     1     -19.210  -4.497  17.276  1.00  0.00     0.019 C 
HETATM    2  C5  UNL     1     -19.699  -3.542  18.404  1.00  0.00     0.011 C 
HETATM    3  C6  UNL     1     -19.057  -2.164  18.136  1.00  0.00     0.021 C 
HETATM    4  C7  UNL     1     -17.837  -2.494  17.263  1.00  0.00     0.050 C 
HETATM    5  C9  UNL     1     -17.218  -1.326  16.467  1.00  0.00     0.022 C 
HETATM    6  C10 UNL     1     -17.358  -1.418  14.936  1.00  0.00     0.023 C 
HETATM    7  C11 UNL     1     -17.172  -2.829  14.246  1.00  0.00     0.057 C 
HETATM    8  C13 UNL     1     -17.468  -3.978  15.274  1.00  0.00     0.011 C 
HETATM    9  C14 UNL     1     -17.651  -5.334  14.604  1.00  0.00     0.007 C 
HETATM   10  C15 UNL     1     -16.741  -5.493  13.374  1.00  0.00     0.006 C 
HETATM   11  C16 UNL     1     -15.408  -4.697  13.478  1.00  0.00     0.003 C 
HETATM   12  C17 UNL     1     -14.257  -5.149  12.434  1.00  0.00    -0.035 C 
HETATM   13  C18 UNL     1     -12.948  -5.328  13.284  1.00  0.00     0.016 C 
HETATM   14  C19 UNL     1     -14.537  -6.560  11.828  1.00  0.00     0.017 C 
HETATM   15  C20 UNL     1     -13.652  -6.896  10.639  1.00  0.00     0.080 C 
HETATM   16  C21 UNL     1     -13.967  -5.967   9.495  1.00  0.00     0.135 C 
HETATM   17  O5  UNL     1     -13.864  -6.374   8.334  1.00  0.00    -0.297 OA
HETATM   18  C22 UNL     1     -14.396  -4.522   9.825  1.00  0.00     0.017 C 
HETATM   19  C23 UNL     1     -13.723  -3.623   8.755  1.00  0.00     0.023 C 
HETATM   20  C24 UNL     1     -15.913  -4.426   9.620  1.00  0.00     0.023 C 
HETATM   21  C25 UNL     1     -13.888  -4.140  11.272  1.00  0.00     0.009 C 
HETATM   22  C26 UNL     1     -14.091  -2.673  11.676  1.00  0.00     0.007 C 
HETATM   23  C27 UNL     1     -15.439  -2.404  12.316  1.00  0.00     0.011 C 
HETATM   24  C28 UNL     1     -15.676  -3.128  13.656  1.00  0.00    -0.022 C 
HETATM   25  C29 UNL     1     -14.634  -2.567  14.675  1.00  0.00     0.017 C 
HETATM   26  C30 UNL     1     -18.498  -3.528  16.313  1.00  0.00     0.018 C 
ENDROOT
BRANCH   4  27
HETATM   27  C8  UNL     1     -16.752  -2.958  18.253  1.00  0.00     0.149 C 
HETATM   28  O1  UNL     1     -16.430  -2.358  19.270  1.00  0.00    -0.649 OA
BRANCH  27  29
HETATM   29  O2  UNL     1     -16.120  -4.100  17.953  1.00  0.00    -0.776 OA
HETATM   30  H11 UNL     1     -15.488  -4.218  18.693  1.00  0.00     0.167 HD
ENDBRANCH  27  29
ENDBRANCH   4  27
BRANCH   1  31
HETATM   31  C2  UNL     1     -20.357  -5.360  16.777  1.00  0.00    -0.088 C 
HETATM   32  C1  UNL     1     -20.529  -6.660  17.068  1.00  0.00     0.014 C 
HETATM   33  C3  UNL     1     -21.333  -4.654  15.870  1.00  0.00     0.043 C 
ENDBRANCH   1  31
BRANCH   7  34
HETATM   34  C12 UNL     1     -18.239  -2.729  13.115  1.00  0.00     0.149 C 
HETATM   35  O3  UNL     1     -19.436  -2.528  13.262  1.00  0.00    -0.649 OA
BRANCH  34  36
HETATM   36  O4  UNL     1     -17.808  -2.998  11.874  1.00  0.00    -0.776 OA
HETATM   37  H16 UNL     1     -18.618  -2.925  11.328  1.00  0.00     0.167 HD
ENDBRANCH  34  36
ENDBRANCH   7  34
TORSDOF 5
ENDMDL
MODEL 7
REMARK minimizedAffinity -8.20600986
REMARK CNNscore 0.24850668
REMARK CNNaffinity 5.79103518
REMARK  5 active torsions:
REMARK  status: ('A' for Active; 'I' for Inactive)
REMARK    1  A    between atoms: C2_2  and  C4_4 
REMARK    2  A    between atoms: C7_7  and  C8_8 
REMARK    3  A    between atoms: C8_8  and  O2_10 
REMARK    4  A    between atoms: C11_13  and  C12_14 
REMARK    5  A    between atoms: C12_14  and  O4_16 
ROOT
HETATM    1  C4  UNL     1       2.766   6.662  11.421  1.00  0.00     0.019 C 
HETATM    2  C5  UNL     1       1.222   6.812  11.538  1.00  0.00     0.011 C 
HETATM    3  C6  UNL     1       0.956   8.038  12.437  1.00  0.00     0.021 C 
HETATM    4  C7  UNL     1       2.258   8.196  13.235  1.00  0.00     0.050 C 
HETATM    5  C9  UNL     1       2.497   9.561  13.911  1.00  0.00     0.022 C 
HETATM    6  C10 UNL     1       3.663  10.390  13.342  1.00  0.00     0.023 C 
HETATM    7  C11 UNL     1       4.995   9.637  12.938  1.00  0.00     0.057 C 
HETATM    8  C13 UNL     1       4.692   8.128  12.628  1.00  0.00     0.011 C 
HETATM    9  C14 UNL     1       5.840   7.434  11.905  1.00  0.00     0.007 C 
HETATM   10  C15 UNL     1       7.209   7.959  12.368  1.00  0.00     0.006 C 
HETATM   11  C16 UNL     1       7.223   8.450  13.844  1.00  0.00     0.003 C 
HETATM   12  C17 UNL     1       8.694   8.613  14.499  1.00  0.00    -0.035 C 
HETATM   13  C18 UNL     1       8.632   7.880  15.888  1.00  0.00     0.016 C 
HETATM   14  C19 UNL     1       9.784   7.844  13.689  1.00  0.00     0.017 C 
HETATM   15  C20 UNL     1      11.204   8.203  14.091  1.00  0.00     0.080 C 
HETATM   16  C21 UNL     1      11.479   9.645  13.745  1.00  0.00     0.135 C 
HETATM   17  O5  UNL     1      12.618   9.985  13.414  1.00  0.00    -0.297 OA
HETATM   18  C22 UNL     1      10.313  10.651  13.836  1.00  0.00     0.017 C 
HETATM   19  C23 UNL     1      10.921  11.956  14.414  1.00  0.00     0.023 C 
HETATM   20  C24 UNL     1       9.844  10.954  12.407  1.00  0.00     0.023 C 
HETATM   21  C25 UNL     1       9.199  10.081  14.802  1.00  0.00     0.009 C 
HETATM   22  C26 UNL     1       8.052  11.047  15.127  1.00  0.00     0.007 C 
HETATM   23  C27 UNL     1       6.911  10.986  14.131  1.00  0.00     0.011 C 
HETATM   24  C28 UNL     1       6.170   9.634  14.076  1.00  0.00    -0.022 C 
HETATM   25  C29 UNL     1       5.494   9.422  15.468  1.00  0.00     0.017 C 
HETATM   26  C30 UNL     1       3.272   7.958  12.084  1.00  0.00     0.018 C 
ENDROOT
BRANCH   4  27
HETATM   27  C8  UNL     1       2.153   7.167  14.377  1.00  0.00     0.149 C 
HETATM   28  O1  UNL     1       2.686   7.279  15.472  1.00  0.00    -0.649 OA
BRANCH  27  29
HETATM   29  O2  UNL     1       1.425   6.070  14.125  1.00  0.00    -0.776 OA
HETATM   30  H11 UNL     1       1.479   5.559  14.961  1.00  0.00     0.167 HD
ENDBRANCH  27  29
ENDBRANCH   4  27
BRANCH   1  31
HETATM   31  C2  UNL     1       3.162   6.335   9.990  1.00  0.00    -0.088 C 
HETATM   32  C1  UNL     1       3.355   5.097   9.507  1.00  0.00     0.014 C 
HETATM   33  C3  UNL     1       3.359   7.534   9.098  1.00  0.00     0.043 C 
ENDBRANCH   1  31
BRANCH   7  34
HETATM   34  C12 UNL     1       5.405  10.452  11.675  1.00  0.00     0.149 C 
HETATM   35  O3  UNL     1       5.902  10.003  10.653  1.00  0.00    -0.649 OA
BRANCH  34  36
HETATM   36  O4  UNL     1       5.297  11.785  11.774  1.00  0.00    -0.776 OA
HETATM   37  H16 UNL     1       5.636  12.108  10.913  1.00  0.00     0.167 HD
ENDBRANCH  34  36
ENDBRANCH   7  34
TORSDOF 5
ENDMDL
MODEL 8
REMARK minimizedAffinity -6.47421217
REMARK CNNscore 0.240578547
REMARK CNNaffinity 5.65737295
REMARK  5 active torsions:
REMARK  status: ('A' for Active; 'I' for Inactive)
REMARK    1  A    between atoms: C2_2  and  C4_4 
REMARK    2  A    between atoms: C7_7  and  C8_8 
REMARK    3  A    between atoms: C8_8  and  O2_10 
REMARK    4  A    between atoms: C11_13  and  C12_14 
REMARK    5  A    between atoms: C12_14  and  O4_16 
ROOT
HETATM    1  C4  UNL     1     -13.971  -4.973  29.372  1.00  0.00     0.019 C 
HETATM    2  C5  UNL     1     -15.057  -3.861  29.448  1.00  0.00     0.011 C 
HETATM    3  C6  UNL     1     -16.422  -4.553  29.245  1.00  0.00     0.021 C 
HETATM    4  C7  UNL     1     -16.066  -5.860  28.522  1.00  0.00     0.050 C 
HETATM    5  C9  UNL     1     -17.129  -6.978  28.545  1.00  0.00     0.022 C 
HETATM    6  C10 UNL     1     -16.753  -8.235  29.350  1.00  0.00     0.023 C 
HETATM    7  C11 UNL     1     -15.267  -8.771  29.261  1.00  0.00     0.057 C 
HETATM    8  C13 UNL     1     -14.296  -7.607  28.853  1.00  0.00     0.011 C 
HETATM    9  C14 UNL     1     -12.831  -7.955  29.086  1.00  0.00     0.007 C 
HETATM   10  C15 UNL     1     -12.547  -9.444  28.825  1.00  0.00     0.006 C 
HETATM   11  C16 UNL     1     -13.477 -10.077  27.751  1.00  0.00     0.003 C 
HETATM   12  C17 UNL     1     -12.963 -11.487  27.145  1.00  0.00    -0.035 C 
HETATM   13  C18 UNL     1     -13.069 -11.351  25.583  1.00  0.00     0.016 C 
HETATM   14  C19 UNL     1     -11.447 -11.727  27.424  1.00  0.00     0.017 C 
HETATM   15  C20 UNL     1     -10.994 -13.149  27.136  1.00  0.00     0.080 C 
HETATM   16  C21 UNL     1     -11.669 -14.098  28.093  1.00  0.00     0.135 C 
HETATM   17  O5  UNL     1     -11.074 -15.114  28.463  1.00  0.00    -0.297 OA
HETATM   18  C22 UNL     1     -13.099 -13.764  28.564  1.00  0.00     0.017 C 
HETATM   19  C23 UNL     1     -13.857 -15.116  28.619  1.00  0.00     0.023 C 
HETATM   20  C24 UNL     1     -13.006 -13.229  29.999  1.00  0.00     0.023 C 
HETATM   21  C25 UNL     1     -13.781 -12.787  27.526  1.00  0.00     0.009 C 
HETATM   22  C26 UNL     1     -15.269 -12.499  27.771  1.00  0.00     0.007 C 
HETATM   23  C27 UNL     1     -15.512 -11.328  28.701  1.00  0.00     0.011 C 
HETATM   24  C28 UNL     1     -15.018  -9.966  28.173  1.00  0.00    -0.022 C 
HETATM   25  C29 UNL     1     -15.852  -9.637  26.894  1.00  0.00     0.017 C 
HETATM   26  C30 UNL     1     -14.819  -6.259  29.355  1.00  0.00     0.018 C 
ENDROOT
BRANCH   4  27
HETATM   27  C8  UNL     1     -15.895  -5.464  27.043  1.00  0.00     0.149 C 
HETATM   28  O1  UNL     1     -16.063  -4.337  26.597  1.00  0.00    -0.649 OA
BRANCH  27  29
HETATM   29  O2  UNL     1     -15.548  -6.445  26.199  1.00  0.00    -0.776 OA
HETATM   30  H11 UNL     1     -15.487  -5.993  25.331  1.00  0.00     0.167 HD
ENDBRANCH  27  29
ENDBRANCH   4  27
BRANCH   1  31
HETATM   31  C2  UNL     1     -12.923  -4.766  30.453  1.00  0.00    -0.088 C 
HETATM   32  C1  UNL     1     -11.596  -4.856  30.269  1.00  0.00     0.014 C 
HETATM   33  C3  UNL     1     -13.477  -4.461  31.822  1.00  0.00     0.043 C 
ENDBRANCH   1  31
BRANCH   7  34
HETATM   34  C12 UNL     1     -15.058  -9.259  30.726  1.00  0.00     0.149 C 
HETATM   35  O3  UNL     1     -15.854  -9.901  31.396  1.00  0.00    -0.649 OA
BRANCH  34  36
HETATM   36  O4  UNL     1     -13.941  -8.836  31.333  1.00  0.00    -0.776 OA
HETATM   37  H16 UNL     1     -14.015  -9.208  32.237  1.00  0.00     0.167 HD
ENDBRANCH  34  36
ENDBRANCH   7  34
TORSDOF 5
ENDMDL
MODEL 9
REMARK minimizedAffinity -6.41006231
REMARK CNNscore 0.234044418
REMARK CNNaffinity 5.3781085
REMARK  5 active torsions:
REMARK  status: ('A' for Active; 'I' for Inactive)
REMARK    1  A    between atoms: C2_2  and  C4_4 
REMARK    2  A    between atoms: C7_7  and  C8_8 
REMARK    3  A    between atoms: C8_8  and  O2_10 
REMARK    4  A    between atoms: C11_13  and  C12_14 
REMARK    5  A    between atoms: C12_14  and  O4_16 
ROOT
HETATM    1  C4  UNL     1      -6.589  -9.238   9.469  1.00  0.00     0.019 C 
HETATM    2  C5  UNL     1      -5.230  -9.705  10.067  1.00  0.00     0.011 C 
HETATM    3  C6  UNL     1      -5.543 -10.382  11.419  1.00  0.00     0.021 C 
HETATM    4  C7  UNL     1      -6.911  -9.803  11.809  1.00  0.00     0.050 C 
HETATM    5  C9  UNL     1      -7.709 -10.574  12.881  1.00  0.00     0.022 C 
HETATM    6  C10 UNL     1      -9.006 -11.242  12.389  1.00  0.00     0.023 C 
HETATM    7  C11 UNL     1      -9.915 -10.456  11.359  1.00  0.00     0.057 C 
HETATM    8  C13 UNL     1      -9.055  -9.409  10.568  1.00  0.00     0.011 C 
HETATM    9  C14 UNL     1      -9.770  -8.871   9.335  1.00  0.00     0.007 C 
HETATM   10  C15 UNL     1     -11.286  -8.743   9.563  1.00  0.00     0.006 C 
HETATM   11  C16 UNL     1     -11.672  -8.456  11.042  1.00  0.00     0.003 C 
HETATM   12  C17 UNL     1     -13.179  -7.906  11.262  1.00  0.00    -0.035 C 
HETATM   13  C18 UNL     1     -13.047  -6.648  12.195  1.00  0.00     0.016 C 
HETATM   14  C19 UNL     1     -13.803  -7.361   9.940  1.00  0.00     0.017 C 
HETATM   15  C20 UNL     1     -15.298  -7.109  10.034  1.00  0.00     0.080 C 
HETATM   16  C21 UNL     1     -16.020  -8.418  10.235  1.00  0.00     0.135 C 
HETATM   17  O5  UNL     1     -17.150  -8.569   9.762  1.00  0.00    -0.297 OA
HETATM   18  C22 UNL     1     -15.314  -9.522  11.048  1.00  0.00     0.017 C 
HETATM   19  C23 UNL     1     -16.419 -10.193  11.905  1.00  0.00     0.023 C 
HETATM   20  C24 UNL     1     -14.796 -10.574  10.058  1.00  0.00     0.023 C 
HETATM   21  C25 UNL     1     -14.211  -8.871  11.975  1.00  0.00     0.009 C 
HETATM   22  C26 UNL     1     -13.538  -9.826  12.970  1.00  0.00     0.007 C 
HETATM   23  C27 UNL     1     -12.327 -10.538  12.400  1.00  0.00     0.011 C 
HETATM   24  C28 UNL     1     -11.153  -9.615  12.018  1.00  0.00    -0.022 C 
HETATM   25  C29 UNL     1     -10.640  -8.951  13.335  1.00  0.00     0.017 C 
HETATM   26  C30 UNL     1      -7.608  -9.887  10.425  1.00  0.00     0.018 C 
ENDROOT
BRANCH   4  27
HETATM   27  C8  UNL     1      -6.599  -8.423  12.420  1.00  0.00     0.149 C 
HETATM   28  O1  UNL     1      -6.675  -7.359  11.820  1.00  0.00    -0.649 OA
BRANCH  27  29
HETATM   29  O2  UNL     1      -6.209  -8.413  13.702  1.00  0.00    -0.776 OA
HETATM   30  H11 UNL     1      -6.070  -7.461  13.894  1.00  0.00     0.167 HD
ENDBRANCH  27  29
ENDBRANCH   4  27
BRANCH   1  31
HETATM   31  C2  UNL     1      -6.645  -9.536   7.980  1.00  0.00    -0.088 C 
HETATM   32  C1  UNL     1      -7.404 -10.486   7.411  1.00  0.00     0.014 C 
HETATM   33  C3  UNL     1      -5.739  -8.683   7.129  1.00  0.00     0.043 C 
ENDBRANCH   1  31
BRANCH   7  34
HETATM   34  C12 UNL     1     -10.414 -11.635  10.472  1.00  0.00     0.149 C 
HETATM   35  O3  UNL     1     -11.558 -11.811  10.076  1.00  0.00    -0.649 OA
BRANCH  34  36
HETATM   36  O4  UNL     1      -9.519 -12.600  10.215  1.00  0.00    -0.776 OA
HETATM   37  H16 UNL     1     -10.029 -13.254   9.692  1.00  0.00     0.167 HD
ENDBRANCH  34  36
ENDBRANCH   7  34
TORSDOF 5
ENDMDL
