MODEL 1
REMARK minimizedAffinity -9.37323189
REMARK CNNscore 0.320279032
REMARK CNNaffinity 6.86923218
REMARK  12 active torsions:
REMARK  status: ('A' for Active; 'I' for Inactive)
REMARK    1  A    between atoms: C3_3  and  O1_4 
REMARK    2  A    between atoms: N1_14  and  O2_16 
REMARK    3  A    between atoms: O2_16  and  C13_17 
REMARK    4  A    between atoms: C13_17  and  C14_18 
REMARK       I    between atoms: C14_18  and  N2_20 
REMARK    5  A    between atoms: N2_20  and  C15_21 
REMARK    6  A    between atoms: C15_21  and  C16_22 
REMARK    7  A    between atoms: C15_21  and  C27_38 
REMARK       I    between atoms: C16_22  and  N3_24 
REMARK    8  A    between atoms: N3_24  and  C17_25 
REMARK    9  A    between atoms: C17_25  and  C18_26 
REMARK   10  A    between atoms: C17_25  and  C20_30 
REMARK   11  A    between atoms: C18_26  and  C19_27 
REMARK   12  A    between atoms: C19_27  and  O6_29 
ROOT
HETATM    1  C1  UNL     1      -7.276   8.235  15.557  1.00  0.00     0.015 C 
HETATM    2  C2  UNL     1      -6.379   7.526  15.187  1.00  0.00    -0.078 C 
HETATM    3  C3  UNL     1      -5.284   6.645  14.752  1.00  0.00     0.128 C 
HETATM    4  C4  UNL     1      -5.791   5.466  13.919  1.00  0.00     0.052 C 
HETATM    5  C5  UNL     1      -4.502   4.903  13.330  1.00  0.00     0.010 C 
HETATM    6  C6  UNL     1      -3.725   6.153  12.898  1.00  0.00     0.002 C 
HETATM    7  C7  UNL     1      -2.196   5.987  12.729  1.00  0.00    -0.004 C 
HETATM    8  C8  UNL     1      -1.469   5.124  13.783  1.00  0.00     0.010 C 
HETATM    9  C9  UNL     1       0.047   5.047  13.547  1.00  0.00     0.035 C 
HETATM   10  C10 UNL     1       0.648   6.418  13.343  1.00  0.00    -0.069 C 
HETATM   11  C11 UNL     1       1.619   6.859  14.159  1.00  0.00     0.030 C 
HETATM   12  C12 UNL     1       2.106   8.259  14.129  1.00  0.00     0.032 C 
HETATM   13  N1  UNL     1       3.111   8.560  14.902  1.00  0.00    -0.271 N 
ATOM     14  H1  UNL     1       3.587   7.894  15.509  1.00  0.00     0.194 HD
HETATM   15  C30 UNL     1       1.340   9.263  13.293  1.00  0.00     0.060 C 
HETATM   16  C31 UNL     1       0.710   8.637  12.058  1.00  0.00     0.020 C 
HETATM   17  C32 UNL     1       0.014   7.256  12.239  1.00  0.00    -0.016 C 
HETATM   18  C33 UNL     1       0.198   6.547  10.865  1.00  0.00     0.020 C 
HETATM   19  C34 UNL     1      -1.522   7.381  12.564  1.00  0.00     0.002 C 
HETATM   20  C35 UNL     1      -1.822   8.303  13.772  1.00  0.00     0.007 C 
HETATM   21  C36 UNL     1      -3.047   7.941  14.614  1.00  0.00     0.014 C 
HETATM   22  C37 UNL     1      -4.209   7.319  13.825  1.00  0.00     0.003 C 
HETATM   23  C38 UNL     1      -4.834   8.420  12.924  1.00  0.00     0.020 C 
ENDROOT
BRANCH   3  24
HETATM   24  O1  UNL     1      -4.669   6.096  15.923  1.00  0.00    -0.377 OA
HETATM   25  H2  UNL     1      -5.388   5.803  16.507  1.00  0.00     0.211 HD
ENDBRANCH   3  24
BRANCH  13  26
HETATM   26  O2  UNL     1       3.454   9.915  14.793  1.00  0.00    -0.271 OA
BRANCH  26  27
HETATM   27  C13 UNL     1       4.855  10.065  14.961  1.00  0.00     0.303 C 
BRANCH  27  28
HETATM   28  C14 UNL     1       5.188  11.263  15.849  1.00  0.00     0.244 C 
HETATM   29  O3  UNL     1       4.423  12.196  16.074  1.00  0.00    -0.271 OA
HETATM   30  N2  UNL     1       6.472  11.213  16.373  1.00  0.00    -0.346 N 
HETATM   31  H16 UNL     1       6.843  10.280  16.513  1.00  0.00     0.163 HD
BRANCH  30  32
HETATM   32  C15 UNL     1       6.884  12.201  17.364  1.00  0.00     0.180 C 
BRANCH  32  33
HETATM   33  C16 UNL     1       6.887  11.531  18.756  1.00  0.00     0.241 C 
HETATM   34  O4  UNL     1       7.216  10.356  18.925  1.00  0.00    -0.271 OA
HETATM   35  N3  UNL     1       6.546  12.378  19.793  1.00  0.00    -0.354 N 
HETATM   36  H18 UNL     1       6.197  13.298  19.556  1.00  0.00     0.162 HD
BRANCH  35  37
HETATM   37  C17 UNL     1       6.431  11.908  21.178  1.00  0.00     0.098 C 
BRANCH  37  38
HETATM   38  C18 UNL     1       7.220  12.843  22.113  1.00  0.00     0.135 C 
BRANCH  38  39
HETATM   39  C19 UNL     1       8.631  12.375  22.340  1.00  0.00     0.141 C 
HETATM   40  O5  UNL     1       9.316  11.683  21.608  1.00  0.00    -0.650 OA
BRANCH  39  41
HETATM   41  O6  UNL     1       9.127  12.832  23.508  1.00  0.00    -0.776 OA
HETATM   42  H22 UNL     1      10.051  12.501  23.522  1.00  0.00     0.167 HD
ENDBRANCH  39  41
ENDBRANCH  38  39
ENDBRANCH  37  38
BRANCH  37  43
HETATM   43  C20 UNL     1       4.939  11.724  21.589  1.00  0.00     0.014 C 
HETATM   44  C21 UNL     1       4.590  12.577  22.822  1.00  0.00     0.033 C 
HETATM   45  C22 UNL     1       3.141  12.376  23.236  1.00  0.00     0.169 C 
HETATM   46  O7  UNL     1       2.860  10.998  23.472  1.00  0.00    -0.381 OA
HETATM   47  C23 UNL     1       3.077  10.131  22.353  1.00  0.00     0.054 C 
HETATM   48  C24 UNL     1       2.045  10.391  21.245  1.00  0.00     0.045 C 
HETATM   49  C25 UNL     1       2.861   8.704  22.881  1.00  0.00     0.045 C 
HETATM   50  C26 UNL     1       4.526  10.262  21.843  1.00  0.00     0.044 C 
ENDBRANCH  37  43
ENDBRANCH  35  37
ENDBRANCH  32  33
BRANCH  32  51
HETATM   51  C27 UNL     1       8.258  12.832  17.046  1.00  0.00     0.009 C 
HETATM   52  C28 UNL     1       8.971  12.049  15.938  1.00  0.00     0.012 C 
HETATM   53  C29 UNL     1       9.173  12.950  18.272  1.00  0.00     0.012 C 
ENDBRANCH  32  51
ENDBRANCH  30  32
ENDBRANCH  27  28
ENDBRANCH  26  27
ENDBRANCH  13  26
TORSDOF 12
ENDMDL
MODEL 2
REMARK minimizedAffinity -9.07049179
REMARK CNNscore 0.2066475
REMARK CNNaffinity 6.85881472
REMARK  12 active torsions:
REMARK  status: ('A' for Active; 'I' for Inactive)
REMARK    1  A    between atoms: C3_3  and  O1_4 
REMARK    2  A    between atoms: N1_14  and  O2_16 
REMARK    3  A    between atoms: O2_16  and  C13_17 
REMARK    4  A    between atoms: C13_17  and  C14_18 
REMARK       I    between atoms: C14_18  and  N2_20 
REMARK    5  A    between atoms: N2_20  and  C15_21 
REMARK    6  A    between atoms: C15_21  and  C16_22 
REMARK    7  A    between atoms: C15_21  and  C27_38 
REMARK       I    between atoms: C16_22  and  N3_24 
REMARK    8  A    between atoms: N3_24  and  C17_25 
REMARK    9  A    between atoms: C17_25  and  C18_26 
REMARK   10  A    between atoms: C17_25  and  C20_30 
REMARK   11  A    between atoms: C18_26  and  C19_27 
REMARK   12  A    between atoms: C19_27  and  O6_29 
ROOT
HETATM    1  C1  UNL     1      -9.028   7.395  16.938  1.00  0.00     0.015 C 
HETATM    2  C2  UNL     1      -8.178   7.063  16.155  1.00  0.00    -0.078 C 
HETATM    3  C3  UNL     1      -7.143   6.636  15.201  1.00  0.00     0.128 C 
HETATM    4  C4  UNL     1      -7.722   6.352  13.814  1.00  0.00     0.052 C 
HETATM    5  C5  UNL     1      -6.469   6.252  12.951  1.00  0.00     0.010 C 
HETATM    6  C6  UNL     1      -5.600   7.419  13.436  1.00  0.00     0.002 C 
HETATM    7  C7  UNL     1      -4.084   7.317  13.141  1.00  0.00    -0.004 C 
HETATM    8  C8  UNL     1      -3.433   5.929  13.319  1.00  0.00     0.010 C 
HETATM    9  C9  UNL     1      -1.924   5.938  13.035  1.00  0.00     0.035 C 
HETATM   10  C10 UNL     1      -1.225   7.054  13.776  1.00  0.00    -0.069 C 
HETATM   11  C11 UNL     1      -0.236   6.774  14.640  1.00  0.00     0.030 C 
HETATM   12  C12 UNL     1       0.349   7.802  15.536  1.00  0.00     0.032 C 
HETATM   13  N1  UNL     1       1.363   7.447  16.272  1.00  0.00    -0.271 N 
ATOM     14  H1  UNL     1       1.784   6.518  16.260  1.00  0.00     0.194 HD
HETATM   15  C30 UNL     1      -0.334   9.152  15.615  1.00  0.00     0.060 C 
HETATM   16  C31 UNL     1      -0.992   9.553  14.303  1.00  0.00     0.020 C 
HETATM   17  C32 UNL     1      -1.785   8.451  13.541  1.00  0.00    -0.016 C 
HETATM   18  C33 UNL     1      -1.635   8.835  12.040  1.00  0.00     0.020 C 
HETATM   19  C34 UNL     1      -3.312   8.419  13.924  1.00  0.00     0.002 C 
HETATM   20  C35 UNL     1      -3.561   8.311  15.450  1.00  0.00     0.007 C 
HETATM   21  C36 UNL     1      -4.819   7.553  15.879  1.00  0.00     0.014 C 
HETATM   22  C37 UNL     1      -6.012   7.691  14.922  1.00  0.00     0.003 C 
HETATM   23  C38 UNL     1      -6.547   9.147  15.013  1.00  0.00     0.020 C 
ENDROOT
BRANCH   3  24
HETATM   24  O1  UNL     1      -6.583   5.408  15.680  1.00  0.00    -0.377 OA
HETATM   25  H2  UNL     1      -7.328   4.844  15.946  1.00  0.00     0.211 HD
ENDBRANCH   3  24
BRANCH  13  26
HETATM   26  O2  UNL     1       1.803   8.502  17.084  1.00  0.00    -0.271 OA
BRANCH  26  27
HETATM   27  C13 UNL     1       2.635   9.368  16.329  1.00  0.00     0.303 C 
BRANCH  27  28
HETATM   28  C14 UNL     1       3.220  10.481  17.197  1.00  0.00     0.244 C 
HETATM   29  O3  UNL     1       4.227  11.124  16.916  1.00  0.00    -0.271 OA
HETATM   30  N2  UNL     1       2.508  10.690  18.369  1.00  0.00    -0.346 N 
HETATM   31  H16 UNL     1       1.519  10.469  18.317  1.00  0.00     0.163 HD
BRANCH  30  32
HETATM   32  C15 UNL     1       2.847  11.822  19.225  1.00  0.00     0.180 C 
BRANCH  32  33
HETATM   33  C16 UNL     1       3.726  11.313  20.389  1.00  0.00     0.241 C 
HETATM   34  O4  UNL     1       4.527  10.387  20.259  1.00  0.00    -0.271 OA
HETATM   35  N3  UNL     1       3.574  12.023  21.565  1.00  0.00    -0.354 N 
HETATM   36  H18 UNL     1       2.827  12.704  21.613  1.00  0.00     0.162 HD
BRANCH  35  37
HETATM   37  C17 UNL     1       4.276  11.649  22.798  1.00  0.00     0.098 C 
BRANCH  37  38
HETATM   38  C18 UNL     1       4.411  10.118  22.877  1.00  0.00     0.135 C 
BRANCH  38  39
HETATM   39  C19 UNL     1       3.227   9.467  23.539  1.00  0.00     0.141 C 
HETATM   40  O5  UNL     1       2.649   9.821  24.550  1.00  0.00    -0.650 OA
BRANCH  39  41
HETATM   41  O6  UNL     1       2.811   8.378  22.860  1.00  0.00    -0.776 OA
HETATM   42  H22 UNL     1       2.022   8.073  23.356  1.00  0.00     0.167 HD
ENDBRANCH  39  41
ENDBRANCH  38  39
ENDBRANCH  37  38
BRANCH  37  43
HETATM   43  C20 UNL     1       5.632  12.406  22.927  1.00  0.00     0.014 C 
HETATM   44  C21 UNL     1       5.425  13.930  22.911  1.00  0.00     0.033 C 
HETATM   45  C22 UNL     1       6.752  14.666  23.011  1.00  0.00     0.169 C 
HETATM   46  O7  UNL     1       7.643  14.261  21.974  1.00  0.00    -0.381 OA
HETATM   47  C23 UNL     1       7.964  12.866  21.956  1.00  0.00     0.054 C 
HETATM   48  C24 UNL     1       8.828  12.481  23.167  1.00  0.00     0.045 C 
HETATM   49  C25 UNL     1       8.799  12.644  20.685  1.00  0.00     0.045 C 
HETATM   50  C26 UNL     1       6.678  12.019  21.864  1.00  0.00     0.044 C 
ENDBRANCH  37  43
ENDBRANCH  35  37
ENDBRANCH  32  33
BRANCH  32  51
HETATM   51  C27 UNL     1       3.547  12.965  18.457  1.00  0.00     0.009 C 
HETATM   52  C28 UNL     1       4.781  13.458  19.222  1.00  0.00     0.012 C 
HETATM   53  C29 UNL     1       2.620  14.148  18.147  1.00  0.00     0.012 C 
ENDBRANCH  32  51
ENDBRANCH  30  32
ENDBRANCH  27  28
ENDBRANCH  26  27
ENDBRANCH  13  26
TORSDOF 12
ENDMDL
MODEL 3
REMARK minimizedAffinity -8.43037891
REMARK CNNscore 0.204542488
REMARK CNNaffinity 6.63299942
REMARK  12 active torsions:
REMARK  status: ('A' for Active; 'I' for Inactive)
REMARK    1  A    between atoms: C3_3  and  O1_4 
REMARK    2  A    between atoms: N1_14  and  O2_16 
REMARK    3  A    between atoms: O2_16  and  C13_17 
REMARK    4  A    between atoms: C13_17  and  C14_18 
REMARK       I    between atoms: C14_18  and  N2_20 
REMARK    5  A    between atoms: N2_20  and  C15_21 
REMARK    6  A    between atoms: C15_21  and  C16_22 
REMARK    7  A    between atoms: C15_21  and  C27_38 
REMARK       I    between atoms: C16_22  and  N3_24 
REMARK    8  A    between atoms: N3_24  and  C17_25 
REMARK    9  A    between atoms: C17_25  and  C18_26 
REMARK   10  A    between atoms: C17_25  and  C20_30 
REMARK   11  A    between atoms: C18_26  and  C19_27 
REMARK   12  A    between atoms: C19_27  and  O6_29 
ROOT
HETATM    1  C1  UNL     1      -3.415   4.906  12.578  1.00  0.00     0.015 C 
HETATM    2  C2  UNL     1      -3.734   5.977  13.020  1.00  0.00    -0.078 C 
HETATM    3  C3  UNL     1      -4.128   7.296  13.541  1.00  0.00     0.128 C 
HETATM    4  C4  UNL     1      -5.643   7.415  13.717  1.00  0.00     0.052 C 
HETATM    5  C5  UNL     1      -5.777   8.690  14.543  1.00  0.00     0.010 C 
HETATM    6  C6  UNL     1      -4.669   8.558  15.596  1.00  0.00     0.002 C 
HETATM    7  C7  UNL     1      -4.198   9.871  16.266  1.00  0.00    -0.004 C 
HETATM    8  C8  UNL     1      -4.056  11.107  15.352  1.00  0.00     0.010 C 
HETATM    9  C9  UNL     1      -3.553  12.349  16.102  1.00  0.00     0.035 C 
HETATM   10  C10 UNL     1      -2.326  12.040  16.928  1.00  0.00    -0.069 C 
HETATM   11  C11 UNL     1      -1.181  12.709  16.713  1.00  0.00     0.030 C 
HETATM   12  C12 UNL     1       0.099  12.318  17.352  1.00  0.00     0.032 C 
HETATM   13  N1  UNL     1       1.130  13.086  17.145  1.00  0.00    -0.271 N 
ATOM     14  H1  UNL     1       1.107  13.940  16.587  1.00  0.00     0.194 HD
HETATM   15  C30 UNL     1       0.148  11.004  18.104  1.00  0.00     0.060 C 
HETATM   16  C31 UNL     1      -1.181  10.652  18.756  1.00  0.00     0.020 C 
HETATM   17  C32 UNL     1      -2.469  10.886  17.912  1.00  0.00    -0.016 C 
HETATM   18  C33 UNL     1      -3.565  11.223  18.965  1.00  0.00     0.020 C 
HETATM   19  C34 UNL     1      -2.903   9.615  17.092  1.00  0.00     0.002 C 
HETATM   20  C35 UNL     1      -1.770   9.039  16.205  1.00  0.00     0.007 C 
HETATM   21  C36 UNL     1      -2.204   8.372  14.899  1.00  0.00     0.014 C 
HETATM   22  C37 UNL     1      -3.560   7.652  14.962  1.00  0.00     0.003 C 
HETATM   23  C38 UNL     1      -3.404   6.390  15.854  1.00  0.00     0.020 C 
ENDROOT
BRANCH   3  24
HETATM   24  O1  UNL     1      -3.740   8.283  12.578  1.00  0.00    -0.377 OA
HETATM   25  H2  UNL     1      -4.015   7.950  11.708  1.00  0.00     0.211 HD
ENDBRANCH   3  24
BRANCH  13  26
HETATM   26  O2  UNL     1       2.275  12.591  17.785  1.00  0.00    -0.271 OA
BRANCH  26  27
HETATM   27  C13 UNL     1       3.363  12.584  16.875  1.00  0.00     0.303 C 
BRANCH  27  28
HETATM   28  C14 UNL     1       3.827  11.161  16.567  1.00  0.00     0.244 C 
HETATM   29  O3  UNL     1       3.496  10.168  17.208  1.00  0.00    -0.271 OA
HETATM   30  N2  UNL     1       4.697  11.093  15.487  1.00  0.00    -0.346 N 
HETATM   31  H16 UNL     1       4.568  11.814  14.786  1.00  0.00     0.163 HD
BRANCH  30  32
HETATM   32  C15 UNL     1       5.103   9.790  14.972  1.00  0.00     0.180 C 
BRANCH  32  33
HETATM   33  C16 UNL     1       4.707   9.705  13.481  1.00  0.00     0.241 C 
HETATM   34  O4  UNL     1       4.588  10.702  12.769  1.00  0.00    -0.271 OA
HETATM   35  N3  UNL     1       4.556   8.415  13.009  1.00  0.00    -0.354 N 
HETATM   36  H18 UNL     1       4.577   7.659  13.682  1.00  0.00     0.162 HD
BRANCH  35  37
HETATM   37  C17 UNL     1       4.120   8.133  11.636  1.00  0.00     0.098 C 
BRANCH  37  38
HETATM   38  C18 UNL     1       5.016   7.044  11.018  1.00  0.00     0.135 C 
BRANCH  38  39
HETATM   39  C19 UNL     1       6.440   7.497  10.846  1.00  0.00     0.141 C 
HETATM   40  O5  UNL     1       6.882   8.627  10.953  1.00  0.00    -0.650 OA
BRANCH  39  41
HETATM   41  O6  UNL     1       7.261   6.467  10.557  1.00  0.00    -0.776 OA
HETATM   42  H22 UNL     1       8.151   6.875  10.513  1.00  0.00     0.167 HD
ENDBRANCH  39  41
ENDBRANCH  38  39
ENDBRANCH  37  38
BRANCH  37  43
HETATM   43  C20 UNL     1       2.599   7.796  11.586  1.00  0.00     0.014 C 
HETATM   44  C21 UNL     1       2.363   6.276  11.576  1.00  0.00     0.033 C 
HETATM   45  C22 UNL     1       0.879   5.951  11.502  1.00  0.00     0.169 C 
HETATM   46  O7  UNL     1       0.275   6.568  10.368  1.00  0.00    -0.381 OA
HETATM   47  C23 UNL     1       0.371   7.996  10.327  1.00  0.00     0.054 C 
HETATM   48  C24 UNL     1      -0.489   8.639  11.426  1.00  0.00     0.045 C 
HETATM   49  C25 UNL     1      -0.204   8.417   8.965  1.00  0.00     0.045 C 
HETATM   50  C26 UNL     1       1.846   8.440  10.406  1.00  0.00     0.044 C 
ENDBRANCH  37  43
ENDBRANCH  35  37
ENDBRANCH  32  33
BRANCH  32  51
HETATM   51  C27 UNL     1       6.611   9.513  15.165  1.00  0.00     0.009 C 
HETATM   52  C28 UNL     1       7.436  10.234  14.093  1.00  0.00     0.012 C 
HETATM   53  C29 UNL     1       6.960   8.019  15.173  1.00  0.00     0.012 C 
ENDBRANCH  32  51
ENDBRANCH  30  32
ENDBRANCH  27  28
ENDBRANCH  26  27
ENDBRANCH  13  26
TORSDOF 12
ENDMDL
MODEL 4
REMARK minimizedAffinity -7.69662952
REMARK CNNscore 0.202935874
REMARK CNNaffinity 6.24393797
REMARK  12 active torsions:
REMARK  status: ('A' for Active; 'I' for Inactive)
REMARK    1  A    between atoms: C3_3  and  O1_4 
REMARK    2  A    between atoms: N1_14  and  O2_16 
REMARK    3  A    between atoms: O2_16  and  C13_17 
REMARK    4  A    between atoms: C13_17  and  C14_18 
REMARK       I    between atoms: C14_18  and  N2_20 
REMARK    5  A    between atoms: N2_20  and  C15_21 
REMARK    6  A    between atoms: C15_21  and  C16_22 
REMARK    7  A    between atoms: C15_21  and  C27_38 
REMARK       I    between atoms: C16_22  and  N3_24 
REMARK    8  A    between atoms: N3_24  and  C17_25 
REMARK    9  A    between atoms: C17_25  and  C18_26 
REMARK   10  A    between atoms: C17_25  and  C20_30 
REMARK   11  A    between atoms: C18_26  and  C19_27 
REMARK   12  A    between atoms: C19_27  and  O6_29 
ROOT
HETATM    1  C1  UNL     1     -10.789  -0.403  -4.714  1.00  0.00     0.015 C 
HETATM    2  C2  UNL     1     -10.984  -1.524  -5.100  1.00  0.00    -0.078 C 
HETATM    3  C3  UNL     1     -11.245  -2.894  -5.569  1.00  0.00     0.128 C 
HETATM    4  C4  UNL     1     -11.620  -2.932  -7.052  1.00  0.00     0.052 C 
HETATM    5  C5  UNL     1     -11.523  -4.419  -7.375  1.00  0.00     0.010 C 
HETATM    6  C6  UNL     1     -10.232  -4.860  -6.673  1.00  0.00     0.002 C 
HETATM    7  C7  UNL     1     -10.095  -6.372  -6.372  1.00  0.00    -0.004 C 
HETATM    8  C8  UNL     1     -11.363  -7.101  -5.878  1.00  0.00     0.010 C 
HETATM    9  C9  UNL     1     -11.117  -8.587  -5.576  1.00  0.00     0.035 C 
HETATM   10  C10 UNL     1      -9.903  -8.782  -4.698  1.00  0.00    -0.069 C 
HETATM   11  C11 UNL     1     -10.021  -9.398  -3.511  1.00  0.00     0.030 C 
HETATM   12  C12 UNL     1      -8.912  -9.444  -2.527  1.00  0.00     0.032 C 
HETATM   13  N1  UNL     1      -9.101 -10.143  -1.444  1.00  0.00    -0.271 N 
ATOM     14  H1  UNL     1      -9.952 -10.667  -1.240  1.00  0.00     0.194 HD
HETATM   15  C30 UNL     1      -7.687  -8.594  -2.793  1.00  0.00     0.060 C 
HETATM   16  C31 UNL     1      -7.397  -8.433  -4.277  1.00  0.00     0.020 C 
HETATM   17  C32 UNL     1      -8.613  -8.157  -5.211  1.00  0.00    -0.016 C 
HETATM   18  C33 UNL     1      -8.213  -8.808  -6.568  1.00  0.00     0.020 C 
HETATM   19  C34 UNL     1      -8.884  -6.621  -5.427  1.00  0.00     0.002 C 
HETATM   20  C35 UNL     1      -9.026  -5.830  -4.101  1.00  0.00     0.007 C 
HETATM   21  C36 UNL     1      -9.971  -4.627  -4.128  1.00  0.00     0.014 C 
HETATM   22  C37 UNL     1     -10.025  -3.880  -5.469  1.00  0.00     0.003 C 
HETATM   23  C38 UNL     1      -8.672  -3.146  -5.676  1.00  0.00     0.020 C 
ENDROOT
BRANCH   3  24
HETATM   24  O1  UNL     1     -12.368  -3.402  -4.840  1.00  0.00    -0.377 OA
HETATM   25  H2  UNL     1     -13.042  -2.702  -4.838  1.00  0.00     0.211 HD
ENDBRANCH   3  24
BRANCH  13  26
HETATM   26  O2  UNL     1      -7.988 -10.084  -0.594  1.00  0.00    -0.271 OA
BRANCH  26  27
HETATM   27  C13 UNL     1      -8.423  -9.997   0.753  1.00  0.00     0.303 C 
BRANCH  27  28
HETATM   28  C14 UNL     1      -7.328 -10.431   1.726  1.00  0.00     0.244 C 
HETATM   29  O3  UNL     1      -7.274 -11.532   2.265  1.00  0.00    -0.271 OA
HETATM   30  N2  UNL     1      -6.390  -9.438   1.970  1.00  0.00    -0.346 N 
HETATM   31  H16 UNL     1      -6.247  -8.785   1.208  1.00  0.00     0.163 HD
BRANCH  30  32
HETATM   32  C15 UNL     1      -5.198  -9.750   2.752  1.00  0.00     0.180 C 
BRANCH  32  33
HETATM   33  C16 UNL     1      -5.623 -10.567   3.993  1.00  0.00     0.241 C 
HETATM   34  O4  UNL     1      -5.164 -11.682   4.241  1.00  0.00    -0.271 OA
HETATM   35  N3  UNL     1      -6.514  -9.912   4.823  1.00  0.00    -0.354 N 
HETATM   36  H18 UNL     1      -6.912  -9.041   4.495  1.00  0.00     0.162 HD
BRANCH  35  37
HETATM   37  C17 UNL     1      -7.081 -10.551   6.016  1.00  0.00     0.098 C 
BRANCH  37  38
HETATM   38  C18 UNL     1      -6.201 -10.243   7.240  1.00  0.00     0.135 C 
BRANCH  38  39
HETATM   39  C19 UNL     1      -5.391  -8.987   7.068  1.00  0.00     0.141 C 
HETATM   40  O5  UNL     1      -4.178  -8.873   7.081  1.00  0.00    -0.650 OA
BRANCH  39  41
HETATM   41  O6  UNL     1      -6.175  -7.909   6.866  1.00  0.00    -0.776 OA
HETATM   42  H22 UNL     1      -5.541  -7.174   6.727  1.00  0.00     0.167 HD
ENDBRANCH  39  41
ENDBRANCH  38  39
ENDBRANCH  37  38
BRANCH  37  43
HETATM   43  C20 UNL     1      -8.578 -10.162   6.205  1.00  0.00     0.014 C 
HETATM   44  C21 UNL     1      -9.000  -9.065   5.212  1.00  0.00     0.033 C 
HETATM   45  C22 UNL     1     -10.454  -8.669   5.415  1.00  0.00     0.169 C 
HETATM   46  O7  UNL     1     -10.691  -8.258   6.760  1.00  0.00    -0.381 OA
HETATM   47  C23 UNL     1     -10.405  -9.244   7.759  1.00  0.00     0.054 C 
HETATM   48  C24 UNL     1     -11.408 -10.406   7.692  1.00  0.00     0.045 C 
HETATM   49  C25 UNL     1     -10.584  -8.536   9.111  1.00  0.00     0.045 C 
HETATM   50  C26 UNL     1      -8.944  -9.726   7.636  1.00  0.00     0.044 C 
ENDBRANCH  37  43
ENDBRANCH  35  37
ENDBRANCH  32  33
BRANCH  32  51
HETATM   51  C27 UNL     1      -4.124 -10.500   1.932  1.00  0.00     0.009 C 
HETATM   52  C28 UNL     1      -4.439 -11.999   1.867  1.00  0.00     0.012 C 
HETATM   53  C29 UNL     1      -2.699 -10.290   2.460  1.00  0.00     0.012 C 
ENDBRANCH  32  51
ENDBRANCH  30  32
ENDBRANCH  27  28
ENDBRANCH  26  27
ENDBRANCH  13  26
TORSDOF 12
ENDMDL
MODEL 5
REMARK minimizedAffinity -9.35023117
REMARK CNNscore 0.181751043
REMARK CNNaffinity 5.50582457
REMARK  12 active torsions:
REMARK  status: ('A' for Active; 'I' for Inactive)
REMARK    1  A    between atoms: C3_3  and  O1_4 
REMARK    2  A    between atoms: N1_14  and  O2_16 
REMARK    3  A    between atoms: O2_16  and  C13_17 
REMARK    4  A    between atoms: C13_17  and  C14_18 
REMARK       I    between atoms: C14_18  and  N2_20 
REMARK    5  A    between atoms: N2_20  and  C15_21 
REMARK    6  A    between atoms: C15_21  and  C16_22 
REMARK    7  A    between atoms: C15_21  and  C27_38 
REMARK       I    between atoms: C16_22  and  N3_24 
REMARK    8  A    between atoms: N3_24  and  C17_25 
REMARK    9  A    between atoms: C17_25  and  C18_26 
REMARK   10  A    between atoms: C17_25  and  C20_30 
REMARK   11  A    between atoms: C18_26  and  C19_27 
REMARK   12  A    between atoms: C19_27  and  O6_29 
ROOT
HETATM    1  C1  UNL     1      -2.165   6.353  12.895  1.00  0.00     0.015 C 
HETATM    2  C2  UNL     1      -1.069   6.342  12.404  1.00  0.00    -0.078 C 
HETATM    3  C3  UNL     1       0.273   6.305  11.801  1.00  0.00     0.128 C 
HETATM    4  C4  UNL     1       0.216   6.316  10.272  1.00  0.00     0.052 C 
HETATM    5  C5  UNL     1       1.666   6.598   9.893  1.00  0.00     0.010 C 
HETATM    6  C6  UNL     1       2.089   7.701  10.872  1.00  0.00     0.002 C 
HETATM    7  C7  UNL     1       3.610   7.867  11.103  1.00  0.00    -0.004 C 
HETATM    8  C8  UNL     1       4.443   6.572  11.214  1.00  0.00     0.010 C 
HETATM    9  C9  UNL     1       5.932   6.842  11.476  1.00  0.00     0.035 C 
HETATM   10  C10 UNL     1       6.129   7.808  12.620  1.00  0.00    -0.069 C 
HETATM   11  C11 UNL     1       6.842   7.443  13.698  1.00  0.00     0.030 C 
HETATM   12  C12 UNL     1       6.904   8.272  14.927  1.00  0.00     0.032 C 
HETATM   13  N1  UNL     1       7.694   7.869  15.881  1.00  0.00    -0.271 N 
ATOM     14  H1  UNL     1       8.278   7.034  15.829  1.00  0.00     0.194 HD
HETATM   15  C30 UNL     1       5.970   9.460  15.033  1.00  0.00     0.060 C 
HETATM   16  C31 UNL     1       5.678  10.098  13.684  1.00  0.00     0.020 C 
HETATM   17  C32 UNL     1       5.397   9.138  12.491  1.00  0.00    -0.016 C 
HETATM   18  C33 UNL     1       5.918   9.909  11.242  1.00  0.00     0.020 C 
HETATM   19  C34 UNL     1       3.866   8.819  12.308  1.00  0.00     0.002 C 
HETATM   20  C35 UNL     1       3.190   8.294  13.600  1.00  0.00     0.007 C 
HETATM   21  C36 UNL     1       2.041   7.301  13.408  1.00  0.00     0.014 C 
HETATM   22  C37 UNL     1       1.196   7.530  12.147  1.00  0.00     0.003 C 
HETATM   23  C38 UNL     1       0.376   8.835  12.336  1.00  0.00     0.020 C 
ENDROOT
BRANCH   3  24
HETATM   24  O1  UNL     1       0.896   5.076  12.188  1.00  0.00    -0.377 OA
HETATM   25  H2  UNL     1       0.236   4.374  12.062  1.00  0.00     0.211 HD
ENDBRANCH   3  24
BRANCH  13  26
HETATM   26  O2  UNL     1       7.640   8.728  16.988  1.00  0.00    -0.271 OA
BRANCH  26  27
HETATM   27  C13 UNL     1       8.910   9.329  17.185  1.00  0.00     0.303 C 
BRANCH  27  28
HETATM   28  C14 UNL     1       8.779  10.791  17.609  1.00  0.00     0.244 C 
HETATM   29  O3  UNL     1       8.046  11.610  17.062  1.00  0.00    -0.271 OA
HETATM   30  N2  UNL     1       9.600  11.125  18.676  1.00  0.00    -0.346 N 
HETATM   31  H16 UNL     1       9.807  10.364  19.314  1.00  0.00     0.163 HD
BRANCH  30  32
HETATM   32  C15 UNL     1       9.475  12.439  19.297  1.00  0.00     0.180 C 
BRANCH  32  33
HETATM   33  C16 UNL     1       8.882  12.261  20.713  1.00  0.00     0.241 C 
HETATM   34  O4  UNL     1       9.384  11.513  21.552  1.00  0.00    -0.271 OA
HETATM   35  N3  UNL     1       7.779  13.053  20.968  1.00  0.00    -0.354 N 
HETATM   36  H18 UNL     1       7.375  13.565  20.193  1.00  0.00     0.162 HD
BRANCH  35  37
HETATM   37  C17 UNL     1       7.039  12.977  22.233  1.00  0.00     0.098 C 
BRANCH  37  38
HETATM   38  C18 UNL     1       7.121  14.328  22.967  1.00  0.00     0.135 C 
BRANCH  38  39
HETATM   39  C19 UNL     1       8.431  14.519  23.681  1.00  0.00     0.141 C 
HETATM   40  O5  UNL     1       8.873  15.545  24.168  1.00  0.00    -0.650 OA
BRANCH  39  41
HETATM   41  O6  UNL     1       9.129  13.369  23.763  1.00  0.00    -0.776 OA
HETATM   42  H22 UNL     1       9.928  13.609  24.278  1.00  0.00     0.167 HD
ENDBRANCH  39  41
ENDBRANCH  38  39
ENDBRANCH  37  38
BRANCH  37  43
HETATM   43  C20 UNL     1       5.582  12.474  22.005  1.00  0.00     0.014 C 
HETATM   44  C21 UNL     1       4.560  13.600  22.240  1.00  0.00     0.033 C 
HETATM   45  C22 UNL     1       3.137  13.100  22.041  1.00  0.00     0.169 C 
HETATM   46  O7  UNL     1       2.865  11.980  22.881  1.00  0.00    -0.381 OA
HETATM   47  C23 UNL     1       3.716  10.845  22.680  1.00  0.00     0.054 C 
HETATM   48  C24 UNL     1       3.445  10.186  21.319  1.00  0.00     0.045 C 
HETATM   49  C25 UNL     1       3.341   9.840  23.780  1.00  0.00     0.045 C 
HETATM   50  C26 UNL     1       5.196  11.246  22.850  1.00  0.00     0.044 C 
ENDBRANCH  37  43
ENDBRANCH  35  37
ENDBRANCH  32  33
BRANCH  32  51
HETATM   51  C27 UNL     1      10.814  13.209  19.347  1.00  0.00     0.009 C 
HETATM   52  C28 UNL     1      10.585  14.710  19.132  1.00  0.00     0.012 C 
HETATM   53  C29 UNL     1      11.851  12.691  18.342  1.00  0.00     0.012 C 
ENDBRANCH  32  51
ENDBRANCH  30  32
ENDBRANCH  27  28
ENDBRANCH  26  27
ENDBRANCH  13  26
TORSDOF 12
ENDMDL
MODEL 6
REMARK minimizedAffinity -7.62432861
REMARK CNNscore 0.175847486
REMARK CNNaffinity 5.92617178
REMARK  12 active torsions:
REMARK  status: ('A' for Active; 'I' for Inactive)
REMARK    1  A    between atoms: C3_3  and  O1_4 
REMARK    2  A    between atoms: N1_14  and  O2_16 
REMARK    3  A    between atoms: O2_16  and  C13_17 
REMARK    4  A    between atoms: C13_17  and  C14_18 
REMARK       I    between atoms: C14_18  and  N2_20 
REMARK    5  A    between atoms: N2_20  and  C15_21 
REMARK    6  A    between atoms: C15_21  and  C16_22 
REMARK    7  A    between atoms: C15_21  and  C27_38 
REMARK       I    between atoms: C16_22  and  N3_24 
REMARK    8  A    between atoms: N3_24  and  C17_25 
REMARK    9  A    between atoms: C17_25  and  C18_26 
REMARK   10  A    between atoms: C17_25  and  C20_30 
REMARK   11  A    between atoms: C18_26  and  C19_27 
REMARK   12  A    between atoms: C19_27  and  O6_29 
ROOT
HETATM    1  C1  UNL     1      -0.352   6.332  11.729  1.00  0.00     0.015 C 
HETATM    2  C2  UNL     1      -1.021   7.164  12.280  1.00  0.00    -0.078 C 
HETATM    3  C3  UNL     1      -1.841   8.194  12.936  1.00  0.00     0.128 C 
HETATM    4  C4  UNL     1      -3.338   7.958  12.725  1.00  0.00     0.052 C 
HETATM    5  C5  UNL     1      -3.965   8.919  13.729  1.00  0.00     0.010 C 
HETATM    6  C6  UNL     1      -3.107   8.740  14.988  1.00  0.00     0.002 C 
HETATM    7  C7  UNL     1      -3.141   9.899  16.014  1.00  0.00    -0.004 C 
HETATM    8  C8  UNL     1      -3.133  11.333  15.443  1.00  0.00     0.010 C 
HETATM    9  C9  UNL     1      -3.136  12.410  16.538  1.00  0.00     0.035 C 
HETATM   10  C10 UNL     1      -2.071  12.148  17.578  1.00  0.00    -0.069 C 
HETATM   11  C11 UNL     1      -1.119  13.064  17.816  1.00  0.00     0.030 C 
HETATM   12  C12 UNL     1       0.055  12.782  18.678  1.00  0.00     0.032 C 
HETATM   13  N1  UNL     1       0.874  13.767  18.914  1.00  0.00    -0.271 N 
ATOM     14  H1  UNL     1       0.750  14.715  18.558  1.00  0.00     0.194 HD
HETATM   15  C30 UNL     1       0.282  11.354  19.131  1.00  0.00     0.060 C 
HETATM   16  C31 UNL     1      -1.018  10.587  19.320  1.00  0.00     0.020 C 
HETATM   17  C32 UNL     1      -2.116  10.772  18.231  1.00  0.00    -0.016 C 
HETATM   18  C33 UNL     1      -3.458  10.595  19.002  1.00  0.00     0.020 C 
HETATM   19  C34 UNL     1      -2.026   9.699  17.082  1.00  0.00     0.002 C 
HETATM   20  C35 UNL     1      -0.623   9.613  16.430  1.00  0.00     0.007 C 
HETATM   21  C36 UNL     1      -0.587   9.239  14.947  1.00  0.00     0.014 C 
HETATM   22  C37 UNL     1      -1.694   8.272  14.499  1.00  0.00     0.003 C 
HETATM   23  C38 UNL     1      -1.409   6.878  15.122  1.00  0.00     0.020 C 
ENDROOT
BRANCH   3  24
HETATM   24  O1  UNL     1      -1.527   9.455  12.335  1.00  0.00    -0.377 OA
HETATM   25  H2  UNL     1      -1.518   9.314  11.374  1.00  0.00     0.211 HD
ENDBRANCH   3  24
BRANCH  13  26
HETATM   26  O2  UNL     1       1.947  13.361  19.720  1.00  0.00    -0.271 OA
BRANCH  26  27
HETATM   27  C13 UNL     1       3.121  13.257  18.930  1.00  0.00     0.303 C 
BRANCH  27  28
HETATM   28  C14 UNL     1       4.136  12.302  19.557  1.00  0.00     0.244 C 
HETATM   29  O3  UNL     1       4.087  11.079  19.468  1.00  0.00    -0.271 OA
HETATM   30  N2  UNL     1       5.129  12.955  20.274  1.00  0.00    -0.346 N 
HETATM   31  H16 UNL     1       5.352  13.889  19.946  1.00  0.00     0.163 HD
BRANCH  30  32
HETATM   32  C15 UNL     1       6.258  12.194  20.798  1.00  0.00     0.180 C 
BRANCH  32  33
HETATM   33  C16 UNL     1       7.554  12.725  20.147  1.00  0.00     0.241 C 
HETATM   34  O4  UNL     1       7.599  13.113  18.979  1.00  0.00    -0.271 OA
HETATM   35  N3  UNL     1       8.637  12.779  21.004  1.00  0.00    -0.354 N 
HETATM   36  H18 UNL     1       8.539  12.352  21.917  1.00  0.00     0.162 HD
BRANCH  35  37
HETATM   37  C17 UNL     1       9.970  13.194  20.552  1.00  0.00     0.098 C 
BRANCH  37  38
HETATM   38  C18 UNL     1      10.487  12.214  19.484  1.00  0.00     0.135 C 
BRANCH  38  39
HETATM   39  C19 UNL     1      11.774  11.547  19.886  1.00  0.00     0.141 C 
HETATM   40  O5  UNL     1      12.689  12.022  20.535  1.00  0.00    -0.650 OA
BRANCH  39  41
HETATM   41  O6  UNL     1      11.836  10.273  19.449  1.00  0.00    -0.776 OA
HETATM   42  H22 UNL     1      12.687   9.939  19.805  1.00  0.00     0.167 HD
ENDBRANCH  39  41
ENDBRANCH  38  39
ENDBRANCH  37  38
BRANCH  37  43
HETATM   43  C20 UNL     1       9.970  14.682  20.090  1.00  0.00     0.014 C 
HETATM   44  C21 UNL     1      11.220  15.007  19.254  1.00  0.00     0.033 C 
HETATM   45  C22 UNL     1      11.230  16.466  18.825  1.00  0.00     0.169 C 
HETATM   46  O7  UNL     1      11.132  17.332  19.953  1.00  0.00    -0.381 OA
HETATM   47  C23 UNL     1       9.956  17.162  20.753  1.00  0.00     0.054 C 
HETATM   48  C24 UNL     1       8.701  17.624  19.996  1.00  0.00     0.045 C 
HETATM   49  C25 UNL     1      10.142  18.079  21.972  1.00  0.00     0.045 C 
HETATM   50  C26 UNL     1       9.841  15.702  21.237  1.00  0.00     0.044 C 
ENDBRANCH  37  43
ENDBRANCH  35  37
ENDBRANCH  32  33
BRANCH  32  51
HETATM   51  C27 UNL     1       6.348  12.242  22.340  1.00  0.00     0.009 C 
HETATM   52  C28 UNL     1       5.438  11.181  22.970  1.00  0.00     0.012 C 
HETATM   53  C29 UNL     1       6.023  13.622  22.927  1.00  0.00     0.012 C 
ENDBRANCH  32  51
ENDBRANCH  30  32
ENDBRANCH  27  28
ENDBRANCH  26  27
ENDBRANCH  13  26
TORSDOF 12
ENDMDL
MODEL 7
REMARK minimizedAffinity -8.53656864
REMARK CNNscore 0.174841106
REMARK CNNaffinity 6.70963335
REMARK  12 active torsions:
REMARK  status: ('A' for Active; 'I' for Inactive)
REMARK    1  A    between atoms: C3_3  and  O1_4 
REMARK    2  A    between atoms: N1_14  and  O2_16 
REMARK    3  A    between atoms: O2_16  and  C13_17 
REMARK    4  A    between atoms: C13_17  and  C14_18 
REMARK       I    between atoms: C14_18  and  N2_20 
REMARK    5  A    between atoms: N2_20  and  C15_21 
REMARK    6  A    between atoms: C15_21  and  C16_22 
REMARK    7  A    between atoms: C15_21  and  C27_38 
REMARK       I    between atoms: C16_22  and  N3_24 
REMARK    8  A    between atoms: N3_24  and  C17_25 
REMARK    9  A    between atoms: C17_25  and  C18_26 
REMARK   10  A    between atoms: C17_25  and  C20_30 
REMARK   11  A    between atoms: C18_26  and  C19_27 
REMARK   12  A    between atoms: C19_27  and  O6_29 
ROOT
HETATM    1  C1  UNL     1      -6.986   8.207  15.856  1.00  0.00     0.015 C 
HETATM    2  C2  UNL     1      -6.135   7.492  15.400  1.00  0.00    -0.078 C 
HETATM    3  C3  UNL     1      -5.095   6.603  14.859  1.00  0.00     0.128 C 
HETATM    4  C4  UNL     1      -5.688   5.477  14.009  1.00  0.00     0.052 C 
HETATM    5  C5  UNL     1      -4.455   4.907  13.315  1.00  0.00     0.010 C 
HETATM    6  C6  UNL     1      -3.669   6.155  12.890  1.00  0.00     0.002 C 
HETATM    7  C7  UNL     1      -2.159   5.956  12.617  1.00  0.00    -0.004 C 
HETATM    8  C8  UNL     1      -1.394   5.027  13.584  1.00  0.00     0.010 C 
HETATM    9  C9  UNL     1       0.102   4.921  13.250  1.00  0.00     0.035 C 
HETATM   10  C10 UNL     1       0.729   6.283  13.068  1.00  0.00    -0.069 C 
HETATM   11  C11 UNL     1       1.761   6.661  13.839  1.00  0.00     0.030 C 
HETATM   12  C12 UNL     1       2.286   8.048  13.839  1.00  0.00     0.032 C 
HETATM   13  N1  UNL     1       3.345   8.287  14.559  1.00  0.00    -0.271 N 
ATOM     14  H1  UNL     1       3.839   7.581  15.106  1.00  0.00     0.194 HD
HETATM   15  C30 UNL     1       1.499   9.109  13.097  1.00  0.00     0.060 C 
HETATM   16  C31 UNL     1       0.775   8.556  11.879  1.00  0.00     0.020 C 
HETATM   17  C32 UNL     1       0.052   7.186  12.044  1.00  0.00    -0.016 C 
HETATM   18  C33 UNL     1       0.129   6.536  10.632  1.00  0.00     0.020 C 
HETATM   19  C34 UNL     1      -1.456   7.337  12.470  1.00  0.00     0.002 C 
HETATM   20  C35 UNL     1      -1.653   8.212  13.734  1.00  0.00     0.007 C 
HETATM   21  C36 UNL     1      -2.834   7.844  14.635  1.00  0.00     0.014 C 
HETATM   22  C37 UNL     1      -4.061   7.290  13.895  1.00  0.00     0.003 C 
HETATM   23  C38 UNL     1      -4.708   8.446  13.084  1.00  0.00     0.020 C 
ENDROOT
BRANCH   3  24
HETATM   24  O1  UNL     1      -4.425   5.986  15.963  1.00  0.00    -0.377 OA
HETATM   25  H2  UNL     1      -5.115   5.686  16.579  1.00  0.00     0.211 HD
ENDBRANCH   3  24
BRANCH  13  26
HETATM   26  O2  UNL     1       3.721   9.636  14.487  1.00  0.00    -0.271 OA
BRANCH  26  27
HETATM   27  C13 UNL     1       4.835   9.773  13.620  1.00  0.00     0.303 C 
BRANCH  27  28
HETATM   28  C14 UNL     1       5.913  10.668  14.230  1.00  0.00     0.244 C 
HETATM   29  O3  UNL     1       5.896  11.894  14.202  1.00  0.00    -0.271 OA
HETATM   30  N2  UNL     1       6.951   9.952  14.812  1.00  0.00    -0.346 N 
HETATM   31  H16 UNL     1       6.693   9.042  15.176  1.00  0.00     0.163 HD
BRANCH  30  32
HETATM   32  C15 UNL     1       7.974  10.660  15.573  1.00  0.00     0.180 C 
BRANCH  32  33
HETATM   33  C16 UNL     1       7.484  10.817  17.030  1.00  0.00     0.241 C 
HETATM   34  O4  UNL     1       7.151   9.856  17.724  1.00  0.00    -0.271 OA
HETATM   35  N3  UNL     1       7.507  12.117  17.497  1.00  0.00    -0.354 N 
HETATM   36  H18 UNL     1       7.702  12.855  16.832  1.00  0.00     0.162 HD
BRANCH  35  37
HETATM   37  C17 UNL     1       7.019  12.475  18.834  1.00  0.00     0.098 C 
BRANCH  37  38
HETATM   38  C18 UNL     1       6.334  11.258  19.481  1.00  0.00     0.135 C 
BRANCH  38  39
HETATM   39  C19 UNL     1       4.925  11.551  19.918  1.00  0.00     0.141 C 
HETATM   40  O5  UNL     1       4.266  12.550  19.691  1.00  0.00    -0.650 OA
BRANCH  39  41
HETATM   41  O6  UNL     1       4.398  10.532  20.626  1.00  0.00    -0.776 OA
HETATM   42  H22 UNL     1       3.479  10.820  20.813  1.00  0.00     0.167 HD
ENDBRANCH  39  41
ENDBRANCH  38  39
ENDBRANCH  37  38
BRANCH  37  43
HETATM   43  C20 UNL     1       8.155  13.092  19.703  1.00  0.00     0.014 C 
HETATM   44  C21 UNL     1       9.370  12.151  19.783  1.00  0.00     0.033 C 
HETATM   45  C22 UNL     1      10.468  12.744  20.652  1.00  0.00     0.169 C 
HETATM   46  O7  UNL     1       9.979  13.056  21.954  1.00  0.00    -0.381 OA
HETATM   47  C23 UNL     1       8.895  13.992  21.991  1.00  0.00     0.054 C 
HETATM   48  C24 UNL     1       9.362  15.396  21.576  1.00  0.00     0.045 C 
HETATM   49  C25 UNL     1       8.443  14.054  23.459  1.00  0.00     0.045 C 
HETATM   50  C26 UNL     1       7.720  13.489  21.126  1.00  0.00     0.044 C 
ENDBRANCH  37  43
ENDBRANCH  35  37
ENDBRANCH  32  33
BRANCH  32  51
HETATM   51  C27 UNL     1       9.351   9.959  15.521  1.00  0.00     0.009 C 
HETATM   52  C28 UNL     1       9.312   8.629  16.282  1.00  0.00     0.012 C 
HETATM   53  C29 UNL     1      10.498  10.829  16.050  1.00  0.00     0.012 C 
ENDBRANCH  32  51
ENDBRANCH  30  32
ENDBRANCH  27  28
ENDBRANCH  26  27
ENDBRANCH  13  26
TORSDOF 12
ENDMDL
MODEL 8
REMARK minimizedAffinity -8.06805515
REMARK CNNscore 0.157346919
REMARK CNNaffinity 6.77607584
REMARK  12 active torsions:
REMARK  status: ('A' for Active; 'I' for Inactive)
REMARK    1  A    between atoms: C3_3  and  O1_4 
REMARK    2  A    between atoms: N1_14  and  O2_16 
REMARK    3  A    between atoms: O2_16  and  C13_17 
REMARK    4  A    between atoms: C13_17  and  C14_18 
REMARK       I    between atoms: C14_18  and  N2_20 
REMARK    5  A    between atoms: N2_20  and  C15_21 
REMARK    6  A    between atoms: C15_21  and  C16_22 
REMARK    7  A    between atoms: C15_21  and  C27_38 
REMARK       I    between atoms: C16_22  and  N3_24 
REMARK    8  A    between atoms: N3_24  and  C17_25 
REMARK    9  A    between atoms: C17_25  and  C18_26 
REMARK   10  A    between atoms: C17_25  and  C20_30 
REMARK   11  A    between atoms: C18_26  and  C19_27 
REMARK   12  A    between atoms: C19_27  and  O6_29 
ROOT
HETATM    1  C1  UNL     1      -8.786   7.248  16.092  1.00  0.00     0.015 C 
HETATM    2  C2  UNL     1      -7.723   6.818  15.735  1.00  0.00    -0.078 C 
HETATM    3  C3  UNL     1      -6.423   6.275  15.310  1.00  0.00     0.128 C 
HETATM    4  C4  UNL     1      -6.567   5.266  14.169  1.00  0.00     0.052 C 
HETATM    5  C5  UNL     1      -5.126   5.098  13.698  1.00  0.00     0.010 C 
HETATM    6  C6  UNL     1      -4.580   6.532  13.683  1.00  0.00     0.002 C 
HETATM    7  C7  UNL     1      -3.041   6.681  13.742  1.00  0.00    -0.004 C 
HETATM    8  C8  UNL     1      -2.285   5.727  14.691  1.00  0.00     0.010 C 
HETATM    9  C9  UNL     1      -0.769   5.976  14.703  1.00  0.00     0.035 C 
HETATM   10  C10 UNL     1      -0.447   7.439  14.903  1.00  0.00    -0.069 C 
HETATM   11  C11 UNL     1       0.302   7.829  15.947  1.00  0.00     0.030 C 
HETATM   12  C12 UNL     1       0.486   9.257  16.302  1.00  0.00     0.032 C 
HETATM   13  N1  UNL     1       1.303   9.530  17.279  1.00  0.00    -0.271 N 
ATOM     14  H1  UNL     1       1.830   8.829  17.800  1.00  0.00     0.194 HD
HETATM   15  C30 UNL     1      -0.365  10.285  15.585  1.00  0.00     0.060 C 
HETATM   16  C31 UNL     1      -0.693   9.880  14.157  1.00  0.00     0.020 C 
HETATM   17  C32 UNL     1      -1.102   8.396  13.916  1.00  0.00    -0.016 C 
HETATM   18  C33 UNL     1      -0.607   8.088  12.472  1.00  0.00     0.020 C 
HETATM   19  C34 UNL     1      -2.658   8.169  13.997  1.00  0.00     0.002 C 
HETATM   20  C35 UNL     1      -3.290   8.701  15.308  1.00  0.00     0.007 C 
HETATM   21  C36 UNL     1      -4.507   7.936  15.833  1.00  0.00     0.014 C 
HETATM   22  C37 UNL     1      -5.407   7.333  14.745  1.00  0.00     0.003 C 
HETATM   23  C38 UNL     1      -6.133   8.493  14.010  1.00  0.00     0.020 C 
ENDROOT
BRANCH   3  24
HETATM   24  O1  UNL     1      -5.855   5.573  16.422  1.00  0.00    -0.377 OA
HETATM   25  H2  UNL     1      -6.564   5.025  16.800  1.00  0.00     0.211 HD
ENDBRANCH   3  24
BRANCH  13  26
HETATM   26  O2  UNL     1       1.367  10.909  17.524  1.00  0.00    -0.271 OA
BRANCH  26  27
HETATM   27  C13 UNL     1       1.190  11.154  18.910  1.00  0.00     0.303 C 
BRANCH  27  28
HETATM   28  C14 UNL     1       2.375  10.640  19.726  1.00  0.00     0.244 C 
HETATM   29  O3  UNL     1       2.718   9.463  19.787  1.00  0.00    -0.271 OA
HETATM   30  N2  UNL     1       3.030  11.642  20.428  1.00  0.00    -0.346 N 
HETATM   31  H16 UNL     1       2.988  12.562  20.003  1.00  0.00     0.163 HD
BRANCH  30  32
HETATM   32  C15 UNL     1       4.274  11.337  21.127  1.00  0.00     0.180 C 
BRANCH  32  33
HETATM   33  C16 UNL     1       5.366  12.314  20.638  1.00  0.00     0.241 C 
HETATM   34  O4  UNL     1       5.590  13.389  21.194  1.00  0.00    -0.271 OA
HETATM   35  N3  UNL     1       6.101  11.849  19.563  1.00  0.00    -0.354 N 
HETATM   36  H18 UNL     1       5.788  11.001  19.108  1.00  0.00     0.162 HD
BRANCH  35  37
HETATM   37  C17 UNL     1       7.139  12.662  18.918  1.00  0.00     0.098 C 
BRANCH  37  38
HETATM   38  C18 UNL     1       6.814  14.156  19.094  1.00  0.00     0.135 C 
BRANCH  38  39
HETATM   39  C19 UNL     1       7.556  15.027  18.117  1.00  0.00     0.141 C 
HETATM   40  O5  UNL     1       8.482  15.784  18.345  1.00  0.00    -0.650 OA
BRANCH  39  41
HETATM   41  O6  UNL     1       7.087  14.881  16.861  1.00  0.00    -0.776 OA
HETATM   42  H22 UNL     1       7.668  15.456  16.319  1.00  0.00     0.167 HD
ENDBRANCH  39  41
ENDBRANCH  38  39
ENDBRANCH  37  38
BRANCH  37  43
HETATM   43  C20 UNL     1       8.559  12.265  19.421  1.00  0.00     0.014 C 
HETATM   44  C21 UNL     1       8.895  12.961  20.752  1.00  0.00     0.033 C 
HETATM   45  C22 UNL     1      10.292  12.592  21.227  1.00  0.00     0.169 C 
HETATM   46  O7  UNL     1      11.268  12.892  20.233  1.00  0.00    -0.381 OA
HETATM   47  C23 UNL     1      11.087  12.224  18.979  1.00  0.00     0.054 C 
HETATM   48  C24 UNL     1      11.348  10.716  19.113  1.00  0.00     0.045 C 
HETATM   49  C25 UNL     1      12.149  12.810  18.035  1.00  0.00     0.045 C 
HETATM   50  C26 UNL     1       9.687  12.525  18.406  1.00  0.00     0.044 C 
ENDBRANCH  37  43
ENDBRANCH  35  37
ENDBRANCH  32  33
BRANCH  32  51
HETATM   51  C27 UNL     1       4.126  11.389  22.664  1.00  0.00     0.009 C 
HETATM   52  C28 UNL     1       3.921   9.982  23.238  1.00  0.00     0.012 C 
HETATM   53  C29 UNL     1       2.996  12.313  23.136  1.00  0.00     0.012 C 
ENDBRANCH  32  51
ENDBRANCH  30  32
ENDBRANCH  27  28
ENDBRANCH  26  27
ENDBRANCH  13  26
TORSDOF 12
ENDMDL
MODEL 9
REMARK minimizedAffinity -9.48562145
REMARK CNNscore 0.156714827
REMARK CNNaffinity 6.69102526
REMARK  12 active torsions:
REMARK  status: ('A' for Active; 'I' for Inactive)
REMARK    1  A    between atoms: C3_3  and  O1_4 
REMARK    2  A    between atoms: N1_14  and  O2_16 
REMARK    3  A    between atoms: O2_16  and  C13_17 
REMARK    4  A    between atoms: C13_17  and  C14_18 
REMARK       I    between atoms: C14_18  and  N2_20 
REMARK    5  A    between atoms: N2_20  and  C15_21 
REMARK    6  A    between atoms: C15_21  and  C16_22 
REMARK    7  A    between atoms: C15_21  and  C27_38 
REMARK       I    between atoms: C16_22  and  N3_24 
REMARK    8  A    between atoms: N3_24  and  C17_25 
REMARK    9  A    between atoms: C17_25  and  C18_26 
REMARK   10  A    between atoms: C17_25  and  C20_30 
REMARK   11  A    between atoms: C18_26  and  C19_27 
REMARK   12  A    between atoms: C19_27  and  O6_29 
ROOT
HETATM    1  C1  UNL     1      -7.128   8.290  15.636  1.00  0.00     0.015 C 
HETATM    2  C2  UNL     1      -6.247   7.568  15.254  1.00  0.00    -0.078 C 
HETATM    3  C3  UNL     1      -5.171   6.671  14.805  1.00  0.00     0.128 C 
HETATM    4  C4  UNL     1      -5.709   5.484  14.003  1.00  0.00     0.052 C 
HETATM    5  C5  UNL     1      -4.440   4.902  13.389  1.00  0.00     0.010 C 
HETATM    6  C6  UNL     1      -3.664   6.139  12.919  1.00  0.00     0.002 C 
HETATM    7  C7  UNL     1      -2.141   5.957  12.713  1.00  0.00    -0.004 C 
HETATM    8  C8  UNL     1      -1.394   5.104  13.761  1.00  0.00     0.010 C 
HETATM    9  C9  UNL     1       0.114   5.010  13.488  1.00  0.00     0.035 C 
HETATM   10  C10 UNL     1       0.721   6.373  13.247  1.00  0.00    -0.069 C 
HETATM   11  C11 UNL     1       1.716   6.818  14.031  1.00  0.00     0.030 C 
HETATM   12  C12 UNL     1       2.214   8.214  13.967  1.00  0.00     0.032 C 
HETATM   13  N1  UNL     1       3.240   8.517  14.709  1.00  0.00    -0.271 N 
ATOM     14  H1  UNL     1       3.727   7.857  15.314  1.00  0.00     0.194 HD
HETATM   15  C30 UNL     1       1.434   9.211  13.135  1.00  0.00     0.060 C 
HETATM   16  C31 UNL     1       0.767   8.572  11.927  1.00  0.00     0.020 C 
HETATM   17  C32 UNL     1       0.065   7.199  12.147  1.00  0.00    -0.016 C 
HETATM   18  C33 UNL     1       0.208   6.468  10.780  1.00  0.00     0.020 C 
HETATM   19  C34 UNL     1      -1.460   7.342  12.509  1.00  0.00     0.002 C 
HETATM   20  C35 UNL     1      -1.721   8.285  13.711  1.00  0.00     0.007 C 
HETATM   21  C36 UNL     1      -2.928   7.946  14.589  1.00  0.00     0.014 C 
HETATM   22  C37 UNL     1      -4.115   7.323  13.840  1.00  0.00     0.003 C 
HETATM   23  C38 UNL     1      -4.754   8.414  12.938  1.00  0.00     0.020 C 
ENDROOT
BRANCH   3  24
HETATM   24  O1  UNL     1      -4.530   6.135  15.968  1.00  0.00    -0.377 OA
HETATM   25  H2  UNL     1      -5.236   5.857  16.575  1.00  0.00     0.211 HD
ENDBRANCH   3  24
BRANCH  13  26
HETATM   26  O2  UNL     1       3.592   9.868  14.570  1.00  0.00    -0.271 OA
BRANCH  26  27
HETATM   27  C13 UNL     1       4.437  10.251  15.643  1.00  0.00     0.303 C 
BRANCH  27  28
HETATM   28  C14 UNL     1       5.891  10.382  15.192  1.00  0.00     0.244 C 
HETATM   29  O3  UNL     1       6.329  11.309  14.517  1.00  0.00    -0.271 OA
HETATM   30  N2  UNL     1       6.688   9.323  15.603  1.00  0.00    -0.346 N 
HETATM   31  H16 UNL     1       6.397   8.877  16.467  1.00  0.00     0.163 HD
BRANCH  30  32
HETATM   32  C15 UNL     1       8.129   9.380  15.387  1.00  0.00     0.180 C 
BRANCH  32  33
HETATM   33  C16 UNL     1       8.826   9.540  16.757  1.00  0.00     0.241 C 
HETATM   34  O4  UNL     1       9.123   8.578  17.466  1.00  0.00    -0.271 OA
HETATM   35  N3  UNL     1       9.136  10.846  17.085  1.00  0.00    -0.354 N 
HETATM   36  H18 UNL     1       8.771  11.581  16.492  1.00  0.00     0.162 HD
BRANCH  35  37
HETATM   37  C17 UNL     1       9.741  11.205  18.373  1.00  0.00     0.098 C 
BRANCH  37  38
HETATM   38  C18 UNL     1      11.075  11.936  18.136  1.00  0.00     0.135 C 
BRANCH  38  39
HETATM   39  C19 UNL     1      12.055  11.728  19.258  1.00  0.00     0.141 C 
HETATM   40  O5  UNL     1      12.826  12.541  19.736  1.00  0.00    -0.650 OA
BRANCH  39  41
HETATM   41  O6  UNL     1      11.999  10.472  19.745  1.00  0.00    -0.776 OA
HETATM   42  H22 UNL     1      12.642  10.473  20.486  1.00  0.00     0.167 HD
ENDBRANCH  39  41
ENDBRANCH  38  39
ENDBRANCH  37  38
BRANCH  37  43
HETATM   43  C20 UNL     1       8.741  11.999  19.265  1.00  0.00     0.014 C 
HETATM   44  C21 UNL     1       8.861  13.514  19.026  1.00  0.00     0.033 C 
HETATM   45  C22 UNL     1       7.901  14.288  19.916  1.00  0.00     0.169 C 
HETATM   46  O7  UNL     1       8.106  13.970  21.290  1.00  0.00    -0.381 OA
HETATM   47  C23 UNL     1       7.935  12.589  21.629  1.00  0.00     0.054 C 
HETATM   48  C24 UNL     1       6.461  12.170  21.512  1.00  0.00     0.045 C 
HETATM   49  C25 UNL     1       8.350  12.465  23.104  1.00  0.00     0.045 C 
HETATM   50  C26 UNL     1       8.863  11.705  20.772  1.00  0.00     0.044 C 
ENDBRANCH  37  43
ENDBRANCH  35  37
ENDBRANCH  32  33
BRANCH  32  51
HETATM   51  C27 UNL     1       8.670   8.148  14.627  1.00  0.00     0.009 C 
HETATM   52  C28 UNL     1      10.168   8.303  14.338  1.00  0.00     0.012 C 
HETATM   53  C29 UNL     1       7.916   7.857  13.323  1.00  0.00     0.012 C 
ENDBRANCH  32  51
ENDBRANCH  30  32
ENDBRANCH  27  28
ENDBRANCH  26  27
ENDBRANCH  13  26
TORSDOF 12
ENDMDL
