MODEL 1
REMARK minimizedAffinity -9.25231075
REMARK CNNscore 0.602920175
REMARK CNNaffinity 7.14338446
REMARK  10 active torsions:
REMARK  status: ('A' for Active; 'I' for Inactive)
REMARK    1  A    between atoms: N1_15  and  C13_16 
REMARK    2  A    between atoms: C13_16  and  C14_17 
REMARK    3  A    between atoms: C14_17  and  N2_18 
REMARK    4  A    between atoms: N2_18  and  C15_19 
REMARK    5  A    between atoms: C15_19  and  C16_20 
REMARK    6  A    between atoms: C16_20  and  C17_21 
REMARK    7  A    between atoms: C17_21  and  N3_22 
REMARK    8  A    between atoms: N3_22  and  C18_23 
REMARK    9  A    between atoms: C18_23  and  C19_24 
REMARK   10  A    between atoms: C19_24  and  N4_25 
ROOT
HETATM    1  C16 UNL     1      -1.779  51.439 -27.580  1.00  0.00     0.060 C 
ENDROOT
BRANCH   1   2
HETATM    2  C15 UNL     1      -0.276  51.464 -27.283  1.00  0.00     0.271 C 
BRANCH   2   3
HETATM    3  N2  UNL     1       0.090  52.689 -26.559  1.00  0.00     0.085 N 
HETATM    4  H11 UNL     1       0.731  53.224 -27.148  1.00  0.00     0.315 HD
BRANCH   3   5
HETATM    5  C14 UNL     1       0.781  52.426 -25.286  1.00  0.00     0.289 C 
BRANCH   5   6
HETATM    6  C13 UNL     1       0.495  53.434 -24.159  1.00  0.00     0.165 C 
BRANCH   6   7
HETATM    7  N1  UNL     1       0.279  52.765 -22.875  1.00  0.00    -0.278 N 
HETATM    8  C1  UNL     1      -0.402  51.548 -22.890  1.00  0.00     0.261 A 
HETATM    9  O1  UNL     1      -0.815  51.009 -23.913  1.00  0.00    -0.267 OA
HETATM   10  C2  UNL     1      -0.610  50.879 -21.585  1.00  0.00     0.044 A 
HETATM   11  C3  UNL     1      -1.341  49.685 -21.530  1.00  0.00     0.018 A 
HETATM   12  C11 UNL     1      -0.073  51.444 -20.423  1.00  0.00     0.005 A 
HETATM   13  C4  UNL     1      -1.540  49.046 -20.309  1.00  0.00     0.002 A 
HETATM   14  C5  UNL     1      -1.008  49.596 -19.142  1.00  0.00     0.012 A 
HETATM   15  C6  UNL     1      -0.272  50.791 -19.182  1.00  0.00    -0.024 A 
HETATM   16  C7  UNL     1       0.273  51.349 -18.014  1.00  0.00     0.012 A 
HETATM   17  C8  UNL     1       1.006  52.535 -18.063  1.00  0.00     0.002 A 
HETATM   18  C9  UNL     1       1.201  53.177 -19.283  1.00  0.00     0.018 A 
HETATM   19  C10 UNL     1       0.663  52.633 -20.457  1.00  0.00     0.044 A 
HETATM   20  C12 UNL     1       0.877  53.327 -21.748  1.00  0.00     0.261 A 
HETATM   21  O2  UNL     1       1.571  54.340 -21.772  1.00  0.00    -0.267 OA
ENDBRANCH   6   7
ENDBRANCH   5   6
ENDBRANCH   3   5
ENDBRANCH   2   3
ENDBRANCH   1   2
BRANCH   1  22
HETATM   22  C17 UNL     1      -2.495  50.262 -26.910  1.00  0.00     0.271 C 
BRANCH  22  23
HETATM   23  N3  UNL     1      -3.795  50.004 -27.528  1.00  0.00     0.085 N 
HETATM   24  H18 UNL     1      -3.883  50.560 -28.381  1.00  0.00     0.315 HD
BRANCH  23  25
HETATM   25  C18 UNL     1      -3.949  48.581 -27.859  1.00  0.00     0.289 C 
BRANCH  25  26
HETATM   26  C19 UNL     1      -5.307  48.042 -27.377  1.00  0.00     0.165 C 
BRANCH  26  27
HETATM   27  N4  UNL     1      -6.261  47.903 -28.478  1.00  0.00    -0.278 N 
HETATM   28  C20 UNL     1      -7.618  47.890 -28.154  1.00  0.00     0.261 C 
HETATM   29  O3  UNL     1      -8.048  48.016 -27.010  1.00  0.00    -0.267 OA
HETATM   30  C21 UNL     1      -8.573  47.731 -29.273  1.00  0.00     0.044 A 
HETATM   31  C22 UNL     1      -9.945  47.632 -29.003  1.00  0.00     0.018 A 
HETATM   32  C30 UNL     1      -8.099  47.683 -30.589  1.00  0.00     0.005 A 
HETATM   33  C23 UNL     1     -10.852  47.480 -30.048  1.00  0.00     0.002 A 
HETATM   34  C24 UNL     1     -10.393  47.430 -31.364  1.00  0.00     0.012 A 
HETATM   35  C25 UNL     1      -9.022  47.532 -31.651  1.00  0.00    -0.024 A 
HETATM   36  C26 UNL     1      -8.551  47.490 -32.973  1.00  0.00     0.012 A 
HETATM   37  C27 UNL     1      -7.188  47.598 -33.249  1.00  0.00     0.002 A 
HETATM   38  C28 UNL     1      -6.279  47.747 -32.206  1.00  0.00     0.018 A 
HETATM   39  C29 UNL     1      -6.734  47.786 -30.880  1.00  0.00     0.044 A 
HETATM   40  C31 UNL     1      -5.758  47.939 -29.778  1.00  0.00     0.261 C 
HETATM   41  O4  UNL     1      -4.571  48.101 -30.048  1.00  0.00    -0.267 OA
ENDBRANCH  26  27
ENDBRANCH  25  26
ENDBRANCH  23  25
ENDBRANCH  22  23
ENDBRANCH   1  22
TORSDOF 10
ENDMDL
MODEL 2
REMARK minimizedAffinity -9.80049419
REMARK CNNscore 0.431333214
REMARK CNNaffinity 7.22473526
REMARK  10 active torsions:
REMARK  status: ('A' for Active; 'I' for Inactive)
REMARK    1  A    between atoms: N1_15  and  C13_16 
REMARK    2  A    between atoms: C13_16  and  C14_17 
REMARK    3  A    between atoms: C14_17  and  N2_18 
REMARK    4  A    between atoms: N2_18  and  C15_19 
REMARK    5  A    between atoms: C15_19  and  C16_20 
REMARK    6  A    between atoms: C16_20  and  C17_21 
REMARK    7  A    between atoms: C17_21  and  N3_22 
REMARK    8  A    between atoms: N3_22  and  C18_23 
REMARK    9  A    between atoms: C18_23  and  C19_24 
REMARK   10  A    between atoms: C19_24  and  N4_25 
ROOT
HETATM    1  C16 UNL     1      -0.411  53.438 -28.254  1.00  0.00     0.060 C 
ENDROOT
BRANCH   1   2
HETATM    2  C15 UNL     1      -0.617  52.025 -27.698  1.00  0.00     0.271 C 
BRANCH   2   3
HETATM    3  N2  UNL     1      -1.913  51.483 -28.127  1.00  0.00     0.085 N 
HETATM    4  H11 UNL     1      -2.441  52.238 -28.570  1.00  0.00     0.315 HD
BRANCH   3   5
HETATM    5  C14 UNL     1      -2.728  50.977 -27.010  1.00  0.00     0.289 C 
BRANCH   5   6
HETATM    6  C13 UNL     1      -2.617  49.465 -26.745  1.00  0.00     0.165 C 
BRANCH   6   7
HETATM    7  N1  UNL     1      -3.932  48.850 -26.553  1.00  0.00    -0.278 N 
HETATM    8  C1  UNL     1      -4.573  48.338 -27.681  1.00  0.00     0.261 A 
HETATM    9  O1  UNL     1      -4.093  48.365 -28.812  1.00  0.00    -0.267 OA
HETATM   10  C2  UNL     1      -5.901  47.714 -27.474  1.00  0.00     0.044 A 
HETATM   11  C3  UNL     1      -6.619  47.237 -28.578  1.00  0.00     0.018 A 
HETATM   12  C11 UNL     1      -6.420  47.604 -26.179  1.00  0.00     0.005 A 
HETATM   13  C4  UNL     1      -7.867  46.647 -28.394  1.00  0.00     0.002 A 
HETATM   14  C5  UNL     1      -8.397  46.528 -27.108  1.00  0.00     0.012 A 
HETATM   15  C6  UNL     1      -7.686  46.999 -25.993  1.00  0.00    -0.024 A 
HETATM   16  C7  UNL     1      -8.210  46.878 -24.695  1.00  0.00     0.012 A 
HETATM   17  C8  UNL     1      -7.496  47.346 -23.591  1.00  0.00     0.002 A 
HETATM   18  C9  UNL     1      -6.250  47.942 -23.774  1.00  0.00     0.018 A 
HETATM   19  C10 UNL     1      -5.717  48.071 -25.063  1.00  0.00     0.044 A 
HETATM   20  C12 UNL     1      -4.392  48.707 -25.245  1.00  0.00     0.261 A 
HETATM   21  O2  UNL     1      -3.760  49.062 -24.253  1.00  0.00    -0.267 OA
ENDBRANCH   6   7
ENDBRANCH   5   6
ENDBRANCH   3   5
ENDBRANCH   2   3
ENDBRANCH   1   2
BRANCH   1  22
HETATM   22  C17 UNL     1      -0.066  54.458 -27.164  1.00  0.00     0.271 C 
BRANCH  22  23
HETATM   23  N3  UNL     1       0.691  53.843 -26.074  1.00  0.00     0.085 N 
HETATM   24  H18 UNL     1       1.656  54.180 -26.097  1.00  0.00     0.315 HD
BRANCH  23  25
HETATM   25  C18 UNL     1       0.097  54.165 -24.770  1.00  0.00     0.289 C 
BRANCH  25  26
HETATM   26  C19 UNL     1       1.146  54.092 -23.647  1.00  0.00     0.165 C 
BRANCH  26  27
HETATM   27  N4  UNL     1       0.724  53.206 -22.562  1.00  0.00    -0.278 N 
HETATM   28  C20 UNL     1       0.085  52.018 -22.914  1.00  0.00     0.261 C 
HETATM   29  O3  UNL     1      -0.114  51.668 -24.075  1.00  0.00    -0.267 OA
HETATM   30  C21 UNL     1      -0.353  51.138 -21.808  1.00  0.00     0.044 A 
HETATM   31  C22 UNL     1      -1.070  49.969 -22.097  1.00  0.00     0.018 A 
HETATM   32  C30 UNL     1      -0.047  51.480 -20.486  1.00  0.00     0.005 A 
HETATM   33  C23 UNL     1      -1.489  49.136 -21.063  1.00  0.00     0.002 A 
HETATM   34  C24 UNL     1      -1.190  49.465 -19.741  1.00  0.00     0.012 A 
HETATM   35  C25 UNL     1      -0.470  50.631 -19.437  1.00  0.00    -0.024 A 
HETATM   36  C26 UNL     1      -0.158  50.968 -18.109  1.00  0.00     0.012 A 
HETATM   37  C27 UNL     1       0.563  52.124 -17.816  1.00  0.00     0.002 A 
HETATM   38  C28 UNL     1       0.981  52.961 -18.847  1.00  0.00     0.018 A 
HETATM   39  C29 UNL     1       0.674  52.640 -20.178  1.00  0.00     0.044 A 
HETATM   40  C31 UNL     1       1.118  53.540 -21.266  1.00  0.00     0.261 C 
HETATM   41  O4  UNL     1       1.810  54.516 -20.991  1.00  0.00    -0.267 OA
ENDBRANCH  26  27
ENDBRANCH  25  26
ENDBRANCH  23  25
ENDBRANCH  22  23
ENDBRANCH   1  22
TORSDOF 10
ENDMDL
MODEL 3
REMARK minimizedAffinity -8.51533699
REMARK CNNscore 0.335881144
REMARK CNNaffinity 6.44925165
REMARK  10 active torsions:
REMARK  status: ('A' for Active; 'I' for Inactive)
REMARK    1  A    between atoms: N1_15  and  C13_16 
REMARK    2  A    between atoms: C13_16  and  C14_17 
REMARK    3  A    between atoms: C14_17  and  N2_18 
REMARK    4  A    between atoms: N2_18  and  C15_19 
REMARK    5  A    between atoms: C15_19  and  C16_20 
REMARK    6  A    between atoms: C16_20  and  C17_21 
REMARK    7  A    between atoms: C17_21  and  N3_22 
REMARK    8  A    between atoms: N3_22  and  C18_23 
REMARK    9  A    between atoms: C18_23  and  C19_24 
REMARK   10  A    between atoms: C19_24  and  N4_25 
ROOT
HETATM    1  C16 UNL     1       0.471  50.169 -13.531  1.00  0.00     0.060 C 
ENDROOT
BRANCH   1   2
HETATM    2  C15 UNL     1       0.260  50.822 -12.161  1.00  0.00     0.271 C 
BRANCH   2   3
HETATM    3  N2  UNL     1       0.635  52.242 -12.200  1.00  0.00     0.085 N 
HETATM    4  H11 UNL     1       1.594  52.307 -12.545  1.00  0.00     0.315 HD
BRANCH   3   5
HETATM    5  C14 UNL     1       0.602  52.887 -10.876  1.00  0.00     0.289 C 
BRANCH   5   6
HETATM    6  C13 UNL     1       0.655  54.425 -10.890  1.00  0.00     0.165 C 
BRANCH   6   7
HETATM    7  N1  UNL     1       1.748  54.937 -10.062  1.00  0.00    -0.278 N 
HETATM    8  C1  UNL     1       1.409  55.727  -8.964  1.00  0.00     0.261 A 
HETATM    9  O1  UNL     1       0.253  56.003  -8.653  1.00  0.00    -0.267 OA
HETATM   10  C2  UNL     1       2.523  56.236  -8.132  1.00  0.00     0.044 A 
HETATM   11  C3  UNL     1       2.247  57.085  -7.052  1.00  0.00     0.018 A 
HETATM   12  C11 UNL     1       3.838  55.861  -8.430  1.00  0.00     0.005 A 
HETATM   13  C4  UNL     1       3.287  57.567  -6.262  1.00  0.00     0.002 A 
HETATM   14  C5  UNL     1       4.603  57.199  -6.545  1.00  0.00     0.012 A 
HETATM   15  C6  UNL     1       4.894  56.347  -7.622  1.00  0.00    -0.024 A 
HETATM   16  C7  UNL     1       6.215  55.967  -7.911  1.00  0.00     0.012 A 
HETATM   17  C8  UNL     1       6.496  55.117  -8.981  1.00  0.00     0.002 A 
HETATM   18  C9  UNL     1       5.457  54.639  -9.776  1.00  0.00     0.018 A 
HETATM   19  C10 UNL     1       4.134  55.011  -9.501  1.00  0.00     0.044 A 
HETATM   20  C12 UNL     1       3.039  54.496 -10.354  1.00  0.00     0.261 A 
HETATM   21  O2  UNL     1       3.306  53.708 -11.257  1.00  0.00    -0.267 OA
ENDBRANCH   6   7
ENDBRANCH   5   6
ENDBRANCH   3   5
ENDBRANCH   2   3
ENDBRANCH   1   2
BRANCH   1  22
HETATM   22  C17 UNL     1       0.284  51.153 -14.691  1.00  0.00     0.271 C 
BRANCH  22  23
HETATM   23  N3  UNL     1       1.159  50.826 -15.816  1.00  0.00     0.085 N 
HETATM   24  H18 UNL     1       1.992  50.344 -15.472  1.00  0.00     0.315 HD
BRANCH  23  25
HETATM   25  C18 UNL     1       0.470  49.968 -16.789  1.00  0.00     0.289 C 
BRANCH  25  26
HETATM   26  C19 UNL     1      -0.755  50.680 -17.389  1.00  0.00     0.165 C 
BRANCH  26  27
HETATM   27  N4  UNL     1      -0.497  51.163 -18.746  1.00  0.00    -0.278 N 
HETATM   28  C20 UNL     1      -1.149  50.512 -19.793  1.00  0.00     0.261 C 
HETATM   29  O3  UNL     1      -1.939  49.585 -19.635  1.00  0.00    -0.267 OA
HETATM   30  C21 UNL     1      -0.867  50.997 -21.163  1.00  0.00     0.044 A 
HETATM   31  C22 UNL     1      -1.430  50.333 -22.261  1.00  0.00     0.018 A 
HETATM   32  C30 UNL     1      -0.042  52.113 -21.348  1.00  0.00     0.005 A 
HETATM   33  C23 UNL     1      -1.170  50.779 -23.554  1.00  0.00     0.002 A 
HETATM   34  C24 UNL     1      -0.349  51.890 -23.753  1.00  0.00     0.012 A 
HETATM   35  C25 UNL     1       0.219  52.567 -22.663  1.00  0.00    -0.024 A 
HETATM   36  C26 UNL     1       1.041  53.691 -22.852  1.00  0.00     0.012 A 
HETATM   37  C27 UNL     1       1.596  54.362 -21.763  1.00  0.00     0.002 A 
HETATM   38  C28 UNL     1       1.339  53.915 -20.470  1.00  0.00     0.018 A 
HETATM   39  C29 UNL     1       0.525  52.793 -20.264  1.00  0.00     0.044 A 
HETATM   40  C31 UNL     1       0.263  52.323 -18.885  1.00  0.00     0.261 C 
HETATM   41  O4  UNL     1       0.706  52.969 -17.939  1.00  0.00    -0.267 OA
ENDBRANCH  26  27
ENDBRANCH  25  26
ENDBRANCH  23  25
ENDBRANCH  22  23
ENDBRANCH   1  22
TORSDOF 10
ENDMDL
MODEL 4
REMARK minimizedAffinity -8.65456772
REMARK CNNscore 0.323283017
REMARK CNNaffinity 6.54006767
REMARK  10 active torsions:
REMARK  status: ('A' for Active; 'I' for Inactive)
REMARK    1  A    between atoms: N1_15  and  C13_16 
REMARK    2  A    between atoms: C13_16  and  C14_17 
REMARK    3  A    between atoms: C14_17  and  N2_18 
REMARK    4  A    between atoms: N2_18  and  C15_19 
REMARK    5  A    between atoms: C15_19  and  C16_20 
REMARK    6  A    between atoms: C16_20  and  C17_21 
REMARK    7  A    between atoms: C17_21  and  N3_22 
REMARK    8  A    between atoms: N3_22  and  C18_23 
REMARK    9  A    between atoms: C18_23  and  C19_24 
REMARK   10  A    between atoms: C19_24  and  N4_25 
ROOT
HETATM    1  C16 UNL     1       0.524  51.161 -13.094  1.00  0.00     0.060 C 
ENDROOT
BRANCH   1   2
HETATM    2  C15 UNL     1      -0.144  52.172 -12.157  1.00  0.00     0.271 C 
BRANCH   2   3
HETATM    3  N2  UNL     1       0.718  53.345 -11.959  1.00  0.00     0.085 N 
HETATM    4  H11 UNL     1       1.659  53.102 -12.273  1.00  0.00     0.315 HD
BRANCH   3   5
HETATM    5  C14 UNL     1       0.820  53.759 -10.550  1.00  0.00     0.289 C 
BRANCH   5   6
HETATM    6  C13 UNL     1       1.100  55.255 -10.320  1.00  0.00     0.165 C 
BRANCH   6   7
HETATM    7  N1  UNL     1       2.310  55.464  -9.523  1.00  0.00    -0.278 N 
HETATM    8  C1  UNL     1       3.516  55.004 -10.052  1.00  0.00     0.261 A 
HETATM    9  O1  UNL     1       3.616  54.449 -11.143  1.00  0.00    -0.267 OA
HETATM   10  C2  UNL     1       4.734  55.226  -9.238  1.00  0.00     0.044 A 
HETATM   11  C3  UNL     1       5.965  54.731  -9.689  1.00  0.00     0.018 A 
HETATM   12  C11 UNL     1       4.643  55.930  -8.032  1.00  0.00     0.005 A 
HETATM   13  C4  UNL     1       7.116  54.937  -8.933  1.00  0.00     0.002 A 
HETATM   14  C5  UNL     1       7.042  55.639  -7.730  1.00  0.00     0.012 A 
HETATM   15  C6  UNL     1       5.816  56.143  -7.268  1.00  0.00    -0.024 A 
HETATM   16  C7  UNL     1       5.732  56.856  -6.060  1.00  0.00     0.012 A 
HETATM   17  C8  UNL     1       4.510  57.356  -5.609  1.00  0.00     0.002 A 
HETATM   18  C9  UNL     1       3.356  57.146  -6.361  1.00  0.00     0.018 A 
HETATM   19  C10 UNL     1       3.425  56.435  -7.567  1.00  0.00     0.044 A 
HETATM   20  C12 UNL     1       2.191  56.218  -8.357  1.00  0.00     0.261 A 
HETATM   21  O2  UNL     1       1.137  56.714  -7.965  1.00  0.00    -0.267 OA
ENDBRANCH   6   7
ENDBRANCH   5   6
ENDBRANCH   3   5
ENDBRANCH   2   3
ENDBRANCH   1   2
BRANCH   1  22
HETATM   22  C17 UNL     1       0.273  51.469 -14.573  1.00  0.00     0.271 C 
BRANCH  22  23
HETATM   23  N3  UNL     1       1.171  50.705 -15.439  1.00  0.00     0.085 N 
HETATM   24  H18 UNL     1       1.731  50.066 -14.871  1.00  0.00     0.315 HD
BRANCH  23  25
HETATM   25  C18 UNL     1       0.415  49.932 -16.433  1.00  0.00     0.289 C 
BRANCH  25  26
HETATM   26  C19 UNL     1      -0.776  50.741 -16.978  1.00  0.00     0.165 C 
BRANCH  26  27
HETATM   27  N4  UNL     1      -0.568  51.149 -18.368  1.00  0.00    -0.278 N 
HETATM   28  C20 UNL     1       0.292  52.221 -18.600  1.00  0.00     0.261 C 
HETATM   29  O3  UNL     1       0.899  52.815 -17.711  1.00  0.00    -0.267 OA
HETATM   30  C21 UNL     1       0.482  52.637 -20.008  1.00  0.00     0.044 A 
HETATM   31  C22 UNL     1       1.273  53.757 -20.298  1.00  0.00     0.018 A 
HETATM   32  C30 UNL     1      -0.130  51.908 -21.035  1.00  0.00     0.005 A 
HETATM   33  C23 UNL     1       1.455  54.158 -21.619  1.00  0.00     0.002 A 
HETATM   34  C24 UNL     1       0.851  53.441 -22.652  1.00  0.00     0.012 A 
HETATM   35  C25 UNL     1       0.059  52.315 -22.377  1.00  0.00    -0.024 A 
HETATM   36  C26 UNL     1      -0.547  51.582 -23.411  1.00  0.00     0.012 A 
HETATM   37  C27 UNL     1      -1.327  50.461 -23.129  1.00  0.00     0.002 A 
HETATM   38  C28 UNL     1      -1.514  50.060 -21.809  1.00  0.00     0.018 A 
HETATM   39  C29 UNL     1      -0.918  50.784 -20.766  1.00  0.00     0.044 A 
HETATM   40  C31 UNL     1      -1.128  50.351 -19.365  1.00  0.00     0.261 C 
HETATM   41  O4  UNL     1      -1.761  49.323 -19.145  1.00  0.00    -0.267 OA
ENDBRANCH  26  27
ENDBRANCH  25  26
ENDBRANCH  23  25
ENDBRANCH  22  23
ENDBRANCH   1  22
TORSDOF 10
ENDMDL
MODEL 5
REMARK minimizedAffinity -8.80896664
REMARK CNNscore 0.32147944
REMARK CNNaffinity 6.07836294
REMARK  10 active torsions:
REMARK  status: ('A' for Active; 'I' for Inactive)
REMARK    1  A    between atoms: N1_15  and  C13_16 
REMARK    2  A    between atoms: C13_16  and  C14_17 
REMARK    3  A    between atoms: C14_17  and  N2_18 
REMARK    4  A    between atoms: N2_18  and  C15_19 
REMARK    5  A    between atoms: C15_19  and  C16_20 
REMARK    6  A    between atoms: C16_20  and  C17_21 
REMARK    7  A    between atoms: C17_21  and  N3_22 
REMARK    8  A    between atoms: N3_22  and  C18_23 
REMARK    9  A    between atoms: C18_23  and  C19_24 
REMARK   10  A    between atoms: C19_24  and  N4_25 
ROOT
HETATM    1  C16 UNL     1      -2.810  51.858 -13.650  1.00  0.00     0.060 C 
ENDROOT
BRANCH   1   2
HETATM    2  C15 UNL     1      -2.320  51.923 -12.200  1.00  0.00     0.271 C 
BRANCH   2   3
HETATM    3  N2  UNL     1      -2.273  53.315 -11.730  1.00  0.00     0.085 N 
HETATM    4  H11 UNL     1      -1.766  53.866 -12.425  1.00  0.00     0.315 HD
BRANCH   3   5
HETATM    5  C14 UNL     1      -1.567  53.470 -10.448  1.00  0.00     0.289 C 
BRANCH   5   6
HETATM    6  C13 UNL     1      -1.432  54.917  -9.941  1.00  0.00     0.165 C 
BRANCH   6   7
HETATM    7  N1  UNL     1      -0.052  55.234  -9.566  1.00  0.00    -0.278 N 
HETATM    8  C1  UNL     1       0.963  54.796 -10.416  1.00  0.00     0.261 A 
HETATM    9  O1  UNL     1       0.762  54.175 -11.457  1.00  0.00    -0.267 OA
HETATM   10  C2  UNL     1       2.353  55.126 -10.028  1.00  0.00     0.044 A 
HETATM   11  C3  UNL     1       3.418  54.660 -10.811  1.00  0.00     0.018 A 
HETATM   12  C11 UNL     1       2.589  55.903  -8.888  1.00  0.00     0.005 A 
HETATM   13  C4  UNL     1       4.729  54.968 -10.456  1.00  0.00     0.002 A 
HETATM   14  C5  UNL     1       4.979  55.743  -9.324  1.00  0.00     0.012 A 
HETATM   15  C6  UNL     1       3.922  56.219  -8.532  1.00  0.00    -0.024 A 
HETATM   16  C7  UNL     1       4.165  57.006  -7.393  1.00  0.00     0.012 A 
HETATM   17  C8  UNL     1       3.108  57.477  -6.613  1.00  0.00     0.002 A 
HETATM   18  C9  UNL     1       1.796  57.166  -6.963  1.00  0.00     0.018 A 
HETATM   19  C10 UNL     1       1.540  56.381  -8.096  1.00  0.00     0.044 A 
HETATM   20  C12 UNL     1       0.141  56.057  -8.457  1.00  0.00     0.261 A 
HETATM   21  O2  UNL     1      -0.773  56.528  -7.785  1.00  0.00    -0.267 OA
ENDBRANCH   6   7
ENDBRANCH   5   6
ENDBRANCH   3   5
ENDBRANCH   2   3
ENDBRANCH   1   2
BRANCH   1  22
HETATM   22  C17 UNL     1      -2.103  50.770 -14.466  1.00  0.00     0.271 C 
BRANCH  22  23
HETATM   23  N3  UNL     1      -2.516  50.799 -15.868  1.00  0.00     0.085 N 
HETATM   24  H18 UNL     1      -1.902  51.426 -16.392  1.00  0.00     0.315 HD
BRANCH  23  25
HETATM   25  C18 UNL     1      -2.456  49.457 -16.463  1.00  0.00     0.289 C 
BRANCH  25  26
HETATM   26  C19 UNL     1      -1.054  49.159 -17.024  1.00  0.00     0.165 C 
BRANCH  26  27
HETATM   27  N4  UNL     1      -0.774  49.931 -18.234  1.00  0.00    -0.278 N 
HETATM   28  C20 UNL     1      -1.328  49.475 -19.430  1.00  0.00     0.261 C 
HETATM   29  O3  UNL     1      -2.053  48.487 -19.513  1.00  0.00    -0.267 OA
HETATM   30  C21 UNL     1      -1.023  50.254 -20.651  1.00  0.00     0.044 A 
HETATM   31  C22 UNL     1      -1.487  49.802 -21.893  1.00  0.00     0.018 A 
HETATM   32  C30 UNL     1      -0.277  51.435 -20.553  1.00  0.00     0.005 A 
HETATM   33  C23 UNL     1      -1.204  50.526 -23.048  1.00  0.00     0.002 A 
HETATM   34  C24 UNL     1      -0.461  51.704 -22.965  1.00  0.00     0.012 A 
HETATM   35  C25 UNL     1       0.007  52.172 -21.727  1.00  0.00    -0.024 A 
HETATM   36  C26 UNL     1       0.750  53.360 -21.631  1.00  0.00     0.012 A 
HETATM   37  C27 UNL     1       1.205  53.820 -20.396  1.00  0.00     0.002 A 
HETATM   38  C28 UNL     1       0.926  53.097 -19.241  1.00  0.00     0.018 A 
HETATM   39  C29 UNL     1       0.189  51.906 -19.320  1.00  0.00     0.044 A 
HETATM   40  C31 UNL     1      -0.097  51.141 -18.085  1.00  0.00     0.261 C 
HETATM   41  O4  UNL     1       0.255  51.600 -17.002  1.00  0.00    -0.267 OA
ENDBRANCH  26  27
ENDBRANCH  25  26
ENDBRANCH  23  25
ENDBRANCH  22  23
ENDBRANCH   1  22
TORSDOF 10
ENDMDL
MODEL 6
REMARK minimizedAffinity -9.24245167
REMARK CNNscore 0.301170915
REMARK CNNaffinity 7.05309105
REMARK  10 active torsions:
REMARK  status: ('A' for Active; 'I' for Inactive)
REMARK    1  A    between atoms: N1_15  and  C13_16 
REMARK    2  A    between atoms: C13_16  and  C14_17 
REMARK    3  A    between atoms: C14_17  and  N2_18 
REMARK    4  A    between atoms: N2_18  and  C15_19 
REMARK    5  A    between atoms: C15_19  and  C16_20 
REMARK    6  A    between atoms: C16_20  and  C17_21 
REMARK    7  A    between atoms: C17_21  and  N3_22 
REMARK    8  A    between atoms: N3_22  and  C18_23 
REMARK    9  A    between atoms: C18_23  and  C19_24 
REMARK   10  A    between atoms: C19_24  and  N4_25 
ROOT
HETATM    1  C16 UNL     1       0.070  52.075 -28.019  1.00  0.00     0.060 C 
ENDROOT
BRANCH   1   2
HETATM    2  C15 UNL     1      -1.293  52.228 -27.336  1.00  0.00     0.271 C 
BRANCH   2   3
HETATM    3  N2  UNL     1      -1.590  51.056 -26.501  1.00  0.00     0.085 N 
HETATM    4  H11 UNL     1      -0.838  50.377 -26.631  1.00  0.00     0.315 HD
BRANCH   3   5
HETATM    5  C14 UNL     1      -2.850  50.388 -26.866  1.00  0.00     0.289 C 
BRANCH   5   6
HETATM    6  C13 UNL     1      -2.908  48.880 -26.567  1.00  0.00     0.165 C 
BRANCH   6   7
HETATM    7  N1  UNL     1      -4.285  48.383 -26.549  1.00  0.00    -0.278 N 
HETATM    8  C1  UNL     1      -4.953  48.381 -25.324  1.00  0.00     0.261 A 
HETATM    9  O1  UNL     1      -4.456  48.781 -24.274  1.00  0.00    -0.267 OA
HETATM   10  C2  UNL     1      -6.347  47.880 -25.320  1.00  0.00     0.044 A 
HETATM   11  C3  UNL     1      -7.047  47.797 -24.109  1.00  0.00     0.018 A 
HETATM   12  C11 UNL     1      -6.950  47.499 -26.524  1.00  0.00     0.005 A 
HETATM   13  C4  UNL     1      -8.359  47.330 -24.094  1.00  0.00     0.002 A 
HETATM   14  C5  UNL     1      -8.974  46.949 -25.287  1.00  0.00     0.012 A 
HETATM   15  C6  UNL     1      -8.286  47.029 -26.508  1.00  0.00    -0.024 A 
HETATM   16  C7  UNL     1      -8.899  46.653 -27.714  1.00  0.00     0.012 A 
HETATM   17  C8  UNL     1      -8.209  46.738 -28.923  1.00  0.00     0.002 A 
HETATM   18  C9  UNL     1      -6.895  47.200 -28.939  1.00  0.00     0.018 A 
HETATM   19  C10 UNL     1      -6.270  47.578 -27.743  1.00  0.00     0.044 A 
HETATM   20  C12 UNL     1      -4.872  48.066 -27.773  1.00  0.00     0.261 A 
HETATM   21  O2  UNL     1      -4.304  48.182 -28.856  1.00  0.00    -0.267 OA
ENDBRANCH   6   7
ENDBRANCH   5   6
ENDBRANCH   3   5
ENDBRANCH   2   3
ENDBRANCH   1   2
BRANCH   1  22
HETATM   22  C17 UNL     1       1.228  52.003 -27.019  1.00  0.00     0.271 C 
BRANCH  22  23
HETATM   23  N3  UNL     1       1.121  53.046 -26.000  1.00  0.00     0.085 N 
HETATM   24  H18 UNL     1       0.246  53.558 -26.125  1.00  0.00     0.315 HD
BRANCH  23  25
HETATM   25  C18 UNL     1       1.155  52.470 -24.649  1.00  0.00     0.289 C 
BRANCH  25  26
HETATM   26  C19 UNL     1      -0.051  52.938 -23.815  1.00  0.00     0.165 C 
BRANCH  26  27
HETATM   27  N4  UNL     1      -0.149  52.219 -22.544  1.00  0.00    -0.278 N 
HETATM   28  C20 UNL     1       0.287  52.881 -21.397  1.00  0.00     0.261 C 
HETATM   29  O3  UNL     1       0.717  54.032 -21.394  1.00  0.00    -0.267 OA
HETATM   30  C21 UNL     1       0.199  52.138 -20.119  1.00  0.00     0.044 A 
HETATM   31  C22 UNL     1       0.694  52.721 -18.945  1.00  0.00     0.018 A 
HETATM   32  C30 UNL     1      -0.377  50.862 -20.097  1.00  0.00     0.005 A 
HETATM   33  C23 UNL     1       0.619  52.029 -17.739  1.00  0.00     0.002 A 
HETATM   34  C24 UNL     1       0.047  50.758 -17.702  1.00  0.00     0.012 A 
HETATM   35  C25 UNL     1      -0.456  50.162 -18.870  1.00  0.00    -0.024 A 
HETATM   36  C26 UNL     1      -1.040  48.885 -18.842  1.00  0.00     0.012 A 
HETATM   37  C27 UNL     1      -1.543  48.304 -20.005  1.00  0.00     0.002 A 
HETATM   38  C28 UNL     1      -1.466  48.992 -21.213  1.00  0.00     0.018 A 
HETATM   39  C29 UNL     1      -0.882  50.266 -21.258  1.00  0.00     0.044 A 
HETATM   40  C31 UNL     1      -0.801  50.987 -22.549  1.00  0.00     0.261 C 
HETATM   41  O4  UNL     1      -1.311  50.486 -23.547  1.00  0.00    -0.267 OA
ENDBRANCH  26  27
ENDBRANCH  25  26
ENDBRANCH  23  25
ENDBRANCH  22  23
ENDBRANCH   1  22
TORSDOF 10
ENDMDL
MODEL 7
REMARK minimizedAffinity -8.53280258
REMARK CNNscore 0.272008747
REMARK CNNaffinity 6.60386467
REMARK  10 active torsions:
REMARK  status: ('A' for Active; 'I' for Inactive)
REMARK    1  A    between atoms: N1_15  and  C13_16 
REMARK    2  A    between atoms: C13_16  and  C14_17 
REMARK    3  A    between atoms: C14_17  and  N2_18 
REMARK    4  A    between atoms: N2_18  and  C15_19 
REMARK    5  A    between atoms: C15_19  and  C16_20 
REMARK    6  A    between atoms: C16_20  and  C17_21 
REMARK    7  A    between atoms: C17_21  and  N3_22 
REMARK    8  A    between atoms: N3_22  and  C18_23 
REMARK    9  A    between atoms: C18_23  and  C19_24 
REMARK   10  A    between atoms: C19_24  and  N4_25 
ROOT
HETATM    1  C16 UNL     1       1.575  52.725 -16.305  1.00  0.00     0.060 C 
ENDROOT
BRANCH   1   2
HETATM    2  C15 UNL     1       1.446  51.623 -15.248  1.00  0.00     0.271 C 
BRANCH   2   3
HETATM    3  N2  UNL     1       1.585  52.181 -13.896  1.00  0.00     0.085 N 
HETATM    4  H11 UNL     1       2.097  51.505 -13.327  1.00  0.00     0.315 HD
BRANCH   3   5
HETATM    5  C14 UNL     1       0.293  52.423 -13.233  1.00  0.00     0.289 C 
BRANCH   5   6
HETATM    6  C13 UNL     1       0.296  52.257 -11.703  1.00  0.00     0.165 C 
BRANCH   6   7
HETATM    7  N1  UNL     1       1.529  52.770 -11.104  1.00  0.00    -0.278 N 
HETATM    8  C1  UNL     1       1.552  54.113 -10.727  1.00  0.00     0.261 A 
HETATM    9  O1  UNL     1       0.599  54.876 -10.859  1.00  0.00    -0.267 OA
HETATM   10  C2  UNL     1       2.804  54.619 -10.118  1.00  0.00     0.044 A 
HETATM   11  C3  UNL     1       2.907  55.973  -9.776  1.00  0.00     0.018 A 
HETATM   12  C11 UNL     1       3.867  53.739  -9.887  1.00  0.00     0.005 A 
HETATM   13  C4  UNL     1       4.079  56.458  -9.200  1.00  0.00     0.002 A 
HETATM   14  C5  UNL     1       5.147  55.592  -8.962  1.00  0.00     0.012 A 
HETATM   15  C6  UNL     1       5.056  54.232  -9.297  1.00  0.00    -0.024 A 
HETATM   16  C7  UNL     1       6.124  53.352  -9.056  1.00  0.00     0.012 A 
HETATM   17  C8  UNL     1       6.025  52.001  -9.389  1.00  0.00     0.002 A 
HETATM   18  C9  UNL     1       4.855  51.515  -9.970  1.00  0.00     0.018 A 
HETATM   19  C10 UNL     1       3.783  52.382 -10.218  1.00  0.00     0.044 A 
HETATM   20  C12 UNL     1       2.546  51.854 -10.837  1.00  0.00     0.261 A 
HETATM   21  O2  UNL     1       2.463  50.651 -11.072  1.00  0.00    -0.267 OA
ENDBRANCH   6   7
ENDBRANCH   5   6
ENDBRANCH   3   5
ENDBRANCH   2   3
ENDBRANCH   1   2
BRANCH   1  22
HETATM   22  C17 UNL     1       1.470  52.189 -17.736  1.00  0.00     0.271 C 
BRANCH  22  23
HETATM   23  N3  UNL     1       0.842  53.163 -18.628  1.00  0.00     0.085 N 
HETATM   24  H18 UNL     1       1.366  53.212 -19.503  1.00  0.00     0.315 HD
BRANCH  23  25
HETATM   25  C18 UNL     1      -0.550  52.792 -18.918  1.00  0.00     0.289 C 
BRANCH  25  26
HETATM   26  C19 UNL     1      -0.620  51.484 -19.725  1.00  0.00     0.165 C 
BRANCH  26  27
HETATM   27  N4  UNL     1      -0.960  51.724 -21.127  1.00  0.00    -0.278 N 
HETATM   28  C20 UNL     1       0.089  52.005 -22.003  1.00  0.00     0.261 C 
HETATM   29  O3  UNL     1       1.270  52.033 -21.667  1.00  0.00    -0.267 OA
HETATM   30  C21 UNL     1      -0.268  52.264 -23.416  1.00  0.00     0.044 A 
HETATM   31  C22 UNL     1       0.733  52.629 -24.326  1.00  0.00     0.018 A 
HETATM   32  C30 UNL     1      -1.600  52.142 -23.829  1.00  0.00     0.005 A 
HETATM   33  C23 UNL     1       0.407  52.877 -25.657  1.00  0.00     0.002 A 
HETATM   34  C24 UNL     1      -0.916  52.759 -26.082  1.00  0.00     0.012 A 
HETATM   35  C25 UNL     1      -1.929  52.390 -25.182  1.00  0.00    -0.024 A 
HETATM   36  C26 UNL     1      -3.263  52.262 -25.602  1.00  0.00     0.012 A 
HETATM   37  C27 UNL     1      -4.262  51.889 -24.703  1.00  0.00     0.002 A 
HETATM   38  C28 UNL     1      -3.940  51.644 -23.371  1.00  0.00     0.018 A 
HETATM   39  C29 UNL     1      -2.613  51.772 -22.936  1.00  0.00     0.044 A 
HETATM   40  C31 UNL     1      -2.282  51.514 -21.516  1.00  0.00     0.261 C 
HETATM   41  O4  UNL     1      -3.165  51.122 -20.759  1.00  0.00    -0.267 OA
ENDBRANCH  26  27
ENDBRANCH  25  26
ENDBRANCH  23  25
ENDBRANCH  22  23
ENDBRANCH   1  22
TORSDOF 10
ENDMDL
MODEL 8
REMARK minimizedAffinity -8.46493912
REMARK CNNscore 0.23625496
REMARK CNNaffinity 6.36294985
REMARK  10 active torsions:
REMARK  status: ('A' for Active; 'I' for Inactive)
REMARK    1  A    between atoms: N1_15  and  C13_16 
REMARK    2  A    between atoms: C13_16  and  C14_17 
REMARK    3  A    between atoms: C14_17  and  N2_18 
REMARK    4  A    between atoms: N2_18  and  C15_19 
REMARK    5  A    between atoms: C15_19  and  C16_20 
REMARK    6  A    between atoms: C16_20  and  C17_21 
REMARK    7  A    between atoms: C17_21  and  N3_22 
REMARK    8  A    between atoms: N3_22  and  C18_23 
REMARK    9  A    between atoms: C18_23  and  C19_24 
REMARK   10  A    between atoms: C19_24  and  N4_25 
ROOT
HETATM    1  C16 UNL     1      -7.278  47.710 -28.570  1.00  0.00     0.060 C 
ENDROOT
BRANCH   1   2
HETATM    2  C15 UNL     1      -8.763  47.910 -28.253  1.00  0.00     0.271 C 
BRANCH   2   3
HETATM    3  N2  UNL     1      -9.435  48.628 -29.345  1.00  0.00     0.085 N 
HETATM    4  H11 UNL     1      -9.690  49.556 -29.003  1.00  0.00     0.315 HD
BRANCH   3   5
HETATM    5  C14 UNL     1     -10.674  47.972 -29.794  1.00  0.00     0.289 C 
BRANCH   5   6
HETATM    6  C13 UNL     1     -10.623  47.365 -31.208  1.00  0.00     0.165 C 
BRANCH   6   7
HETATM    7  N1  UNL     1      -9.373  46.640 -31.443  1.00  0.00    -0.278 N 
HETATM    8  C1  UNL     1      -9.378  45.262 -31.231  1.00  0.00     0.261 A 
HETATM    9  O1  UNL     1     -10.369  44.629 -30.874  1.00  0.00    -0.267 OA
HETATM   10  C2  UNL     1      -8.109  44.539 -31.476  1.00  0.00     0.044 A 
HETATM   11  C3  UNL     1      -8.037  43.163 -31.222  1.00  0.00     0.018 A 
HETATM   12  C11 UNL     1      -6.997  45.236 -31.963  1.00  0.00     0.005 A 
HETATM   13  C4  UNL     1      -6.849  42.474 -31.452  1.00  0.00     0.002 A 
HETATM   14  C5  UNL     1      -5.733  43.156 -31.939  1.00  0.00     0.012 A 
HETATM   15  C6  UNL     1      -5.791  44.534 -32.201  1.00  0.00    -0.024 A 
HETATM   16  C7  UNL     1      -4.675  45.227 -32.697  1.00  0.00     0.012 A 
HETATM   17  C8  UNL     1      -4.742  46.596 -32.957  1.00  0.00     0.002 A 
HETATM   18  C9  UNL     1      -5.928  47.288 -32.723  1.00  0.00     0.018 A 
HETATM   19  C10 UNL     1      -7.049  46.609 -32.227  1.00  0.00     0.044 A 
HETATM   20  C12 UNL     1      -8.304  47.356 -31.981  1.00  0.00     0.261 A 
HETATM   21  O2  UNL     1      -8.354  48.550 -32.268  1.00  0.00    -0.267 OA
ENDBRANCH   6   7
ENDBRANCH   5   6
ENDBRANCH   3   5
ENDBRANCH   2   3
ENDBRANCH   1   2
BRANCH   1  22
HETATM   22  C17 UNL     1      -6.414  47.591 -27.311  1.00  0.00     0.271 C 
BRANCH  22  23
HETATM   23  N3  UNL     1      -5.240  48.460 -27.382  1.00  0.00     0.085 N 
HETATM   24  H18 UNL     1      -5.539  49.437 -27.379  1.00  0.00     0.315 HD
BRANCH  23  25
HETATM   25  C18 UNL     1      -4.341  48.227 -26.244  1.00  0.00     0.289 C 
BRANCH  25  26
HETATM   26  C19 UNL     1      -4.460  49.352 -25.201  1.00  0.00     0.165 C 
BRANCH  26  27
HETATM   27  N4  UNL     1      -3.186  50.040 -24.992  1.00  0.00    -0.278 N 
HETATM   28  C20 UNL     1      -2.896  50.474 -23.699  1.00  0.00     0.261 C 
HETATM   29  O3  UNL     1      -3.632  50.285 -22.733  1.00  0.00    -0.267 OA
HETATM   30  C21 UNL     1      -1.612  51.185 -23.502  1.00  0.00     0.044 A 
HETATM   31  C22 UNL     1      -1.301  51.713 -22.242  1.00  0.00     0.018 A 
HETATM   32  C30 UNL     1      -0.723  51.321 -24.574  1.00  0.00     0.005 A 
HETATM   33  C23 UNL     1      -0.097  52.385 -22.046  1.00  0.00     0.002 A 
HETATM   34  C24 UNL     1       0.798  52.529 -23.106  1.00  0.00     0.012 A 
HETATM   35  C25 UNL     1       0.501  52.002 -24.373  1.00  0.00    -0.024 A 
HETATM   36  C26 UNL     1       1.399  52.135 -25.445  1.00  0.00     0.012 A 
HETATM   37  C27 UNL     1       1.099  51.603 -26.699  1.00  0.00     0.002 A 
HETATM   38  C28 UNL     1      -0.105  50.933 -26.897  1.00  0.00     0.018 A 
HETATM   39  C29 UNL     1      -1.013  50.795 -25.838  1.00  0.00     0.044 A 
HETATM   40  C31 UNL     1      -2.293  50.086 -26.062  1.00  0.00     0.261 C 
HETATM   41  O4  UNL     1      -2.507  49.567 -27.154  1.00  0.00    -0.267 OA
ENDBRANCH  26  27
ENDBRANCH  25  26
ENDBRANCH  23  25
ENDBRANCH  22  23
ENDBRANCH   1  22
TORSDOF 10
ENDMDL
MODEL 9
REMARK minimizedAffinity -8.52989578
REMARK CNNscore 0.22905682
REMARK CNNaffinity 5.98877668
REMARK  10 active torsions:
REMARK  status: ('A' for Active; 'I' for Inactive)
REMARK    1  A    between atoms: N1_15  and  C13_16 
REMARK    2  A    between atoms: C13_16  and  C14_17 
REMARK    3  A    between atoms: C14_17  and  N2_18 
REMARK    4  A    between atoms: N2_18  and  C15_19 
REMARK    5  A    between atoms: C15_19  and  C16_20 
REMARK    6  A    between atoms: C16_20  and  C17_21 
REMARK    7  A    between atoms: C17_21  and  N3_22 
REMARK    8  A    between atoms: N3_22  and  C18_23 
REMARK    9  A    between atoms: C18_23  and  C19_24 
REMARK   10  A    between atoms: C19_24  and  N4_25 
ROOT
HETATM    1  C16 UNL     1      -7.392  49.205 -23.564  1.00  0.00     0.060 C 
ENDROOT
BRANCH   1   2
HETATM    2  C15 UNL     1      -6.160  48.515 -24.158  1.00  0.00     0.271 C 
BRANCH   2   3
HETATM    3  N2  UNL     1      -6.274  48.417 -25.620  1.00  0.00     0.085 N 
HETATM    4  H11 UNL     1      -6.650  49.300 -25.968  1.00  0.00     0.315 HD
BRANCH   3   5
HETATM    5  C14 UNL     1      -7.188  47.349 -26.059  1.00  0.00     0.289 C 
BRANCH   5   6
HETATM    6  C13 UNL     1      -7.971  47.642 -27.352  1.00  0.00     0.165 C 
BRANCH   6   7
HETATM    7  N1  UNL     1      -7.464  46.861 -28.482  1.00  0.00    -0.278 N 
HETATM    8  C1  UNL     1      -6.400  47.395 -29.207  1.00  0.00     0.261 A 
HETATM    9  O1  UNL     1      -5.863  48.469 -28.944  1.00  0.00    -0.267 OA
HETATM   10  C2  UNL     1      -5.893  46.594 -30.346  1.00  0.00     0.044 A 
HETATM   11  C3  UNL     1      -4.866  47.108 -31.148  1.00  0.00     0.018 A 
HETATM   12  C11 UNL     1      -6.442  45.333 -30.604  1.00  0.00     0.005 A 
HETATM   13  C4  UNL     1      -4.381  46.361 -32.219  1.00  0.00     0.002 A 
HETATM   14  C5  UNL     1      -4.917  45.101 -32.488  1.00  0.00     0.012 A 
HETATM   15  C6  UNL     1      -5.945  44.573 -31.690  1.00  0.00    -0.024 A 
HETATM   16  C7  UNL     1      -6.487  43.303 -31.950  1.00  0.00     0.012 A 
HETATM   17  C8  UNL     1      -7.506  42.785 -31.150  1.00  0.00     0.002 A 
HETATM   18  C9  UNL     1      -7.996  43.533 -30.082  1.00  0.00     0.018 A 
HETATM   19  C10 UNL     1      -7.466  44.801 -29.812  1.00  0.00     0.044 A 
HETATM   20  C12 UNL     1      -7.996  45.587 -28.674  1.00  0.00     0.261 A 
HETATM   21  O2  UNL     1      -8.856  45.087 -27.954  1.00  0.00    -0.267 OA
ENDBRANCH   6   7
ENDBRANCH   5   6
ENDBRANCH   3   5
ENDBRANCH   2   3
ENDBRANCH   1   2
BRANCH   1  22
HETATM   22  C17 UNL     1      -7.079  49.969 -22.274  1.00  0.00     0.271 C 
BRANCH  22  23
HETATM   23  N3  UNL     1      -5.811  50.691 -22.373  1.00  0.00     0.085 N 
HETATM   24  H18 UNL     1      -5.986  51.645 -22.694  1.00  0.00     0.315 HD
BRANCH  23  25
HETATM   25  C18 UNL     1      -5.125  50.735 -21.075  1.00  0.00     0.289 C 
BRANCH  25  26
HETATM   26  C19 UNL     1      -3.841  49.886 -21.095  1.00  0.00     0.165 C 
BRANCH  26  27
HETATM   27  N4  UNL     1      -2.671  50.675 -21.482  1.00  0.00    -0.278 N 
HETATM   28  C20 UNL     1      -2.393  50.785 -22.844  1.00  0.00     0.261 C 
HETATM   29  O3  UNL     1      -3.088  50.285 -23.725  1.00  0.00    -0.267 OA
HETATM   30  C21 UNL     1      -1.197  51.571 -23.223  1.00  0.00     0.044 A 
HETATM   31  C22 UNL     1      -0.823  51.652 -24.571  1.00  0.00     0.018 A 
HETATM   32  C30 UNL     1      -0.454  52.224 -22.233  1.00  0.00     0.005 A 
HETATM   33  C23 UNL     1       0.302  52.386 -24.938  1.00  0.00     0.002 A 
HETATM   34  C24 UNL     1       1.052  53.042 -23.962  1.00  0.00     0.012 A 
HETATM   35  C25 UNL     1       0.687  52.973 -22.608  1.00  0.00    -0.024 A 
HETATM   36  C26 UNL     1       1.432  53.635 -21.619  1.00  0.00     0.012 A 
HETATM   37  C27 UNL     1       1.058  53.566 -20.277  1.00  0.00     0.002 A 
HETATM   38  C28 UNL     1      -0.064  52.830 -19.907  1.00  0.00     0.018 A 
HETATM   39  C29 UNL     1      -0.815  52.159 -20.883  1.00  0.00     0.044 A 
HETATM   40  C31 UNL     1      -2.004  51.375 -20.478  1.00  0.00     0.261 C 
HETATM   41  O4  UNL     1      -2.353  51.384 -19.301  1.00  0.00    -0.267 OA
ENDBRANCH  26  27
ENDBRANCH  25  26
ENDBRANCH  23  25
ENDBRANCH  22  23
ENDBRANCH   1  22
TORSDOF 10
ENDMDL
