MODEL 1
REMARK minimizedAffinity -7.94969511
REMARK CNNscore 0.622496665
REMARK CNNaffinity 6.84995794
REMARK  15 active torsions:
REMARK  status: ('A' for Active; 'I' for Inactive)
REMARK    1  A    between atoms: C2_2  and  C3_3 
REMARK    2  A    between atoms: C2_2  and  C37_47 
REMARK    3  A    between atoms: C3_3  and  C4_4 
REMARK    4  A    between atoms: C4_4  and  C5_5 
REMARK    5  A    between atoms: C5_5  and  C6_6 
REMARK    6  A    between atoms: C5_5  and  C13_20 
REMARK    7  A    between atoms: C6_6  and  O2_8 
REMARK    8  A    between atoms: O2_8  and  C7_9 
REMARK    9  A    between atoms: C8_11  and  C9_12 
REMARK   10  A    between atoms: C9_12  and  O4_13 
REMARK   11  A    between atoms: C10_14  and  O5_15 
REMARK   12  A    between atoms: C11_16  and  O6_17 
REMARK   13  A    between atoms: C12_18  and  O7_19 
REMARK   14  A    between atoms: C14_21  and  O8_22 
REMARK   15  A    between atoms: O8_22  and  C15_23 
ROOT
HETATM    1  C13 UNL     1       3.655  11.450  19.976  1.00  0.00     0.038 C 
HETATM    2  C14 UNL     1       2.691  10.767  20.990  1.00  0.00     0.138 C 
HETATM    3  C17 UNL     1       1.245  11.037  20.496  1.00  0.00     0.047 C 
HETATM    4  C18 UNL     1       1.405  11.675  19.099  1.00  0.00    -0.010 C 
HETATM    5  C19 UNL     1       1.522  10.508  18.069  1.00  0.00     0.021 C 
HETATM    6  C20 UNL     1       0.291  12.564  18.549  1.00  0.00    -0.068 C 
HETATM    7  C21 UNL     1       0.581  13.575  17.690  1.00  0.00    -0.068 C 
HETATM    8  C22 UNL     1       2.031  13.901  17.309  1.00  0.00     0.036 C 
HETATM    9  C23 UNL     1       3.152  13.065  17.958  1.00  0.00     0.015 C 
HETATM   10  C24 UNL     1       2.719  12.512  19.316  1.00  0.00    -0.026 C 
HETATM   11  C25 UNL     1       2.521  13.718  20.294  1.00  0.00     0.016 C 
HETATM   12  C26 UNL     1      -0.524  14.483  17.085  1.00  0.00    -0.015 C 
HETATM   13  C27 UNL     1      -0.553  15.767  17.944  1.00  0.00     0.020 C 
HETATM   14  C28 UNL     1      -0.221  14.828  15.609  1.00  0.00     0.021 C 
HETATM   15  C29 UNL     1      -1.263  15.694  14.921  1.00  0.00     0.080 C 
HETATM   16  C30 UNL     1      -2.627  15.702  15.562  1.00  0.00     0.135 C 
HETATM   17  O10 UNL     1      -3.386  16.648  15.326  1.00  0.00    -0.297 OA
HETATM   18  C31 UNL     1      -3.083  14.501  16.403  1.00  0.00     0.018 C 
HETATM   19  C32 UNL     1      -3.811  13.554  15.423  1.00  0.00     0.023 C 
HETATM   20  C33 UNL     1      -4.128  15.017  17.424  1.00  0.00     0.023 C 
HETATM   21  C34 UNL     1      -1.892  13.723  17.072  1.00  0.00     0.013 C 
HETATM   22  C35 UNL     1      -2.205  13.154  18.466  1.00  0.00     0.011 C 
HETATM   23  C36 UNL     1      -1.115  12.205  18.959  1.00  0.00     0.036 C 
ENDROOT
BRANCH   1  24
HETATM   24  C5  UNL     1       5.015  11.967  20.528  1.00  0.00     0.093 C 
BRANCH  24  25
HETATM   25  C4  UNL     1       5.396  11.502  21.952  1.00  0.00     0.019 C 
BRANCH  25  26
HETATM   26  C3  UNL     1       5.516  12.664  22.951  1.00  0.00     0.034 C 
BRANCH  26  27
HETATM   27  C2  UNL     1       6.930  13.209  23.018  1.00  0.00    -0.086 C 
HETATM   28  C1  UNL     1       7.966  12.373  23.213  1.00  0.00     0.014 C 
BRANCH  27  29
HETATM   29  C37 UNL     1       7.078  14.722  22.878  1.00  0.00     0.005 C 
HETATM   30  C38 UNL     1       8.264  15.315  23.649  1.00  0.00     0.014 C 
HETATM   31  C39 UNL     1       5.784  15.431  23.285  1.00  0.00     0.014 C 
ENDBRANCH  27  29
ENDBRANCH  26  27
ENDBRANCH  25  26
ENDBRANCH  24  25
BRANCH  24  32
HETATM   32  C6  UNL     1       6.131  11.537  19.576  1.00  0.00     0.266 C 
HETATM   33  O1  UNL     1       7.317  11.765  19.771  1.00  0.00    -0.265 OA
BRANCH  32  34
HETATM   34  O2  UNL     1       5.631  10.880  18.495  1.00  0.00    -0.287 OA
BRANCH  34  35
HETATM   35  C7  UNL     1       6.202  11.262  17.237  1.00  0.00     0.301 C 
HETATM   36  O3  UNL     1       7.560  10.768  17.167  1.00  0.00    -0.348 OA
HETATM   37  C8  UNL     1       7.628   9.461  16.602  1.00  0.00     0.179 C 
HETATM   38  C10 UNL     1       7.311   9.526  15.089  1.00  0.00     0.180 C 
HETATM   39  C11 UNL     1       6.246  10.605  14.800  1.00  0.00     0.183 C 
HETATM   40  C12 UNL     1       5.337  10.801  16.025  1.00  0.00     0.205 C 
BRANCH  37  41
HETATM   41  C9  UNL     1       9.026   8.874  16.825  1.00  0.00     0.198 C 
BRANCH  41  42
HETATM   42  O4  UNL     1       8.943   7.459  16.991  1.00  0.00    -0.398 OA
HETATM   43  H12 UNL     1       9.855   7.133  17.082  1.00  0.00     0.209 HD
ENDBRANCH  41  42
ENDBRANCH  37  41
BRANCH  38  44
HETATM   44  O5  UNL     1       6.860   8.249  14.627  1.00  0.00    -0.390 OA
HETATM   45  H14 UNL     1       7.518   7.597  14.954  1.00  0.00     0.210 HD
ENDBRANCH  38  44
BRANCH  39  46
HETATM   46  O6  UNL     1       6.860  11.850  14.436  1.00  0.00    -0.390 OA
HETATM   47  H16 UNL     1       7.593  12.021  15.056  1.00  0.00     0.210 HD
ENDBRANCH  39  46
BRANCH  40  48
HETATM   48  O7  UNL     1       4.636   9.580  16.332  1.00  0.00    -0.388 OA
HETATM   49  H18 UNL     1       4.391   9.153  15.491  1.00  0.00     0.210 HD
ENDBRANCH  40  48
ENDBRANCH  34  35
ENDBRANCH  32  34
ENDBRANCH  24  32
ENDBRANCH   1  24
BRANCH   2  50
HETATM   50  O8  UNL     1       2.964   9.358  21.020  1.00  0.00    -0.316 OA
BRANCH  50  51
HETATM   51  C15 UNL     1       2.522   8.696  22.125  1.00  0.00     0.255 C 
HETATM   52  C16 UNL     1       3.050   9.352  23.363  1.00  0.00     0.126 C 
HETATM   53  O9  UNL     1       1.803   7.706  22.125  1.00  0.00    -0.266 OA
ENDBRANCH  50  51
ENDBRANCH   2  50
TORSDOF 15
ENDMDL
MODEL 2
REMARK minimizedAffinity -10.0491476
REMARK CNNscore 0.56873548
REMARK CNNaffinity 7.77779579
REMARK  15 active torsions:
REMARK  status: ('A' for Active; 'I' for Inactive)
REMARK    1  A    between atoms: C2_2  and  C3_3 
REMARK    2  A    between atoms: C2_2  and  C37_47 
REMARK    3  A    between atoms: C3_3  and  C4_4 
REMARK    4  A    between atoms: C4_4  and  C5_5 
REMARK    5  A    between atoms: C5_5  and  C6_6 
REMARK    6  A    between atoms: C5_5  and  C13_20 
REMARK    7  A    between atoms: C6_6  and  O2_8 
REMARK    8  A    between atoms: O2_8  and  C7_9 
REMARK    9  A    between atoms: C8_11  and  C9_12 
REMARK   10  A    between atoms: C9_12  and  O4_13 
REMARK   11  A    between atoms: C10_14  and  O5_15 
REMARK   12  A    between atoms: C11_16  and  O6_17 
REMARK   13  A    between atoms: C12_18  and  O7_19 
REMARK   14  A    between atoms: C14_21  and  O8_22 
REMARK   15  A    between atoms: O8_22  and  C15_23 
ROOT
HETATM    1  C13 UNL     1       1.240   7.868  13.799  1.00  0.00     0.038 C 
HETATM    2  C14 UNL     1       1.248   9.031  14.835  1.00  0.00     0.138 C 
HETATM    3  C17 UNL     1      -0.175   9.103  15.450  1.00  0.00     0.047 C 
HETATM    4  C18 UNL     1      -0.909   7.850  14.924  1.00  0.00    -0.010 C 
HETATM    5  C19 UNL     1      -0.568   6.675  15.893  1.00  0.00     0.021 C 
HETATM    6  C20 UNL     1      -2.435   7.855  14.844  1.00  0.00    -0.068 C 
HETATM    7  C21 UNL     1      -3.074   7.114  13.902  1.00  0.00    -0.068 C 
HETATM    8  C22 UNL     1      -2.290   6.320  12.849  1.00  0.00     0.036 C 
HETATM    9  C23 UNL     1      -0.752   6.414  12.875  1.00  0.00     0.015 C 
HETATM   10  C24 UNL     1      -0.284   7.736  13.485  1.00  0.00    -0.026 C 
HETATM   11  C25 UNL     1      -0.727   8.896  12.533  1.00  0.00     0.016 C 
HETATM   12  C26 UNL     1      -4.623   7.067  13.805  1.00  0.00    -0.015 C 
HETATM   13  C27 UNL     1      -5.024   8.072  12.702  1.00  0.00     0.020 C 
HETATM   14  C28 UNL     1      -5.120   5.648  13.447  1.00  0.00     0.021 C 
HETATM   15  C29 UNL     1      -6.629   5.496  13.356  1.00  0.00     0.080 C 
HETATM   16  C30 UNL     1      -7.433   6.553  14.067  1.00  0.00     0.135 C 
HETATM   17  O10 UNL     1      -8.606   6.737  13.722  1.00  0.00    -0.297 OA
HETATM   18  C31 UNL     1      -6.824   7.303  15.260  1.00  0.00     0.018 C 
HETATM   19  C32 UNL     1      -7.224   6.494  16.514  1.00  0.00     0.023 C 
HETATM   20  C33 UNL     1      -7.520   8.684  15.348  1.00  0.00     0.023 C 
HETATM   21  C34 UNL     1      -5.256   7.401  15.197  1.00  0.00     0.013 C 
HETATM   22  C35 UNL     1      -4.676   8.713  15.751  1.00  0.00     0.011 C 
HETATM   23  C36 UNL     1      -3.157   8.656  15.898  1.00  0.00     0.036 C 
ENDROOT
BRANCH   1  24
HETATM   24  C5  UNL     1       2.195   8.000  12.577  1.00  0.00     0.093 C 
BRANCH  24  25
HETATM   25  C4  UNL     1       1.576   8.584  11.286  1.00  0.00     0.019 C 
BRANCH  25  26
HETATM   26  C3  UNL     1       1.518   7.565  10.137  1.00  0.00     0.034 C 
BRANCH  26  27
HETATM   27  C2  UNL     1       0.935   8.171   8.873  1.00  0.00    -0.086 C 
HETATM   28  C1  UNL     1      -0.356   8.547   8.839  1.00  0.00     0.014 C 
BRANCH  27  29
HETATM   29  C37 UNL     1       1.883   8.293   7.684  1.00  0.00     0.005 C 
HETATM   30  C38 UNL     1       1.903   7.068   6.762  1.00  0.00     0.014 C 
HETATM   31  C39 UNL     1       3.304   8.613   8.157  1.00  0.00     0.014 C 
ENDBRANCH  27  29
ENDBRANCH  26  27
ENDBRANCH  25  26
ENDBRANCH  24  25
BRANCH  24  32
HETATM   32  C6  UNL     1       3.383   8.878  12.971  1.00  0.00     0.266 C 
HETATM   33  O1  UNL     1       3.491  10.055  12.658  1.00  0.00    -0.265 OA
BRANCH  32  34
HETATM   34  O2  UNL     1       4.293   8.178  13.701  1.00  0.00    -0.287 OA
BRANCH  34  35
HETATM   35  C7  UNL     1       5.661   8.539  13.470  1.00  0.00     0.301 C 
HETATM   36  O3  UNL     1       6.005   9.651  14.329  1.00  0.00    -0.348 OA
HETATM   37  C8  UNL     1       6.516   9.219  15.588  1.00  0.00     0.179 C 
HETATM   38  C10 UNL     1       7.923   8.605  15.402  1.00  0.00     0.180 C 
HETATM   39  C11 UNL     1       8.017   7.852  14.058  1.00  0.00     0.183 C 
HETATM   40  C12 UNL     1       6.632   7.331  13.638  1.00  0.00     0.205 C 
BRANCH  37  41
HETATM   41  C9  UNL     1       6.580  10.406  16.554  1.00  0.00     0.198 C 
BRANCH  41  42
HETATM   42  O4  UNL     1       7.143   9.996  17.800  1.00  0.00    -0.398 OA
HETATM   43  H12 UNL     1       7.204  10.792  18.356  1.00  0.00     0.209 HD
ENDBRANCH  41  42
ENDBRANCH  37  41
BRANCH  38  44
HETATM   44  O5  UNL     1       8.220   7.719  16.487  1.00  0.00    -0.390 OA
HETATM   45  H14 UNL     1       8.018   8.222  17.306  1.00  0.00     0.210 HD
ENDBRANCH  38  44
BRANCH  39  46
HETATM   46  O6  UNL     1       8.560   8.696  13.031  1.00  0.00    -0.390 OA
HETATM   47  H16 UNL     1       8.124   9.565  13.091  1.00  0.00     0.210 HD
ENDBRANCH  39  46
BRANCH  40  48
HETATM   48  O7  UNL     1       6.127   6.401  14.614  1.00  0.00    -0.388 OA
HETATM   49  H18 UNL     1       6.875   5.864  14.935  1.00  0.00     0.210 HD
ENDBRANCH  40  48
ENDBRANCH  34  35
ENDBRANCH  32  34
ENDBRANCH  24  32
ENDBRANCH   1  24
BRANCH   2  50
HETATM   50  O8  UNL     1       2.226   8.749  15.848  1.00  0.00    -0.316 OA
BRANCH  50  51
HETATM   51  C15 UNL     1       2.448   9.748  16.747  1.00  0.00     0.255 C 
HETATM   52  C16 UNL     1       2.894  10.988  16.036  1.00  0.00     0.126 C 
HETATM   53  O9  UNL     1       2.313   9.660  17.959  1.00  0.00    -0.266 OA
ENDBRANCH  50  51
ENDBRANCH   2  50
TORSDOF 15
ENDMDL
MODEL 3
REMARK minimizedAffinity -9.84488869
REMARK CNNscore 0.32163471
REMARK CNNaffinity 7.5440774
REMARK  15 active torsions:
REMARK  status: ('A' for Active; 'I' for Inactive)
REMARK    1  A    between atoms: C2_2  and  C3_3 
REMARK    2  A    between atoms: C2_2  and  C37_47 
REMARK    3  A    between atoms: C3_3  and  C4_4 
REMARK    4  A    between atoms: C4_4  and  C5_5 
REMARK    5  A    between atoms: C5_5  and  C6_6 
REMARK    6  A    between atoms: C5_5  and  C13_20 
REMARK    7  A    between atoms: C6_6  and  O2_8 
REMARK    8  A    between atoms: O2_8  and  C7_9 
REMARK    9  A    between atoms: C8_11  and  C9_12 
REMARK   10  A    between atoms: C9_12  and  O4_13 
REMARK   11  A    between atoms: C10_14  and  O5_15 
REMARK   12  A    between atoms: C11_16  and  O6_17 
REMARK   13  A    between atoms: C12_18  and  O7_19 
REMARK   14  A    between atoms: C14_21  and  O8_22 
REMARK   15  A    between atoms: O8_22  and  C15_23 
ROOT
HETATM    1  C13 UNL     1       0.681   8.574  13.894  1.00  0.00     0.038 C 
HETATM    2  C14 UNL     1       0.565   9.896  14.707  1.00  0.00     0.138 C 
HETATM    3  C17 UNL     1      -0.869   9.942  15.299  1.00  0.00     0.047 C 
HETATM    4  C18 UNL     1      -1.475   8.552  15.004  1.00  0.00    -0.010 C 
HETATM    5  C19 UNL     1      -1.043   7.604  16.166  1.00  0.00     0.021 C 
HETATM    6  C20 UNL     1      -2.993   8.398  14.924  1.00  0.00    -0.068 C 
HETATM    7  C21 UNL     1      -3.545   7.446  14.128  1.00  0.00    -0.068 C 
HETATM    8  C22 UNL     1      -2.673   6.556  13.233  1.00  0.00     0.036 C 
HETATM    9  C23 UNL     1      -1.151   6.798  13.242  1.00  0.00     0.015 C 
HETATM   10  C24 UNL     1      -0.818   8.245  13.608  1.00  0.00    -0.026 C 
HETATM   11  C25 UNL     1      -1.350   9.172  12.465  1.00  0.00     0.016 C 
HETATM   12  C26 UNL     1      -5.081   7.237  14.041  1.00  0.00    -0.015 C 
HETATM   13  C27 UNL     1      -5.554   7.989  12.777  1.00  0.00     0.020 C 
HETATM   14  C28 UNL     1      -5.438   5.736  13.940  1.00  0.00     0.021 C 
HETATM   15  C29 UNL     1      -6.925   5.429  13.878  1.00  0.00     0.080 C 
HETATM   16  C30 UNL     1      -7.835   6.515  14.390  1.00  0.00     0.135 C 
HETATM   17  O10 UNL     1      -9.014   6.524  14.017  1.00  0.00    -0.297 OA
HETATM   18  C31 UNL     1      -7.318   7.518  15.431  1.00  0.00     0.018 C 
HETATM   19  C32 UNL     1      -7.663   6.909  16.808  1.00  0.00     0.023 C 
HETATM   20  C33 UNL     1      -8.141   8.821  15.273  1.00  0.00     0.023 C 
HETATM   21  C34 UNL     1      -5.765   7.750  15.352  1.00  0.00     0.013 C 
HETATM   22  C35 UNL     1      -5.319   9.188  15.664  1.00  0.00     0.011 C 
HETATM   23  C36 UNL     1      -3.804   9.301  15.819  1.00  0.00     0.036 C 
ENDROOT
BRANCH   1  24
HETATM   24  C5  UNL     1       1.641   8.577  12.668  1.00  0.00     0.093 C 
BRANCH  24  25
HETATM   25  C4  UNL     1       0.976   8.725  11.280  1.00  0.00     0.019 C 
BRANCH  25  26
HETATM   26  C3  UNL     1       1.205   7.505  10.373  1.00  0.00     0.034 C 
BRANCH  26  27
HETATM   27  C2  UNL     1       1.016   7.847   8.907  1.00  0.00    -0.086 C 
HETATM   28  C1  UNL     1      -0.165   8.326   8.473  1.00  0.00     0.014 C 
BRANCH  27  29
HETATM   29  C37 UNL     1       2.212   7.593   7.995  1.00  0.00     0.005 C 
HETATM   30  C38 UNL     1       3.208   8.757   7.920  1.00  0.00     0.014 C 
HETATM   31  C39 UNL     1       1.746   7.215   6.587  1.00  0.00     0.014 C 
ENDBRANCH  27  29
ENDBRANCH  26  27
ENDBRANCH  25  26
ENDBRANCH  24  25
BRANCH  24  32
HETATM   32  C6  UNL     1       2.649   9.714  12.832  1.00  0.00     0.266 C 
HETATM   33  O1  UNL     1       2.394  10.774  13.386  1.00  0.00    -0.265 OA
BRANCH  32  34
HETATM   34  O2  UNL     1       3.850   9.392  12.280  1.00  0.00    -0.287 OA
BRANCH  34  35
HETATM   35  C7  UNL     1       4.517   8.279  12.889  1.00  0.00     0.301 C 
HETATM   36  O3  UNL     1       4.125   7.066  12.206  1.00  0.00    -0.348 OA
HETATM   37  C8  UNL     1       4.989   6.760  11.114  1.00  0.00     0.179 C 
HETATM   38  C10 UNL     1       6.370   6.310  11.646  1.00  0.00     0.180 C 
HETATM   39  C11 UNL     1       6.739   7.083  12.931  1.00  0.00     0.183 C 
HETATM   40  C12 UNL     1       6.064   8.465  12.936  1.00  0.00     0.205 C 
BRANCH  37  41
HETATM   41  C9  UNL     1       4.366   5.654  10.256  1.00  0.00     0.198 C 
BRANCH  41  42
HETATM   42  O4  UNL     1       5.315   4.612  10.035  1.00  0.00    -0.398 OA
HETATM   43  H12 UNL     1       4.857   3.918   9.528  1.00  0.00     0.209 HD
ENDBRANCH  41  42
ENDBRANCH  37  41
BRANCH  38  44
HETATM   44  O5  UNL     1       7.371   6.509  10.644  1.00  0.00    -0.390 OA
HETATM   45  H14 UNL     1       7.014   6.102   9.824  1.00  0.00     0.210 HD
ENDBRANCH  38  44
BRANCH  39  46
HETATM   46  O6  UNL     1       6.363   6.344  14.103  1.00  0.00    -0.390 OA
HETATM   47  H16 UNL     1       5.462   5.997  13.967  1.00  0.00     0.210 HD
ENDBRANCH  39  46
BRANCH  40  48
HETATM   48  O7  UNL     1       6.519   9.251  11.818  1.00  0.00    -0.388 OA
HETATM   49  H18 UNL     1       7.468   9.070  11.688  1.00  0.00     0.210 HD
ENDBRANCH  40  48
ENDBRANCH  34  35
ENDBRANCH  32  34
ENDBRANCH  24  32
ENDBRANCH   1  24
BRANCH   2  50
HETATM   50  O8  UNL     1       1.548   9.891  15.754  1.00  0.00    -0.316 OA
BRANCH  50  51
HETATM   51  C15 UNL     1       1.495  10.944  16.617  1.00  0.00     0.255 C 
HETATM   52  C16 UNL     1       1.521  10.451  18.030  1.00  0.00     0.126 C 
HETATM   53  O9  UNL     1       1.429  12.124  16.300  1.00  0.00    -0.266 OA
ENDBRANCH  50  51
ENDBRANCH   2  50
TORSDOF 15
ENDMDL
MODEL 4
REMARK minimizedAffinity -8.69288445
REMARK CNNscore 0.319568098
REMARK CNNaffinity 7.47935724
REMARK  15 active torsions:
REMARK  status: ('A' for Active; 'I' for Inactive)
REMARK    1  A    between atoms: C2_2  and  C3_3 
REMARK    2  A    between atoms: C2_2  and  C37_47 
REMARK    3  A    between atoms: C3_3  and  C4_4 
REMARK    4  A    between atoms: C4_4  and  C5_5 
REMARK    5  A    between atoms: C5_5  and  C6_6 
REMARK    6  A    between atoms: C5_5  and  C13_20 
REMARK    7  A    between atoms: C6_6  and  O2_8 
REMARK    8  A    between atoms: O2_8  and  C7_9 
REMARK    9  A    between atoms: C8_11  and  C9_12 
REMARK   10  A    between atoms: C9_12  and  O4_13 
REMARK   11  A    between atoms: C10_14  and  O5_15 
REMARK   12  A    between atoms: C11_16  and  O6_17 
REMARK   13  A    between atoms: C12_18  and  O7_19 
REMARK   14  A    between atoms: C14_21  and  O8_22 
REMARK   15  A    between atoms: O8_22  and  C15_23 
ROOT
HETATM    1  C13 UNL     1       1.081   7.746  13.796  1.00  0.00     0.038 C 
HETATM    2  C14 UNL     1       1.110   9.051  14.644  1.00  0.00     0.138 C 
HETATM    3  C17 UNL     1      -0.309   9.235  15.245  1.00  0.00     0.047 C 
HETATM    4  C18 UNL     1      -1.061   7.927  14.917  1.00  0.00    -0.010 C 
HETATM    5  C19 UNL     1      -0.731   6.907  16.051  1.00  0.00     0.021 C 
HETATM    6  C20 UNL     1      -2.588   7.940  14.842  1.00  0.00    -0.068 C 
HETATM    7  C21 UNL     1      -3.241   7.074  14.025  1.00  0.00    -0.068 C 
HETATM    8  C22 UNL     1      -2.473   6.120  13.102  1.00  0.00     0.036 C 
HETATM    9  C23 UNL     1      -0.933   6.196  13.108  1.00  0.00     0.015 C 
HETATM   10  C24 UNL     1      -0.446   7.588  13.510  1.00  0.00    -0.026 C 
HETATM   11  C25 UNL     1      -0.878   8.597  12.395  1.00  0.00     0.016 C 
HETATM   12  C26 UNL     1      -4.791   7.034  13.941  1.00  0.00    -0.015 C 
HETATM   13  C27 UNL     1      -5.184   7.866  12.700  1.00  0.00     0.020 C 
HETATM   14  C28 UNL     1      -5.308   5.584  13.803  1.00  0.00     0.021 C 
HETATM   15  C29 UNL     1      -6.819   5.440  13.741  1.00  0.00     0.080 C 
HETATM   16  C30 UNL     1      -7.606   6.603  14.287  1.00  0.00     0.135 C 
HETATM   17  O10 UNL     1      -8.778   6.749  13.921  1.00  0.00    -0.297 OA
HETATM   18  C31 UNL     1      -6.981   7.516  15.351  1.00  0.00     0.018 C 
HETATM   19  C32 UNL     1      -7.386   6.912  16.714  1.00  0.00     0.023 C 
HETATM   20  C33 UNL     1      -7.659   8.904  15.231  1.00  0.00     0.023 C 
HETATM   21  C34 UNL     1      -5.412   7.582  15.269  1.00  0.00     0.013 C 
HETATM   22  C35 UNL     1      -4.813   8.955  15.616  1.00  0.00     0.011 C 
HETATM   23  C36 UNL     1      -3.294   8.901  15.765  1.00  0.00     0.036 C 
ENDROOT
BRANCH   1  24
HETATM   24  C5  UNL     1       2.032   7.679  12.565  1.00  0.00     0.093 C 
BRANCH  24  25
HETATM   25  C4  UNL     1       1.694   8.622  11.388  1.00  0.00     0.019 C 
BRANCH  25  26
HETATM   26  C3  UNL     1       2.526   8.332  10.129  1.00  0.00     0.034 C 
BRANCH  26  27
HETATM   27  C2  UNL     1       1.650   8.013   8.932  1.00  0.00    -0.086 C 
HETATM   28  C1  UNL     1       0.339   8.317   8.956  1.00  0.00     0.014 C 
BRANCH  27  29
HETATM   29  C37 UNL     1       2.338   7.328   7.755  1.00  0.00     0.005 C 
HETATM   30  C38 UNL     1       1.498   7.282   6.472  1.00  0.00     0.014 C 
HETATM   31  C39 UNL     1       2.784   5.915   8.138  1.00  0.00     0.014 C 
ENDBRANCH  27  29
ENDBRANCH  26  27
ENDBRANCH  25  26
ENDBRANCH  24  25
BRANCH  24  32
HETATM   32  C6  UNL     1       3.457   7.987  13.023  1.00  0.00     0.266 C 
HETATM   33  O1  UNL     1       4.030   7.380  13.917  1.00  0.00    -0.265 OA
BRANCH  32  34
HETATM   34  O2  UNL     1       3.991   9.019  12.316  1.00  0.00    -0.287 OA
BRANCH  34  35
HETATM   35  C7  UNL     1       4.729   9.970  13.094  1.00  0.00     0.301 C 
HETATM   36  O3  UNL     1       5.736   9.269  13.861  1.00  0.00    -0.348 OA
HETATM   37  C8  UNL     1       6.969   9.156  13.153  1.00  0.00     0.179 C 
HETATM   38  C10 UNL     1       7.649  10.542  13.059  1.00  0.00     0.180 C 
HETATM   39  C11 UNL     1       6.595  11.660  12.909  1.00  0.00     0.183 C 
HETATM   40  C12 UNL     1       5.331  11.114  12.223  1.00  0.00     0.205 C 
BRANCH  37  41
HETATM   41  C9  UNL     1       7.887   8.163  13.872  1.00  0.00     0.198 C 
BRANCH  41  42
HETATM   42  O4  UNL     1       8.826   7.608  12.951  1.00  0.00    -0.398 OA
HETATM   43  H12 UNL     1       9.411   7.024  13.464  1.00  0.00     0.209 HD
ENDBRANCH  41  42
ENDBRANCH  37  41
BRANCH  38  44
HETATM   44  O5  UNL     1       8.558  10.568  11.954  1.00  0.00    -0.390 OA
HETATM   45  H14 UNL     1       9.114   9.763  12.045  1.00  0.00     0.210 HD
ENDBRANCH  38  44
BRANCH  39  46
HETATM   46  O6  UNL     1       6.259  12.226  14.184  1.00  0.00    -0.390 OA
HETATM   47  H16 UNL     1       6.131  11.496  14.817  1.00  0.00     0.210 HD
ENDBRANCH  39  46
BRANCH  40  48
HETATM   48  O7  UNL     1       5.642  10.639  10.899  1.00  0.00    -0.388 OA
HETATM   49  H18 UNL     1       6.298  11.245  10.507  1.00  0.00     0.210 HD
ENDBRANCH  40  48
ENDBRANCH  34  35
ENDBRANCH  32  34
ENDBRANCH  24  32
ENDBRANCH   1  24
BRANCH   2  50
HETATM   50  O8  UNL     1       2.090   8.913  15.685  1.00  0.00    -0.316 OA
BRANCH  50  51
HETATM   51  C15 UNL     1       2.168   9.952  16.562  1.00  0.00     0.255 C 
HETATM   52  C16 UNL     1       2.534  11.209  15.836  1.00  0.00     0.126 C 
HETATM   53  O9  UNL     1       1.978   9.884  17.768  1.00  0.00    -0.266 OA
ENDBRANCH  50  51
ENDBRANCH   2  50
TORSDOF 15
ENDMDL
MODEL 5
REMARK minimizedAffinity -8.31863308
REMARK CNNscore 0.267852426
REMARK CNNaffinity 7.09992981
REMARK  15 active torsions:
REMARK  status: ('A' for Active; 'I' for Inactive)
REMARK    1  A    between atoms: C2_2  and  C3_3 
REMARK    2  A    between atoms: C2_2  and  C37_47 
REMARK    3  A    between atoms: C3_3  and  C4_4 
REMARK    4  A    between atoms: C4_4  and  C5_5 
REMARK    5  A    between atoms: C5_5  and  C6_6 
REMARK    6  A    between atoms: C5_5  and  C13_20 
REMARK    7  A    between atoms: C6_6  and  O2_8 
REMARK    8  A    between atoms: O2_8  and  C7_9 
REMARK    9  A    between atoms: C8_11  and  C9_12 
REMARK   10  A    between atoms: C9_12  and  O4_13 
REMARK   11  A    between atoms: C10_14  and  O5_15 
REMARK   12  A    between atoms: C11_16  and  O6_17 
REMARK   13  A    between atoms: C12_18  and  O7_19 
REMARK   14  A    between atoms: C14_21  and  O8_22 
REMARK   15  A    between atoms: O8_22  and  C15_23 
ROOT
HETATM    1  C13 UNL     1       0.575   7.650  13.465  1.00  0.00     0.038 C 
HETATM    2  C14 UNL     1      -0.638   6.689  13.636  1.00  0.00     0.138 C 
HETATM    3  C17 UNL     1      -1.737   7.475  14.399  1.00  0.00     0.047 C 
HETATM    4  C18 UNL     1      -1.228   8.931  14.458  1.00  0.00    -0.010 C 
HETATM    5  C19 UNL     1      -1.671   9.629  13.134  1.00  0.00     0.021 C 
HETATM    6  C20 UNL     1      -1.728   9.856  15.567  1.00  0.00    -0.068 C 
HETATM    7  C21 UNL     1      -0.941  10.861  16.030  1.00  0.00    -0.068 C 
HETATM    8  C22 UNL     1       0.491  11.049  15.513  1.00  0.00     0.036 C 
HETATM    9  C23 UNL     1       1.020  10.041  14.474  1.00  0.00     0.015 C 
HETATM   10  C24 UNL     1       0.320   8.689  14.602  1.00  0.00    -0.026 C 
HETATM   11  C25 UNL     1       0.713   8.064  15.982  1.00  0.00     0.016 C 
HETATM   12  C26 UNL     1      -1.422  11.840  17.134  1.00  0.00    -0.015 C 
HETATM   13  C27 UNL     1      -0.839  11.318  18.466  1.00  0.00     0.020 C 
HETATM   14  C28 UNL     1      -0.933  13.280  16.859  1.00  0.00     0.021 C 
HETATM   15  C29 UNL     1      -1.378  14.319  17.875  1.00  0.00     0.080 C 
HETATM   16  C30 UNL     1      -2.578  13.943  18.705  1.00  0.00     0.135 C 
HETATM   17  O10 UNL     1      -2.755  14.519  19.785  1.00  0.00    -0.297 OA
HETATM   18  C31 UNL     1      -3.604  12.942  18.156  1.00  0.00     0.018 C 
HETATM   19  C32 UNL     1      -4.670  13.788  17.427  1.00  0.00     0.023 C 
HETATM   20  C33 UNL     1      -4.288  12.263  19.369  1.00  0.00     0.023 C 
HETATM   21  C34 UNL     1      -2.985  11.915  17.138  1.00  0.00     0.013 C 
HETATM   22  C35 UNL     1      -3.591  10.504  17.207  1.00  0.00     0.011 C 
HETATM   23  C36 UNL     1      -3.140   9.624  16.044  1.00  0.00     0.036 C 
ENDROOT
BRANCH   1  24
HETATM   24  C5  UNL     1       1.991   7.004  13.416  1.00  0.00     0.093 C 
BRANCH  24  25
HETATM   25  C4  UNL     1       2.828   7.287  12.147  1.00  0.00     0.019 C 
BRANCH  25  26
HETATM   26  C3  UNL     1       2.059   8.097  11.091  1.00  0.00     0.034 C 
BRANCH  26  27
HETATM   27  C2  UNL     1       1.918   7.336   9.786  1.00  0.00    -0.086 C 
HETATM   28  C1  UNL     1       2.251   6.033   9.726  1.00  0.00     0.014 C 
BRANCH  27  29
HETATM   29  C37 UNL     1       1.413   8.136   8.589  1.00  0.00     0.005 C 
HETATM   30  C38 UNL     1      -0.089   8.443   8.622  1.00  0.00     0.014 C 
HETATM   31  C39 UNL     1       1.772   7.431   7.278  1.00  0.00     0.014 C 
ENDBRANCH  27  29
ENDBRANCH  26  27
ENDBRANCH  25  26
ENDBRANCH  24  25
BRANCH  24  32
HETATM   32  C6  UNL     1       2.794   7.480  14.627  1.00  0.00     0.266 C 
HETATM   33  O1  UNL     1       2.587   7.101  15.771  1.00  0.00    -0.265 OA
BRANCH  32  34
HETATM   34  O2  UNL     1       3.751   8.375  14.263  1.00  0.00    -0.287 OA
BRANCH  34  35
HETATM   35  C7  UNL     1       5.068   8.083  14.749  1.00  0.00     0.301 C 
HETATM   36  O3  UNL     1       5.683   7.102  13.881  1.00  0.00    -0.348 OA
HETATM   37  C8  UNL     1       6.403   7.707  12.809  1.00  0.00     0.179 C 
HETATM   38  C10 UNL     1       7.679   8.390  13.354  1.00  0.00     0.180 C 
HETATM   39  C11 UNL     1       7.424   8.990  14.754  1.00  0.00     0.183 C 
HETATM   40  C12 UNL     1       5.941   9.365  14.912  1.00  0.00     0.205 C 
BRANCH  37  41
HETATM   41  C9  UNL     1       6.773   6.644  11.770  1.00  0.00     0.198 C 
BRANCH  41  42
HETATM   42  O4  UNL     1       7.104   7.266  10.529  1.00  0.00    -0.398 OA
HETATM   43  H12 UNL     1       7.374   6.555   9.922  1.00  0.00     0.209 HD
ENDBRANCH  41  42
ENDBRANCH  37  41
BRANCH  38  44
HETATM   44  O5  UNL     1       8.114   9.411  12.450  1.00  0.00    -0.390 OA
HETATM   45  H14 UNL     1       8.133   8.991  11.562  1.00  0.00     0.210 HD
ENDBRANCH  38  44
BRANCH  39  46
HETATM   46  O6  UNL     1       7.815   8.073  15.786  1.00  0.00    -0.390 OA
HETATM   47  H16 UNL     1       7.481   7.188  15.550  1.00  0.00     0.210 HD
ENDBRANCH  39  46
BRANCH  40  48
HETATM   48  O7  UNL     1       5.568  10.364  13.944  1.00  0.00    -0.388 OA
HETATM   49  H18 UNL     1       6.315  10.983  13.846  1.00  0.00     0.210 HD
ENDBRANCH  40  48
ENDBRANCH  34  35
ENDBRANCH  32  34
ENDBRANCH  24  32
ENDBRANCH   1  24
BRANCH   2  50
HETATM   50  O8  UNL     1      -1.106   6.288  12.339  1.00  0.00    -0.316 OA
BRANCH  50  51
HETATM   51  C15 UNL     1      -0.874   4.989  12.005  1.00  0.00     0.255 C 
HETATM   52  C16 UNL     1      -2.125   4.365  11.468  1.00  0.00     0.126 C 
HETATM   53  O9  UNL     1       0.192   4.400  12.123  1.00  0.00    -0.266 OA
ENDBRANCH  50  51
ENDBRANCH   2  50
TORSDOF 15
ENDMDL
MODEL 6
REMARK minimizedAffinity -7.91647339
REMARK CNNscore 0.243005499
REMARK CNNaffinity 5.49269724
REMARK  15 active torsions:
REMARK  status: ('A' for Active; 'I' for Inactive)
REMARK    1  A    between atoms: C2_2  and  C3_3 
REMARK    2  A    between atoms: C2_2  and  C37_47 
REMARK    3  A    between atoms: C3_3  and  C4_4 
REMARK    4  A    between atoms: C4_4  and  C5_5 
REMARK    5  A    between atoms: C5_5  and  C6_6 
REMARK    6  A    between atoms: C5_5  and  C13_20 
REMARK    7  A    between atoms: C6_6  and  O2_8 
REMARK    8  A    between atoms: O2_8  and  C7_9 
REMARK    9  A    between atoms: C8_11  and  C9_12 
REMARK   10  A    between atoms: C9_12  and  O4_13 
REMARK   11  A    between atoms: C10_14  and  O5_15 
REMARK   12  A    between atoms: C11_16  and  O6_17 
REMARK   13  A    between atoms: C12_18  and  O7_19 
REMARK   14  A    between atoms: C14_21  and  O8_22 
REMARK   15  A    between atoms: O8_22  and  C15_23 
ROOT
HETATM    1  C13 UNL     1       4.278  11.505  20.266  1.00  0.00     0.038 C 
HETATM    2  C14 UNL     1       3.334  11.053  21.419  1.00  0.00     0.138 C 
HETATM    3  C17 UNL     1       1.881  11.337  20.956  1.00  0.00     0.047 C 
HETATM    4  C18 UNL     1       1.999  11.738  19.470  1.00  0.00    -0.010 C 
HETATM    5  C19 UNL     1       1.991  10.420  18.634  1.00  0.00     0.021 C 
HETATM    6  C20 UNL     1       0.909  12.602  18.838  1.00  0.00    -0.068 C 
HETATM    7  C21 UNL     1       1.209  13.446  17.816  1.00  0.00    -0.068 C 
HETATM    8  C22 UNL     1       2.651  13.613  17.322  1.00  0.00     0.036 C 
HETATM    9  C23 UNL     1       3.756  12.816  18.043  1.00  0.00     0.015 C 
HETATM   10  C24 UNL     1       3.369  12.510  19.490  1.00  0.00    -0.026 C 
HETATM   11  C25 UNL     1       3.296  13.864  20.272  1.00  0.00     0.016 C 
HETATM   12  C26 UNL     1       0.126  14.319  17.127  1.00  0.00    -0.015 C 
HETATM   13  C27 UNL     1       0.219  15.720  17.770  1.00  0.00     0.020 C 
HETATM   14  C28 UNL     1       0.366  14.410  15.602  1.00  0.00     0.021 C 
HETATM   15  C29 UNL     1      -0.662  15.224  14.834  1.00  0.00     0.080 C 
HETATM   16  C30 UNL     1      -1.985  15.422  15.528  1.00  0.00     0.135 C 
HETATM   17  O10 UNL     1      -2.701  16.368  15.180  1.00  0.00    -0.297 OA
HETATM   18  C31 UNL     1      -2.462  14.399  16.568  1.00  0.00     0.018 C 
HETATM   19  C32 UNL     1      -3.297  13.361  15.786  1.00  0.00     0.023 C 
HETATM   20  C33 UNL     1      -3.417  15.135  17.542  1.00  0.00     0.023 C 
HETATM   21  C34 UNL     1      -1.282  13.658  17.297  1.00  0.00     0.013 C 
HETATM   22  C35 UNL     1      -1.549  13.334  18.776  1.00  0.00     0.011 C 
HETATM   23  C36 UNL     1      -0.490  12.404  19.364  1.00  0.00     0.036 C 
ENDROOT
BRANCH   1  24
HETATM   24  C5  UNL     1       5.695  12.011  20.666  1.00  0.00     0.093 C 
BRANCH  24  25
HETATM   25  C4  UNL     1       6.175  11.645  22.089  1.00  0.00     0.019 C 
BRANCH  25  26
HETATM   26  C3  UNL     1       6.237  12.857  23.031  1.00  0.00     0.034 C 
BRANCH  26  27
HETATM   27  C2  UNL     1       7.629  13.458  23.091  1.00  0.00    -0.086 C 
HETATM   28  C1  UNL     1       8.703  12.659  23.226  1.00  0.00     0.014 C 
BRANCH  27  29
HETATM   29  C37 UNL     1       7.711  14.980  23.011  1.00  0.00     0.005 C 
HETATM   30  C38 UNL     1       8.388  15.640  24.219  1.00  0.00     0.014 C 
HETATM   31  C39 UNL     1       6.322  15.585  22.796  1.00  0.00     0.014 C 
ENDBRANCH  27  29
ENDBRANCH  26  27
ENDBRANCH  25  26
ENDBRANCH  24  25
BRANCH  24  32
HETATM   32  C6  UNL     1       6.715  11.465  19.667  1.00  0.00     0.266 C 
HETATM   33  O1  UNL     1       6.538  10.456  18.998  1.00  0.00    -0.265 OA
BRANCH  32  34
HETATM   34  O2  UNL     1       7.832  12.239  19.630  1.00  0.00    -0.287 OA
BRANCH  34  35
HETATM   35  C7  UNL     1       9.067  11.529  19.796  1.00  0.00     0.301 C 
HETATM   36  O3  UNL     1       9.118  10.446  18.839  1.00  0.00    -0.348 OA
HETATM   37  C8  UNL     1       9.717  10.844  17.607  1.00  0.00     0.179 C 
HETATM   38  C10 UNL     1      11.234  11.069  17.809  1.00  0.00     0.180 C 
HETATM   39  C11 UNL     1      11.518  11.655  19.209  1.00  0.00     0.183 C 
HETATM   40  C12 UNL     1      10.310  12.466  19.705  1.00  0.00     0.205 C 
BRANCH  37  41
HETATM   41  C9  UNL     1       9.478   9.767  16.545  1.00  0.00     0.198 C 
BRANCH  41  42
HETATM   42  O4  UNL     1       9.462   8.475  17.151  1.00  0.00    -0.398 OA
HETATM   43  H12 UNL     1       9.261   7.836  16.445  1.00  0.00     0.209 HD
ENDBRANCH  41  42
ENDBRANCH  37  41
BRANCH  38  44
HETATM   44  O5  UNL     1      11.740  11.943  16.795  1.00  0.00    -0.390 OA
HETATM   45  H14 UNL     1      11.415  11.579  15.942  1.00  0.00     0.210 HD
ENDBRANCH  38  44
BRANCH  39  46
HETATM   46  O6  UNL     1      11.835  10.616  20.148  1.00  0.00    -0.390 OA
HETATM   47  H16 UNL     1      11.195   9.891  20.027  1.00  0.00     0.210 HD
ENDBRANCH  39  46
BRANCH  40  48
HETATM   48  O7  UNL     1      10.051  13.574  18.822  1.00  0.00    -0.388 OA
HETATM   49  H18 UNL     1      10.909  13.933  18.529  1.00  0.00     0.210 HD
ENDBRANCH  40  48
ENDBRANCH  34  35
ENDBRANCH  32  34
ENDBRANCH  24  32
ENDBRANCH   1  24
BRANCH   2  50
HETATM   50  O8  UNL     1       3.527   9.651  21.661  1.00  0.00    -0.316 OA
BRANCH  50  51
HETATM   51  C15 UNL     1       3.107   9.199  22.875  1.00  0.00     0.255 C 
HETATM   52  C16 UNL     1       2.094   8.111  22.696  1.00  0.00     0.126 C 
HETATM   53  O9  UNL     1       3.488   9.613  23.961  1.00  0.00    -0.266 OA
ENDBRANCH  50  51
ENDBRANCH   2  50
TORSDOF 15
ENDMDL
MODEL 7
REMARK minimizedAffinity -7.57100725
REMARK CNNscore 0.228337035
REMARK CNNaffinity 5.9643693
REMARK  15 active torsions:
REMARK  status: ('A' for Active; 'I' for Inactive)
REMARK    1  A    between atoms: C2_2  and  C3_3 
REMARK    2  A    between atoms: C2_2  and  C37_47 
REMARK    3  A    between atoms: C3_3  and  C4_4 
REMARK    4  A    between atoms: C4_4  and  C5_5 
REMARK    5  A    between atoms: C5_5  and  C6_6 
REMARK    6  A    between atoms: C5_5  and  C13_20 
REMARK    7  A    between atoms: C6_6  and  O2_8 
REMARK    8  A    between atoms: O2_8  and  C7_9 
REMARK    9  A    between atoms: C8_11  and  C9_12 
REMARK   10  A    between atoms: C9_12  and  O4_13 
REMARK   11  A    between atoms: C10_14  and  O5_15 
REMARK   12  A    between atoms: C11_16  and  O6_17 
REMARK   13  A    between atoms: C12_18  and  O7_19 
REMARK   14  A    between atoms: C14_21  and  O8_22 
REMARK   15  A    between atoms: O8_22  and  C15_23 
ROOT
HETATM    1  C13 UNL     1     -12.742  -8.188  14.449  1.00  0.00     0.038 C 
HETATM    2  C14 UNL     1     -13.713  -8.793  15.504  1.00  0.00     0.138 C 
HETATM    3  C17 UNL     1     -14.897  -7.801  15.655  1.00  0.00     0.047 C 
HETATM    4  C18 UNL     1     -14.700  -6.760  14.531  1.00  0.00    -0.010 C 
HETATM    5  C19 UNL     1     -15.368  -7.337  13.244  1.00  0.00     0.021 C 
HETATM    6  C20 UNL     1     -15.305  -5.365  14.688  1.00  0.00    -0.068 C 
HETATM    7  C21 UNL     1     -14.713  -4.292  14.102  1.00  0.00    -0.068 C 
HETATM    8  C22 UNL     1     -13.391  -4.433  13.338  1.00  0.00     0.036 C 
HETATM    9  C23 UNL     1     -12.736  -5.827  13.283  1.00  0.00     0.015 C 
HETATM   10  C24 UNL     1     -13.129  -6.676  14.491  1.00  0.00    -0.026 C 
HETATM   11  C25 UNL     1     -12.521  -6.014  15.772  1.00  0.00     0.016 C 
HETATM   12  C26 UNL     1     -15.311  -2.863  14.212  1.00  0.00    -0.015 C 
HETATM   13  C27 UNL     1     -14.542  -2.153  15.348  1.00  0.00     0.020 C 
HETATM   14  C28 UNL     1     -15.152  -2.086  12.885  1.00  0.00     0.021 C 
HETATM   15  C29 UNL     1     -15.733  -0.681  12.886  1.00  0.00     0.080 C 
HETATM   16  C30 UNL     1     -16.769  -0.408  13.945  1.00  0.00     0.135 C 
HETATM   17  O10 UNL     1     -16.988   0.765  14.271  1.00  0.00    -0.297 OA
HETATM   18  C31 UNL     1     -17.599  -1.564  14.520  1.00  0.00     0.018 C 
HETATM   19  C32 UNL     1     -18.866  -1.651  13.640  1.00  0.00     0.023 C 
HETATM   20  C33 UNL     1     -18.043  -1.156  15.947  1.00  0.00     0.023 C 
HETATM   21  C34 UNL     1     -16.852  -2.947  14.473  1.00  0.00     0.013 C 
HETATM   22  C35 UNL     1     -17.145  -3.871  15.667  1.00  0.00     0.011 C 
HETATM   23  C36 UNL     1     -16.601  -5.281  15.453  1.00  0.00     0.036 C 
ENDROOT
BRANCH   1  24
HETATM   24  C5  UNL     1     -11.229  -8.524  14.602  1.00  0.00     0.093 C 
BRANCH  24  25
HETATM   25  C4  UNL     1     -10.862  -9.532  15.715  1.00  0.00     0.019 C 
BRANCH  25  26
HETATM   26  C3  UNL     1     -10.451  -8.849  17.029  1.00  0.00     0.034 C 
BRANCH  26  27
HETATM   27  C2  UNL     1     -10.268  -9.851  18.154  1.00  0.00    -0.086 C 
HETATM   28  C1  UNL     1     -11.082 -10.919  18.245  1.00  0.00     0.014 C 
BRANCH  27  29
HETATM   29  C37 UNL     1      -9.149  -9.553  19.148  1.00  0.00     0.005 C 
HETATM   30  C38 UNL     1      -9.399 -10.092  20.562  1.00  0.00     0.014 C 
HETATM   31  C39 UNL     1      -8.864  -8.050  19.205  1.00  0.00     0.014 C 
ENDBRANCH  27  29
ENDBRANCH  26  27
ENDBRANCH  25  26
ENDBRANCH  24  25
BRANCH  24  32
HETATM   32  C6  UNL     1     -10.709  -9.077  13.274  1.00  0.00     0.266 C 
HETATM   33  O1  UNL     1     -11.398  -9.703  12.482  1.00  0.00    -0.265 OA
BRANCH  32  34
HETATM   34  O2  UNL     1      -9.392  -8.784  13.101  1.00  0.00    -0.287 OA
BRANCH  34  35
HETATM   35  C7  UNL     1      -8.649  -9.757  12.354  1.00  0.00     0.301 C 
HETATM   36  O3  UNL     1      -8.463  -9.272  11.004  1.00  0.00    -0.348 OA
HETATM   37  C8  UNL     1      -7.265  -8.510  10.867  1.00  0.00     0.179 C 
HETATM   38  C10 UNL     1      -6.035  -9.442  10.967  1.00  0.00     0.180 C 
HETATM   39  C11 UNL     1      -6.296 -10.585  11.972  1.00  0.00     0.183 C 
HETATM   40  C12 UNL     1      -7.303 -10.135  13.043  1.00  0.00     0.205 C 
BRANCH  37  41
HETATM   41  C9  UNL     1      -7.269  -7.780   9.520  1.00  0.00     0.198 C 
BRANCH  41  42
HETATM   42  O4  UNL     1      -7.352  -6.371   9.725  1.00  0.00    -0.398 OA
HETATM   43  H12 UNL     1      -7.304  -5.956   8.846  1.00  0.00     0.209 HD
ENDBRANCH  41  42
ENDBRANCH  37  41
BRANCH  38  44
HETATM   44  O5  UNL     1      -4.881  -8.692  11.358  1.00  0.00    -0.390 OA
HETATM   45  H14 UNL     1      -4.850  -7.916  10.758  1.00  0.00     0.210 HD
ENDBRANCH  38  44
BRANCH  39  46
HETATM   46  O6  UNL     1      -6.777 -11.760  11.303  1.00  0.00    -0.390 OA
HETATM   47  H16 UNL     1      -7.461 -11.487  10.664  1.00  0.00     0.210 HD
ENDBRANCH  39  46
BRANCH  40  48
HETATM   48  O7  UNL     1      -6.779  -9.020  13.790  1.00  0.00    -0.388 OA
HETATM   49  H18 UNL     1      -5.823  -9.164  13.917  1.00  0.00     0.210 HD
ENDBRANCH  40  48
ENDBRANCH  34  35
ENDBRANCH  32  34
ENDBRANCH  24  32
ENDBRANCH   1  24
BRANCH   2  50
HETATM   50  O8  UNL     1     -14.175 -10.070  15.038  1.00  0.00    -0.316 OA
BRANCH  50  51
HETATM   51  C15 UNL     1     -14.278 -11.041  15.987  1.00  0.00     0.255 C 
HETATM   52  C16 UNL     1     -14.243 -12.393  15.345  1.00  0.00     0.126 C 
HETATM   53  O9  UNL     1     -14.390 -10.855  17.191  1.00  0.00    -0.266 OA
ENDBRANCH  50  51
ENDBRANCH   2  50
TORSDOF 15
ENDMDL
MODEL 8
REMARK minimizedAffinity -10.1188288
REMARK CNNscore 0.203596294
REMARK CNNaffinity 6.92155838
REMARK  15 active torsions:
REMARK  status: ('A' for Active; 'I' for Inactive)
REMARK    1  A    between atoms: C2_2  and  C3_3 
REMARK    2  A    between atoms: C2_2  and  C37_47 
REMARK    3  A    between atoms: C3_3  and  C4_4 
REMARK    4  A    between atoms: C4_4  and  C5_5 
REMARK    5  A    between atoms: C5_5  and  C6_6 
REMARK    6  A    between atoms: C5_5  and  C13_20 
REMARK    7  A    between atoms: C6_6  and  O2_8 
REMARK    8  A    between atoms: O2_8  and  C7_9 
REMARK    9  A    between atoms: C8_11  and  C9_12 
REMARK   10  A    between atoms: C9_12  and  O4_13 
REMARK   11  A    between atoms: C10_14  and  O5_15 
REMARK   12  A    between atoms: C11_16  and  O6_17 
REMARK   13  A    between atoms: C12_18  and  O7_19 
REMARK   14  A    between atoms: C14_21  and  O8_22 
REMARK   15  A    between atoms: O8_22  and  C15_23 
ROOT
HETATM    1  C13 UNL     1       1.165   6.828  13.041  1.00  0.00     0.038 C 
HETATM    2  C14 UNL     1       0.373   8.127  13.376  1.00  0.00     0.138 C 
HETATM    3  C17 UNL     1      -1.126   7.737  13.459  1.00  0.00     0.047 C 
HETATM    4  C18 UNL     1      -1.150   6.195  13.391  1.00  0.00    -0.010 C 
HETATM    5  C19 UNL     1      -0.949   5.665  14.845  1.00  0.00     0.021 C 
HETATM    6  C20 UNL     1      -2.409   5.486  12.893  1.00  0.00    -0.068 C 
HETATM    7  C21 UNL     1      -2.317   4.286  12.264  1.00  0.00    -0.068 C 
HETATM    8  C22 UNL     1      -0.954   3.648  11.967  1.00  0.00     0.036 C 
HETATM    9  C23 UNL     1       0.311   4.427  12.377  1.00  0.00     0.015 C 
HETATM   10  C24 UNL     1       0.051   5.934  12.409  1.00  0.00    -0.026 C 
HETATM   11  C25 UNL     1      -0.240   6.411  10.947  1.00  0.00     0.016 C 
HETATM   12  C26 UNL     1      -3.573   3.519  11.769  1.00  0.00    -0.015 C 
HETATM   13  C27 UNL     1      -3.716   3.838  10.264  1.00  0.00     0.020 C 
HETATM   14  C28 UNL     1      -3.421   1.996  11.986  1.00  0.00     0.021 C 
HETATM   15  C29 UNL     1      -4.616   1.161  11.556  1.00  0.00     0.080 C 
HETATM   16  C30 UNL     1      -5.921   1.905  11.438  1.00  0.00     0.135 C 
HETATM   17  O10 UNL     1      -6.815   1.423  10.733  1.00  0.00    -0.297 OA
HETATM   18  C31 UNL     1      -6.152   3.177  12.265  1.00  0.00     0.018 C 
HETATM   19  C32 UNL     1      -6.812   2.709  13.581  1.00  0.00     0.023 C 
HETATM   20  C33 UNL     1      -7.184   4.047  11.504  1.00  0.00     0.023 C 
HETATM   21  C34 UNL     1      -4.824   3.946  12.608  1.00  0.00     0.013 C 
HETATM   22  C35 UNL     1      -4.961   5.477  12.629  1.00  0.00     0.011 C 
HETATM   23  C36 UNL     1      -3.722   6.159  13.205  1.00  0.00     0.036 C 
ENDROOT
BRANCH   1  24
HETATM   24  C5  UNL     1       2.478   6.990  12.220  1.00  0.00     0.093 C 
BRANCH  24  25
HETATM   25  C4  UNL     1       2.571   6.172  10.912  1.00  0.00     0.019 C 
BRANCH  25  26
HETATM   26  C3  UNL     1       3.351   6.899   9.805  1.00  0.00     0.034 C 
BRANCH  26  27
HETATM   27  C2  UNL     1       2.850   6.528   8.422  1.00  0.00    -0.086 C 
HETATM   28  C1  UNL     1       2.993   5.269   7.969  1.00  0.00     0.014 C 
BRANCH  27  29
HETATM   29  C37 UNL     1       2.218   7.653   7.608  1.00  0.00     0.005 C 
HETATM   30  C38 UNL     1       1.050   8.360   8.306  1.00  0.00     0.014 C 
HETATM   31  C39 UNL     1       1.773   7.141   6.236  1.00  0.00     0.014 C 
ENDBRANCH  27  29
ENDBRANCH  26  27
ENDBRANCH  25  26
ENDBRANCH  24  25
BRANCH  24  32
HETATM   32  C6  UNL     1       2.663   8.466  11.869  1.00  0.00     0.266 C 
HETATM   33  O1  UNL     1       1.756   9.194  11.492  1.00  0.00    -0.265 OA
BRANCH  32  34
HETATM   34  O2  UNL     1       3.958   8.851  12.024  1.00  0.00    -0.287 OA
BRANCH  34  35
HETATM   35  C7  UNL     1       4.635   8.262  13.142  1.00  0.00     0.301 C 
HETATM   36  O3  UNL     1       5.355   7.091  12.691  1.00  0.00    -0.348 OA
HETATM   37  C8  UNL     1       6.683   7.402  12.277  1.00  0.00     0.179 C 
HETATM   38  C10 UNL     1       7.546   7.765  13.507  1.00  0.00     0.180 C 
HETATM   39  C11 UNL     1       6.706   8.516  14.563  1.00  0.00     0.183 C 
HETATM   40  C12 UNL     1       5.555   9.278  13.886  1.00  0.00     0.205 C 
BRANCH  37  41
HETATM   41  C9  UNL     1       7.289   6.203  11.540  1.00  0.00     0.198 C 
BRANCH  41  42
HETATM   42  O4  UNL     1       6.270   5.494  10.836  1.00  0.00    -0.398 OA
HETATM   43  H12 UNL     1       6.711   4.776  10.351  1.00  0.00     0.209 HD
ENDBRANCH  41  42
ENDBRANCH  37  41
BRANCH  38  44
HETATM   44  O5  UNL     1       8.664   8.563  13.106  1.00  0.00    -0.390 OA
HETATM   45  H14 UNL     1       9.075   8.088  12.351  1.00  0.00     0.210 HD
ENDBRANCH  38  44
BRANCH  39  46
HETATM   46  O6  UNL     1       6.187   7.610  15.548  1.00  0.00    -0.390 OA
HETATM   47  H16 UNL     1       5.832   6.829  15.086  1.00  0.00     0.210 HD
ENDBRANCH  39  46
BRANCH  40  48
HETATM   48  O7  UNL     1       6.072  10.263  12.971  1.00  0.00    -0.388 OA
HETATM   49  H18 UNL     1       6.871  10.655  13.370  1.00  0.00     0.210 HD
ENDBRANCH  40  48
ENDBRANCH  34  35
ENDBRANCH  32  34
ENDBRANCH  24  32
ENDBRANCH   1  24
BRANCH   2  50
HETATM   50  O8  UNL     1       0.835   8.646  14.633  1.00  0.00    -0.316 OA
BRANCH  50  51
HETATM   51  C15 UNL     1       1.108   7.716  15.589  1.00  0.00     0.255 C 
HETATM   52  C16 UNL     1       2.565   7.373  15.571  1.00  0.00     0.126 C 
HETATM   53  O9  UNL     1       0.294   7.220  16.356  1.00  0.00    -0.266 OA
ENDBRANCH  50  51
ENDBRANCH   2  50
TORSDOF 15
ENDMDL
MODEL 9
REMARK minimizedAffinity -7.85895777
REMARK CNNscore 0.197341323
REMARK CNNaffinity 6.64172935
REMARK  15 active torsions:
REMARK  status: ('A' for Active; 'I' for Inactive)
REMARK    1  A    between atoms: C2_2  and  C3_3 
REMARK    2  A    between atoms: C2_2  and  C37_47 
REMARK    3  A    between atoms: C3_3  and  C4_4 
REMARK    4  A    between atoms: C4_4  and  C5_5 
REMARK    5  A    between atoms: C5_5  and  C6_6 
REMARK    6  A    between atoms: C5_5  and  C13_20 
REMARK    7  A    between atoms: C6_6  and  O2_8 
REMARK    8  A    between atoms: O2_8  and  C7_9 
REMARK    9  A    between atoms: C8_11  and  C9_12 
REMARK   10  A    between atoms: C9_12  and  O4_13 
REMARK   11  A    between atoms: C10_14  and  O5_15 
REMARK   12  A    between atoms: C11_16  and  O6_17 
REMARK   13  A    between atoms: C12_18  and  O7_19 
REMARK   14  A    between atoms: C14_21  and  O8_22 
REMARK   15  A    between atoms: O8_22  and  C15_23 
ROOT
HETATM    1  C13 UNL     1      -2.347   9.199  14.975  1.00  0.00     0.038 C 
HETATM    2  C14 UNL     1      -0.837   9.256  15.349  1.00  0.00     0.138 C 
HETATM    3  C17 UNL     1      -0.684  10.332  16.457  1.00  0.00     0.047 C 
HETATM    4  C18 UNL     1      -2.125  10.714  16.856  1.00  0.00    -0.010 C 
HETATM    5  C19 UNL     1      -2.593   9.690  17.937  1.00  0.00     0.021 C 
HETATM    6  C20 UNL     1      -2.393  12.083  17.480  1.00  0.00    -0.068 C 
HETATM    7  C21 UNL     1      -3.592  12.695  17.301  1.00  0.00    -0.068 C 
HETATM    8  C22 UNL     1      -4.676  12.075  16.412  1.00  0.00     0.036 C 
HETATM    9  C23 UNL     1      -4.351  10.747  15.700  1.00  0.00     0.015 C 
HETATM   10  C24 UNL     1      -2.848  10.595  15.463  1.00  0.00    -0.026 C 
HETATM   11  C25 UNL     1      -2.400  11.698  14.447  1.00  0.00     0.016 C 
HETATM   12  C26 UNL     1      -3.914  14.072  17.942  1.00  0.00    -0.015 C 
HETATM   13  C27 UNL     1      -3.669  15.134  16.847  1.00  0.00     0.020 C 
HETATM   14  C28 UNL     1      -5.379  14.133  18.433  1.00  0.00     0.021 C 
HETATM   15  C29 UNL     1      -5.782  15.436  19.102  1.00  0.00     0.080 C 
HETATM   16  C30 UNL     1      -4.647  16.278  19.624  1.00  0.00     0.135 C 
HETATM   17  O10 UNL     1      -4.839  17.486  19.805  1.00  0.00    -0.297 OA
HETATM   18  C31 UNL     1      -3.319  15.613  20.013  1.00  0.00     0.018 C 
HETATM   19  C32 UNL     1      -3.443  15.274  21.515  1.00  0.00     0.023 C 
HETATM   20  C33 UNL     1      -2.202  16.676  19.861  1.00  0.00     0.023 C 
HETATM   21  C34 UNL     1      -3.030  14.289  19.216  1.00  0.00     0.013 C 
HETATM   22  C35 UNL     1      -1.546  14.054  18.886  1.00  0.00     0.011 C 
HETATM   23  C36 UNL     1      -1.292  12.651  18.340  1.00  0.00     0.036 C 
ENDROOT
BRANCH   1  24
HETATM   24  C5  UNL     1      -2.701   8.804  13.511  1.00  0.00     0.093 C 
BRANCH  24  25
HETATM   25  C4  UNL     1      -1.592   9.024  12.457  1.00  0.00     0.019 C 
BRANCH  25  26
HETATM   26  C3  UNL     1      -0.729   7.773  12.225  1.00  0.00     0.034 C 
BRANCH  26  27
HETATM   27  C2  UNL     1       0.429   8.050  11.285  1.00  0.00    -0.086 C 
HETATM   28  C1  UNL     1       1.466   8.802  11.697  1.00  0.00     0.014 C 
BRANCH  27  29
HETATM   29  C37 UNL     1       0.320   7.453   9.885  1.00  0.00     0.005 C 
HETATM   30  C38 UNL     1       1.591   6.746   9.399  1.00  0.00     0.014 C 
HETATM   31  C39 UNL     1      -0.101   8.523   8.874  1.00  0.00     0.014 C 
ENDBRANCH  27  29
ENDBRANCH  26  27
ENDBRANCH  25  26
ENDBRANCH  24  25
BRANCH  24  32
HETATM   32  C6  UNL     1      -3.098   7.328  13.479  1.00  0.00     0.266 C 
HETATM   33  O1  UNL     1      -2.718   6.541  12.623  1.00  0.00    -0.265 OA
BRANCH  32  34
HETATM   34  O2  UNL     1      -3.923   7.016  14.513  1.00  0.00    -0.287 OA
BRANCH  34  35
HETATM   35  C7  UNL     1      -5.316   7.257  14.271  1.00  0.00     0.301 C 
HETATM   36  O3  UNL     1      -5.765   6.386  13.207  1.00  0.00    -0.348 OA
HETATM   37  C8  UNL     1      -6.248   5.138  13.702  1.00  0.00     0.179 C 
HETATM   38  C10 UNL     1      -7.593   5.349  14.435  1.00  0.00     0.180 C 
HETATM   39  C11 UNL     1      -7.608   6.706  15.172  1.00  0.00     0.183 C 
HETATM   40  C12 UNL     1      -6.178   7.118  15.562  1.00  0.00     0.205 C 
BRANCH  37  41
HETATM   41  C9  UNL     1      -6.426   4.156  12.540  1.00  0.00     0.198 C 
BRANCH  41  42
HETATM   42  O4  UNL     1      -7.711   3.539  12.612  1.00  0.00    -0.398 OA
HETATM   43  H12 UNL     1      -7.790   2.964  11.831  1.00  0.00     0.209 HD
ENDBRANCH  41  42
ENDBRANCH  37  41
BRANCH  38  44
HETATM   44  O5  UNL     1      -7.822   4.281  15.360  1.00  0.00    -0.390 OA
HETATM   45  H14 UNL     1      -7.673   3.453  14.854  1.00  0.00     0.210 HD
ENDBRANCH  38  44
BRANCH  39  46
HETATM   46  O6  UNL     1      -8.213   7.726  14.363  1.00  0.00    -0.390 OA
HETATM   47  H16 UNL     1      -7.856   7.648  13.459  1.00  0.00     0.210 HD
ENDBRANCH  39  46
BRANCH  40  48
HETATM   48  O7  UNL     1      -5.603   6.149  16.460  1.00  0.00    -0.388 OA
HETATM   49  H18 UNL     1      -6.303   5.845  17.065  1.00  0.00     0.210 HD
ENDBRANCH  40  48
ENDBRANCH  34  35
ENDBRANCH  32  34
ENDBRANCH  24  32
ENDBRANCH   1  24
BRANCH   2  50
HETATM   50  O8  UNL     1      -0.424   7.968  15.829  1.00  0.00    -0.316 OA
BRANCH  50  51
HETATM   51  C15 UNL     1       0.921   7.783  15.938  1.00  0.00     0.255 C 
HETATM   52  C16 UNL     1       1.426   6.986  14.775  1.00  0.00     0.126 C 
HETATM   53  O9  UNL     1       1.628   8.197  16.847  1.00  0.00    -0.266 OA
ENDBRANCH  50  51
ENDBRANCH   2  50
TORSDOF 15
ENDMDL
