MODEL 1
REMARK minimizedAffinity -8.14493847
REMARK CNNscore 0.602366209
REMARK CNNaffinity 6.38038111
REMARK  13 active torsions:
REMARK  status: ('A' for Active; 'I' for Inactive)
REMARK    1  A    between atoms: O1_2  and  C2_3 
REMARK    2  A    between atoms: C2_3  and  C3_5 
REMARK    3  A    between atoms: C3_5  and  C4_6 
REMARK    4  A    between atoms: C3_5  and  N3_13 
REMARK    5  A    between atoms: C4_6  and  C5_7 
REMARK       I    between atoms: N3_13  and  C8_14 
REMARK    6  A    between atoms: C8_14  and  C9_16 
REMARK    7  A    between atoms: C9_16  and  C10_17 
REMARK    8  A    between atoms: C10_17  and  C11_18 
REMARK    9  A    between atoms: C11_18  and  O5_20 
REMARK   10  A    between atoms: O5_20  and  C12_21 
REMARK   11  A    between atoms: C12_21  and  C13_22 
REMARK   12  A    between atoms: C13_22  and  C14_24 
REMARK   13  A    between atoms: C14_24  and  O7_25 
ROOT
HETATM    1  C13 UNL     1      -9.647  47.481 -28.608  1.00  0.00     0.185 C 
HETATM    2  O6  UNL     1      -9.509  48.414 -27.805  1.00  0.00    -0.292 OA
ENDROOT
BRANCH   1   3
HETATM    3  C12 UNL     1      -8.463  46.985 -29.426  1.00  0.00     0.260 C 
BRANCH   3   4
HETATM    4  O5  UNL     1      -7.219  47.448 -28.895  1.00  0.00    -0.314 OA
BRANCH   4   5
HETATM    5  C11 UNL     1      -6.143  47.208 -29.694  1.00  0.00     0.259 C 
HETATM    6  O4  UNL     1      -6.050  46.260 -30.461  1.00  0.00    -0.265 OA
BRANCH   5   7
HETATM    7  C10 UNL     1      -5.088  48.262 -29.474  1.00  0.00     0.120 C 
BRANCH   7   8
HETATM    8  C9  UNL     1      -4.552  48.199 -28.050  1.00  0.00     0.112 C 
BRANCH   8   9
HETATM    9  C8  UNL     1      -3.662  49.377 -27.704  1.00  0.00     0.218 C 
HETATM   10  N3  UNL     1      -3.163  49.300 -26.419  1.00  0.00    -0.347 N 
HETATM   11  H10 UNL     1      -3.652  48.688 -25.774  1.00  0.00     0.163 HD
HETATM   12  O3  UNL     1      -3.425  50.309 -28.462  1.00  0.00    -0.274 OA
BRANCH  10  13
HETATM   13  C3  UNL     1      -2.470  50.446 -25.817  1.00  0.00     0.190 C 
BRANCH  13  14
HETATM   14  C2  UNL     1      -2.550  50.462 -24.279  1.00  0.00     0.281 C 
HETATM   15  O2  UNL     1      -1.585  50.261 -23.546  1.00  0.00    -0.263 OA
BRANCH  14  16
HETATM   16  O1  UNL     1      -3.816  50.695 -23.832  1.00  0.00    -0.325 OA
HETATM   17  C1  UNL     1      -3.897  51.187 -22.494  1.00  0.00     0.213 C 
ENDBRANCH  14  16
ENDBRANCH  13  14
BRANCH  13  18
HETATM   18  C4  UNL     1      -0.997  50.506 -26.261  1.00  0.00     0.093 C 
BRANCH  18  19
HETATM   19  C5  UNL     1      -0.572  51.863 -26.722  1.00  0.00     0.028 A 
HETATM   20  C6  UNL     1       0.265  52.808 -26.170  1.00  0.00     0.114 A 
HETATM   21  N1  UNL     1       0.307  53.933 -26.948  1.00  0.00    -0.360 N 
HETATM   22  C7  UNL     1      -0.457  53.672 -27.983  1.00  0.00     0.180 A 
ATOM     23  H1  UNL     1       0.823  54.792 -26.763  1.00  0.00     0.166 HD
HETATM   24  N2  UNL     1      -1.002  52.423 -27.901  1.00  0.00    -0.354 N 
HETATM   25  H9  UNL     1      -1.629  52.002 -28.577  1.00  0.00     0.166 HD
ENDBRANCH  18  19
ENDBRANCH  13  18
ENDBRANCH  10  13
ENDBRANCH   8   9
ENDBRANCH   7   8
ENDBRANCH   5   7
ENDBRANCH   4   5
ENDBRANCH   3   4
ENDBRANCH   1   3
BRANCH   1  26
HETATM   26  C14 UNL     1     -11.048  46.856 -28.792  1.00  0.00     0.128 C 
HETATM   27  C15 UNL     1     -11.040  45.600 -29.694  1.00  0.00     0.047 C 
HETATM   28  C16 UNL     1     -12.289  44.776 -29.301  1.00  0.00     0.009 C 
HETATM   29  C17 UNL     1     -13.047  45.668 -28.319  1.00  0.00     0.002 C 
HETATM   30  C18 UNL     1     -14.083  45.045 -27.369  1.00  0.00     0.003 C 
HETATM   31  C31 UNL     1     -11.897  46.418 -27.566  1.00  0.00     0.005 C 
HETATM   32  C19 UNL     1     -15.142  44.174 -28.072  1.00  0.00     0.010 C 
HETATM   33  C28 UNL     1     -14.719  46.200 -26.533  1.00  0.00     0.072 C 
HETATM   34  C20 UNL     1     -16.554  44.751 -28.016  1.00  0.00     0.035 C 
HETATM   35  C21 UNL     1     -16.991  45.180 -26.632  1.00  0.00    -0.067 C 
HETATM   36  C22 UNL     1     -18.301  45.185 -26.326  1.00  0.00     0.053 C 
HETATM   37  C26 UNL     1     -15.914  45.704 -25.666  1.00  0.00    -0.009 C 
HETATM   38  C23 UNL     1     -18.799  45.723 -25.039  1.00  0.00     0.149 C 
HETATM   39  O8  UNL     1     -19.971  45.531 -24.726  1.00  0.00    -0.293 OA
HETATM   40  C24 UNL     1     -17.839  46.471 -24.140  1.00  0.00     0.084 C 
HETATM   41  C25 UNL     1     -16.547  46.867 -24.857  1.00  0.00     0.022 C 
HETATM   42  C27 UNL     1     -15.494  44.564 -24.707  1.00  0.00     0.021 C 
HETATM   43  C29 UNL     1     -13.587  46.954 -25.821  1.00  0.00     0.133 C 
HETATM   44  O9  UNL     1     -13.508  47.077 -24.601  1.00  0.00    -0.297 OA
HETATM   45  C30 UNL     1     -12.524  47.551 -26.738  1.00  0.00     0.091 C 
HETATM   46  C32 UNL     1     -11.122  45.480 -26.602  1.00  0.00     0.019 C 
BRANCH  26  47
HETATM   47  O7  UNL     1     -11.819  47.860 -29.502  1.00  0.00    -0.381 OA
HETATM   48  H17 UNL     1     -11.171  48.438 -29.960  1.00  0.00     0.211 HD
ENDBRANCH  26  47
ENDBRANCH   1  26
TORSDOF 13
ENDMDL
MODEL 2
REMARK minimizedAffinity -8.19436169
REMARK CNNscore 0.515991211
REMARK CNNaffinity 6.95178747
REMARK  13 active torsions:
REMARK  status: ('A' for Active; 'I' for Inactive)
REMARK    1  A    between atoms: O1_2  and  C2_3 
REMARK    2  A    between atoms: C2_3  and  C3_5 
REMARK    3  A    between atoms: C3_5  and  C4_6 
REMARK    4  A    between atoms: C3_5  and  N3_13 
REMARK    5  A    between atoms: C4_6  and  C5_7 
REMARK       I    between atoms: N3_13  and  C8_14 
REMARK    6  A    between atoms: C8_14  and  C9_16 
REMARK    7  A    between atoms: C9_16  and  C10_17 
REMARK    8  A    between atoms: C10_17  and  C11_18 
REMARK    9  A    between atoms: C11_18  and  O5_20 
REMARK   10  A    between atoms: O5_20  and  C12_21 
REMARK   11  A    between atoms: C12_21  and  C13_22 
REMARK   12  A    between atoms: C13_22  and  C14_24 
REMARK   13  A    between atoms: C14_24  and  O7_25 
ROOT
HETATM    1  C13 UNL     1      -5.761  48.058 -29.312  1.00  0.00     0.185 C 
HETATM    2  O6  UNL     1      -5.027  48.444 -30.232  1.00  0.00    -0.292 OA
ENDROOT
BRANCH   1   3
HETATM    3  C12 UNL     1      -5.178  47.726 -27.946  1.00  0.00     0.260 C 
BRANCH   3   4
HETATM    4  O5  UNL     1      -4.619  48.879 -27.312  1.00  0.00    -0.314 OA
BRANCH   4   5
HETATM    5  C11 UNL     1      -3.615  48.606 -26.433  1.00  0.00     0.259 C 
HETATM    6  O4  UNL     1      -2.503  48.213 -26.755  1.00  0.00    -0.265 OA
BRANCH   5   7
HETATM    7  C10 UNL     1      -4.088  48.836 -25.020  1.00  0.00     0.120 C 
BRANCH   7   8
HETATM    8  C9  UNL     1      -2.915  49.178 -24.109  1.00  0.00     0.112 C 
BRANCH   8   9
HETATM    9  C8  UNL     1      -2.487  50.627 -24.221  1.00  0.00     0.218 C 
HETATM   10  N3  UNL     1      -1.141  50.799 -23.966  1.00  0.00    -0.347 N 
HETATM   11  H10 UNL     1      -0.674  50.057 -23.455  1.00  0.00     0.163 HD
HETATM   12  O3  UNL     1      -3.244  51.552 -24.484  1.00  0.00    -0.274 OA
BRANCH  10  13
HETATM   13  C3  UNL     1      -0.577  52.146 -23.801  1.00  0.00     0.190 C 
BRANCH  13  14
HETATM   14  C2  UNL     1      -0.137  52.446 -22.356  1.00  0.00     0.281 C 
HETATM   15  O2  UNL     1       0.801  53.184 -22.071  1.00  0.00    -0.263 OA
BRANCH  14  16
HETATM   16  O1  UNL     1      -0.891  51.775 -21.439  1.00  0.00    -0.325 OA
HETATM   17  C1  UNL     1      -0.174  50.812 -20.665  1.00  0.00     0.213 C 
ENDBRANCH  14  16
ENDBRANCH  13  14
BRANCH  13  18
HETATM   18  C4  UNL     1       0.602  52.380 -24.762  1.00  0.00     0.093 C 
BRANCH  18  19
HETATM   19  C5  UNL     1       0.177  52.833 -26.122  1.00  0.00     0.028 A 
HETATM   20  C6  UNL     1      -0.213  52.141 -27.247  1.00  0.00     0.114 A 
HETATM   21  N1  UNL     1      -0.465  53.001 -28.283  1.00  0.00    -0.360 N 
HETATM   22  C7  UNL     1      -0.274  54.203 -27.794  1.00  0.00     0.180 A 
ATOM     23  H1  UNL     1      -0.743  52.758 -29.233  1.00  0.00     0.166 HD
HETATM   24  N2  UNL     1       0.102  54.157 -26.482  1.00  0.00    -0.354 N 
HETATM   25  H9  UNL     1       0.311  54.956 -25.894  1.00  0.00     0.166 HD
ENDBRANCH  18  19
ENDBRANCH  13  18
ENDBRANCH  10  13
ENDBRANCH   8   9
ENDBRANCH   7   8
ENDBRANCH   5   7
ENDBRANCH   4   5
ENDBRANCH   3   4
ENDBRANCH   1   3
BRANCH   1  26
HETATM   26  C14 UNL     1      -7.272  47.883 -29.586  1.00  0.00     0.128 C 
HETATM   27  C15 UNL     1      -7.579  47.408 -31.024  1.00  0.00     0.047 C 
HETATM   28  C16 UNL     1      -8.961  46.715 -30.966  1.00  0.00     0.009 C 
HETATM   29  C17 UNL     1      -9.462  46.970 -29.545  1.00  0.00     0.002 C 
HETATM   30  C18 UNL     1     -10.569  46.080 -28.958  1.00  0.00     0.003 C 
HETATM   31  C31 UNL     1      -8.144  46.950 -28.700  1.00  0.00     0.005 C 
HETATM   32  C19 UNL     1     -11.822  45.960 -29.845  1.00  0.00     0.010 C 
HETATM   33  C28 UNL     1     -10.898  46.611 -27.527  1.00  0.00     0.072 C 
HETATM   34  C20 UNL     1     -13.068  46.605 -29.247  1.00  0.00     0.035 C 
HETATM   35  C21 UNL     1     -13.341  46.208 -27.812  1.00  0.00    -0.067 C 
HETATM   36  C22 UNL     1     -14.604  46.236 -27.349  1.00  0.00     0.053 C 
HETATM   37  C26 UNL     1     -12.136  45.894 -26.909  1.00  0.00    -0.009 C 
HETATM   38  C23 UNL     1     -14.916  45.991 -25.922  1.00  0.00     0.149 C 
HETATM   39  O8  UNL     1     -16.088  45.837 -25.586  1.00  0.00    -0.293 OA
HETATM   40  C24 UNL     1     -13.779  45.914 -24.928  1.00  0.00     0.084 C 
HETATM   41  C25 UNL     1     -12.462  46.448 -25.496  1.00  0.00     0.022 C 
HETATM   42  C27 UNL     1     -11.937  44.361 -26.840  1.00  0.00     0.021 C 
HETATM   43  C29 UNL     1      -9.600  46.621 -26.709  1.00  0.00     0.133 C 
HETATM   44  O9  UNL     1      -9.444  45.995 -25.663  1.00  0.00    -0.297 OA
HETATM   45  C30 UNL     1      -8.470  47.467 -27.290  1.00  0.00     0.091 C 
HETATM   46  C32 UNL     1      -7.555  45.519 -28.571  1.00  0.00     0.019 C 
BRANCH  26  47
HETATM   47  O7  UNL     1      -7.832  49.218 -29.471  1.00  0.00    -0.381 OA
HETATM   48  H17 UNL     1      -7.092  49.845 -29.623  1.00  0.00     0.211 HD
ENDBRANCH  26  47
ENDBRANCH   1  26
TORSDOF 13
ENDMDL
MODEL 3
REMARK minimizedAffinity -8.27713394
REMARK CNNscore 0.42382884
REMARK CNNaffinity 6.57792664
REMARK  13 active torsions:
REMARK  status: ('A' for Active; 'I' for Inactive)
REMARK    1  A    between atoms: O1_2  and  C2_3 
REMARK    2  A    between atoms: C2_3  and  C3_5 
REMARK    3  A    between atoms: C3_5  and  C4_6 
REMARK    4  A    between atoms: C3_5  and  N3_13 
REMARK    5  A    between atoms: C4_6  and  C5_7 
REMARK       I    between atoms: N3_13  and  C8_14 
REMARK    6  A    between atoms: C8_14  and  C9_16 
REMARK    7  A    between atoms: C9_16  and  C10_17 
REMARK    8  A    between atoms: C10_17  and  C11_18 
REMARK    9  A    between atoms: C11_18  and  O5_20 
REMARK   10  A    between atoms: O5_20  and  C12_21 
REMARK   11  A    between atoms: C12_21  and  C13_22 
REMARK   12  A    between atoms: C13_22  and  C14_24 
REMARK   13  A    between atoms: C14_24  and  O7_25 
ROOT
HETATM    1  C13 UNL     1      -1.872  48.840 -17.819  1.00  0.00     0.185 C 
HETATM    2  O6  UNL     1      -0.705  48.862 -17.404  1.00  0.00    -0.292 OA
ENDROOT
BRANCH   1   3
HETATM    3  C12 UNL     1      -3.039  48.946 -16.848  1.00  0.00     0.260 C 
BRANCH   3   4
HETATM    4  O5  UNL     1      -2.596  49.165 -15.506  1.00  0.00    -0.314 OA
BRANCH   4   5
HETATM    5  C11 UNL     1      -2.840  50.417 -15.030  1.00  0.00     0.259 C 
HETATM    6  O4  UNL     1      -3.145  51.373 -15.729  1.00  0.00    -0.265 OA
BRANCH   5   7
HETATM    7  C10 UNL     1      -2.656  50.449 -13.534  1.00  0.00     0.120 C 
BRANCH   7   8
HETATM    8  C9  UNL     1      -2.779  51.873 -13.007  1.00  0.00     0.112 C 
BRANCH   8   9
HETATM    9  C8  UNL     1      -1.689  52.229 -12.015  1.00  0.00     0.218 C 
HETATM   10  N3  UNL     1      -1.745  53.551 -11.623  1.00  0.00    -0.347 N 
HETATM   11  H10 UNL     1      -2.259  54.185 -12.226  1.00  0.00     0.163 HD
HETATM   12  O3  UNL     1      -0.836  51.446 -11.617  1.00  0.00    -0.274 OA
BRANCH  10  13
HETATM   13  C3  UNL     1      -0.650  54.148 -10.848  1.00  0.00     0.190 C 
BRANCH  13  14
HETATM   14  C2  UNL     1      -0.988  54.320  -9.355  1.00  0.00     0.281 C 
HETATM   15  O2  UNL     1      -0.395  55.093  -8.609  1.00  0.00    -0.263 OA
BRANCH  14  16
HETATM   16  O1  UNL     1      -1.998  53.494  -8.958  1.00  0.00    -0.325 OA
HETATM   17  C1  UNL     1      -1.591  52.415  -8.115  1.00  0.00     0.213 C 
ENDBRANCH  14  16
ENDBRANCH  13  14
BRANCH  13  18
HETATM   18  C4  UNL     1       0.649  53.335 -10.996  1.00  0.00     0.093 C 
BRANCH  18  19
HETATM   19  C5  UNL     1       1.874  54.100 -10.614  1.00  0.00     0.028 A 
HETATM   20  C6  UNL     1       3.018  53.738  -9.938  1.00  0.00     0.114 A 
HETATM   21  N1  UNL     1       3.852  54.813  -9.783  1.00  0.00    -0.360 N 
HETATM   22  C7  UNL     1       3.254  55.811 -10.389  1.00  0.00     0.180 A 
ATOM     23  H1  UNL     1       4.749  54.833  -9.300  1.00  0.00     0.166 HD
HETATM   24  N2  UNL     1       2.057  55.427 -10.923  1.00  0.00    -0.354 N 
HETATM   25  H9  UNL     1       1.413  56.024 -11.431  1.00  0.00     0.166 HD
ENDBRANCH  18  19
ENDBRANCH  13  18
ENDBRANCH  10  13
ENDBRANCH   8   9
ENDBRANCH   7   8
ENDBRANCH   5   7
ENDBRANCH   4   5
ENDBRANCH   3   4
ENDBRANCH   1   3
BRANCH   1  26
HETATM   26  C14 UNL     1      -2.122  48.666 -19.334  1.00  0.00     0.128 C 
HETATM   27  C15 UNL     1      -3.514  48.077 -19.657  1.00  0.00     0.047 C 
HETATM   28  C16 UNL     1      -3.849  48.523 -21.100  1.00  0.00     0.009 C 
HETATM   29  C17 UNL     1      -2.574  49.198 -21.602  1.00  0.00     0.002 C 
HETATM   30  C18 UNL     1      -2.643  50.159 -22.800  1.00  0.00     0.003 C 
HETATM   31  C31 UNL     1      -2.001  49.871 -20.309  1.00  0.00     0.005 C 
HETATM   32  C19 UNL     1      -3.341  49.571 -24.042  1.00  0.00     0.010 C 
HETATM   33  C28 UNL     1      -1.191  50.645 -23.105  1.00  0.00     0.072 C 
HETATM   34  C20 UNL     1      -2.410  49.357 -25.232  1.00  0.00     0.035 C 
HETATM   35  C21 UNL     1      -1.553  50.558 -25.569  1.00  0.00    -0.067 C 
HETATM   36  C22 UNL     1      -1.121  50.725 -26.833  1.00  0.00     0.053 C 
HETATM   37  C26 UNL     1      -1.119  51.481 -24.418  1.00  0.00    -0.009 C 
HETATM   38  C23 UNL     1      -0.171  51.802 -27.195  1.00  0.00     0.149 C 
HETATM   39  O8  UNL     1       0.043  52.034 -28.383  1.00  0.00    -0.293 OA
HETATM   40  C24 UNL     1       0.488  52.598 -26.090  1.00  0.00     0.084 C 
HETATM   41  C25 UNL     1       0.333  51.940 -24.717  1.00  0.00     0.022 C 
HETATM   42  C27 UNL     1      -2.059  52.710 -24.369  1.00  0.00     0.021 C 
HETATM   43  C29 UNL     1      -0.619  51.276 -21.828  1.00  0.00     0.133 C 
HETATM   44  O9  UNL     1      -0.227  52.438 -21.753  1.00  0.00    -0.297 OA
HETATM   45  C30 UNL     1      -0.574  50.356 -20.611  1.00  0.00     0.091 C 
HETATM   46  C32 UNL     1      -2.848  51.093 -19.862  1.00  0.00     0.019 C 
BRANCH  26  47
HETATM   47  O7  UNL     1      -1.152  47.676 -19.765  1.00  0.00    -0.381 OA
HETATM   48  H17 UNL     1      -0.901  47.164 -18.965  1.00  0.00     0.211 HD
ENDBRANCH  26  47
ENDBRANCH   1  26
TORSDOF 13
ENDMDL
MODEL 4
REMARK minimizedAffinity -9.5931015
REMARK CNNscore 0.418406546
REMARK CNNaffinity 7.47958517
REMARK  13 active torsions:
REMARK  status: ('A' for Active; 'I' for Inactive)
REMARK    1  A    between atoms: O1_2  and  C2_3 
REMARK    2  A    between atoms: C2_3  and  C3_5 
REMARK    3  A    between atoms: C3_5  and  C4_6 
REMARK    4  A    between atoms: C3_5  and  N3_13 
REMARK    5  A    between atoms: C4_6  and  C5_7 
REMARK       I    between atoms: N3_13  and  C8_14 
REMARK    6  A    between atoms: C8_14  and  C9_16 
REMARK    7  A    between atoms: C9_16  and  C10_17 
REMARK    8  A    between atoms: C10_17  and  C11_18 
REMARK    9  A    between atoms: C11_18  and  O5_20 
REMARK   10  A    between atoms: O5_20  and  C12_21 
REMARK   11  A    between atoms: C12_21  and  C13_22 
REMARK   12  A    between atoms: C13_22  and  C14_24 
REMARK   13  A    between atoms: C14_24  and  O7_25 
ROOT
HETATM    1  C13 UNL     1       0.271  53.859 -24.865  1.00  0.00     0.185 C 
HETATM    2  O6  UNL     1       0.228  54.997 -25.354  1.00  0.00    -0.292 OA
ENDROOT
BRANCH   1   3
HETATM    3  C12 UNL     1       1.148  53.571 -23.655  1.00  0.00     0.260 C 
BRANCH   3   4
HETATM    4  O5  UNL     1       0.401  53.612 -22.436  1.00  0.00    -0.314 OA
BRANCH   4   5
HETATM    5  C11 UNL     1       1.151  53.861 -21.327  1.00  0.00     0.259 C 
HETATM    6  O4  UNL     1       2.118  54.608 -21.300  1.00  0.00    -0.265 OA
BRANCH   5   7
HETATM    7  C10 UNL     1       0.629  53.063 -20.158  1.00  0.00     0.120 C 
BRANCH   7   8
HETATM    8  C9  UNL     1      -0.822  52.659 -20.387  1.00  0.00     0.112 C 
BRANCH   8   9
HETATM    9  C8  UNL     1      -1.421  51.924 -19.204  1.00  0.00     0.218 C 
HETATM   10  N3  UNL     1      -0.605  50.909 -18.747  1.00  0.00    -0.347 N 
HETATM   11  H10 UNL     1       0.103  50.567 -19.389  1.00  0.00     0.163 HD
HETATM   12  O3  UNL     1      -2.514  52.179 -18.716  1.00  0.00    -0.274 OA
BRANCH  10  13
HETATM   13  C3  UNL     1      -1.100  49.938 -17.762  1.00  0.00     0.190 C 
BRANCH  13  14
HETATM   14  C2  UNL     1      -1.719  48.683 -18.406  1.00  0.00     0.281 C 
HETATM   15  O2  UNL     1      -1.991  47.663 -17.780  1.00  0.00    -0.263 OA
BRANCH  14  16
HETATM   16  O1  UNL     1      -1.899  48.830 -19.749  1.00  0.00    -0.325 OA
HETATM   17  C1  UNL     1      -1.354  47.776 -20.544  1.00  0.00     0.213 C 
ENDBRANCH  14  16
ENDBRANCH  13  14
BRANCH  13  18
HETATM   18  C4  UNL     1       0.009  49.525 -16.778  1.00  0.00     0.093 C 
BRANCH  18  19
HETATM   19  C5  UNL     1       0.526  50.661 -15.957  1.00  0.00     0.028 A 
HETATM   20  C6  UNL     1       1.506  51.600 -16.189  1.00  0.00     0.114 A 
HETATM   21  N1  UNL     1       1.658  52.422 -15.105  1.00  0.00    -0.360 N 
HETATM   22  C7  UNL     1       0.760  52.025 -14.235  1.00  0.00     0.180 A 
ATOM     23  H1  UNL     1       2.328  53.183 -14.996  1.00  0.00     0.166 HD
HETATM   24  N2  UNL     1       0.036  50.968 -14.709  1.00  0.00    -0.354 N 
HETATM   25  H9  UNL     1      -0.707  50.487 -14.216  1.00  0.00     0.166 HD
ENDBRANCH  18  19
ENDBRANCH  13  18
ENDBRANCH  10  13
ENDBRANCH   8   9
ENDBRANCH   7   8
ENDBRANCH   5   7
ENDBRANCH   4   5
ENDBRANCH   3   4
ENDBRANCH   1   3
BRANCH   1  26
HETATM   26  C14 UNL     1      -0.552  52.731 -25.527  1.00  0.00     0.128 C 
HETATM   27  C15 UNL     1       0.309  51.766 -26.373  1.00  0.00     0.047 C 
HETATM   28  C16 UNL     1      -0.474  50.433 -26.441  1.00  0.00     0.009 C 
HETATM   29  C17 UNL     1      -1.818  50.740 -25.782  1.00  0.00     0.002 C 
HETATM   30  C18 UNL     1      -2.687  49.587 -25.254  1.00  0.00     0.003 C 
HETATM   31  C31 UNL     1      -1.436  51.778 -24.674  1.00  0.00     0.005 C 
HETATM   32  C19 UNL     1      -2.952  48.472 -26.283  1.00  0.00     0.010 C 
HETATM   33  C28 UNL     1      -4.005  50.205 -24.689  1.00  0.00     0.072 C 
HETATM   34  C20 UNL     1      -4.411  48.368 -26.721  1.00  0.00     0.035 C 
HETATM   35  C21 UNL     1      -5.398  48.338 -25.575  1.00  0.00    -0.067 C 
HETATM   36  C22 UNL     1      -6.586  47.729 -25.745  1.00  0.00     0.053 C 
HETATM   37  C26 UNL     1      -5.040  49.109 -24.293  1.00  0.00    -0.009 C 
HETATM   38  C23 UNL     1      -7.645  47.785 -24.709  1.00  0.00     0.149 C 
HETATM   39  O8  UNL     1      -8.630  47.059 -24.825  1.00  0.00    -0.293 OA
HETATM   40  C24 UNL     1      -7.466  48.716 -23.531  1.00  0.00     0.084 C 
HETATM   41  C25 UNL     1      -6.351  49.740 -23.752  1.00  0.00     0.022 C 
HETATM   42  C27 UNL     1      -4.462  48.122 -23.250  1.00  0.00     0.021 C 
HETATM   43  C29 UNL     1      -3.628  51.245 -23.625  1.00  0.00     0.133 C 
HETATM   44  O9  UNL     1      -3.995  51.191 -22.454  1.00  0.00    -0.297 OA
HETATM   45  C30 UNL     1      -2.734  52.381 -24.113  1.00  0.00     0.091 C 
HETATM   46  C32 UNL     1      -0.656  51.122 -23.502  1.00  0.00     0.019 C 
BRANCH  26  47
HETATM   47  O7  UNL     1      -1.438  53.407 -26.458  1.00  0.00    -0.381 OA
HETATM   48  H17 UNL     1      -1.021  54.273 -26.661  1.00  0.00     0.211 HD
ENDBRANCH  26  47
ENDBRANCH   1  26
TORSDOF 13
ENDMDL
MODEL 5
REMARK minimizedAffinity -8.43137741
REMARK CNNscore 0.393212736
REMARK CNNaffinity 6.12481546
REMARK  13 active torsions:
REMARK  status: ('A' for Active; 'I' for Inactive)
REMARK    1  A    between atoms: O1_2  and  C2_3 
REMARK    2  A    between atoms: C2_3  and  C3_5 
REMARK    3  A    between atoms: C3_5  and  C4_6 
REMARK    4  A    between atoms: C3_5  and  N3_13 
REMARK    5  A    between atoms: C4_6  and  C5_7 
REMARK       I    between atoms: N3_13  and  C8_14 
REMARK    6  A    between atoms: C8_14  and  C9_16 
REMARK    7  A    between atoms: C9_16  and  C10_17 
REMARK    8  A    between atoms: C10_17  and  C11_18 
REMARK    9  A    between atoms: C11_18  and  O5_20 
REMARK   10  A    between atoms: O5_20  and  C12_21 
REMARK   11  A    between atoms: C12_21  and  C13_22 
REMARK   12  A    between atoms: C13_22  and  C14_24 
REMARK   13  A    between atoms: C14_24  and  O7_25 
ROOT
HETATM    1  C13 UNL     1      -8.540  47.894 -28.887  1.00  0.00     0.185 C 
HETATM    2  O6  UNL     1      -8.476  49.076 -28.519  1.00  0.00    -0.292 OA
ENDROOT
BRANCH   1   3
HETATM    3  C12 UNL     1      -7.271  47.108 -29.186  1.00  0.00     0.260 C 
BRANCH   3   4
HETATM    4  O5  UNL     1      -6.218  47.432 -28.274  1.00  0.00    -0.314 OA
BRANCH   4   5
HETATM    5  C11 UNL     1      -5.193  48.136 -28.828  1.00  0.00     0.259 C 
HETATM    6  O4  UNL     1      -5.062  48.338 -30.027  1.00  0.00    -0.265 OA
BRANCH   5   7
HETATM    7  C10 UNL     1      -4.242  48.601 -27.753  1.00  0.00     0.120 C 
BRANCH   7   8
HETATM    8  C9  UNL     1      -4.725  48.157 -26.379  1.00  0.00     0.112 C 
BRANCH   8   9
HETATM    9  C8  UNL     1      -4.073  48.929 -25.249  1.00  0.00     0.218 C 
HETATM   10  N3  UNL     1      -4.328  50.284 -25.321  1.00  0.00    -0.347 N 
HETATM   11  H10 UNL     1      -4.628  50.645 -26.221  1.00  0.00     0.163 HD
HETATM   12  O3  UNL     1      -3.376  48.423 -24.379  1.00  0.00    -0.274 OA
BRANCH  10  13
HETATM   13  C3  UNL     1      -3.606  51.228 -24.458  1.00  0.00     0.190 C 
BRANCH  13  14
HETATM   14  C2  UNL     1      -2.767  52.250 -25.247  1.00  0.00     0.281 C 
HETATM   15  O2  UNL     1      -3.165  52.818 -26.260  1.00  0.00    -0.263 OA
BRANCH  14  16
HETATM   16  O1  UNL     1      -1.527  52.424 -24.707  1.00  0.00    -0.325 OA
HETATM   17  C1  UNL     1      -0.451  51.943 -25.514  1.00  0.00     0.213 C 
ENDBRANCH  14  16
ENDBRANCH  13  14
BRANCH  13  18
HETATM   18  C4  UNL     1      -4.568  51.967 -23.510  1.00  0.00     0.093 C 
BRANCH  18  19
HETATM   19  C5  UNL     1      -5.415  51.048 -22.691  1.00  0.00     0.028 A 
HETATM   20  C6  UNL     1      -5.135  50.264 -21.593  1.00  0.00     0.114 A 
HETATM   21  N1  UNL     1      -6.238  49.548 -21.213  1.00  0.00    -0.360 N 
HETATM   22  C7  UNL     1      -7.193  49.913 -22.035  1.00  0.00     0.180 A 
ATOM     23  H1  UNL     1      -6.304  48.872 -20.452  1.00  0.00     0.166 HD
HETATM   24  N2  UNL     1      -6.749  50.833 -22.942  1.00  0.00    -0.354 N 
HETATM   25  H9  UNL     1      -7.301  51.257 -23.679  1.00  0.00     0.166 HD
ENDBRANCH  18  19
ENDBRANCH  13  18
ENDBRANCH  10  13
ENDBRANCH   8   9
ENDBRANCH   7   8
ENDBRANCH   5   7
ENDBRANCH   4   5
ENDBRANCH   3   4
ENDBRANCH   1   3
BRANCH   1  26
HETATM   26  C14 UNL     1      -9.930  47.244 -29.072  1.00  0.00     0.128 C 
HETATM   27  C15 UNL     1      -9.906  46.012 -30.004  1.00  0.00     0.047 C 
HETATM   28  C16 UNL     1     -11.134  45.152 -29.618  1.00  0.00     0.009 C 
HETATM   29  C17 UNL     1     -11.899  46.004 -28.607  1.00  0.00     0.002 C 
HETATM   30  C18 UNL     1     -12.912  45.337 -27.662  1.00  0.00     0.003 C 
HETATM   31  C31 UNL     1     -10.757  46.759 -27.848  1.00  0.00     0.005 C 
HETATM   32  C19 UNL     1     -13.960  44.462 -28.375  1.00  0.00     0.010 C 
HETATM   33  C28 UNL     1     -13.562  46.459 -26.792  1.00  0.00     0.072 C 
HETATM   34  C20 UNL     1     -15.383  45.008 -28.290  1.00  0.00     0.035 C 
HETATM   35  C21 UNL     1     -15.813  45.395 -26.892  1.00  0.00    -0.067 C 
HETATM   36  C22 UNL     1     -17.120  45.365 -26.573  1.00  0.00     0.053 C 
HETATM   37  C26 UNL     1     -14.738  45.917 -25.924  1.00  0.00    -0.009 C 
HETATM   38  C23 UNL     1     -17.615  45.862 -25.268  1.00  0.00     0.149 C 
HETATM   39  O8  UNL     1     -18.780  45.638 -24.948  1.00  0.00    -0.293 OA
HETATM   40  C24 UNL     1     -16.662  46.608 -24.361  1.00  0.00     0.084 C 
HETATM   41  C25 UNL     1     -15.385  47.047 -25.081  1.00  0.00     0.022 C 
HETATM   42  C27 UNL     1     -14.284  44.763 -24.998  1.00  0.00     0.021 C 
HETATM   43  C29 UNL     1     -12.439  47.218 -26.073  1.00  0.00     0.133 C 
HETATM   44  O9  UNL     1     -12.349  47.314 -24.851  1.00  0.00    -0.297 OA
HETATM   45  C30 UNL     1     -11.397  47.859 -26.986  1.00  0.00     0.091 C 
HETATM   46  C32 UNL     1      -9.952  45.815 -26.915  1.00  0.00     0.019 C 
BRANCH  26  47
HETATM   47  O7  UNL     1     -10.729  48.250 -29.748  1.00  0.00    -0.381 OA
HETATM   48  H17 UNL     1     -10.097  48.851 -30.199  1.00  0.00     0.211 HD
ENDBRANCH  26  47
ENDBRANCH   1  26
TORSDOF 13
ENDMDL
MODEL 6
REMARK minimizedAffinity -8.38198757
REMARK CNNscore 0.377540201
REMARK CNNaffinity 6.90338755
REMARK  13 active torsions:
REMARK  status: ('A' for Active; 'I' for Inactive)
REMARK    1  A    between atoms: O1_2  and  C2_3 
REMARK    2  A    between atoms: C2_3  and  C3_5 
REMARK    3  A    between atoms: C3_5  and  C4_6 
REMARK    4  A    between atoms: C3_5  and  N3_13 
REMARK    5  A    between atoms: C4_6  and  C5_7 
REMARK       I    between atoms: N3_13  and  C8_14 
REMARK    6  A    between atoms: C8_14  and  C9_16 
REMARK    7  A    between atoms: C9_16  and  C10_17 
REMARK    8  A    between atoms: C10_17  and  C11_18 
REMARK    9  A    between atoms: C11_18  and  O5_20 
REMARK   10  A    between atoms: O5_20  and  C12_21 
REMARK   11  A    between atoms: C12_21  and  C13_22 
REMARK   12  A    between atoms: C13_22  and  C14_24 
REMARK   13  A    between atoms: C14_24  and  O7_25 
ROOT
HETATM    1  C13 UNL     1      -1.263  49.830 -17.215  1.00  0.00     0.185 C 
HETATM    2  O6  UNL     1      -2.137  49.905 -16.339  1.00  0.00    -0.292 OA
ENDROOT
BRANCH   1   3
HETATM    3  C12 UNL     1       0.195  50.102 -16.874  1.00  0.00     0.260 C 
BRANCH   3   4
HETATM    4  O5  UNL     1       0.428  51.486 -16.599  1.00  0.00    -0.314 OA
BRANCH   4   5
HETATM    5  C11 UNL     1       1.615  51.744 -15.984  1.00  0.00     0.259 C 
HETATM    6  O4  UNL     1       2.492  52.458 -16.448  1.00  0.00    -0.265 OA
BRANCH   5   7
HETATM    7  C10 UNL     1       1.691  51.004 -14.672  1.00  0.00     0.120 C 
BRANCH   7   8
HETATM    8  C9  UNL     1       2.857  51.513 -13.834  1.00  0.00     0.112 C 
BRANCH   8   9
HETATM    9  C8  UNL     1       2.478  51.756 -12.386  1.00  0.00     0.218 C 
HETATM   10  N3  UNL     1       1.882  52.987 -12.198  1.00  0.00    -0.347 N 
HETATM   11  H10 UNL     1       2.034  53.684 -12.920  1.00  0.00     0.163 HD
HETATM   12  O3  UNL     1       2.693  50.968 -11.475  1.00  0.00    -0.274 OA
BRANCH  10  13
HETATM   13  C3  UNL     1       1.648  53.505 -10.844  1.00  0.00     0.190 C 
BRANCH  13  14
HETATM   14  C2  UNL     1       2.927  54.038 -10.170  1.00  0.00     0.281 C 
HETATM   15  O2  UNL     1       3.128  53.990  -8.960  1.00  0.00    -0.263 OA
BRANCH  14  16
HETATM   16  O1  UNL     1       3.790  54.590 -11.070  1.00  0.00    -0.325 OA
HETATM   17  C1  UNL     1       3.900  56.013 -10.997  1.00  0.00     0.213 C 
ENDBRANCH  14  16
ENDBRANCH  13  14
BRANCH  13  18
HETATM   18  C4  UNL     1       0.566  54.600 -10.842  1.00  0.00     0.093 C 
BRANCH  18  19
HETATM   19  C5  UNL     1      -0.804  54.077 -10.556  1.00  0.00     0.028 A 
HETATM   20  C6  UNL     1      -1.249  52.883 -10.034  1.00  0.00     0.114 A 
HETATM   21  N1  UNL     1      -2.617  52.844 -10.005  1.00  0.00    -0.360 N 
HETATM   22  C7  UNL     1      -3.010  54.010 -10.461  1.00  0.00     0.180 A 
ATOM     23  H1  UNL     1      -3.207  52.073  -9.693  1.00  0.00     0.166 HD
HETATM   24  N2  UNL     1      -1.948  54.801 -10.796  1.00  0.00    -0.354 N 
HETATM   25  H9  UNL     1      -2.001  55.739 -11.175  1.00  0.00     0.166 HD
ENDBRANCH  18  19
ENDBRANCH  13  18
ENDBRANCH  10  13
ENDBRANCH   8   9
ENDBRANCH   7   8
ENDBRANCH   5   7
ENDBRANCH   4   5
ENDBRANCH   3   4
ENDBRANCH   1   3
BRANCH   1  26
HETATM   26  C14 UNL     1      -1.684  49.493 -18.663  1.00  0.00     0.128 C 
HETATM   27  C15 UNL     1      -3.140  48.988 -18.771  1.00  0.00     0.047 C 
HETATM   28  C16 UNL     1      -3.593  49.279 -20.221  1.00  0.00     0.009 C 
HETATM   29  C17 UNL     1      -2.333  49.777 -20.927  1.00  0.00     0.002 C 
HETATM   30  C18 UNL     1      -2.459  50.585 -22.229  1.00  0.00     0.003 C 
HETATM   31  C31 UNL     1      -1.580  50.553 -19.794  1.00  0.00     0.005 C 
HETATM   32  C19 UNL     1      -3.325  49.910 -23.311  1.00  0.00     0.010 C 
HETATM   33  C28 UNL     1      -1.016  50.905 -22.732  1.00  0.00     0.072 C 
HETATM   34  C20 UNL     1      -2.542  49.472 -24.546  1.00  0.00     0.035 C 
HETATM   35  C21 UNL     1      -1.642  50.546 -25.118  1.00  0.00    -0.067 C 
HETATM   36  C22 UNL     1      -1.335  50.519 -26.428  1.00  0.00     0.053 C 
HETATM   37  C26 UNL     1      -1.024  51.564 -24.145  1.00  0.00    -0.009 C 
HETATM   38  C23 UNL     1      -0.353  51.459 -27.017  1.00  0.00     0.149 C 
HETATM   39  O8  UNL     1      -0.250  51.524 -28.240  1.00  0.00    -0.293 OA
HETATM   40  C24 UNL     1       0.473  52.326 -26.094  1.00  0.00     0.084 C 
HETATM   41  C25 UNL     1       0.418  51.858 -24.639  1.00  0.00     0.022 C 
HETATM   42  C27 UNL     1      -1.863  52.864 -24.168  1.00  0.00     0.021 C 
HETATM   43  C29 UNL     1      -0.269  51.638 -21.610  1.00  0.00     0.133 C 
HETATM   44  O9  UNL     1       0.210  52.763 -21.726  1.00  0.00    -0.297 OA
HETATM   45  C30 UNL     1      -0.162  50.875 -20.292  1.00  0.00     0.091 C 
HETATM   46  C32 UNL     1      -2.285  51.889 -19.433  1.00  0.00     0.019 C 
BRANCH  26  47
HETATM   47  O7  UNL     1      -0.838  48.379 -19.051  1.00  0.00    -0.381 OA
HETATM   48  H17 UNL     1      -0.541  47.950 -18.218  1.00  0.00     0.211 HD
ENDBRANCH  26  47
ENDBRANCH   1  26
TORSDOF 13
ENDMDL
MODEL 7
REMARK minimizedAffinity -9.00221252
REMARK CNNscore 0.347158074
REMARK CNNaffinity 7.03211355
REMARK  13 active torsions:
REMARK  status: ('A' for Active; 'I' for Inactive)
REMARK    1  A    between atoms: O1_2  and  C2_3 
REMARK    2  A    between atoms: C2_3  and  C3_5 
REMARK    3  A    between atoms: C3_5  and  C4_6 
REMARK    4  A    between atoms: C3_5  and  N3_13 
REMARK    5  A    between atoms: C4_6  and  C5_7 
REMARK       I    between atoms: N3_13  and  C8_14 
REMARK    6  A    between atoms: C8_14  and  C9_16 
REMARK    7  A    between atoms: C9_16  and  C10_17 
REMARK    8  A    between atoms: C10_17  and  C11_18 
REMARK    9  A    between atoms: C11_18  and  O5_20 
REMARK   10  A    between atoms: O5_20  and  C12_21 
REMARK   11  A    between atoms: C12_21  and  C13_22 
REMARK   12  A    between atoms: C13_22  and  C14_24 
REMARK   13  A    between atoms: C14_24  and  O7_25 
ROOT
HETATM    1  C13 UNL     1       0.179  53.819 -24.840  1.00  0.00     0.185 C 
HETATM    2  O6  UNL     1       0.137  54.954 -25.336  1.00  0.00    -0.292 OA
ENDROOT
BRANCH   1   3
HETATM    3  C12 UNL     1       1.049  53.541 -23.622  1.00  0.00     0.260 C 
BRANCH   3   4
HETATM    4  O5  UNL     1       0.353  53.803 -22.400  1.00  0.00    -0.314 OA
BRANCH   4   5
HETATM    5  C11 UNL     1       1.147  53.817 -21.294  1.00  0.00     0.259 C 
HETATM    6  O4  UNL     1       2.141  54.518 -21.166  1.00  0.00    -0.265 OA
BRANCH   5   7
HETATM    7  C10 UNL     1       0.634  52.831 -20.275  1.00  0.00     0.120 C 
BRANCH   7   8
HETATM    8  C9  UNL     1       1.323  53.036 -18.932  1.00  0.00     0.112 C 
BRANCH   8   9
HETATM    9  C8  UNL     1       0.718  52.195 -17.826  1.00  0.00     0.218 C 
HETATM   10  N3  UNL     1       1.650  51.823 -16.878  1.00  0.00    -0.347 N 
HETATM   11  H10 UNL     1       2.625  51.867 -17.153  1.00  0.00     0.163 HD
HETATM   12  O3  UNL     1      -0.458  51.858 -17.781  1.00  0.00    -0.274 OA
BRANCH  10  13
HETATM   13  C3  UNL     1       1.316  50.825 -15.854  1.00  0.00     0.190 C 
BRANCH  13  14
HETATM   14  C2  UNL     1       0.810  51.450 -14.540  1.00  0.00     0.281 C 
HETATM   15  O2  UNL     1       0.206  52.517 -14.485  1.00  0.00    -0.263 OA
BRANCH  14  16
HETATM   16  O1  UNL     1       1.136  50.696 -13.452  1.00  0.00    -0.325 OA
HETATM   17  C1  UNL     1       2.510  50.313 -13.381  1.00  0.00     0.213 C 
ENDBRANCH  14  16
ENDBRANCH  13  14
BRANCH  13  18
HETATM   18  C4  UNL     1       0.284  49.810 -16.377  1.00  0.00     0.093 C 
BRANCH  18  19
HETATM   19  C5  UNL     1      -0.802  49.510 -15.395  1.00  0.00     0.028 A 
HETATM   20  C6  UNL     1      -1.043  48.422 -14.584  1.00  0.00     0.114 A 
HETATM   21  N1  UNL     1      -2.207  48.587 -13.884  1.00  0.00    -0.360 N 
HETATM   22  C7  UNL     1      -2.656  49.772 -14.223  1.00  0.00     0.180 A 
ATOM     23  H1  UNL     1      -2.635  47.928 -13.234  1.00  0.00     0.166 HD
HETATM   24  N2  UNL     1      -1.832  50.380 -15.127  1.00  0.00    -0.354 N 
HETATM   25  H9  UNL     1      -1.973  51.295 -15.540  1.00  0.00     0.166 HD
ENDBRANCH  18  19
ENDBRANCH  13  18
ENDBRANCH  10  13
ENDBRANCH   8   9
ENDBRANCH   7   8
ENDBRANCH   5   7
ENDBRANCH   4   5
ENDBRANCH   3   4
ENDBRANCH   1   3
BRANCH   1  26
HETATM   26  C14 UNL     1      -0.637  52.685 -25.499  1.00  0.00     0.128 C 
HETATM   27  C15 UNL     1       0.234  51.707 -26.319  1.00  0.00     0.047 C 
HETATM   28  C16 UNL     1      -0.551  50.375 -26.383  1.00  0.00     0.009 C 
HETATM   29  C17 UNL     1      -1.904  50.694 -25.748  1.00  0.00     0.002 C 
HETATM   30  C18 UNL     1      -2.784  49.551 -25.218  1.00  0.00     0.003 C 
HETATM   31  C31 UNL     1      -1.537  51.746 -24.648  1.00  0.00     0.005 C 
HETATM   32  C19 UNL     1      -3.037  48.423 -26.237  1.00  0.00     0.010 C 
HETATM   33  C28 UNL     1      -4.109  50.179 -24.681  1.00  0.00     0.072 C 
HETATM   34  C20 UNL     1      -4.489  48.318 -26.696  1.00  0.00     0.035 C 
HETATM   35  C21 UNL     1      -5.494  48.304 -25.564  1.00  0.00    -0.067 C 
HETATM   36  C22 UNL     1      -6.681  47.697 -25.744  1.00  0.00     0.053 C 
HETATM   37  C26 UNL     1      -5.153  49.091 -24.287  1.00  0.00    -0.009 C 
HETATM   38  C23 UNL     1      -7.755  47.768 -24.726  1.00  0.00     0.149 C 
HETATM   39  O8  UNL     1      -8.741  47.044 -24.848  1.00  0.00    -0.293 OA
HETATM   40  C24 UNL     1      -7.592  48.714 -23.557  1.00  0.00     0.084 C 
HETATM   41  C25 UNL     1      -6.470  49.732 -23.775  1.00  0.00     0.022 C 
HETATM   42  C27 UNL     1      -4.594  48.116 -23.224  1.00  0.00     0.021 C 
HETATM   43  C29 UNL     1      -3.746  51.232 -23.625  1.00  0.00     0.133 C 
HETATM   44  O9  UNL     1      -4.130  51.194 -22.459  1.00  0.00    -0.297 OA
HETATM   45  C30 UNL     1      -2.841  52.359 -24.114  1.00  0.00     0.091 C 
HETATM   46  C32 UNL     1      -0.776  51.103 -23.456  1.00  0.00     0.019 C 
BRANCH  26  47
HETATM   47  O7  UNL     1      -1.506  53.351 -26.452  1.00  0.00    -0.381 OA
HETATM   48  H17 UNL     1      -1.085  54.213 -26.659  1.00  0.00     0.211 HD
ENDBRANCH  26  47
ENDBRANCH   1  26
TORSDOF 13
ENDMDL
MODEL 8
REMARK minimizedAffinity -9.0277071
REMARK CNNscore 0.296732634
REMARK CNNaffinity 6.6349659
REMARK  13 active torsions:
REMARK  status: ('A' for Active; 'I' for Inactive)
REMARK    1  A    between atoms: O1_2  and  C2_3 
REMARK    2  A    between atoms: C2_3  and  C3_5 
REMARK    3  A    between atoms: C3_5  and  C4_6 
REMARK    4  A    between atoms: C3_5  and  N3_13 
REMARK    5  A    between atoms: C4_6  and  C5_7 
REMARK       I    between atoms: N3_13  and  C8_14 
REMARK    6  A    between atoms: C8_14  and  C9_16 
REMARK    7  A    between atoms: C9_16  and  C10_17 
REMARK    8  A    between atoms: C10_17  and  C11_18 
REMARK    9  A    between atoms: C11_18  and  O5_20 
REMARK   10  A    between atoms: O5_20  and  C12_21 
REMARK   11  A    between atoms: C12_21  and  C13_22 
REMARK   12  A    between atoms: C13_22  and  C14_24 
REMARK   13  A    between atoms: C14_24  and  O7_25 
ROOT
HETATM    1  C13 UNL     1       0.268  53.490 -24.342  1.00  0.00     0.185 C 
HETATM    2  O6  UNL     1       0.427  54.600 -24.869  1.00  0.00    -0.292 OA
ENDROOT
BRANCH   1   3
HETATM    3  C12 UNL     1       0.961  53.152 -23.029  1.00  0.00     0.260 C 
BRANCH   3   4
HETATM    4  O5  UNL     1       0.156  53.498 -21.899  1.00  0.00    -0.314 OA
BRANCH   4   5
HETATM    5  C11 UNL     1       0.865  53.858 -20.793  1.00  0.00     0.259 C 
HETATM    6  O4  UNL     1       1.931  54.456 -20.821  1.00  0.00    -0.265 OA
BRANCH   5   7
HETATM    7  C10 UNL     1       0.156  53.390 -19.547  1.00  0.00     0.120 C 
BRANCH   7   8
HETATM    8  C9  UNL     1       1.155  52.864 -18.524  1.00  0.00     0.112 C 
BRANCH   8   9
HETATM    9  C8  UNL     1       0.606  51.713 -17.705  1.00  0.00     0.218 C 
HETATM   10  N3  UNL     1       0.870  51.853 -16.357  1.00  0.00    -0.347 N 
HETATM   11  H10 UNL     1       1.619  52.488 -16.102  1.00  0.00     0.163 HD
HETATM   12  O3  UNL     1       0.015  50.751 -18.177  1.00  0.00    -0.274 OA
BRANCH  10  13
HETATM   13  C3  UNL     1       0.624  50.743 -15.428  1.00  0.00     0.190 C 
BRANCH  13  14
HETATM   14  C2  UNL     1       1.841  50.411 -14.545  1.00  0.00     0.281 C 
HETATM   15  O2  UNL     1       2.754  51.201 -14.322  1.00  0.00    -0.263 OA
BRANCH  14  16
HETATM   16  O1  UNL     1       1.798  49.134 -14.069  1.00  0.00    -0.325 OA
HETATM   17  C1  UNL     1       3.016  48.674 -13.481  1.00  0.00     0.213 C 
ENDBRANCH  14  16
ENDBRANCH  13  14
BRANCH  13  18
HETATM   18  C4  UNL     1      -0.602  51.019 -14.539  1.00  0.00     0.093 C 
BRANCH  18  19
HETATM   19  C5  UNL     1      -0.257  51.672 -13.240  1.00  0.00     0.028 A 
HETATM   20  C6  UNL     1      -0.468  51.298 -11.931  1.00  0.00     0.114 A 
HETATM   21  N1  UNL     1      -0.011  52.260 -11.072  1.00  0.00    -0.360 N 
HETATM   22  C7  UNL     1       0.511  53.192 -11.833  1.00  0.00     0.180 A 
ATOM     23  H1  UNL     1      -0.064  52.253 -10.053  1.00  0.00     0.166 HD
HETATM   24  N2  UNL     1       0.400  52.877 -13.158  1.00  0.00    -0.354 N 
HETATM   25  H9  UNL     1       0.723  53.444 -13.934  1.00  0.00     0.166 HD
ENDBRANCH  18  19
ENDBRANCH  13  18
ENDBRANCH  10  13
ENDBRANCH   8   9
ENDBRANCH   7   8
ENDBRANCH   5   7
ENDBRANCH   4   5
ENDBRANCH   3   4
ENDBRANCH   1   3
BRANCH   1  26
HETATM   26  C14 UNL     1      -0.613  52.442 -25.058  1.00  0.00     0.128 C 
HETATM   27  C15 UNL     1       0.197  51.468 -25.943  1.00  0.00     0.047 C 
HETATM   28  C16 UNL     1      -0.661  50.187 -26.075  1.00  0.00     0.009 C 
HETATM   29  C17 UNL     1      -1.990  50.541 -25.409  1.00  0.00     0.002 C 
HETATM   30  C18 UNL     1      -2.928  49.418 -24.938  1.00  0.00     0.003 C 
HETATM   31  C31 UNL     1      -1.557  51.505 -24.253  1.00  0.00     0.005 C 
HETATM   32  C19 UNL     1      -3.250  48.368 -26.019  1.00  0.00     0.010 C 
HETATM   33  C28 UNL     1      -4.212  50.085 -24.352  1.00  0.00     0.072 C 
HETATM   34  C20 UNL     1      -4.708  48.369 -26.468  1.00  0.00     0.035 C 
HETATM   35  C21 UNL     1      -5.704  48.344 -25.328  1.00  0.00    -0.067 C 
HETATM   36  C22 UNL     1      -6.924  47.814 -25.531  1.00  0.00     0.053 C 
HETATM   37  C26 UNL     1      -5.311  49.034 -24.011  1.00  0.00    -0.009 C 
HETATM   38  C23 UNL     1      -7.985  47.883 -24.499  1.00  0.00     0.149 C 
HETATM   39  O8  UNL     1      -9.010  47.222 -24.653  1.00  0.00    -0.293 OA
HETATM   40  C24 UNL     1      -7.762  48.748 -23.279  1.00  0.00     0.084 C 
HETATM   41  C25 UNL     1      -6.588  49.714 -23.448  1.00  0.00     0.022 C 
HETATM   42  C27 UNL     1      -4.799  47.969 -23.012  1.00  0.00     0.021 C 
HETATM   43  C29 UNL     1      -3.784  51.053 -23.240  1.00  0.00     0.133 C 
HETATM   44  O9  UNL     1      -4.161  50.967 -22.074  1.00  0.00    -0.297 OA
HETATM   45  C30 UNL     1      -2.822  52.156 -23.671  1.00  0.00     0.091 C 
HETATM   46  C32 UNL     1      -0.825  50.752 -23.109  1.00  0.00     0.019 C 
BRANCH  26  47
HETATM   47  O7  UNL     1      -1.452  53.210 -25.961  1.00  0.00    -0.381 OA
HETATM   48  H17 UNL     1      -0.985  54.059 -26.122  1.00  0.00     0.211 HD
ENDBRANCH  26  47
ENDBRANCH   1  26
TORSDOF 13
ENDMDL
MODEL 9
REMARK minimizedAffinity -8.00177479
REMARK CNNscore 0.276402444
REMARK CNNaffinity 6.3409524
REMARK  13 active torsions:
REMARK  status: ('A' for Active; 'I' for Inactive)
REMARK    1  A    between atoms: O1_2  and  C2_3 
REMARK    2  A    between atoms: C2_3  and  C3_5 
REMARK    3  A    between atoms: C3_5  and  C4_6 
REMARK    4  A    between atoms: C3_5  and  N3_13 
REMARK    5  A    between atoms: C4_6  and  C5_7 
REMARK       I    between atoms: N3_13  and  C8_14 
REMARK    6  A    between atoms: C8_14  and  C9_16 
REMARK    7  A    between atoms: C9_16  and  C10_17 
REMARK    8  A    between atoms: C10_17  and  C11_18 
REMARK    9  A    between atoms: C11_18  and  O5_20 
REMARK   10  A    between atoms: O5_20  and  C12_21 
REMARK   11  A    between atoms: C12_21  and  C13_22 
REMARK   12  A    between atoms: C13_22  and  C14_24 
REMARK   13  A    between atoms: C14_24  and  O7_25 
ROOT
HETATM    1  C13 UNL     1      -1.350  49.653 -17.449  1.00  0.00     0.185 C 
HETATM    2  O6  UNL     1      -0.230  49.305 -17.050  1.00  0.00    -0.292 OA
ENDROOT
BRANCH   1   3
HETATM    3  C12 UNL     1      -2.332  50.327 -16.501  1.00  0.00     0.260 C 
BRANCH   3   4
HETATM    4  O5  UNL     1      -2.652  49.491 -15.386  1.00  0.00    -0.314 OA
BRANCH   4   5
HETATM    5  C11 UNL     1      -2.610  50.123 -14.180  1.00  0.00     0.259 C 
HETATM    6  O4  UNL     1      -3.128  49.697 -13.159  1.00  0.00    -0.265 OA
BRANCH   5   7
HETATM    7  C10 UNL     1      -1.858  51.424 -14.303  1.00  0.00     0.120 C 
BRANCH   7   8
HETATM    8  C9  UNL     1      -0.544  51.362 -13.534  1.00  0.00     0.112 C 
BRANCH   8   9
HETATM    9  C8  UNL     1      -0.720  51.616 -12.050  1.00  0.00     0.218 C 
HETATM   10  N3  UNL     1      -1.187  52.888 -11.785  1.00  0.00    -0.347 N 
HETATM   11  H10 UNL     1      -1.069  53.580 -12.518  1.00  0.00     0.163 HD
HETATM   12  O3  UNL     1      -0.458  50.801 -11.175  1.00  0.00    -0.274 OA
BRANCH  10  13
HETATM   13  C3  UNL     1      -1.208  53.405 -10.410  1.00  0.00     0.190 C 
BRANCH  13  14
HETATM   14  C2  UNL     1      -0.526  54.779 -10.270  1.00  0.00     0.281 C 
HETATM   15  O2  UNL     1      -0.984  55.699  -9.598  1.00  0.00    -0.263 OA
BRANCH  14  16
HETATM   16  O1  UNL     1       0.623  54.860 -10.998  1.00  0.00    -0.325 OA
HETATM   17  C1  UNL     1       1.775  55.260 -10.255  1.00  0.00     0.213 C 
ENDBRANCH  14  16
ENDBRANCH  13  14
BRANCH  13  18
HETATM   18  C4  UNL     1      -2.644  53.480  -9.863  1.00  0.00     0.093 C 
BRANCH  18  19
HETATM   19  C5  UNL     1      -3.403  52.201 -10.013  1.00  0.00     0.028 A 
HETATM   20  C6  UNL     1      -4.480  51.850 -10.796  1.00  0.00     0.114 A 
HETATM   21  N1  UNL     1      -4.860  50.558 -10.549  1.00  0.00    -0.360 N 
HETATM   22  C7  UNL     1      -4.008  50.106  -9.660  1.00  0.00     0.180 A 
ATOM     23  H1  UNL     1      -5.641  50.054 -10.968  1.00  0.00     0.166 HD
HETATM   24  N2  UNL     1      -3.093  51.059  -9.312  1.00  0.00    -0.354 N 
HETATM   25  H9  UNL     1      -2.343  50.946  -8.641  1.00  0.00     0.166 HD
ENDBRANCH  18  19
ENDBRANCH  13  18
ENDBRANCH  10  13
ENDBRANCH   8   9
ENDBRANCH   7   8
ENDBRANCH   5   7
ENDBRANCH   4   5
ENDBRANCH   3   4
ENDBRANCH   1   3
BRANCH   1  26
HETATM   26  C14 UNL     1      -1.745  49.360 -18.914  1.00  0.00     0.128 C 
HETATM   27  C15 UNL     1      -3.207  48.882 -19.065  1.00  0.00     0.047 C 
HETATM   28  C16 UNL     1      -3.625  49.217 -20.517  1.00  0.00     0.009 C 
HETATM   29  C17 UNL     1      -2.342  49.713 -21.183  1.00  0.00     0.002 C 
HETATM   30  C18 UNL     1      -2.428  50.555 -22.466  1.00  0.00     0.003 C 
HETATM   31  C31 UNL     1      -1.601  50.447 -20.016  1.00  0.00     0.005 C 
HETATM   32  C19 UNL     1      -3.280  49.922 -23.583  1.00  0.00     0.010 C 
HETATM   33  C28 UNL     1      -0.970  50.864 -22.931  1.00  0.00     0.072 C 
HETATM   34  C20 UNL     1      -2.479  49.503 -24.812  1.00  0.00     0.035 C 
HETATM   35  C21 UNL     1      -1.550  50.576 -25.338  1.00  0.00    -0.067 C 
HETATM   36  C22 UNL     1      -1.216  50.577 -26.641  1.00  0.00     0.053 C 
HETATM   37  C26 UNL     1      -0.937  51.559 -24.326  1.00  0.00    -0.009 C 
HETATM   38  C23 UNL     1      -0.207  51.516 -27.186  1.00  0.00     0.149 C 
HETATM   39  O8  UNL     1      -0.077  51.610 -28.404  1.00  0.00    -0.293 OA
HETATM   40  C24 UNL     1       0.613  52.345 -26.224  1.00  0.00     0.084 C 
HETATM   41  C25 UNL     1       0.519  51.841 -24.782  1.00  0.00     0.022 C 
HETATM   42  C27 UNL     1      -1.755  52.873 -24.333  1.00  0.00     0.021 C 
HETATM   43  C29 UNL     1      -0.235  51.556 -21.775  1.00  0.00     0.133 C 
HETATM   44  O9  UNL     1       0.265  52.676 -21.852  1.00  0.00    -0.297 OA
HETATM   45  C30 UNL     1      -0.168  50.758 -20.476  1.00  0.00     0.091 C 
HETATM   46  C32 UNL     1      -2.292  51.784 -19.635  1.00  0.00     0.019 C 
BRANCH  26  47
HETATM   47  O7  UNL     1      -0.909  48.242 -19.313  1.00  0.00    -0.381 OA
HETATM   48  H17 UNL     1      -0.637  47.788 -18.486  1.00  0.00     0.211 HD
ENDBRANCH  26  47
ENDBRANCH   1  26
TORSDOF 13
ENDMDL
