MODEL 1
REMARK minimizedAffinity -6.15452242
REMARK CNNscore 0.235531732
REMARK CNNaffinity 6.58439302
REMARK  10 active torsions:
REMARK  status: ('A' for Active; 'I' for Inactive)
REMARK    1  A    between atoms: C16_18  and  C17_19 
REMARK    2  A    between atoms: C26_30  and  C27_31 
REMARK    3  A    between atoms: C27_31  and  O1_33 
REMARK    4  A    between atoms: C30_35  and  C31_36 
REMARK    5  A    between atoms: C31_36  and  O3_38 
REMARK    6  A    between atoms: C37_44  and  O4_45 
REMARK    7  A    between atoms: C41_49  and  C42_50 
REMARK    8  A    between atoms: C41_49  and  C43_52 
REMARK    9  A    between atoms: C42_50  and  O5_51 
REMARK   10  A    between atoms: C43_52  and  O7_54 
ROOT
HETATM    1  C17 UNL     1     -13.460  15.524  -1.993  1.00  0.00     0.013 A 
HETATM    2  C18 UNL     1     -12.841  15.894  -0.775  1.00  0.00     0.053 A 
HETATM    3  N3  UNL     1     -11.748  15.343  -0.147  1.00  0.00    -0.357 N 
HETATM    4  C19 UNL     1     -11.464  16.002   1.026  1.00  0.00     0.038 A 
HETATM    5  C20 UNL     1     -12.403  17.010   1.166  1.00  0.00    -0.020 A 
HETATM    6  C21 UNL     1     -12.458  17.998   2.285  1.00  0.00     0.072 C 
HETATM    7  C22 UNL     1     -12.456  17.358   3.683  1.00  0.00     0.277 C 
HETATM    8  N4  UNL     1     -11.386  16.414   4.035  1.00  0.00     0.096 N 
HETATM    9  C23 UNL     1     -11.867  15.035   4.215  1.00  0.00     0.277 C 
HETATM   10  C24 UNL     1     -10.736  14.042   3.886  1.00  0.00     0.016 C 
HETATM   11  C25 UNL     1      -9.467  14.475   4.637  1.00  0.00     0.015 C 
HETATM   12  C26 UNL     1      -9.010  15.851   4.103  1.00  0.00     0.049 C 
HETATM   13  C29 UNL     1     -10.151  16.457   3.212  1.00  0.00     0.253 C 
HETATM   14  C30 UNL     1     -10.288  15.579   1.904  1.00  0.00     0.122 C 
HETATM   15  C33 UNL     1     -10.465  14.096   2.370  1.00  0.00     0.035 C 
HETATM   16  C34 UNL     1     -13.277  16.941   0.033  1.00  0.00    -0.000 A 
HETATM   17  C35 UNL     1     -14.399  17.679  -0.386  1.00  0.00     0.017 A 
HETATM   18  C36 UNL     1     -15.038  17.350  -1.586  1.00  0.00     0.038 A 
HETATM   19  C37 UNL     1     -14.580  16.300  -2.385  1.00  0.00     0.077 A 
HETATM   20  H19 UNL     1     -11.233  14.546  -0.501  1.00  0.00     0.166 HD
ENDROOT
BRANCH   1  21
HETATM   21  C16 UNL     1     -12.931  14.365  -2.879  1.00  0.00     0.075 C 
HETATM   22  C9  UNL     1     -12.704  14.892  -4.334  1.00  0.00     0.025 A 
HETATM   23  C8  UNL     1     -12.945  14.539  -5.680  1.00  0.00    -0.020 A 
HETATM   24  N2  UNL     1     -11.980  16.081  -4.400  1.00  0.00    -0.358 N 
HETATM   25  C7  UNL     1     -13.601  13.318  -6.329  1.00  0.00     0.079 C 
HETATM   26  C15 UNL     1     -12.412  15.593  -6.508  1.00  0.00    -0.001 A 
HETATM   27  C6  UNL     1     -14.052  12.310  -5.290  1.00  0.00     0.248 C 
HETATM   28  N1  UNL     1     -15.132  11.316  -5.491  1.00  0.00     0.094 N 
HETATM   29  C41 UNL     1     -12.920  11.604  -4.466  1.00  0.00     0.107 C 
HETATM   30  C4  UNL     1     -15.779  11.066  -4.168  1.00  0.00     0.306 C 
HETATM   31  C5  UNL     1     -16.137  11.711  -6.473  1.00  0.00     0.310 C 
HETATM   32  C3  UNL     1     -14.792  10.846  -3.002  1.00  0.00    -0.051 C 
HETATM   33  C2  UNL     1     -15.068   9.924  -2.059  1.00  0.00    -0.026 C 
HETATM   34  C40 UNL     1     -13.493  11.694  -3.031  1.00  0.00     0.039 C 
HETATM   35  C1  UNL     1     -14.255   9.570  -0.855  1.00  0.00     0.036 C 
HETATM   36  C39 UNL     1     -13.837  13.146  -2.541  1.00  0.00     0.026 C 
HETATM   37  C10 UNL     1     -11.826  16.533  -5.678  1.00  0.00     0.043 A 
HETATM   38  C14 UNL     1     -12.371  15.816  -7.902  1.00  0.00     0.014 A 
HETATM   39  C11 UNL     1     -11.204  17.694  -6.154  1.00  0.00     0.030 A 
HETATM   40  C12 UNL     1     -11.182  17.896  -7.536  1.00  0.00     0.002 A 
HETATM   41  C13 UNL     1     -11.756  16.970  -8.402  1.00  0.00     0.001 A 
HETATM   42  H13 UNL     1     -11.642  16.574  -3.583  1.00  0.00     0.166 HD
BRANCH  29  43
HETATM   43  C42 UNL     1     -12.660  10.115  -4.904  1.00  0.00     0.186 C 
BRANCH  43  44
HETATM   44  O5  UNL     1     -12.232   9.273  -3.822  1.00  0.00    -0.399 OA
HETATM   45  H51 UNL     1     -11.452   9.668  -3.396  1.00  0.00     0.209 HD
ENDBRANCH  43  44
ENDBRANCH  29  43
BRANCH  29  46
HETATM   46  C43 UNL     1     -11.486  12.151  -4.521  1.00  0.00     0.272 C 
HETATM   47  O6  UNL     1     -10.890  12.609  -3.550  1.00  0.00    -0.264 OA
BRANCH  46  48
HETATM   48  O7  UNL     1     -10.880  11.905  -5.715  1.00  0.00    -0.326 OA
HETATM   49  C44 UNL     1      -9.677  12.644  -5.939  1.00  0.00     0.213 C 
ENDBRANCH  46  48
ENDBRANCH  29  46
ENDBRANCH   1  21
BRANCH  19  50
HETATM   50  O4  UNL     1     -15.168  15.933  -3.570  1.00  0.00    -0.355 OA
HETATM   51  C38 UNL     1     -16.545  15.580  -3.543  1.00  0.00     0.210 C 
ENDBRANCH  19  50
BRANCH  14  52
HETATM   52  C31 UNL     1      -9.036  15.704   1.005  1.00  0.00     0.275 C 
HETATM   53  O2  UNL     1      -8.136  14.869   0.966  1.00  0.00    -0.264 OA
BRANCH  52  54
HETATM   54  O3  UNL     1      -9.093  16.799   0.196  1.00  0.00    -0.326 OA
HETATM   55  C32 UNL     1      -8.241  17.874   0.594  1.00  0.00     0.213 C 
ENDBRANCH  52  54
ENDBRANCH  14  52
BRANCH  12  56
HETATM   56  C27 UNL     1      -8.451  16.766   5.214  1.00  0.00     0.120 C 
HETATM   57  C28 UNL     1      -9.451  17.598   6.006  1.00  0.00     0.040 C 
BRANCH  56  58
HETATM   58  O1  UNL     1      -7.479  17.648   4.643  1.00  0.00    -0.396 OA
HETATM   59  H34 UNL     1      -7.957  18.367   4.197  1.00  0.00     0.210 HD
ENDBRANCH  56  58
ENDBRANCH  12  56
TORSDOF 10
ENDMDL
MODEL 2
REMARK minimizedAffinity -5.63970947
REMARK CNNscore 0.154296651
REMARK CNNaffinity 6.78190422
REMARK  10 active torsions:
REMARK  status: ('A' for Active; 'I' for Inactive)
REMARK    1  A    between atoms: C16_18  and  C17_19 
REMARK    2  A    between atoms: C26_30  and  C27_31 
REMARK    3  A    between atoms: C27_31  and  O1_33 
REMARK    4  A    between atoms: C30_35  and  C31_36 
REMARK    5  A    between atoms: C31_36  and  O3_38 
REMARK    6  A    between atoms: C37_44  and  O4_45 
REMARK    7  A    between atoms: C41_49  and  C42_50 
REMARK    8  A    between atoms: C41_49  and  C43_52 
REMARK    9  A    between atoms: C42_50  and  O5_51 
REMARK   10  A    between atoms: C43_52  and  O7_54 
ROOT
HETATM    1  C17 UNL     1     -14.997   3.810  24.194  1.00  0.00     0.013 A 
HETATM    2  C18 UNL     1     -14.625   3.441  25.509  1.00  0.00     0.053 A 
HETATM    3  N3  UNL     1     -15.279   3.665  26.699  1.00  0.00    -0.357 N 
HETATM    4  C19 UNL     1     -14.578   3.138  27.758  1.00  0.00     0.038 A 
HETATM    5  C20 UNL     1     -13.433   2.557  27.242  1.00  0.00    -0.020 A 
HETATM    6  C21 UNL     1     -12.391   1.836  28.034  1.00  0.00     0.072 C 
HETATM    7  C22 UNL     1     -11.841   2.643  29.221  1.00  0.00     0.277 C 
HETATM    8  N4  UNL     1     -12.780   3.196  30.206  1.00  0.00     0.096 N 
HETATM    9  C23 UNL     1     -12.838   4.666  30.188  1.00  0.00     0.277 C 
HETATM   10  C24 UNL     1     -14.225   5.139  30.661  1.00  0.00     0.016 C 
HETATM   11  C25 UNL     1     -14.574   4.412  31.970  1.00  0.00     0.015 C 
HETATM   12  C26 UNL     1     -14.699   2.898  31.688  1.00  0.00     0.049 C 
HETATM   13  C29 UNL     1     -14.138   2.598  30.252  1.00  0.00     0.253 C 
HETATM   14  C30 UNL     1     -15.105   3.255  29.188  1.00  0.00     0.122 C 
HETATM   15  C33 UNL     1     -15.263   4.760  29.586  1.00  0.00     0.035 C 
HETATM   16  C34 UNL     1     -13.457   2.750  25.823  1.00  0.00    -0.000 A 
HETATM   17  C35 UNL     1     -12.594   2.395  24.771  1.00  0.00     0.017 A 
HETATM   18  C36 UNL     1     -12.925   2.736  23.455  1.00  0.00     0.038 A 
HETATM   19  C37 UNL     1     -14.105   3.423  23.162  1.00  0.00     0.077 A 
HETATM   20  H19 UNL     1     -16.155   4.167  26.777  1.00  0.00     0.166 HD
ENDROOT
BRANCH   1  21
HETATM   21  C16 UNL     1     -16.319   4.560  23.881  1.00  0.00     0.075 C 
HETATM   22  C9  UNL     1     -16.247   6.001  24.486  1.00  0.00     0.025 A 
HETATM   23  C8  UNL     1     -17.018   6.918  25.234  1.00  0.00    -0.020 A 
HETATM   24  N2  UNL     1     -15.075   6.688  24.175  1.00  0.00    -0.358 N 
HETATM   25  C7  UNL     1     -18.434   6.852  25.810  1.00  0.00     0.079 C 
HETATM   26  C15 UNL     1     -16.226   8.111  25.409  1.00  0.00    -0.001 A 
HETATM   27  C6  UNL     1     -19.110   5.536  25.478  1.00  0.00     0.248 C 
HETATM   28  N1  UNL     1     -20.212   4.931  26.261  1.00  0.00     0.094 N 
HETATM   29  C41 UNL     1     -19.420   5.274  23.963  1.00  0.00     0.107 C 
HETATM   30  C4  UNL     1     -20.101   3.446  26.142  1.00  0.00     0.306 C 
HETATM   31  C5  UNL     1     -20.233   5.321  27.668  1.00  0.00     0.310 C 
HETATM   32  C3  UNL     1     -19.859   2.934  24.708  1.00  0.00    -0.051 C 
HETATM   33  C2  UNL     1     -20.467   1.806  24.290  1.00  0.00    -0.026 C 
HETATM   34  C40 UNL     1     -18.946   3.810  23.809  1.00  0.00     0.039 C 
HETATM   35  C1  UNL     1     -20.357   1.144  22.954  1.00  0.00     0.036 C 
HETATM   36  C39 UNL     1     -17.451   3.547  24.215  1.00  0.00     0.026 C 
HETATM   37  C10 UNL     1     -15.026   7.929  24.742  1.00  0.00     0.043 A 
HETATM   38  C14 UNL     1     -16.440   9.339  26.072  1.00  0.00     0.014 A 
HETATM   39  C11 UNL     1     -14.017   8.898  24.703  1.00  0.00     0.030 A 
HETATM   40  C12 UNL     1     -14.249  10.102  25.372  1.00  0.00     0.002 A 
HETATM   41  C13 UNL     1     -15.446  10.323  26.048  1.00  0.00     0.001 A 
HETATM   42  H13 UNL     1     -14.325   6.292  23.623  1.00  0.00     0.166 HD
BRANCH  29  43
HETATM   43  C42 UNL     1     -20.941   5.443  23.596  1.00  0.00     0.186 C 
BRANCH  43  44
HETATM   44  O5  UNL     1     -21.253   5.011  22.262  1.00  0.00    -0.399 OA
HETATM   45  H51 UNL     1     -20.674   5.472  21.631  1.00  0.00     0.209 HD
ENDBRANCH  43  44
ENDBRANCH  29  43
BRANCH  29  46
HETATM   46  C43 UNL     1     -18.788   6.174  22.891  1.00  0.00     0.272 C 
HETATM   47  O6  UNL     1     -18.676   7.391  22.997  1.00  0.00    -0.264 OA
BRANCH  46  48
HETATM   48  O7  UNL     1     -18.199   5.459  21.893  1.00  0.00    -0.326 OA
HETATM   49  C44 UNL     1     -18.142   6.128  20.631  1.00  0.00     0.213 C 
ENDBRANCH  46  48
ENDBRANCH  29  46
ENDBRANCH   1  21
BRANCH  19  50
HETATM   50  O4  UNL     1     -14.480   3.784  21.891  1.00  0.00    -0.355 OA
HETATM   51  C38 UNL     1     -13.853   4.923  21.316  1.00  0.00     0.210 C 
ENDBRANCH  19  50
BRANCH  14  52
HETATM   52  C31 UNL     1     -16.488   2.563  29.175  1.00  0.00     0.275 C 
HETATM   53  O2  UNL     1     -16.642   1.345  29.202  1.00  0.00    -0.264 OA
BRANCH  52  54
HETATM   54  O3  UNL     1     -17.511   3.461  29.224  1.00  0.00    -0.326 OA
HETATM   55  C32 UNL     1     -18.567   3.106  30.117  1.00  0.00     0.213 C 
ENDBRANCH  52  54
ENDBRANCH  14  52
BRANCH  12  56
HETATM   56  C27 UNL     1     -14.141   2.029  32.836  1.00  0.00     0.120 C 
HETATM   57  C28 UNL     1     -14.899   2.044  34.156  1.00  0.00     0.040 C 
BRANCH  56  58
HETATM   58  O1  UNL     1     -12.783   2.407  33.086  1.00  0.00    -0.396 OA
HETATM   59  H34 UNL     1     -12.797   3.221  33.617  1.00  0.00     0.210 HD
ENDBRANCH  56  58
ENDBRANCH  12  56
TORSDOF 10
ENDMDL
MODEL 3
REMARK minimizedAffinity -6.63929367
REMARK CNNscore 0.116313562
REMARK CNNaffinity 5.80941725
REMARK  10 active torsions:
REMARK  status: ('A' for Active; 'I' for Inactive)
REMARK    1  A    between atoms: C16_18  and  C17_19 
REMARK    2  A    between atoms: C26_30  and  C27_31 
REMARK    3  A    between atoms: C27_31  and  O1_33 
REMARK    4  A    between atoms: C30_35  and  C31_36 
REMARK    5  A    between atoms: C31_36  and  O3_38 
REMARK    6  A    between atoms: C37_44  and  O4_45 
REMARK    7  A    between atoms: C41_49  and  C42_50 
REMARK    8  A    between atoms: C41_49  and  C43_52 
REMARK    9  A    between atoms: C42_50  and  O5_51 
REMARK   10  A    between atoms: C43_52  and  O7_54 
ROOT
HETATM    1  C17 UNL     1       6.408  11.478  18.263  1.00  0.00     0.013 A 
HETATM    2  C18 UNL     1       7.141  12.412  19.035  1.00  0.00     0.053 A 
HETATM    3  N3  UNL     1       6.689  13.340  19.945  1.00  0.00    -0.357 N 
HETATM    4  C19 UNL     1       7.733  14.056  20.483  1.00  0.00     0.038 A 
HETATM    5  C20 UNL     1       8.897  13.581  19.903  1.00  0.00    -0.020 A 
HETATM    6  C21 UNL     1      10.279  14.054  20.216  1.00  0.00     0.072 C 
HETATM    7  C22 UNL     1      10.458  15.576  20.105  1.00  0.00     0.277 C 
HETATM    8  N4  UNL     1       9.555  16.458  20.858  1.00  0.00     0.096 N 
HETATM    9  C23 UNL     1       8.661  17.245  19.993  1.00  0.00     0.277 C 
HETATM   10  C24 UNL     1       7.359  17.569  20.748  1.00  0.00     0.016 C 
HETATM   11  C25 UNL     1       7.719  18.136  22.131  1.00  0.00     0.015 C 
HETATM   12  C26 UNL     1       8.441  17.043  22.951  1.00  0.00     0.049 C 
HETATM   13  C29 UNL     1       8.818  15.855  21.997  1.00  0.00     0.253 C 
HETATM   14  C30 UNL     1       7.486  15.146  21.525  1.00  0.00     0.122 C 
HETATM   15  C33 UNL     1       6.563  16.262  20.934  1.00  0.00     0.035 C 
HETATM   16  C34 UNL     1       8.526  12.546  18.985  1.00  0.00    -0.000 A 
HETATM   17  C35 UNL     1       9.243  11.704  18.116  1.00  0.00     0.017 A 
HETATM   18  C36 UNL     1       8.559  10.763  17.339  1.00  0.00     0.038 A 
HETATM   19  C37 UNL     1       7.169  10.640  17.410  1.00  0.00     0.077 A 
HETATM   20  H19 UNL     1       5.713  13.482  20.172  1.00  0.00     0.166 HD
ENDROOT
BRANCH   1  21
HETATM   21  C16 UNL     1       4.866  11.342  18.363  1.00  0.00     0.075 C 
HETATM   22  C9  UNL     1       4.194  12.415  17.443  1.00  0.00     0.025 A 
HETATM   23  C8  UNL     1       3.155  13.371  17.449  1.00  0.00    -0.020 A 
HETATM   24  N2  UNL     1       4.714  12.458  16.151  1.00  0.00    -0.358 N 
HETATM   25  C7  UNL     1       2.124  13.773  18.505  1.00  0.00     0.079 C 
HETATM   26  C15 UNL     1       3.149  14.014  16.157  1.00  0.00    -0.001 A 
HETATM   27  C6  UNL     1       2.272  12.951  19.770  1.00  0.00     0.248 C 
HETATM   28  N1  UNL     1       1.830  13.384  21.116  1.00  0.00     0.094 N 
HETATM   29  C41 UNL     1       1.953  11.420  19.648  1.00  0.00     0.107 C 
HETATM   30  C4  UNL     1       2.743  12.764  22.122  1.00  0.00     0.306 C 
HETATM   31  C5  UNL     1       1.792  14.832  21.298  1.00  0.00     0.310 C 
HETATM   32  C3  UNL     1       3.026  11.265  21.894  1.00  0.00    -0.051 C 
HETATM   33  C2  UNL     1       3.111  10.433  22.952  1.00  0.00    -0.026 C 
HETATM   34  C40 UNL     1       3.145  10.803  20.417  1.00  0.00     0.039 C 
HETATM   35  C1  UNL     1       3.386   8.963  22.944  1.00  0.00     0.036 C 
HETATM   36  C39 UNL     1       4.566  11.210  19.884  1.00  0.00     0.026 C 
HETATM   37  C10 UNL     1       4.132  13.424  15.381  1.00  0.00     0.043 A 
HETATM   38  C14 UNL     1       2.374  15.045  15.581  1.00  0.00     0.014 A 
HETATM   39  C11 UNL     1       4.399  13.806  14.061  1.00  0.00     0.030 A 
HETATM   40  C12 UNL     1       3.624  14.832  13.515  1.00  0.00     0.002 A 
HETATM   41  C13 UNL     1       2.622  15.444  14.263  1.00  0.00     0.001 A 
HETATM   42  H13 UNL     1       5.469  11.864  15.833  1.00  0.00     0.166 HD
BRANCH  29  43
HETATM   43  C42 UNL     1       0.570  11.015  20.280  1.00  0.00     0.186 C 
BRANCH  43  44
HETATM   44  O5  UNL     1      -0.473  10.857  19.306  1.00  0.00    -0.399 OA
HETATM   45  H51 UNL     1      -0.541  11.667  18.772  1.00  0.00     0.209 HD
ENDBRANCH  43  44
ENDBRANCH  29  43
BRANCH  29  46
HETATM   46  C43 UNL     1       1.806  10.783  18.258  1.00  0.00     0.272 C 
HETATM   47  O6  UNL     1       2.220   9.664  17.971  1.00  0.00    -0.264 OA
BRANCH  46  48
HETATM   48  O7  UNL     1       1.007  11.512  17.432  1.00  0.00    -0.326 OA
HETATM   49  C44 UNL     1       0.860  10.977  16.115  1.00  0.00     0.213 C 
ENDBRANCH  46  48
ENDBRANCH  29  46
ENDBRANCH   1  21
BRANCH  19  50
HETATM   50  O4  UNL     1       6.447   9.737  16.670  1.00  0.00    -0.355 OA
HETATM   51  C38 UNL     1       6.803   9.567  15.304  1.00  0.00     0.210 C 
ENDBRANCH  19  50
BRANCH  14  52
HETATM   52  C31 UNL     1       6.774  14.438  22.701  1.00  0.00     0.275 C 
HETATM   53  O2  UNL     1       5.745  14.855  23.227  1.00  0.00    -0.264 OA
BRANCH  52  54
HETATM   54  O3  UNL     1       7.367  13.255  23.023  1.00  0.00    -0.326 OA
HETATM   55  C32 UNL     1       6.461  12.162  23.179  1.00  0.00     0.213 C 
ENDBRANCH  52  54
ENDBRANCH  14  52
BRANCH  12  56
HETATM   56  C27 UNL     1       9.581  17.608  23.825  1.00  0.00     0.120 C 
HETATM   57  C28 UNL     1       9.534  17.306  25.317  1.00  0.00     0.040 C 
BRANCH  56  58
HETATM   58  O1  UNL     1       9.639  19.027  23.651  1.00  0.00    -0.396 OA
HETATM   59  H34 UNL     1       8.935  19.421  24.194  1.00  0.00     0.210 HD
ENDBRANCH  56  58
ENDBRANCH  12  56
TORSDOF 10
ENDMDL
MODEL 4
REMARK minimizedAffinity -6.6053319
REMARK CNNscore 0.0972402468
REMARK CNNaffinity 4.65395212
REMARK  10 active torsions:
REMARK  status: ('A' for Active; 'I' for Inactive)
REMARK    1  A    between atoms: C16_18  and  C17_19 
REMARK    2  A    between atoms: C26_30  and  C27_31 
REMARK    3  A    between atoms: C27_31  and  O1_33 
REMARK    4  A    between atoms: C30_35  and  C31_36 
REMARK    5  A    between atoms: C31_36  and  O3_38 
REMARK    6  A    between atoms: C37_44  and  O4_45 
REMARK    7  A    between atoms: C41_49  and  C42_50 
REMARK    8  A    between atoms: C41_49  and  C43_52 
REMARK    9  A    between atoms: C42_50  and  O5_51 
REMARK   10  A    between atoms: C43_52  and  O7_54 
ROOT
HETATM    1  C17 UNL     1       4.961  12.782  14.988  1.00  0.00     0.013 A 
HETATM    2  C18 UNL     1       3.584  12.649  15.290  1.00  0.00     0.053 A 
HETATM    3  N3  UNL     1       2.962  11.803  16.179  1.00  0.00    -0.357 N 
HETATM    4  C19 UNL     1       1.600  11.993  16.175  1.00  0.00     0.038 A 
HETATM    5  C20 UNL     1       1.329  12.989  15.253  1.00  0.00    -0.020 A 
HETATM    6  C21 UNL     1      -0.024  13.541  14.941  1.00  0.00     0.072 C 
HETATM    7  C22 UNL     1      -1.066  12.471  14.579  1.00  0.00     0.277 C 
HETATM    8  N4  UNL     1      -1.294  11.353  15.506  1.00  0.00     0.096 N 
HETATM    9  C23 UNL     1      -0.860  10.055  14.965  1.00  0.00     0.277 C 
HETATM   10  C24 UNL     1      -0.467   9.115  16.120  1.00  0.00     0.016 C 
HETATM   11  C25 UNL     1      -1.589   9.128  17.171  1.00  0.00     0.015 C 
HETATM   12  C26 UNL     1      -1.695  10.546  17.776  1.00  0.00     0.049 C 
HETATM   13  C29 UNL     1      -0.842  11.538  16.908  1.00  0.00     0.253 C 
HETATM   14  C30 UNL     1       0.686  11.172  17.084  1.00  0.00     0.122 C 
HETATM   15  C33 UNL     1       0.829   9.648  16.764  1.00  0.00     0.035 C 
HETATM   16  C34 UNL     1       2.579  13.403  14.689  1.00  0.00    -0.000 A 
HETATM   17  C35 UNL     1       2.952  14.356  13.724  1.00  0.00     0.017 A 
HETATM   18  C36 UNL     1       4.302  14.523  13.398  1.00  0.00     0.038 A 
HETATM   19  C37 UNL     1       5.295  13.761  14.019  1.00  0.00     0.077 A 
HETATM   20  H19 UNL     1       3.448  11.122  16.748  1.00  0.00     0.166 HD
ENDROOT
BRANCH   1  21
HETATM   21  C16 UNL     1       6.055  11.939  15.696  1.00  0.00     0.075 C 
HETATM   22  C9  UNL     1       7.073  12.901  16.392  1.00  0.00     0.025 A 
HETATM   23  C8  UNL     1       8.462  13.096  16.559  1.00  0.00    -0.020 A 
HETATM   24  N2  UNL     1       6.477  13.892  17.170  1.00  0.00    -0.358 N 
HETATM   25  C7  UNL     1       9.683  12.317  16.065  1.00  0.00     0.079 C 
HETATM   26  C15 UNL     1       8.641  14.267  17.382  1.00  0.00    -0.001 A 
HETATM   27  C6  UNL     1       9.279  11.100  15.257  1.00  0.00     0.248 C 
HETATM   28  N1  UNL     1      10.128  10.444  14.236  1.00  0.00     0.094 N 
HETATM   29  C41 UNL     1       8.529   9.964  16.035  1.00  0.00     0.107 C 
HETATM   30  C4  UNL     1       9.229   9.856  13.198  1.00  0.00     0.306 C 
HETATM   31  C5  UNL     1      11.106  11.329  13.609  1.00  0.00     0.310 C 
HETATM   32  C3  UNL     1       8.026   9.071  13.761  1.00  0.00    -0.051 C 
HETATM   33  C2  UNL     1       7.626   7.936  13.154  1.00  0.00    -0.026 C 
HETATM   34  C40 UNL     1       7.379   9.636  15.053  1.00  0.00     0.039 C 
HETATM   35  C1  UNL     1       6.488   7.044  13.533  1.00  0.00     0.036 C 
HETATM   36  C39 UNL     1       6.471  10.856  14.659  1.00  0.00     0.026 C 
HETATM   37  C10 UNL     1       7.388  14.735  17.738  1.00  0.00     0.043 A 
HETATM   38  C14 UNL     1       9.773  14.959  17.865  1.00  0.00     0.014 A 
HETATM   39  C11 UNL     1       7.191  15.864  18.542  1.00  0.00     0.030 A 
HETATM   40  C12 UNL     1       8.326  16.536  19.003  1.00  0.00     0.002 A 
HETATM   41  C13 UNL     1       9.602  16.091  18.671  1.00  0.00     0.001 A 
HETATM   42  H13 UNL     1       5.475  13.998  17.267  1.00  0.00     0.166 HD
BRANCH  29  43
HETATM   43  C42 UNL     1       9.428   8.707  16.331  1.00  0.00     0.186 C 
BRANCH  43  44
HETATM   44  O5  UNL     1       8.750   7.691  17.086  1.00  0.00    -0.399 OA
HETATM   45  H51 UNL     1       8.392   8.081  17.902  1.00  0.00     0.209 HD
ENDBRANCH  43  44
ENDBRANCH  29  43
BRANCH  29  46
HETATM   46  C43 UNL     1       7.986  10.239  17.446  1.00  0.00     0.272 C 
HETATM   47  O6  UNL     1       6.828  10.023  17.788  1.00  0.00    -0.264 OA
BRANCH  46  48
HETATM   48  O7  UNL     1       8.970  10.573  18.326  1.00  0.00    -0.326 OA
HETATM   49  C44 UNL     1       8.516  11.246  19.502  1.00  0.00     0.213 C 
ENDBRANCH  46  48
ENDBRANCH  29  46
ENDBRANCH   1  21
BRANCH  19  50
HETATM   50  O4  UNL     1       6.633  13.883  13.738  1.00  0.00    -0.355 OA
HETATM   51  C38 UNL     1       7.147  15.190  13.520  1.00  0.00     0.210 C 
ENDBRANCH  19  50
BRANCH  14  52
HETATM   52  C31 UNL     1       1.175  11.458  18.524  1.00  0.00     0.275 C 
HETATM   53  O2  UNL     1       1.237  12.582  19.014  1.00  0.00    -0.264 OA
BRANCH  52  54
HETATM   54  O3  UNL     1       1.440  10.312  19.212  1.00  0.00    -0.326 OA
HETATM   55  C32 UNL     1       1.613  10.494  20.618  1.00  0.00     0.213 C 
ENDBRANCH  52  54
ENDBRANCH  14  52
BRANCH  12  56
HETATM   56  C27 UNL     1      -3.154  10.966  18.060  1.00  0.00     0.120 C 
HETATM   57  C28 UNL     1      -3.392  12.395  18.527  1.00  0.00     0.040 C 
BRANCH  56  58
HETATM   58  O1  UNL     1      -3.713  10.072  19.028  1.00  0.00    -0.396 OA
HETATM   59  H34 UNL     1      -3.392  10.346  19.904  1.00  0.00     0.210 HD
ENDBRANCH  56  58
ENDBRANCH  12  56
TORSDOF 10
ENDMDL
MODEL 5
REMARK minimizedAffinity -6.31394958
REMARK CNNscore 0.096523568
REMARK CNNaffinity 5.1535306
REMARK  10 active torsions:
REMARK  status: ('A' for Active; 'I' for Inactive)
REMARK    1  A    between atoms: C16_18  and  C17_19 
REMARK    2  A    between atoms: C26_30  and  C27_31 
REMARK    3  A    between atoms: C27_31  and  O1_33 
REMARK    4  A    between atoms: C30_35  and  C31_36 
REMARK    5  A    between atoms: C31_36  and  O3_38 
REMARK    6  A    between atoms: C37_44  and  O4_45 
REMARK    7  A    between atoms: C41_49  and  C42_50 
REMARK    8  A    between atoms: C41_49  and  C43_52 
REMARK    9  A    between atoms: C42_50  and  O5_51 
REMARK   10  A    between atoms: C43_52  and  O7_54 
ROOT
HETATM    1  C17 UNL     1      -9.351  13.317  18.590  1.00  0.00     0.013 A 
HETATM    2  C18 UNL     1      -9.808  12.718  19.789  1.00  0.00     0.053 A 
HETATM    3  N3  UNL     1     -10.886  11.889  19.996  1.00  0.00    -0.357 N 
HETATM    4  C19 UNL     1     -10.982  11.520  21.317  1.00  0.00     0.038 A 
HETATM    5  C20 UNL     1      -9.938  12.130  21.989  1.00  0.00    -0.020 A 
HETATM    6  C21 UNL     1      -9.636  11.983  23.445  1.00  0.00     0.072 C 
HETATM    7  C22 UNL     1     -10.833  12.282  24.363  1.00  0.00     0.277 C 
HETATM    8  N4  UNL     1     -12.098  11.568  24.142  1.00  0.00     0.096 N 
HETATM    9  C23 UNL     1     -13.184  12.446  23.676  1.00  0.00     0.277 C 
HETATM   10  C24 UNL     1     -14.183  11.633  22.832  1.00  0.00     0.016 C 
HETATM   11  C25 UNL     1     -14.558  10.357  23.604  1.00  0.00     0.015 C 
HETATM   12  C26 UNL     1     -13.299   9.476  23.761  1.00  0.00     0.049 C 
HETATM   13  C29 UNL     1     -12.035  10.313  23.352  1.00  0.00     0.253 C 
HETATM   14  C30 UNL     1     -12.099  10.595  21.798  1.00  0.00     0.122 C 
HETATM   15  C33 UNL     1     -13.497  11.236  21.510  1.00  0.00     0.035 C 
HETATM   16  C34 UNL     1      -9.196  12.891  21.027  1.00  0.00    -0.000 A 
HETATM   17  C35 UNL     1      -8.055  13.710  21.095  1.00  0.00     0.017 A 
HETATM   18  C36 UNL     1      -7.566  14.318  19.934  1.00  0.00     0.038 A 
HETATM   19  C37 UNL     1      -8.191  14.125  18.699  1.00  0.00     0.077 A 
HETATM   20  H19 UNL     1     -11.529  11.603  19.268  1.00  0.00     0.166 HD
ENDROOT
BRANCH   1  21
HETATM   21  C16 UNL     1     -10.046  13.081  17.223  1.00  0.00     0.075 C 
HETATM   22  C9  UNL     1     -11.298  14.013  17.116  1.00  0.00     0.025 A 
HETATM   23  C8  UNL     1     -12.658  13.986  16.734  1.00  0.00    -0.020 A 
HETATM   24  N2  UNL     1     -11.044  15.344  17.442  1.00  0.00    -0.358 N 
HETATM   25  C7  UNL     1     -13.555  12.877  16.180  1.00  0.00     0.079 C 
HETATM   26  C15 UNL     1     -13.190  15.313  16.927  1.00  0.00    -0.001 A 
HETATM   27  C6  UNL     1     -12.795  11.577  16.010  1.00  0.00     0.248 C 
HETATM   28  N1  UNL     1     -13.414  10.232  16.002  1.00  0.00     0.094 N 
HETATM   29  C41 UNL     1     -11.658  11.570  14.931  1.00  0.00     0.107 C 
HETATM   30  C4  UNL     1     -12.421   9.264  16.559  1.00  0.00     0.306 C 
HETATM   31  C5  UNL     1     -14.670  10.144  16.743  1.00  0.00     0.310 C 
HETATM   32  C3  UNL     1     -10.994   9.414  15.994  1.00  0.00    -0.051 C 
HETATM   33  C2  UNL     1     -10.256   8.314  15.744  1.00  0.00    -0.026 C 
HETATM   34  C40 UNL     1     -10.518  10.861  15.700  1.00  0.00     0.039 C 
HETATM   35  C1  UNL     1      -8.861   8.246  15.212  1.00  0.00     0.036 C 
HETATM   36  C39 UNL     1     -10.112  11.536  17.060  1.00  0.00     0.026 C 
HETATM   37  C10 UNL     1     -12.161  16.125  17.372  1.00  0.00     0.043 A 
HETATM   38  C14 UNL     1     -14.465  15.891  16.747  1.00  0.00     0.014 A 
HETATM   39  C11 UNL     1     -12.328  17.486  17.658  1.00  0.00     0.030 A 
HETATM   40  C12 UNL     1     -13.600  18.033  17.478  1.00  0.00     0.002 A 
HETATM   41  C13 UNL     1     -14.657  17.248  17.026  1.00  0.00     0.001 A 
HETATM   42  H13 UNL     1     -10.138  15.682  17.740  1.00  0.00     0.166 HD
BRANCH  29  43
HETATM   43  C42 UNL     1     -12.047  10.801  13.614  1.00  0.00     0.186 C 
BRANCH  43  44
HETATM   44  O5  UNL     1     -13.003  11.506  12.808  1.00  0.00    -0.399 OA
HETATM   45  H51 UNL     1     -13.784  11.720  13.347  1.00  0.00     0.209 HD
ENDBRANCH  43  44
ENDBRANCH  29  43
BRANCH  29  46
HETATM   46  C43 UNL     1     -11.173  12.897  14.328  1.00  0.00     0.272 C 
HETATM   47  O6  UNL     1     -11.917  13.824  14.025  1.00  0.00    -0.264 OA
BRANCH  46  48
HETATM   48  O7  UNL     1      -9.816  13.008  14.337  1.00  0.00    -0.326 OA
HETATM   49  C44 UNL     1      -9.317  14.281  13.922  1.00  0.00     0.213 C 
ENDBRANCH  46  48
ENDBRANCH  29  46
ENDBRANCH   1  21
BRANCH  19  50
HETATM   50  O4  UNL     1      -7.756  14.696  17.529  1.00  0.00    -0.355 OA
HETATM   51  C38 UNL     1      -6.631  14.111  16.886  1.00  0.00     0.210 C 
ENDBRANCH  19  50
BRANCH  14  52
HETATM   52  C31 UNL     1     -11.937   9.293  20.979  1.00  0.00     0.275 C 
HETATM   53  O2  UNL     1     -11.184   9.182  20.016  1.00  0.00    -0.264 OA
BRANCH  52  54
HETATM   54  O3  UNL     1     -12.655   8.262  21.506  1.00  0.00    -0.326 OA
HETATM   55  C32 UNL     1     -13.533   7.620  20.582  1.00  0.00     0.213 C 
ENDBRANCH  52  54
ENDBRANCH  14  52
BRANCH  12  56
HETATM   56  C27 UNL     1     -13.235   8.765  25.130  1.00  0.00     0.120 C 
HETATM   57  C28 UNL     1     -14.552   8.531  25.858  1.00  0.00     0.040 C 
BRANCH  56  58
HETATM   58  O1  UNL     1     -12.362   9.499  25.994  1.00  0.00    -0.396 OA
HETATM   59  H34 UNL     1     -12.858  10.262  26.336  1.00  0.00     0.210 HD
ENDBRANCH  56  58
ENDBRANCH  12  56
TORSDOF 10
ENDMDL
MODEL 6
REMARK minimizedAffinity -6.55459785
REMARK CNNscore 0.0914887711
REMARK CNNaffinity 6.01861906
REMARK  10 active torsions:
REMARK  status: ('A' for Active; 'I' for Inactive)
REMARK    1  A    between atoms: C16_18  and  C17_19 
REMARK    2  A    between atoms: C26_30  and  C27_31 
REMARK    3  A    between atoms: C27_31  and  O1_33 
REMARK    4  A    between atoms: C30_35  and  C31_36 
REMARK    5  A    between atoms: C31_36  and  O3_38 
REMARK    6  A    between atoms: C37_44  and  O4_45 
REMARK    7  A    between atoms: C41_49  and  C42_50 
REMARK    8  A    between atoms: C41_49  and  C43_52 
REMARK    9  A    between atoms: C42_50  and  O5_51 
REMARK   10  A    between atoms: C43_52  and  O7_54 
ROOT
HETATM    1  C17 UNL     1     -11.835  10.265  19.807  1.00  0.00     0.013 A 
HETATM    2  C18 UNL     1     -12.206   9.552  20.973  1.00  0.00     0.053 A 
HETATM    3  N3  UNL     1     -13.153   8.566  21.131  1.00  0.00    -0.357 N 
HETATM    4  C19 UNL     1     -13.201   8.129  22.433  1.00  0.00     0.038 A 
HETATM    5  C20 UNL     1     -12.260   8.854  23.144  1.00  0.00    -0.020 A 
HETATM    6  C21 UNL     1     -11.948   8.687  24.595  1.00  0.00     0.072 C 
HETATM    7  C22 UNL     1     -13.180   8.767  25.511  1.00  0.00     0.277 C 
HETATM    8  N4  UNL     1     -14.326   7.887  25.245  1.00  0.00     0.096 N 
HETATM    9  C23 UNL     1     -15.526   8.617  24.805  1.00  0.00     0.277 C 
HETATM   10  C24 UNL     1     -16.392   7.707  23.915  1.00  0.00     0.016 C 
HETATM   11  C25 UNL     1     -16.581   6.357  24.625  1.00  0.00     0.015 C 
HETATM   12  C26 UNL     1     -15.207   5.662  24.758  1.00  0.00     0.049 C 
HETATM   13  C29 UNL     1     -14.077   6.691  24.402  1.00  0.00     0.253 C 
HETATM   14  C30 UNL     1     -14.174   7.030  22.861  1.00  0.00     0.122 C 
HETATM   15  C33 UNL     1     -15.648   7.474  22.585  1.00  0.00     0.035 C 
HETATM   16  C34 UNL     1     -11.633   9.756  22.225  1.00  0.00    -0.000 A 
HETATM   17  C35 UNL     1     -10.623  10.728  22.342  1.00  0.00     0.017 A 
HETATM   18  C36 UNL     1     -10.222  11.453  21.214  1.00  0.00     0.038 A 
HETATM   19  C37 UNL     1     -10.805  11.226  19.965  1.00  0.00     0.077 A 
HETATM   20  H19 UNL     1     -13.744   8.224  20.384  1.00  0.00     0.166 HD
ENDROOT
BRANCH   1  21
HETATM   21  C16 UNL     1     -12.481   9.992  18.423  1.00  0.00     0.075 C 
HETATM   22  C9  UNL     1     -11.366   9.570  17.410  1.00  0.00     0.025 A 
HETATM   23  C8  UNL     1     -10.927   9.822  16.091  1.00  0.00    -0.020 A 
HETATM   24  N2  UNL     1     -10.516   8.573  17.886  1.00  0.00    -0.358 N 
HETATM   25  C7  UNL     1     -11.462  10.724  14.977  1.00  0.00     0.079 C 
HETATM   26  C15 UNL     1      -9.761   9.005  15.858  1.00  0.00    -0.001 A 
HETATM   27  C6  UNL     1     -12.715  11.460  15.409  1.00  0.00     0.248 C 
HETATM   28  N1  UNL     1     -13.185  12.739  14.829  1.00  0.00     0.094 N 
HETATM   29  C41 UNL     1     -13.984  10.579  15.678  1.00  0.00     0.107 C 
HETATM   30  C4  UNL     1     -13.903  13.494  15.899  1.00  0.00     0.306 C 
HETATM   31  C5  UNL     1     -12.125  13.566  14.258  1.00  0.00     0.310 C 
HETATM   32  C3  UNL     1     -14.904  12.652  16.716  1.00  0.00    -0.051 C 
HETATM   33  C2  UNL     1     -16.080  13.193  17.094  1.00  0.00    -0.026 C 
HETATM   34  C40 UNL     1     -14.493  11.184  17.008  1.00  0.00     0.039 C 
HETATM   35  C1  UNL     1     -17.171  12.553  17.892  1.00  0.00     0.036 C 
HETATM   36  C39 UNL     1     -13.449  11.186  18.182  1.00  0.00     0.026 C 
HETATM   37  C10 UNL     1      -9.534   8.249  16.994  1.00  0.00     0.043 A 
HETATM   38  C14 UNL     1      -8.886   8.841  14.762  1.00  0.00     0.014 A 
HETATM   39  C11 UNL     1      -8.477   7.338  17.111  1.00  0.00     0.030 A 
HETATM   40  C12 UNL     1      -7.621   7.198  16.016  1.00  0.00     0.002 A 
HETATM   41  C13 UNL     1      -7.821   7.937  14.854  1.00  0.00     0.001 A 
HETATM   42  H13 UNL     1     -10.594   8.167  18.809  1.00  0.00     0.166 HD
BRANCH  29  43
HETATM   43  C42 UNL     1     -15.064  10.671  14.537  1.00  0.00     0.186 C 
BRANCH  43  44
HETATM   44  O5  UNL     1     -15.425  12.021  14.205  1.00  0.00    -0.399 OA
HETATM   45  H51 UNL     1     -15.707  12.486  15.011  1.00  0.00     0.209 HD
ENDBRANCH  43  44
ENDBRANCH  29  43
BRANCH  29  46
HETATM   46  C43 UNL     1     -13.841   9.054  15.786  1.00  0.00     0.272 C 
HETATM   47  O6  UNL     1     -14.225   8.397  16.749  1.00  0.00    -0.264 OA
BRANCH  46  48
HETATM   48  O7  UNL     1     -13.414   8.487  14.624  1.00  0.00    -0.326 OA
HETATM   49  C44 UNL     1     -12.862   7.176  14.766  1.00  0.00     0.213 C 
ENDBRANCH  46  48
ENDBRANCH  29  46
ENDBRANCH   1  21
BRANCH  19  50
HETATM   50  O4  UNL     1     -10.453  11.907  18.826  1.00  0.00    -0.355 OA
HETATM   51  C38 UNL     1      -9.702  13.105  18.979  1.00  0.00     0.210 C 
ENDBRANCH  19  50
BRANCH  14  52
HETATM   52  C31 UNL     1     -13.819   5.804  21.988  1.00  0.00     0.275 C 
HETATM   53  O2  UNL     1     -13.807   5.820  20.760  1.00  0.00    -0.264 OA
BRANCH  52  54
HETATM   54  O3  UNL     1     -13.433   4.734  22.738  1.00  0.00    -0.326 OA
HETATM   55  C32 UNL     1     -13.808   3.467  22.197  1.00  0.00     0.213 C 
ENDBRANCH  52  54
ENDBRANCH  14  52
BRANCH  12  56
HETATM   56  C27 UNL     1     -15.048   4.906  26.095  1.00  0.00     0.120 C 
HETATM   57  C28 UNL     1     -14.658   5.724  27.319  1.00  0.00     0.040 C 
BRANCH  56  58
HETATM   58  O1  UNL     1     -14.088   3.858  25.924  1.00  0.00    -0.396 OA
HETATM   59  H34 UNL     1     -13.203   4.258  25.966  1.00  0.00     0.210 HD
ENDBRANCH  56  58
ENDBRANCH  12  56
TORSDOF 10
ENDMDL
MODEL 7
REMARK minimizedAffinity -6.41538191
REMARK CNNscore 0.0891301185
REMARK CNNaffinity 5.61854362
REMARK  10 active torsions:
REMARK  status: ('A' for Active; 'I' for Inactive)
REMARK    1  A    between atoms: C16_18  and  C17_19 
REMARK    2  A    between atoms: C26_30  and  C27_31 
REMARK    3  A    between atoms: C27_31  and  O1_33 
REMARK    4  A    between atoms: C30_35  and  C31_36 
REMARK    5  A    between atoms: C31_36  and  O3_38 
REMARK    6  A    between atoms: C37_44  and  O4_45 
REMARK    7  A    between atoms: C41_49  and  C42_50 
REMARK    8  A    between atoms: C41_49  and  C43_52 
REMARK    9  A    between atoms: C42_50  and  O5_51 
REMARK   10  A    between atoms: C43_52  and  O7_54 
ROOT
HETATM    1  C17 UNL     1     -11.646  10.409  19.235  1.00  0.00     0.013 A 
HETATM    2  C18 UNL     1     -10.773  11.394  19.756  1.00  0.00     0.053 A 
HETATM    3  N3  UNL     1     -10.117  12.413  19.106  1.00  0.00    -0.357 N 
HETATM    4  C19 UNL     1      -9.361  13.156  19.982  1.00  0.00     0.038 A 
HETATM    5  C20 UNL     1      -9.528  12.600  21.239  1.00  0.00    -0.020 A 
HETATM    6  C21 UNL     1      -8.912  13.107  22.502  1.00  0.00     0.072 C 
HETATM    7  C22 UNL     1      -7.387  13.285  22.425  1.00  0.00     0.277 C 
HETATM    8  N4  UNL     1      -6.818  14.105  21.346  1.00  0.00     0.096 N 
HETATM    9  C23 UNL     1      -6.032  13.323  20.378  1.00  0.00     0.277 C 
HETATM   10  C24 UNL     1      -6.066  14.012  19.002  1.00  0.00     0.016 C 
HETATM   11  C25 UNL     1      -5.722  15.499  19.186  1.00  0.00     0.015 C 
HETATM   12  C26 UNL     1      -6.824  16.168  20.039  1.00  0.00     0.049 C 
HETATM   13  C29 UNL     1      -7.735  15.053  20.664  1.00  0.00     0.253 C 
HETATM   14  C30 UNL     1      -8.541  14.352  19.499  1.00  0.00     0.122 C 
HETATM   15  C33 UNL     1      -7.493  13.894  18.431  1.00  0.00     0.035 C 
HETATM   16  C34 UNL     1     -10.415  11.484  21.099  1.00  0.00    -0.000 A 
HETATM   17  C35 UNL     1     -10.954  10.543  21.994  1.00  0.00     0.017 A 
HETATM   18  C36 UNL     1     -11.826   9.555  21.523  1.00  0.00     0.038 A 
HETATM   19  C37 UNL     1     -12.177   9.486  20.172  1.00  0.00     0.077 A 
HETATM   20  H19 UNL     1     -10.177  12.580  18.109  1.00  0.00     0.166 HD
ENDROOT
BRANCH   1  21
HETATM   21  C16 UNL     1     -12.040  10.354  17.735  1.00  0.00     0.075 C 
HETATM   22  C9  UNL     1     -10.840   9.783  16.910  1.00  0.00     0.025 A 
HETATM   23  C8  UNL     1     -10.107  10.025  15.726  1.00  0.00    -0.020 A 
HETATM   24  N2  UNL     1     -10.297   8.612  17.435  1.00  0.00    -0.358 N 
HETATM   25  C7  UNL     1     -10.236  11.081  14.627  1.00  0.00     0.079 C 
HETATM   26  C15 UNL     1      -9.085   9.011  15.634  1.00  0.00    -0.001 A 
HETATM   27  C6  UNL     1     -11.396  12.021  14.890  1.00  0.00     0.248 C 
HETATM   28  N1  UNL     1     -11.501  13.400  14.361  1.00  0.00     0.094 N 
HETATM   29  C41 UNL     1     -12.831  11.391  14.831  1.00  0.00     0.107 C 
HETATM   30  C4  UNL     1     -12.272  14.215  15.349  1.00  0.00     0.306 C 
HETATM   31  C5  UNL     1     -10.217  14.036  14.081  1.00  0.00     0.310 C 
HETATM   32  C3  UNL     1     -13.551  13.537  15.880  1.00  0.00    -0.051 C 
HETATM   33  C2  UNL     1     -14.661  14.274  16.085  1.00  0.00    -0.026 C 
HETATM   34  C40 UNL     1     -13.478  12.002  16.097  1.00  0.00     0.039 C 
HETATM   35  C1  UNL     1     -15.987  13.813  16.600  1.00  0.00     0.036 C 
HETATM   36  C39 UNL     1     -12.708  11.727  17.438  1.00  0.00     0.026 C 
HETATM   37  C10 UNL     1      -9.231   8.156  16.713  1.00  0.00     0.043 A 
HETATM   38  C14 UNL     1      -8.053   8.745  14.708  1.00  0.00     0.014 A 
HETATM   39  C11 UNL     1      -8.401   7.051  16.933  1.00  0.00     0.030 A 
HETATM   40  C12 UNL     1      -7.383   6.812  16.006  1.00  0.00     0.002 A 
HETATM   41  C13 UNL     1      -7.209   7.646  14.906  1.00  0.00     0.001 A 
HETATM   42  H13 UNL     1     -10.631   8.173  18.283  1.00  0.00     0.166 HD
BRANCH  29  43
HETATM   43  C42 UNL     1     -13.626  11.763  13.525  1.00  0.00     0.186 C 
BRANCH  43  44
HETATM   44  O5  UNL     1     -12.946  11.379  12.319  1.00  0.00    -0.399 OA
HETATM   45  H51 UNL     1     -12.051  11.759  12.320  1.00  0.00     0.209 HD
ENDBRANCH  43  44
ENDBRANCH  29  43
BRANCH  29  46
HETATM   46  C43 UNL     1     -12.991   9.864  14.813  1.00  0.00     0.272 C 
HETATM   47  O6  UNL     1     -13.808   9.253  15.495  1.00  0.00    -0.264 OA
BRANCH  46  48
HETATM   48  O7  UNL     1     -12.261   9.275  13.826  1.00  0.00    -0.326 OA
HETATM   49  C44 UNL     1     -12.375   7.852  13.766  1.00  0.00     0.213 C 
ENDBRANCH  46  48
ENDBRANCH  29  46
ENDBRANCH   1  21
BRANCH  19  50
HETATM   50  O4  UNL     1     -13.025   8.539  19.655  1.00  0.00    -0.355 OA
HETATM   51  C38 UNL     1     -14.378   8.554  20.093  1.00  0.00     0.210 C 
ENDBRANCH  19  50
BRANCH  14  52
HETATM   52  C31 UNL     1      -9.563  15.319  18.856  1.00  0.00     0.275 C 
HETATM   53  O2  UNL     1      -9.787  15.372  17.649  1.00  0.00    -0.264 OA
BRANCH  52  54
HETATM   54  O3  UNL     1     -10.249  16.036  19.789  1.00  0.00    -0.326 OA
HETATM   55  C32 UNL     1     -10.380  17.425  19.488  1.00  0.00     0.213 C 
ENDBRANCH  52  54
ENDBRANCH  14  52
BRANCH  12  56
HETATM   56  C27 UNL     1      -6.263  17.222  21.018  1.00  0.00     0.120 C 
HETATM   57  C28 UNL     1      -4.872  16.978  21.587  1.00  0.00     0.040 C 
BRANCH  56  58
HETATM   58  O1  UNL     1      -7.178  17.376  22.108  1.00  0.00    -0.396 OA
HETATM   59  H34 UNL     1      -7.039  16.633  22.719  1.00  0.00     0.210 HD
ENDBRANCH  56  58
ENDBRANCH  12  56
TORSDOF 10
ENDMDL
MODEL 8
REMARK minimizedAffinity -7.37201023
REMARK CNNscore 0.0794195458
REMARK CNNaffinity 5.50361013
REMARK  10 active torsions:
REMARK  status: ('A' for Active; 'I' for Inactive)
REMARK    1  A    between atoms: C16_18  and  C17_19 
REMARK    2  A    between atoms: C26_30  and  C27_31 
REMARK    3  A    between atoms: C27_31  and  O1_33 
REMARK    4  A    between atoms: C30_35  and  C31_36 
REMARK    5  A    between atoms: C31_36  and  O3_38 
REMARK    6  A    between atoms: C37_44  and  O4_45 
REMARK    7  A    between atoms: C41_49  and  C42_50 
REMARK    8  A    between atoms: C41_49  and  C43_52 
REMARK    9  A    between atoms: C42_50  and  O5_51 
REMARK   10  A    between atoms: C43_52  and  O7_54 
ROOT
HETATM    1  C17 UNL     1       3.816  11.545  17.629  1.00  0.00     0.013 A 
HETATM    2  C18 UNL     1       2.870  10.967  16.748  1.00  0.00     0.053 A 
HETATM    3  N3  UNL     1       1.497  10.939  16.834  1.00  0.00    -0.357 N 
HETATM    4  C19 UNL     1       0.946  10.274  15.764  1.00  0.00     0.038 A 
HETATM    5  C20 UNL     1       1.991   9.854  14.961  1.00  0.00    -0.020 A 
HETATM    6  C21 UNL     1       1.853   9.116  13.669  1.00  0.00     0.072 C 
HETATM    7  C22 UNL     1       0.987   7.849  13.765  1.00  0.00     0.277 C 
HETATM    8  N4  UNL     1      -0.372   7.953  14.313  1.00  0.00     0.096 N 
HETATM    9  C23 UNL     1      -0.530   7.263  15.603  1.00  0.00     0.277 C 
HETATM   10  C24 UNL     1      -1.640   7.943  16.425  1.00  0.00     0.016 C 
HETATM   11  C25 UNL     1      -2.881   8.113  15.534  1.00  0.00     0.015 C 
HETATM   12  C26 UNL     1      -2.540   9.077  14.375  1.00  0.00     0.049 C 
HETATM   13  C29 UNL     1      -0.987   9.304  14.339  1.00  0.00     0.253 C 
HETATM   14  C30 UNL     1      -0.568  10.114  15.631  1.00  0.00     0.122 C 
HETATM   15  C33 UNL     1      -1.142   9.336  16.861  1.00  0.00     0.035 C 
HETATM   16  C34 UNL     1       3.208  10.286  15.581  1.00  0.00    -0.000 A 
HETATM   17  C35 UNL     1       4.571  10.166  15.254  1.00  0.00     0.017 A 
HETATM   18  C36 UNL     1       5.539  10.727  16.094  1.00  0.00     0.038 A 
HETATM   19  C37 UNL     1       5.177  11.412  17.257  1.00  0.00     0.077 A 
HETATM   20  H19 UNL     1       0.970  11.345  17.597  1.00  0.00     0.166 HD
ENDROOT
BRANCH   1  21
HETATM   21  C16 UNL     1       3.399  12.316  18.909  1.00  0.00     0.075 C 
HETATM   22  C9  UNL     1       3.928  13.786  18.818  1.00  0.00     0.025 A 
HETATM   23  C8  UNL     1       4.586  14.766  19.593  1.00  0.00    -0.020 A 
HETATM   24  N2  UNL     1       3.637  14.419  17.611  1.00  0.00    -0.358 N 
HETATM   25  C7  UNL     1       5.096  14.775  21.035  1.00  0.00     0.079 C 
HETATM   26  C15 UNL     1       4.735  15.942  18.770  1.00  0.00    -0.001 A 
HETATM   27  C6  UNL     1       4.803  13.464  21.738  1.00  0.00     0.248 C 
HETATM   28  N1  UNL     1       5.563  12.939  22.895  1.00  0.00     0.094 N 
HETATM   29  C41 UNL     1       3.291  13.129  21.986  1.00  0.00     0.107 C 
HETATM   30  C4  UNL     1       5.530  11.446  22.828  1.00  0.00     0.306 C 
HETATM   31  C5  UNL     1       6.944  13.406  22.969  1.00  0.00     0.310 C 
HETATM   32  C3  UNL     1       4.139  10.848  22.536  1.00  0.00    -0.051 C 
HETATM   33  C2  UNL     1       3.753   9.718  23.161  1.00  0.00    -0.026 C 
HETATM   34  C40 UNL     1       3.239  11.644  21.553  1.00  0.00     0.039 C 
HETATM   35  C1  UNL     1       2.462   8.979  23.010  1.00  0.00     0.036 C 
HETATM   36  C39 UNL     1       3.731  11.359  20.089  1.00  0.00     0.026 C 
HETATM   37  C10 UNL     1       4.139  15.687  17.547  1.00  0.00     0.043 A 
HETATM   38  C14 UNL     1       5.320  17.211  18.974  1.00  0.00     0.014 A 
HETATM   39  C11 UNL     1       4.097  16.621  16.505  1.00  0.00     0.030 A 
HETATM   40  C12 UNL     1       4.688  17.867  16.729  1.00  0.00     0.002 A 
HETATM   41  C13 UNL     1       5.291  18.161  17.948  1.00  0.00     0.001 A 
HETATM   42  H13 UNL     1       3.145  13.969  16.849  1.00  0.00     0.166 HD
BRANCH  29  43
HETATM   43  C42 UNL     1       2.842  13.323  23.481  1.00  0.00     0.186 C 
BRANCH  43  44
HETATM   44  O5  UNL     1       1.898  14.391  23.655  1.00  0.00    -0.399 OA
HETATM   45  H51 UNL     1       2.263  15.209  23.277  1.00  0.00     0.209 HD
ENDBRANCH  43  44
ENDBRANCH  29  43
BRANCH  29  46
HETATM   46  C43 UNL     1       2.204  13.947  21.274  1.00  0.00     0.272 C 
HETATM   47  O6  UNL     1       2.307  15.142  21.012  1.00  0.00    -0.264 OA
BRANCH  46  48
HETATM   48  O7  UNL     1       1.192  13.169  20.801  1.00  0.00    -0.326 OA
HETATM   49  C44 UNL     1       0.249  13.852  19.972  1.00  0.00     0.213 C 
ENDBRANCH  46  48
ENDBRANCH  29  46
ENDBRANCH   1  21
BRANCH  19  50
HETATM   50  O4  UNL     1       6.083  11.980  18.118  1.00  0.00    -0.355 OA
HETATM   51  C38 UNL     1       7.058  11.130  18.708  1.00  0.00     0.210 C 
ENDBRANCH  19  50
BRANCH  14  52
HETATM   52  C31 UNL     1      -1.134  11.553  15.605  1.00  0.00     0.275 C 
HETATM   53  O2  UNL     1      -1.359  12.180  14.574  1.00  0.00    -0.264 OA
BRANCH  52  54
HETATM   54  O3  UNL     1      -1.438  12.007  16.853  1.00  0.00    -0.326 OA
HETATM   55  C32 UNL     1      -2.818  12.317  17.050  1.00  0.00     0.213 C 
ENDBRANCH  52  54
ENDBRANCH  14  52
BRANCH  12  56
HETATM   56  C27 UNL     1      -3.202   8.665  13.042  1.00  0.00     0.120 C 
HETATM   57  C28 UNL     1      -4.705   8.422  13.053  1.00  0.00     0.040 C 
BRANCH  56  58
HETATM   58  O1  UNL     1      -2.555   7.488  12.548  1.00  0.00    -0.396 OA
HETATM   59  H34 UNL     1      -2.911   6.727  13.038  1.00  0.00     0.210 HD
ENDBRANCH  56  58
ENDBRANCH  12  56
TORSDOF 10
ENDMDL
MODEL 9
REMARK minimizedAffinity -7.13954449
REMARK CNNscore 0.0741202682
REMARK CNNaffinity 4.25958681
REMARK  10 active torsions:
REMARK  status: ('A' for Active; 'I' for Inactive)
REMARK    1  A    between atoms: C16_18  and  C17_19 
REMARK    2  A    between atoms: C26_30  and  C27_31 
REMARK    3  A    between atoms: C27_31  and  O1_33 
REMARK    4  A    between atoms: C30_35  and  C31_36 
REMARK    5  A    between atoms: C31_36  and  O3_38 
REMARK    6  A    between atoms: C37_44  and  O4_45 
REMARK    7  A    between atoms: C41_49  and  C42_50 
REMARK    8  A    between atoms: C41_49  and  C43_52 
REMARK    9  A    between atoms: C42_50  and  O5_51 
REMARK   10  A    between atoms: C43_52  and  O7_54 
ROOT
HETATM    1  C17 UNL     1       7.356  13.526  15.762  1.00  0.00     0.013 A 
HETATM    2  C18 UNL     1       7.518  14.171  17.012  1.00  0.00     0.053 A 
HETATM    3  N3  UNL     1       7.607  13.626  18.273  1.00  0.00    -0.357 N 
HETATM    4  C19 UNL     1       7.764  14.604  19.227  1.00  0.00     0.038 A 
HETATM    5  C20 UNL     1       7.773  15.821  18.567  1.00  0.00    -0.020 A 
HETATM    6  C21 UNL     1       7.951  17.157  19.211  1.00  0.00     0.072 C 
HETATM    7  C22 UNL     1       6.981  17.424  20.373  1.00  0.00     0.277 C 
HETATM    8  N4  UNL     1       6.904  16.456  21.476  1.00  0.00     0.096 N 
HETATM    9  C23 UNL     1       5.615  15.750  21.537  1.00  0.00     0.277 C 
HETATM   10  C24 UNL     1       5.812  14.361  22.173  1.00  0.00     0.016 C 
HETATM   11  C25 UNL     1       6.615  14.524  23.474  1.00  0.00     0.015 C 
HETATM   12  C26 UNL     1       8.026  15.053  23.131  1.00  0.00     0.049 C 
HETATM   13  C29 UNL     1       8.046  15.520  21.632  1.00  0.00     0.253 C 
HETATM   14  C30 UNL     1       7.892  14.248  20.707  1.00  0.00     0.122 C 
HETATM   15  C33 UNL     1       6.616  13.484  21.193  1.00  0.00     0.035 C 
HETATM   16  C34 UNL     1       7.614  15.551  17.169  1.00  0.00    -0.000 A 
HETATM   17  C35 UNL     1       7.547  16.356  16.017  1.00  0.00     0.017 A 
HETATM   18  C36 UNL     1       7.393  15.760  14.761  1.00  0.00     0.038 A 
HETATM   19  C37 UNL     1       7.306  14.372  14.626  1.00  0.00     0.077 A 
HETATM   20  H19 UNL     1       7.550  12.634  18.466  1.00  0.00     0.166 HD
ENDROOT
BRANCH   1  21
HETATM   21  C16 UNL     1       7.277  11.983  15.625  1.00  0.00     0.075 C 
HETATM   22  C9  UNL     1       8.641  11.445  15.080  1.00  0.00     0.025 A 
HETATM   23  C8  UNL     1       9.164  10.548  14.122  1.00  0.00    -0.020 A 
HETATM   24  N2  UNL     1       9.755  11.934  15.760  1.00  0.00    -0.358 N 
HETATM   25  C7  UNL     1       8.501   9.609  13.113  1.00  0.00     0.079 C 
HETATM   26  C15 UNL     1      10.603  10.600  14.219  1.00  0.00    -0.001 A 
HETATM   27  C6  UNL     1       6.989   9.672  13.202  1.00  0.00     0.248 C 
HETATM   28  N1  UNL     1       6.063   9.326  12.100  1.00  0.00     0.094 N 
HETATM   29  C41 UNL     1       6.347   9.141  14.531  1.00  0.00     0.107 C 
HETATM   30  C4  UNL     1       4.838  10.169  12.246  1.00  0.00     0.306 C 
HETATM   31  C5  UNL     1       6.630   9.493  10.764  1.00  0.00     0.310 C 
HETATM   32  C3  UNL     1       4.273  10.236  13.679  1.00  0.00    -0.051 C 
HETATM   33  C2  UNL     1       2.939  10.230  13.872  1.00  0.00    -0.026 C 
HETATM   34  C40 UNL     1       5.314  10.254  14.830  1.00  0.00     0.039 C 
HETATM   35  C1  UNL     1       2.198  10.298  15.169  1.00  0.00     0.036 C 
HETATM   36  C39 UNL     1       5.910  11.704  14.936  1.00  0.00     0.026 C 
HETATM   37  C10 UNL     1      10.931  11.473  15.242  1.00  0.00     0.043 A 
HETATM   38  C14 UNL     1      11.653   9.962  13.525  1.00  0.00     0.014 A 
HETATM   39  C11 UNL     1      12.251  11.758  15.612  1.00  0.00     0.030 A 
HETATM   40  C12 UNL     1      13.273  11.120  14.906  1.00  0.00     0.002 A 
HETATM   41  C13 UNL     1      12.981  10.231  13.876  1.00  0.00     0.001 A 
HETATM   42  H13 UNL     1       9.697  12.591  16.526  1.00  0.00     0.166 HD
BRANCH  29  43
HETATM   43  C42 UNL     1       5.665   7.731  14.378  1.00  0.00     0.186 C 
BRANCH  43  44
HETATM   44  O5  UNL     1       5.334   7.123  15.637  1.00  0.00    -0.399 OA
HETATM   45  H51 UNL     1       6.129   7.083  16.194  1.00  0.00     0.209 HD
ENDBRANCH  43  44
ENDBRANCH  29  43
BRANCH  29  46
HETATM   46  C43 UNL     1       7.237   8.874  15.753  1.00  0.00     0.272 C 
HETATM   47  O6  UNL     1       7.007   9.309  16.877  1.00  0.00    -0.264 OA
BRANCH  46  48
HETATM   48  O7  UNL     1       8.207   7.952  15.499  1.00  0.00    -0.326 OA
HETATM   49  C44 UNL     1       9.237   7.880  16.488  1.00  0.00     0.213 C 
ENDBRANCH  46  48
ENDBRANCH  29  46
ENDBRANCH   1  21
BRANCH  19  50
HETATM   50  O4  UNL     1       7.153  13.734  13.420  1.00  0.00    -0.355 OA
HETATM   51  C38 UNL     1       6.433  14.414  12.399  1.00  0.00     0.210 C 
ENDBRANCH  19  50
BRANCH  14  52
HETATM   52  C31 UNL     1       9.129  13.325  20.803  1.00  0.00     0.275 C 
HETATM   53  O2  UNL     1      10.256  13.720  21.088  1.00  0.00    -0.264 OA
BRANCH  52  54
HETATM   54  O3  UNL     1       8.806  12.013  20.624  1.00  0.00    -0.326 OA
HETATM   55  C32 UNL     1       9.726  11.283  19.812  1.00  0.00     0.213 C 
ENDBRANCH  52  54
ENDBRANCH  14  52
BRANCH  12  56
HETATM   56  C27 UNL     1       8.552  16.066  24.171  1.00  0.00     0.120 C 
HETATM   57  C28 UNL     1       9.475  17.169  23.669  1.00  0.00     0.040 C 
BRANCH  56  58
HETATM   58  O1  UNL     1       9.223  15.353  25.215  1.00  0.00    -0.396 OA
HETATM   59  H34 UNL     1      10.110  15.120  24.891  1.00  0.00     0.210 HD
ENDBRANCH  56  58
ENDBRANCH  12  56
TORSDOF 10
ENDMDL
