MODEL 1
REMARK minimizedAffinity -8.69200611
REMARK CNNscore 0.471489698
REMARK CNNaffinity 7.6890564
REMARK  10 active torsions:
REMARK  status: ('A' for Active; 'I' for Inactive)
REMARK    1  A    between atoms: C2_2  and  C3_3 
REMARK    2  A    between atoms: C4_4  and  C18_19 
REMARK    3  A    between atoms: C19_20  and  O1_21 
REMARK    4  A    between atoms: N2_22  and  C20_23 
REMARK    5  A    between atoms: C20_23  and  C21_24 
REMARK    6  A    between atoms: C21_24  and  O3_26 
REMARK    7  A    between atoms: O3_26  and  C22_27 
REMARK    8  A    between atoms: C32_37  and  C33_38 
REMARK    9  A    between atoms: C39_46  and  O6_47 
REMARK   10  A    between atoms: C45_53  and  O7_54 
ROOT
HETATM    1  C21 UNL     1     -14.344   8.123  23.895  1.00  0.00     0.222 C 
HETATM    2  O2  UNL     1     -14.144   7.834  22.724  1.00  0.00    -0.287 OA
ENDROOT
BRANCH   1   3
HETATM    3  C20 UNL     1     -14.938   7.152  24.919  1.00  0.00     0.328 C 
BRANCH   3   4
HETATM    4  N2  UNL     1     -15.734   5.920  24.315  1.00  0.00    -0.023 N 
HETATM    5  C6  UNL     1     -16.499   5.209  25.494  1.00  0.00     0.214 C 
HETATM    6  C5  UNL     1     -17.646   4.396  24.857  1.00  0.00     0.041 C 
HETATM    7  C7  UNL     1     -15.582   4.242  26.310  1.00  0.00     0.109 C 
HETATM    8  C4  UNL     1     -17.256   4.023  23.416  1.00  0.00     0.004 C 
HETATM    9  C3  UNL     1     -17.498   5.308  22.595  1.00  0.00     0.047 C 
HETATM   10  C45 UNL     1     -16.730   6.478  23.285  1.00  0.00     0.329 C 
HETATM   11  N1  UNL     1     -14.752   4.877  27.373  1.00  0.00    -0.279 NA
HETATM   12  C15 UNL     1     -14.565   3.468  25.425  1.00  0.00     0.035 C 
HETATM   13  C8  UNL     1     -15.434   5.331  28.587  1.00  0.00     0.117 C 
HETATM   14  C9  UNL     1     -13.793   3.835  27.604  1.00  0.00     0.018 A 
HETATM   15  C10 UNL     1     -12.992   3.646  28.724  1.00  0.00     0.024 A 
HETATM   16  C14 UNL     1     -13.663   2.968  26.499  1.00  0.00    -0.024 A 
HETATM   17  C11 UNL     1     -12.086   2.578  28.731  1.00  0.00     0.002 A 
HETATM   18  C12 UNL     1     -11.980   1.716  27.629  1.00  0.00     0.001 A 
HETATM   19  C13 UNL     1     -12.769   1.909  26.496  1.00  0.00     0.010 A 
HETATM   20  C16 UNL     1     -13.769   4.389  24.499  1.00  0.00     0.053 C 
HETATM   21  C19 UNL     1     -15.258   2.574  24.392  1.00  0.00     0.139 C 
HETATM   22  C17 UNL     1     -14.862   4.873  23.587  1.00  0.00     0.202 C 
HETATM   23  C18 UNL     1     -15.761   3.617  23.343  1.00  0.00     0.051 C 
BRANCH   9  24
HETATM   24  C2  UNL     1     -17.131   5.200  21.103  1.00  0.00     0.005 C 
HETATM   25  C1  UNL     1     -16.467   6.454  20.549  1.00  0.00     0.005 C 
ENDBRANCH   9  24
BRANCH  10  26
HETATM   26  O7  UNL     1     -17.607   7.397  23.900  1.00  0.00    -0.369 OA
HETATM   27  H61 UNL     1     -18.502   7.323  23.498  1.00  0.00     0.212 HD
ENDBRANCH  10  26
BRANCH  21  28
HETATM   28  O1  UNL     1     -16.316   1.803  24.915  1.00  0.00    -0.394 OA
HETATM   29  H24 UNL     1     -16.009   0.874  25.009  1.00  0.00     0.210 HD
ENDBRANCH  21  28
ENDBRANCH   3   4
ENDBRANCH   1   3
BRANCH   1  30
HETATM   30  O3  UNL     1     -14.087   9.328  24.474  1.00  0.00     0.000 OA
HETATM   31 BR1  UNL     1     -12.778   8.666  25.421  1.00  0.00    -0.148 Br
BRANCH  30  32
HETATM   32  C22 UNL     1     -12.698   9.744  24.496  1.00  0.00    -0.009 C 
HETATM   33  C23 UNL     1     -11.961   8.918  23.455  1.00  0.00     0.006 C 
HETATM   34  C24 UNL     1     -10.670   9.612  23.040  1.00  0.00     0.010 C 
HETATM   35  C25 UNL     1     -10.936  10.937  22.271  1.00  0.00    -0.036 C 
HETATM   36  C26 UNL     1     -11.291  10.534  20.806  1.00  0.00     0.016 C 
HETATM   37  C27 UNL     1      -9.637  11.835  22.250  1.00  0.00     0.001 C 
HETATM   38  C43 UNL     1     -12.167  11.709  22.860  1.00  0.00    -0.005 C 
HETATM   39  C28 UNL     1      -9.099  12.194  23.660  1.00  0.00     0.007 C 
HETATM   40  C40 UNL     1      -9.836  13.093  21.377  1.00  0.00     0.025 C 
HETATM   41  C29 UNL     1      -8.555  13.623  23.790  1.00  0.00     0.013 C 
HETATM   42  C30 UNL     1      -7.679  14.066  22.594  1.00  0.00    -0.005 C 
HETATM   43  C31 UNL     1      -6.382  13.217  22.654  1.00  0.00     0.019 C 
HETATM   44  C32 UNL     1      -7.386  15.606  22.744  1.00  0.00     0.028 C 
HETATM   45  C39 UNL     1      -8.504  13.924  21.258  1.00  0.00     0.070 C 
HETATM   46  C37 UNL     1      -8.482  16.279  21.902  1.00  0.00     0.013 C 
HETATM   47  C38 UNL     1      -8.692  15.352  20.714  1.00  0.00     0.040 C 
HETATM   48  C41 UNL     1     -11.147  13.842  21.739  1.00  0.00     0.008 C 
HETATM   49  C42 UNL     1     -11.983  13.244  22.876  1.00  0.00     0.006 C 
HETATM   50  C44 UNL     1     -12.597  11.260  24.282  1.00  0.00     0.156 C 
BRANCH  44  51
HETATM   51  C33 UNL     1      -6.008  16.109  22.398  1.00  0.00    -0.045 A 
HETATM   52  C34 UNL     1      -4.866  15.512  22.731  1.00  0.00     0.087 A 
HETATM   53  C35 UNL     1      -3.767  16.336  22.233  1.00  0.00     0.283 A 
HETATM   54  O4  UNL     1      -2.587  16.100  22.395  1.00  0.00    -0.260 OA
HETATM   55  O5  UNL     1      -4.289  17.416  21.596  1.00  0.00    -0.314 OA
HETATM   56  C36 UNL     1      -5.716  17.364  21.653  1.00  0.00     0.213 A 
ENDBRANCH  44  51
BRANCH  45  57
HETATM   57  O6  UNL     1      -7.676  13.234  20.301  1.00  0.00    -0.389 OA
HETATM   58  H51 UNL     1      -8.165  13.169  19.464  1.00  0.00     0.210 HD
ENDBRANCH  45  57
ENDBRANCH  30  32
ENDBRANCH   1  30
TORSDOF 10
ENDMDL
MODEL 2
REMARK minimizedAffinity -9.54735661
REMARK CNNscore 0.423745871
REMARK CNNaffinity 8.21718311
REMARK  10 active torsions:
REMARK  status: ('A' for Active; 'I' for Inactive)
REMARK    1  A    between atoms: C2_2  and  C3_3 
REMARK    2  A    between atoms: C4_4  and  C18_19 
REMARK    3  A    between atoms: C19_20  and  O1_21 
REMARK    4  A    between atoms: N2_22  and  C20_23 
REMARK    5  A    between atoms: C20_23  and  C21_24 
REMARK    6  A    between atoms: C21_24  and  O3_26 
REMARK    7  A    between atoms: O3_26  and  C22_27 
REMARK    8  A    between atoms: C32_37  and  C33_38 
REMARK    9  A    between atoms: C39_46  and  O6_47 
REMARK   10  A    between atoms: C45_53  and  O7_54 
ROOT
HETATM    1  C21 UNL     1      -4.382   6.812  15.267  1.00  0.00     0.222 C 
HETATM    2  O2  UNL     1      -4.406   5.929  14.422  1.00  0.00    -0.287 OA
ENDROOT
BRANCH   1   3
HETATM    3  C20 UNL     1      -3.125   7.214  16.041  1.00  0.00     0.328 C 
BRANCH   3   4
HETATM    4  N2  UNL     1      -1.973   7.883  15.178  1.00  0.00    -0.023 N 
HETATM    5  C6  UNL     1      -1.054   8.712  16.152  1.00  0.00     0.214 C 
HETATM    6  C5  UNL     1       0.303   8.895  15.438  1.00  0.00     0.041 C 
HETATM    7  C7  UNL     1      -1.646  10.118  16.489  1.00  0.00     0.109 C 
HETATM    8  C4  UNL     1       0.081   8.840  13.917  1.00  0.00     0.004 C 
HETATM    9  C3  UNL     1      -0.067   7.338  13.593  1.00  0.00     0.047 C 
HETATM   10  C45 UNL     1      -1.174   6.746  14.520  1.00  0.00     0.329 C 
HETATM   11  N1  UNL     1      -2.656  10.152  17.584  1.00  0.00    -0.279 NA
HETATM   12  C15 UNL     1      -2.353  10.791  15.278  1.00  0.00     0.035 C 
HETATM   13  C8  UNL     1      -2.176   9.974  18.957  1.00  0.00     0.117 C 
HETATM   14  C9  UNL     1      -3.252  11.435  17.342  1.00  0.00     0.018 A 
HETATM   15  C10 UNL     1      -3.981  12.218  18.229  1.00  0.00     0.024 A 
HETATM   16  C14 UNL     1      -3.082  11.864  16.009  1.00  0.00    -0.024 A 
HETATM   17  C11 UNL     1      -4.513  13.431  17.775  1.00  0.00     0.002 A 
HETATM   18  C12 UNL     1      -4.323  13.851  16.450  1.00  0.00     0.001 A 
HETATM   19  C13 UNL     1      -3.606  13.063  15.550  1.00  0.00     0.010 A 
HETATM   20  C16 UNL     1      -3.373   9.870  14.606  1.00  0.00     0.053 C 
HETATM   21  C19 UNL     1      -1.395  11.037  14.110  1.00  0.00     0.139 C 
HETATM   22  C17 UNL     1      -2.462   8.813  14.046  1.00  0.00     0.202 C 
HETATM   23  C18 UNL     1      -1.214   9.599  13.527  1.00  0.00     0.051 C 
BRANCH   9  24
HETATM   24  C2  UNL     1      -0.348   7.020  12.113  1.00  0.00     0.005 C 
HETATM   25  C1  UNL     1      -1.172   5.756  11.908  1.00  0.00     0.005 C 
ENDBRANCH   9  24
BRANCH  10  26
HETATM   26  O7  UNL     1      -0.638   5.890  15.505  1.00  0.00    -0.369 OA
HETATM   27  H61 UNL     1       0.245   5.564  15.218  1.00  0.00     0.212 HD
ENDBRANCH  10  26
BRANCH  21  28
HETATM   28  O1  UNL     1      -0.163  11.611  14.486  1.00  0.00    -0.394 OA
HETATM   29  H24 UNL     1      -0.171  12.560  14.236  1.00  0.00     0.210 HD
ENDBRANCH  21  28
ENDBRANCH   3   4
ENDBRANCH   1   3
BRANCH   1  30
HETATM   30  O3  UNL     1      -5.445   7.566  15.662  1.00  0.00     0.000 OA
HETATM   31 BR1  UNL     1      -5.986   7.779  14.015  1.00  0.00    -0.148 Br
BRANCH  30  32
HETATM   32  C22 UNL     1      -6.730   7.212  15.087  1.00  0.00    -0.009 C 
HETATM   33  C23 UNL     1      -7.491   6.419  16.136  1.00  0.00     0.006 C 
HETATM   34  C24 UNL     1      -8.987   6.452  15.849  1.00  0.00     0.010 C 
HETATM   35  C25 UNL     1      -9.586   7.877  16.024  1.00  0.00    -0.036 C 
HETATM   36  C26 UNL     1      -9.789   8.085  17.557  1.00  0.00     0.016 C 
HETATM   37  C27 UNL     1     -10.990   7.977  15.306  1.00  0.00     0.001 C 
HETATM   38  C43 UNL     1      -8.597   8.985  15.523  1.00  0.00    -0.005 C 
HETATM   39  C28 UNL     1     -10.945   7.654  13.790  1.00  0.00     0.007 C 
HETATM   40  C40 UNL     1     -11.665   9.338  15.581  1.00  0.00     0.025 C 
HETATM   41  C29 UNL     1     -11.855   8.534  12.924  1.00  0.00     0.013 C 
HETATM   42  C30 UNL     1     -13.261   8.763  13.530  1.00  0.00    -0.005 C 
HETATM   43  C31 UNL     1     -13.992   7.396  13.486  1.00  0.00     0.019 C 
HETATM   44  C32 UNL     1     -13.995   9.857  12.668  1.00  0.00     0.028 C 
HETATM   45  C39 UNL     1     -13.115   9.392  14.969  1.00  0.00     0.070 C 
HETATM   46  C37 UNL     1     -13.708  11.172  13.408  1.00  0.00     0.013 C 
HETATM   47  C38 UNL     1     -13.718  10.806  14.884  1.00  0.00     0.040 C 
HETATM   48  C41 UNL     1     -10.702  10.524  15.308  1.00  0.00     0.008 C 
HETATM   49  C42 UNL     1      -9.299  10.161  14.808  1.00  0.00     0.006 C 
HETATM   50  C44 UNL     1      -7.458   8.472  14.602  1.00  0.00     0.156 C 
BRANCH  44  51
HETATM   51  C33 UNL     1     -15.463   9.672  12.378  1.00  0.00    -0.045 A 
HETATM   52  C34 UNL     1     -15.978   8.728  11.594  1.00  0.00     0.087 A 
HETATM   53  C35 UNL     1     -17.427   8.917  11.557  1.00  0.00     0.283 A 
HETATM   54  O4  UNL     1     -18.203   8.248  10.905  1.00  0.00    -0.260 OA
HETATM   55  O5  UNL     1     -17.746   9.979  12.341  1.00  0.00    -0.314 OA
HETATM   56  C36 UNL     1     -16.556  10.533  12.905  1.00  0.00     0.213 A 
ENDBRANCH  44  51
BRANCH  45  57
HETATM   57  O6  UNL     1     -13.965   8.645  15.863  1.00  0.00    -0.389 OA
HETATM   58  H51 UNL     1     -13.906   9.044  16.747  1.00  0.00     0.210 HD
ENDBRANCH  45  57
ENDBRANCH  30  32
ENDBRANCH   1  30
TORSDOF 10
ENDMDL
MODEL 3
REMARK minimizedAffinity -10.022521
REMARK CNNscore 0.355439663
REMARK CNNaffinity 7.38383055
REMARK  10 active torsions:
REMARK  status: ('A' for Active; 'I' for Inactive)
REMARK    1  A    between atoms: C2_2  and  C3_3 
REMARK    2  A    between atoms: C4_4  and  C18_19 
REMARK    3  A    between atoms: C19_20  and  O1_21 
REMARK    4  A    between atoms: N2_22  and  C20_23 
REMARK    5  A    between atoms: C20_23  and  C21_24 
REMARK    6  A    between atoms: C21_24  and  O3_26 
REMARK    7  A    between atoms: O3_26  and  C22_27 
REMARK    8  A    between atoms: C32_37  and  C33_38 
REMARK    9  A    between atoms: C39_46  and  O6_47 
REMARK   10  A    between atoms: C45_53  and  O7_54 
ROOT
HETATM    1  C21 UNL     1       1.954   8.738  15.420  1.00  0.00     0.222 C 
HETATM    2  O2  UNL     1       3.114   8.477  15.136  1.00  0.00    -0.287 OA
ENDROOT
BRANCH   1   3
HETATM    3  C20 UNL     1       0.842   8.903  14.381  1.00  0.00     0.328 C 
BRANCH   3   4
HETATM    4  N2  UNL     1       0.089   7.569  13.965  1.00  0.00    -0.023 N 
HETATM    5  C6  UNL     1       1.176   6.502  13.564  1.00  0.00     0.214 C 
HETATM    6  C5  UNL     1       0.507   5.116  13.686  1.00  0.00     0.041 C 
HETATM    7  C7  UNL     1       1.694   6.690  12.102  1.00  0.00     0.109 C 
HETATM    8  C4  UNL     1      -1.009   5.270  13.481  1.00  0.00     0.004 C 
HETATM    9  C3  UNL     1      -1.536   5.820  14.825  1.00  0.00     0.047 C 
HETATM   10  C45 UNL     1      -0.709   7.092  15.189  1.00  0.00     0.329 C 
HETATM   11  N1  UNL     1       2.774   7.701  11.920  1.00  0.00    -0.279 NA
HETATM   12  C15 UNL     1       0.580   7.120  11.107  1.00  0.00     0.035 C 
HETATM   13  C8  UNL     1       4.114   7.357  12.401  1.00  0.00     0.117 C 
HETATM   14  C9  UNL     1       2.702   7.899  10.501  1.00  0.00     0.018 A 
HETATM   15  C10 UNL     1       3.680   8.420   9.662  1.00  0.00     0.024 A 
HETATM   16  C14 UNL     1       1.442   7.551   9.972  1.00  0.00    -0.024 A 
HETATM   17  C11 UNL     1       3.390   8.567   8.300  1.00  0.00     0.002 A 
HETATM   18  C12 UNL     1       2.136   8.202   7.787  1.00  0.00     0.001 A 
HETATM   19  C13 UNL     1       1.145   7.693   8.626  1.00  0.00     0.010 A 
HETATM   20  C16 UNL     1      -0.222   8.324  11.605  1.00  0.00     0.053 C 
HETATM   21  C19 UNL     1      -0.535   6.075  10.998  1.00  0.00     0.139 C 
HETATM   22  C17 UNL     1      -0.911   7.721  12.798  1.00  0.00     0.202 C 
HETATM   23  C18 UNL     1      -1.306   6.279  12.341  1.00  0.00     0.051 C 
BRANCH   9  24
HETATM   24  C2  UNL     1      -3.049   6.106  14.858  1.00  0.00     0.005 C 
HETATM   25  C1  UNL     1      -3.668   6.261  13.475  1.00  0.00     0.005 C 
ENDBRANCH   9  24
BRANCH  10  26
HETATM   26  O7  UNL     1       0.156   6.866  16.281  1.00  0.00    -0.369 OA
HETATM   27  H61 UNL     1      -0.164   6.099  16.806  1.00  0.00     0.212 HD
ENDBRANCH  10  26
BRANCH  21  28
HETATM   28  O1  UNL     1      -0.072   4.752  10.853  1.00  0.00    -0.394 OA
HETATM   29  H24 UNL     1      -0.191   4.480   9.916  1.00  0.00     0.210 HD
ENDBRANCH  21  28
ENDBRANCH   3   4
ENDBRANCH   1   3
BRANCH   1  30
HETATM   30  O3  UNL     1       1.465   8.929  16.676  1.00  0.00     0.000 OA
HETATM   31 BR1  UNL     1       2.547  10.269  16.962  1.00  0.00    -0.148 Br
BRANCH  30  32
HETATM   32  C22 UNL     1       1.126  10.294  17.030  1.00  0.00    -0.009 C 
HETATM   33  C23 UNL     1       0.775  11.022  15.743  1.00  0.00     0.006 C 
HETATM   34  C24 UNL     1      -0.070  12.254  16.040  1.00  0.00     0.010 C 
HETATM   35  C25 UNL     1      -1.475  11.882  16.593  1.00  0.00    -0.036 C 
HETATM   36  C26 UNL     1      -2.342  11.478  15.360  1.00  0.00     0.016 C 
HETATM   37  C27 UNL     1      -2.141  13.131  17.296  1.00  0.00     0.001 C 
HETATM   38  C43 UNL     1      -1.409  10.643  17.551  1.00  0.00    -0.005 C 
HETATM   39  C28 UNL     1      -1.301  13.716  18.461  1.00  0.00     0.007 C 
HETATM   40  C40 UNL     1      -3.589  12.824  17.732  1.00  0.00     0.025 C 
HETATM   41  C29 UNL     1      -2.126  14.191  19.664  1.00  0.00     0.013 C 
HETATM   42  C30 UNL     1      -3.396  14.985  19.274  1.00  0.00    -0.005 C 
HETATM   43  C31 UNL     1      -2.913  16.325  18.662  1.00  0.00     0.019 C 
HETATM   44  C32 UNL     1      -4.257  15.204  20.575  1.00  0.00     0.028 C 
HETATM   45  C39 UNL     1      -4.293  14.104  18.322  1.00  0.00     0.070 C 
HETATM   46  C37 UNL     1      -5.255  14.035  20.564  1.00  0.00     0.013 C 
HETATM   47  C38 UNL     1      -5.591  13.816  19.097  1.00  0.00     0.040 C 
HETATM   48  C41 UNL     1      -3.681  11.496  18.530  1.00  0.00     0.008 C 
HETATM   49  C42 UNL     1      -2.363  10.747  18.762  1.00  0.00     0.006 C 
HETATM   50  C44 UNL     1       0.009  10.306  18.083  1.00  0.00     0.156 C 
BRANCH  44  51
HETATM   51  C33 UNL     1      -4.937  16.536  20.767  1.00  0.00    -0.045 A 
HETATM   52  C34 UNL     1      -4.570  17.465  21.645  1.00  0.00     0.087 A 
HETATM   53  C35 UNL     1      -5.503  18.584  21.530  1.00  0.00     0.283 A 
HETATM   54  O4  UNL     1      -5.478  19.588  22.213  1.00  0.00    -0.260 OA
HETATM   55  O5  UNL     1      -6.412  18.294  20.564  1.00  0.00    -0.314 OA
HETATM   56  C36 UNL     1      -6.137  17.001  20.020  1.00  0.00     0.213 A 
ENDBRANCH  44  51
BRANCH  45  57
HETATM   57  O6  UNL     1      -4.669  14.920  17.194  1.00  0.00    -0.389 OA
HETATM   58  H51 UNL     1      -5.247  14.395  16.616  1.00  0.00     0.210 HD
ENDBRANCH  45  57
ENDBRANCH  30  32
ENDBRANCH   1  30
TORSDOF 10
ENDMDL
MODEL 4
REMARK minimizedAffinity -12.0495367
REMARK CNNscore 0.292120486
REMARK CNNaffinity 7.09526587
REMARK  10 active torsions:
REMARK  status: ('A' for Active; 'I' for Inactive)
REMARK    1  A    between atoms: C2_2  and  C3_3 
REMARK    2  A    between atoms: C4_4  and  C18_19 
REMARK    3  A    between atoms: C19_20  and  O1_21 
REMARK    4  A    between atoms: N2_22  and  C20_23 
REMARK    5  A    between atoms: C20_23  and  C21_24 
REMARK    6  A    between atoms: C21_24  and  O3_26 
REMARK    7  A    between atoms: O3_26  and  C22_27 
REMARK    8  A    between atoms: C32_37  and  C33_38 
REMARK    9  A    between atoms: C39_46  and  O6_47 
REMARK   10  A    between atoms: C45_53  and  O7_54 
ROOT
HETATM    1  C21 UNL     1      -0.863  10.078  14.541  1.00  0.00     0.222 C 
HETATM    2  O2  UNL     1      -1.636  10.525  13.707  1.00  0.00    -0.287 OA
ENDROOT
BRANCH   1   3
HETATM    3  C20 UNL     1       0.150   8.968  14.252  1.00  0.00     0.328 C 
BRANCH   3   4
HETATM    4  N2  UNL     1      -0.467   7.579  13.791  1.00  0.00    -0.023 N 
HETATM    5  C6  UNL     1       0.716   6.555  13.619  1.00  0.00     0.214 C 
HETATM    6  C5  UNL     1       0.100   5.142  13.706  1.00  0.00     0.041 C 
HETATM    7  C7  UNL     1       1.450   6.706  12.248  1.00  0.00     0.109 C 
HETATM    8  C4  UNL     1      -1.371   5.208  13.261  1.00  0.00     0.004 C 
HETATM    9  C3  UNL     1      -2.127   5.786  14.476  1.00  0.00     0.047 C 
HETATM   10  C45 UNL     1      -1.426   7.114  14.900  1.00  0.00     0.329 C 
HETATM   11  N1  UNL     1       2.498   7.763  12.185  1.00  0.00    -0.279 NA
HETATM   12  C15 UNL     1       0.488   7.034  11.071  1.00  0.00     0.035 C 
HETATM   13  C8  UNL     1       3.760   7.512  12.885  1.00  0.00     0.117 C 
HETATM   14  C9  UNL     1       2.642   7.896  10.763  1.00  0.00     0.018 A 
HETATM   15  C10 UNL     1       3.716   8.431  10.061  1.00  0.00     0.024 A 
HETATM   16  C14 UNL     1       1.498   7.460  10.064  1.00  0.00    -0.024 A 
HETATM   17  C11 UNL     1       3.638   8.503   8.665  1.00  0.00     0.002 A 
HETATM   18  C12 UNL     1       2.498   8.051   7.983  1.00  0.00     0.001 A 
HETATM   19  C13 UNL     1       1.411   7.528   8.682  1.00  0.00     0.010 A 
HETATM   20  C16 UNL     1      -0.436   8.215  11.376  1.00  0.00     0.053 C 
HETATM   21  C19 UNL     1      -0.548   5.929  10.843  1.00  0.00     0.139 C 
HETATM   22  C17 UNL     1      -1.276   7.629  12.477  1.00  0.00     0.202 C 
HETATM   23  C18 UNL     1      -1.529   6.149  12.039  1.00  0.00     0.051 C 
BRANCH   9  24
HETATM   24  C2  UNL     1      -3.637   5.995  14.259  1.00  0.00     0.005 C 
HETATM   25  C1  UNL     1      -4.277   4.930  13.377  1.00  0.00     0.005 C 
ENDBRANCH   9  24
BRANCH  10  26
HETATM   26  O7  UNL     1      -0.735   6.982  16.123  1.00  0.00    -0.369 OA
HETATM   27  H61 UNL     1      -1.099   6.222  16.630  1.00  0.00     0.212 HD
ENDBRANCH  10  26
BRANCH  21  28
HETATM   28  O1  UNL     1      -0.009   4.626  10.839  1.00  0.00    -0.394 OA
HETATM   29  H24 UNL     1       0.034   4.308   9.911  1.00  0.00     0.210 HD
ENDBRANCH  21  28
ENDBRANCH   3   4
ENDBRANCH   1   3
BRANCH   1  30
HETATM   30  O3  UNL     1      -0.777  10.474  15.841  1.00  0.00     0.000 OA
HETATM   31 BR1  UNL     1       0.814   9.776  16.015  1.00  0.00    -0.148 Br
BRANCH  30  32
HETATM   32  C22 UNL     1       0.455  11.136  16.228  1.00  0.00    -0.009 C 
HETATM   33  C23 UNL     1       0.124  12.598  16.477  1.00  0.00     0.006 C 
HETATM   34  C24 UNL     1       1.184  13.241  17.362  1.00  0.00     0.010 C 
HETATM   35  C25 UNL     1       1.178  12.658  18.805  1.00  0.00    -0.036 C 
HETATM   36  C26 UNL     1       0.003  13.356  19.557  1.00  0.00     0.016 C 
HETATM   37  C27 UNL     1       2.531  13.000  19.545  1.00  0.00     0.001 C 
HETATM   38  C43 UNL     1       0.889  11.117  18.803  1.00  0.00    -0.005 C 
HETATM   39  C28 UNL     1       3.795  12.475  18.817  1.00  0.00     0.007 C 
HETATM   40  C40 UNL     1       2.493  12.550  21.021  1.00  0.00     0.025 C 
HETATM   41  C29 UNL     1       4.890  11.938  19.748  1.00  0.00     0.013 C 
HETATM   42  C30 UNL     1       5.139  12.825  20.991  1.00  0.00    -0.005 C 
HETATM   43  C31 UNL     1       5.768  14.146  20.476  1.00  0.00     0.019 C 
HETATM   44  C32 UNL     1       6.104  12.049  21.963  1.00  0.00     0.028 C 
HETATM   45  C39 UNL     1       3.791  13.000  21.790  1.00  0.00     0.070 C 
HETATM   46  C37 UNL     1       5.157  11.335  22.940  1.00  0.00     0.013 C 
HETATM   47  C38 UNL     1       4.001  12.301  23.146  1.00  0.00     0.040 C 
HETATM   48  C41 UNL     1       2.021  11.078  21.162  1.00  0.00     0.008 C 
HETATM   49  C42 UNL     1       1.703  10.336  19.858  1.00  0.00     0.006 C 
HETATM   50  C44 UNL     1       1.084  10.420  17.431  1.00  0.00     0.156 C 
BRANCH  44  51
HETATM   51  C33 UNL     1       7.181  12.828  22.675  1.00  0.00    -0.045 A 
HETATM   52  C34 UNL     1       7.102  14.111  23.017  1.00  0.00     0.087 A 
HETATM   53  C35 UNL     1       8.362  14.483  23.657  1.00  0.00     0.283 A 
HETATM   54  O4  UNL     1       8.640  15.595  24.059  1.00  0.00    -0.260 OA
HETATM   55  O5  UNL     1       9.171  13.393  23.689  1.00  0.00    -0.314 OA
HETATM   56  C36 UNL     1       8.506  12.285  23.079  1.00  0.00     0.213 A 
ENDBRANCH  44  51
BRANCH  45  57
HETATM   57  O6  UNL     1       3.631  14.403  22.080  1.00  0.00    -0.389 OA
HETATM   58  H51 UNL     1       2.817  14.517  22.600  1.00  0.00     0.210 HD
ENDBRANCH  45  57
ENDBRANCH  30  32
ENDBRANCH   1  30
TORSDOF 10
ENDMDL
MODEL 5
REMARK minimizedAffinity -9.68802738
REMARK CNNscore 0.257134378
REMARK CNNaffinity 7.09176874
REMARK  10 active torsions:
REMARK  status: ('A' for Active; 'I' for Inactive)
REMARK    1  A    between atoms: C2_2  and  C3_3 
REMARK    2  A    between atoms: C4_4  and  C18_19 
REMARK    3  A    between atoms: C19_20  and  O1_21 
REMARK    4  A    between atoms: N2_22  and  C20_23 
REMARK    5  A    between atoms: C20_23  and  C21_24 
REMARK    6  A    between atoms: C21_24  and  O3_26 
REMARK    7  A    between atoms: O3_26  and  C22_27 
REMARK    8  A    between atoms: C32_37  and  C33_38 
REMARK    9  A    between atoms: C39_46  and  O6_47 
REMARK   10  A    between atoms: C45_53  and  O7_54 
ROOT
HETATM    1  C21 UNL     1      -1.353  10.043  14.100  1.00  0.00     0.222 C 
HETATM    2  O2  UNL     1      -2.237   9.972  13.258  1.00  0.00    -0.287 OA
ENDROOT
BRANCH   1   3
HETATM    3  C20 UNL     1      -0.295   8.958  14.315  1.00  0.00     0.328 C 
BRANCH   3   4
HETATM    4  N2  UNL     1      -0.600   7.559  13.631  1.00  0.00    -0.023 N 
HETATM    5  C6  UNL     1       0.636   6.615  13.882  1.00  0.00     0.214 C 
HETATM    6  C5  UNL     1       0.134   5.166  13.707  1.00  0.00     0.041 C 
HETATM    7  C7  UNL     1       1.805   6.874  12.878  1.00  0.00     0.109 C 
HETATM    8  C4  UNL     1      -1.075   5.165  12.755  1.00  0.00     0.004 C 
HETATM    9  C3  UNL     1      -2.261   5.640  13.622  1.00  0.00     0.047 C 
HETATM   10  C45 UNL     1      -1.860   6.986  14.301  1.00  0.00     0.329 C 
HETATM   11  N1  UNL     1       2.724   7.994  13.226  1.00  0.00    -0.279 NA
HETATM   12  C15 UNL     1       1.316   7.198  11.438  1.00  0.00     0.035 C 
HETATM   13  C8  UNL     1       3.660   7.785  14.334  1.00  0.00     0.117 C 
HETATM   14  C9  UNL     1       3.366   8.201  11.959  1.00  0.00     0.018 A 
HETATM   15  C10 UNL     1       4.580   8.831  11.711  1.00  0.00     0.024 A 
HETATM   16  C14 UNL     1       2.590   7.730  10.880  1.00  0.00    -0.024 A 
HETATM   17  C11 UNL     1       5.009   8.964  10.384  1.00  0.00     0.002 A 
HETATM   18  C12 UNL     1       4.232   8.477   9.323  1.00  0.00     0.001 A 
HETATM   19  C13 UNL     1       3.006   7.858   9.564  1.00  0.00     0.010 A 
HETATM   20  C16 UNL     1       0.261   8.306  11.409  1.00  0.00     0.053 C 
HETATM   21  C19 UNL     1       0.517   6.045  10.823  1.00  0.00     0.139 C 
HETATM   22  C17 UNL     1      -0.877   7.621  12.113  1.00  0.00     0.202 C 
HETATM   23  C18 UNL     1      -0.845   6.151  11.581  1.00  0.00     0.051 C 
BRANCH   9  24
HETATM   24  C2  UNL     1      -3.600   5.767  12.872  1.00  0.00     0.005 C 
HETATM   25  C1  UNL     1      -4.546   4.598  13.113  1.00  0.00     0.005 C 
ENDBRANCH   9  24
BRANCH  10  26
HETATM   26  O7  UNL     1      -1.654   6.838  15.689  1.00  0.00    -0.369 OA
HETATM   27  H61 UNL     1      -2.120   6.035  16.011  1.00  0.00     0.212 HD
ENDBRANCH  10  26
BRANCH  21  28
HETATM   28  O1  UNL     1       1.113   4.778  10.988  1.00  0.00    -0.394 OA
HETATM   29  H24 UNL     1       1.514   4.507  10.133  1.00  0.00     0.210 HD
ENDBRANCH  21  28
ENDBRANCH   3   4
ENDBRANCH   1   3
BRANCH   1  30
HETATM   30  O3  UNL     1      -1.166  11.071  14.974  1.00  0.00     0.000 OA
HETATM   31 BR1  UNL     1      -2.883  11.362  15.098  1.00  0.00    -0.148 Br
BRANCH  30  32
HETATM   32  C22 UNL     1      -1.993  11.056  16.165  1.00  0.00    -0.009 C 
HETATM   33  C23 UNL     1      -1.060  11.030  17.364  1.00  0.00     0.006 C 
HETATM   34  C24 UNL     1      -1.780  11.528  18.611  1.00  0.00     0.010 C 
HETATM   35  C25 UNL     1      -2.141  13.039  18.516  1.00  0.00    -0.036 C 
HETATM   36  C26 UNL     1      -0.836  13.826  18.850  1.00  0.00     0.016 C 
HETATM   37  C27 UNL     1      -3.247  13.410  19.582  1.00  0.00     0.001 C 
HETATM   38  C43 UNL     1      -2.576  13.438  17.064  1.00  0.00    -0.005 C 
HETATM   39  C28 UNL     1      -4.555  12.590  19.442  1.00  0.00     0.007 C 
HETATM   40  C40 UNL     1      -3.523  14.929  19.599  1.00  0.00     0.025 C 
HETATM   41  C29 UNL     1      -5.839  13.390  19.696  1.00  0.00     0.013 C 
HETATM   42  C30 UNL     1      -5.753  14.331  20.921  1.00  0.00    -0.005 C 
HETATM   43  C31 UNL     1      -5.683  13.423  22.176  1.00  0.00     0.019 C 
HETATM   44  C32 UNL     1      -7.033  15.249  20.926  1.00  0.00     0.028 C 
HETATM   45  C39 UNL     1      -4.533  15.314  20.744  1.00  0.00     0.070 C 
HETATM   46  C37 UNL     1      -6.582  16.524  20.196  1.00  0.00     0.013 C 
HETATM   47  C38 UNL     1      -5.133  16.727  20.614  1.00  0.00     0.040 C 
HETATM   48  C41 UNL     1      -3.774  15.484  18.171  1.00  0.00     0.008 C 
HETATM   49  C42 UNL     1      -3.730  14.465  17.026  1.00  0.00     0.006 C 
HETATM   50  C44 UNL     1      -2.963  12.245  16.150  1.00  0.00     0.156 C 
BRANCH  44  51
HETATM   51  C33 UNL     1      -7.694  15.549  22.247  1.00  0.00    -0.045 A 
HETATM   52  C34 UNL     1      -8.851  15.039  22.660  1.00  0.00     0.087 A 
HETATM   53  C35 UNL     1      -9.148  15.605  23.974  1.00  0.00     0.283 A 
HETATM   54  O4  UNL     1     -10.149  15.379  24.623  1.00  0.00    -0.260 OA
HETATM   55  O5  UNL     1      -8.139  16.445  24.322  1.00  0.00    -0.314 OA
HETATM   56  C36 UNL     1      -7.164  16.481  23.279  1.00  0.00     0.213 A 
ENDBRANCH  44  51
BRANCH  45  57
HETATM   57  O6  UNL     1      -3.781  15.308  21.973  1.00  0.00    -0.389 OA
HETATM   58  H51 UNL     1      -3.044  15.934  21.884  1.00  0.00     0.210 HD
ENDBRANCH  45  57
ENDBRANCH  30  32
ENDBRANCH   1  30
TORSDOF 10
ENDMDL
MODEL 6
REMARK minimizedAffinity -10.4107351
REMARK CNNscore 0.228781506
REMARK CNNaffinity 6.7642808
REMARK  10 active torsions:
REMARK  status: ('A' for Active; 'I' for Inactive)
REMARK    1  A    between atoms: C2_2  and  C3_3 
REMARK    2  A    between atoms: C4_4  and  C18_19 
REMARK    3  A    between atoms: C19_20  and  O1_21 
REMARK    4  A    between atoms: N2_22  and  C20_23 
REMARK    5  A    between atoms: C20_23  and  C21_24 
REMARK    6  A    between atoms: C21_24  and  O3_26 
REMARK    7  A    between atoms: O3_26  and  C22_27 
REMARK    8  A    between atoms: C32_37  and  C33_38 
REMARK    9  A    between atoms: C39_46  and  O6_47 
REMARK   10  A    between atoms: C45_53  and  O7_54 
ROOT
HETATM    1  C21 UNL     1       0.230   9.947  15.170  1.00  0.00     0.222 C 
HETATM    2  O2  UNL     1      -0.559  10.779  14.745  1.00  0.00    -0.287 OA
ENDROOT
BRANCH   1   3
HETATM    3  C20 UNL     1       0.978   8.952  14.279  1.00  0.00     0.328 C 
BRANCH   3   4
HETATM    4  N2  UNL     1       0.172   7.641  13.889  1.00  0.00    -0.023 N 
HETATM    5  C6  UNL     1       1.213   6.540  13.459  1.00  0.00     0.214 C 
HETATM    6  C5  UNL     1       0.506   5.175  13.606  1.00  0.00     0.041 C 
HETATM    7  C7  UNL     1       1.693   6.708  11.982  1.00  0.00     0.109 C 
HETATM    8  C4  UNL     1      -1.011   5.377  13.445  1.00  0.00     0.004 C 
HETATM    9  C3  UNL     1      -1.480   5.945  14.802  1.00  0.00     0.047 C 
HETATM   10  C45 UNL     1      -0.604   7.191  15.138  1.00  0.00     0.329 C 
HETATM   11  N1  UNL     1       2.798   7.685  11.766  1.00  0.00    -0.279 NA
HETATM   12  C15 UNL     1       0.563   7.171  11.019  1.00  0.00     0.035 C 
HETATM   13  C8  UNL     1       4.141   7.302  12.208  1.00  0.00     0.117 C 
HETATM   14  C9  UNL     1       2.690   7.883  10.348  1.00  0.00     0.018 A 
HETATM   15  C10 UNL     1       3.659   8.371   9.479  1.00  0.00     0.024 A 
HETATM   16  C14 UNL     1       1.405   7.572   9.858  1.00  0.00    -0.024 A 
HETATM   17  C11 UNL     1       3.332   8.524   8.126  1.00  0.00     0.002 A 
HETATM   18  C12 UNL     1       2.053   8.197   7.651  1.00  0.00     0.001 A 
HETATM   19  C13 UNL     1       1.073   7.721   8.521  1.00  0.00     0.010 A 
HETATM   20  C16 UNL     1      -0.186   8.400  11.536  1.00  0.00     0.053 C 
HETATM   21  C19 UNL     1      -0.586   6.161  10.946  1.00  0.00     0.139 C 
HETATM   22  C17 UNL     1      -0.857   7.822  12.752  1.00  0.00     0.202 C 
HETATM   23  C18 UNL     1      -1.310   6.391  12.311  1.00  0.00     0.051 C 
BRANCH   9  24
HETATM   24  C2  UNL     1      -2.982   6.278  14.879  1.00  0.00     0.005 C 
HETATM   25  C1  UNL     1      -3.852   5.358  14.033  1.00  0.00     0.005 C 
ENDBRANCH   9  24
BRANCH  10  26
HETATM   26  O7  UNL     1       0.285   6.942  16.204  1.00  0.00    -0.369 OA
HETATM   27  H61 UNL     1      -0.042   6.185  16.741  1.00  0.00     0.212 HD
ENDBRANCH  10  26
BRANCH  21  28
HETATM   28  O1  UNL     1      -0.169   4.823  10.792  1.00  0.00    -0.394 OA
HETATM   29  H24 UNL     1      -0.323   4.553   9.860  1.00  0.00     0.210 HD
ENDBRANCH  21  28
ENDBRANCH   3   4
ENDBRANCH   1   3
BRANCH   1  30
HETATM   30  O3  UNL     1       0.565   9.761  16.477  1.00  0.00     0.000 OA
HETATM   31 BR1  UNL     1       1.765  11.028  16.415  1.00  0.00    -0.148 Br
BRANCH  30  32
HETATM   32  C22 UNL     1       0.648  10.958  17.292  1.00  0.00    -0.009 C 
HETATM   33  C23 UNL     1      -0.235  10.738  18.509  1.00  0.00     0.006 C 
HETATM   34  C24 UNL     1       0.175  11.670  19.642  1.00  0.00     0.010 C 
HETATM   35  C25 UNL     1       1.586  11.329  20.201  1.00  0.00    -0.036 C 
HETATM   36  C26 UNL     1       1.398  10.110  21.157  1.00  0.00     0.016 C 
HETATM   37  C27 UNL     1       2.159  12.544  21.032  1.00  0.00     0.001 C 
HETATM   38  C43 UNL     1       2.568  10.889  19.061  1.00  0.00    -0.005 C 
HETATM   39  C28 UNL     1       2.265  13.863  20.223  1.00  0.00     0.007 C 
HETATM   40  C40 UNL     1       3.498  12.179  21.710  1.00  0.00     0.025 C 
HETATM   41  C29 UNL     1       3.515  14.699  20.530  1.00  0.00     0.013 C 
HETATM   42  C30 UNL     1       3.843  14.798  22.039  1.00  0.00    -0.005 C 
HETATM   43  C31 UNL     1       2.717  15.646  22.685  1.00  0.00     0.019 C 
HETATM   44  C32 UNL     1       5.257  15.475  22.191  1.00  0.00     0.028 C 
HETATM   45  C39 UNL     1       4.007  13.347  22.636  1.00  0.00     0.070 C 
HETATM   46  C37 UNL     1       6.231  14.291  22.284  1.00  0.00     0.013 C 
HETATM   47  C38 UNL     1       5.481  13.222  23.064  1.00  0.00     0.040 C 
HETATM   48  C41 UNL     1       4.495  11.541  20.707  1.00  0.00     0.008 C 
HETATM   49  C42 UNL     1       4.012  11.403  19.258  1.00  0.00     0.006 C 
HETATM   50  C44 UNL     1       2.112  11.269  17.627  1.00  0.00     0.156 C 
BRANCH  44  51
HETATM   51  C33 UNL     1       5.456  16.471  23.305  1.00  0.00    -0.045 A 
HETATM   52  C34 UNL     1       4.482  17.107  23.950  1.00  0.00     0.087 A 
HETATM   53  C35 UNL     1       5.100  17.999  24.929  1.00  0.00     0.283 A 
HETATM   54  O4  UNL     1       4.498  18.755  25.665  1.00  0.00    -0.260 OA
HETATM   55  O5  UNL     1       6.449  17.863  24.849  1.00  0.00    -0.314 OA
HETATM   56  C36 UNL     1       6.776  16.911  23.834  1.00  0.00     0.213 A 
ENDBRANCH  44  51
BRANCH  45  57
HETATM   57  O6  UNL     1       3.228  13.279  23.846  1.00  0.00    -0.389 OA
HETATM   58  H51 UNL     1       3.348  12.398  24.238  1.00  0.00     0.210 HD
ENDBRANCH  45  57
ENDBRANCH  30  32
ENDBRANCH   1  30
TORSDOF 10
ENDMDL
MODEL 7
REMARK minimizedAffinity -9.34744358
REMARK CNNscore 0.208160639
REMARK CNNaffinity 7.2913723
REMARK  10 active torsions:
REMARK  status: ('A' for Active; 'I' for Inactive)
REMARK    1  A    between atoms: C2_2  and  C3_3 
REMARK    2  A    between atoms: C4_4  and  C18_19 
REMARK    3  A    between atoms: C19_20  and  O1_21 
REMARK    4  A    between atoms: N2_22  and  C20_23 
REMARK    5  A    between atoms: C20_23  and  C21_24 
REMARK    6  A    between atoms: C21_24  and  O3_26 
REMARK    7  A    between atoms: O3_26  and  C22_27 
REMARK    8  A    between atoms: C32_37  and  C33_38 
REMARK    9  A    between atoms: C39_46  and  O6_47 
REMARK   10  A    between atoms: C45_53  and  O7_54 
ROOT
HETATM    1  C21 UNL     1      -0.985  10.810  14.699  1.00  0.00     0.222 C 
HETATM    2  O2  UNL     1      -2.012  10.946  14.049  1.00  0.00    -0.287 OA
ENDROOT
BRANCH   1   3
HETATM    3  C20 UNL     1      -0.531   9.478  15.300  1.00  0.00     0.328 C 
BRANCH   3   4
HETATM    4  N2  UNL     1      -1.133   8.177  14.620  1.00  0.00    -0.023 N 
HETATM    5  C6  UNL     1      -0.189   6.966  14.966  1.00  0.00     0.214 C 
HETATM    6  C5  UNL     1      -1.025   5.681  14.780  1.00  0.00     0.041 C 
HETATM    7  C7  UNL     1       1.066   6.895  14.037  1.00  0.00     0.109 C 
HETATM    8  C4  UNL     1      -2.136   5.950  13.751  1.00  0.00     0.004 C 
HETATM    9  C3  UNL     1      -3.216   6.730  14.531  1.00  0.00     0.047 C 
HETATM   10  C45 UNL     1      -2.534   7.956  15.214  1.00  0.00     0.329 C 
HETATM   11  N1  UNL     1       2.213   7.762  14.427  1.00  0.00    -0.279 NA
HETATM   12  C15 UNL     1       0.760   7.285  12.563  1.00  0.00     0.035 C 
HETATM   13  C8  UNL     1       2.999   7.364  15.598  1.00  0.00     0.117 C 
HETATM   14  C9  UNL     1       2.960   7.765  13.203  1.00  0.00     0.018 A 
HETATM   15  C10 UNL     1       4.306   8.066  13.025  1.00  0.00     0.024 A 
HETATM   16  C14 UNL     1       2.158   7.467  12.082  1.00  0.00    -0.024 A 
HETATM   17  C11 UNL     1       4.834   8.046  11.728  1.00  0.00     0.002 A 
HETATM   18  C12 UNL     1       4.025   7.734  10.625  1.00  0.00     0.001 A 
HETATM   19  C13 UNL     1       2.671   7.446  10.795  1.00  0.00     0.010 A 
HETATM   20  C16 UNL     1       0.019   8.618  12.448  1.00  0.00     0.053 C 
HETATM   21  C19 UNL     1      -0.263   6.347  11.915  1.00  0.00     0.139 C 
HETATM   22  C17 UNL     1      -1.295   8.259  13.086  1.00  0.00     0.202 C 
HETATM   23  C18 UNL     1      -1.598   6.811  12.579  1.00  0.00     0.051 C 
BRANCH   9  24
HETATM   24  C2  UNL     1      -4.433   7.162  13.692  1.00  0.00     0.005 C 
HETATM   25  C1  UNL     1      -5.407   6.027  13.404  1.00  0.00     0.005 C 
ENDBRANCH   9  24
BRANCH  10  26
HETATM   26  O7  UNL     1      -2.455   7.806  16.614  1.00  0.00    -0.369 OA
HETATM   27  H61 UNL     1      -3.125   7.153  16.917  1.00  0.00     0.212 HD
ENDBRANCH  10  26
BRANCH  21  28
HETATM   28  O1  UNL     1      -0.012   4.978  12.139  1.00  0.00    -0.394 OA
HETATM   29  H24 UNL     1       0.359   4.589  11.316  1.00  0.00     0.210 HD
ENDBRANCH  21  28
ENDBRANCH   3   4
ENDBRANCH   1   3
BRANCH   1  30
HETATM   30  O3  UNL     1      -0.096  11.797  14.999  1.00  0.00     0.000 OA
HETATM   31 BR1  UNL     1      -1.225  13.044  14.531  1.00  0.00    -0.148 Br
BRANCH  30  32
HETATM   32  C22 UNL     1      -0.603  12.893  15.801  1.00  0.00    -0.009 C 
HETATM   33  C23 UNL     1      -1.686  13.585  14.991  1.00  0.00     0.006 C 
HETATM   34  C24 UNL     1      -2.611  14.380  15.904  1.00  0.00     0.010 C 
HETATM   35  C25 UNL     1      -3.446  13.459  16.840  1.00  0.00    -0.036 C 
HETATM   36  C26 UNL     1      -4.626  12.910  15.980  1.00  0.00     0.016 C 
HETATM   37  C27 UNL     1      -4.038  14.289  18.047  1.00  0.00     0.001 C 
HETATM   38  C43 UNL     1      -2.609  12.229  17.335  1.00  0.00    -0.005 C 
HETATM   39  C28 UNL     1      -2.962  15.003  18.905  1.00  0.00     0.007 C 
HETATM   40  C40 UNL     1      -4.981  13.426  18.913  1.00  0.00     0.025 C 
HETATM   41  C29 UNL     1      -3.247  15.002  20.413  1.00  0.00     0.013 C 
HETATM   42  C30 UNL     1      -4.720  15.315  20.769  1.00  0.00    -0.005 C 
HETATM   43  C31 UNL     1      -4.962  16.800  20.393  1.00  0.00     0.019 C 
HETATM   44  C32 UNL     1      -4.920  15.054  22.309  1.00  0.00     0.028 C 
HETATM   45  C39 UNL     1      -5.665  14.283  20.042  1.00  0.00     0.070 C 
HETATM   46  C37 UNL     1      -5.443  13.611  22.379  1.00  0.00     0.013 C 
HETATM   47  C38 UNL     1      -6.333  13.454  21.155  1.00  0.00     0.040 C 
HETATM   48  C41 UNL     1      -4.326  12.074  19.304  1.00  0.00     0.008 C 
HETATM   49  C42 UNL     1      -2.896  11.838  18.802  1.00  0.00     0.006 C 
HETATM   50  C44 UNL     1      -1.074  12.376  17.167  1.00  0.00     0.156 C 
BRANCH  44  51
HETATM   51  C33 UNL     1      -5.779  16.014  23.092  1.00  0.00    -0.045 A 
HETATM   52  C34 UNL     1      -6.322  15.764  24.280  1.00  0.00     0.087 A 
HETATM   53  C35 UNL     1      -7.100  16.938  24.673  1.00  0.00     0.283 A 
HETATM   54  O4  UNL     1      -7.756  17.033  25.691  1.00  0.00    -0.260 OA
HETATM   55  O5  UNL     1      -6.991  17.876  23.698  1.00  0.00    -0.314 OA
HETATM   56  C36 UNL     1      -6.170  17.377  22.640  1.00  0.00     0.213 A 
ENDBRANCH  44  51
BRANCH  45  57
HETATM   57  O6  UNL     1      -6.723  15.029  19.406  1.00  0.00    -0.389 OA
HETATM   58  H51 UNL     1      -7.328  14.399  18.981  1.00  0.00     0.210 HD
ENDBRANCH  45  57
ENDBRANCH  30  32
ENDBRANCH   1  30
TORSDOF 10
ENDMDL
MODEL 8
REMARK minimizedAffinity -8.84803772
REMARK CNNscore 0.20361492
REMARK CNNaffinity 6.91526937
REMARK  10 active torsions:
REMARK  status: ('A' for Active; 'I' for Inactive)
REMARK    1  A    between atoms: C2_2  and  C3_3 
REMARK    2  A    between atoms: C4_4  and  C18_19 
REMARK    3  A    between atoms: C19_20  and  O1_21 
REMARK    4  A    between atoms: N2_22  and  C20_23 
REMARK    5  A    between atoms: C20_23  and  C21_24 
REMARK    6  A    between atoms: C21_24  and  O3_26 
REMARK    7  A    between atoms: O3_26  and  C22_27 
REMARK    8  A    between atoms: C32_37  and  C33_38 
REMARK    9  A    between atoms: C39_46  and  O6_47 
REMARK   10  A    between atoms: C45_53  and  O7_54 
ROOT
HETATM    1  C21 UNL     1     -14.780   8.911  25.396  1.00  0.00     0.222 C 
HETATM    2  O2  UNL     1     -15.158   9.534  26.378  1.00  0.00    -0.287 OA
ENDROOT
BRANCH   1   3
HETATM    3  C20 UNL     1     -14.828   7.385  25.288  1.00  0.00     0.328 C 
BRANCH   3   4
HETATM    4  N2  UNL     1     -15.116   6.809  23.837  1.00  0.00    -0.023 N 
HETATM    5  C6  UNL     1     -15.959   5.488  23.997  1.00  0.00     0.214 C 
HETATM    6  C5  UNL     1     -16.668   5.246  22.647  1.00  0.00     0.041 C 
HETATM    7  C7  UNL     1     -15.074   4.246  24.337  1.00  0.00     0.109 C 
HETATM    8  C4  UNL     1     -15.843   5.894  21.523  1.00  0.00     0.004 C 
HETATM    9  C3  UNL     1     -16.174   7.400  21.608  1.00  0.00     0.047 C 
HETATM   10  C45 UNL     1     -15.920   7.873  23.072  1.00  0.00     0.329 C 
HETATM   11  N1  UNL     1     -14.726   4.071  25.775  1.00  0.00    -0.279 NA
HETATM   12  C15 UNL     1     -13.706   4.246  23.597  1.00  0.00     0.035 C 
HETATM   13  C8  UNL     1     -15.786   3.622  26.681  1.00  0.00     0.117 C 
HETATM   14  C9  UNL     1     -13.632   3.148  25.663  1.00  0.00     0.018 A 
HETATM   15  C10 UNL     1     -13.125   2.303  26.643  1.00  0.00     0.024 A 
HETATM   16  C14 UNL     1     -13.016   3.196  24.396  1.00  0.00    -0.024 A 
HETATM   17  C11 UNL     1     -12.017   1.503  26.335  1.00  0.00     0.002 A 
HETATM   18  C12 UNL     1     -11.424   1.553  25.064  1.00  0.00     0.001 A 
HETATM   19  C13 UNL     1     -11.919   2.409  24.081  1.00  0.00     0.010 A 
HETATM   20  C16 UNL     1     -12.950   5.567  23.757  1.00  0.00     0.053 C 
HETATM   21  C19 UNL     1     -13.870   4.208  22.075  1.00  0.00     0.139 C 
HETATM   22  C17 UNL     1     -13.857   6.496  22.998  1.00  0.00     0.202 C 
HETATM   23  C18 UNL     1     -14.327   5.668  21.758  1.00  0.00     0.051 C 
BRANCH   9  24
HETATM   24  C2  UNL     1     -15.422   8.285  20.596  1.00  0.00     0.005 C 
HETATM   25  C1  UNL     1     -15.184   9.706  21.090  1.00  0.00     0.005 C 
ENDBRANCH   9  24
BRANCH  10  26
HETATM   26  O7  UNL     1     -17.123   8.160  23.752  1.00  0.00    -0.369 OA
HETATM   27  H61 UNL     1     -17.838   8.340  23.101  1.00  0.00     0.212 HD
ENDBRANCH  10  26
BRANCH  21  28
HETATM   28  O1  UNL     1     -14.804   3.254  21.620  1.00  0.00    -0.394 OA
HETATM   29  H24 UNL     1     -14.313   2.490  21.246  1.00  0.00     0.210 HD
ENDBRANCH  21  28
ENDBRANCH   3   4
ENDBRANCH   1   3
BRANCH   1  30
HETATM   30  O3  UNL     1     -14.258   9.453  24.261  1.00  0.00     0.000 OA
HETATM   31 BR1  UNL     1     -13.509  10.754  25.152  1.00  0.00    -0.148 Br
BRANCH  30  32
HETATM   32  C22 UNL     1     -12.854   9.812  24.311  1.00  0.00    -0.009 C 
HETATM   33  C23 UNL     1     -12.146   9.022  23.223  1.00  0.00     0.006 C 
HETATM   34  C24 UNL     1     -10.826   9.688  22.853  1.00  0.00     0.010 C 
HETATM   35  C25 UNL     1     -11.037  11.067  22.165  1.00  0.00    -0.036 C 
HETATM   36  C26 UNL     1     -11.402  10.767  20.678  1.00  0.00     0.016 C 
HETATM   37  C27 UNL     1      -9.703  11.913  22.202  1.00  0.00     0.001 C 
HETATM   38  C43 UNL     1     -12.240  11.850  22.798  1.00  0.00    -0.005 C 
HETATM   39  C28 UNL     1      -9.158  12.164  23.632  1.00  0.00     0.007 C 
HETATM   40  C40 UNL     1      -9.850  13.228  21.406  1.00  0.00     0.025 C 
HETATM   41  C29 UNL     1      -8.559  13.559  23.849  1.00  0.00     0.013 C 
HETATM   42  C30 UNL     1      -7.661  14.039  22.684  1.00  0.00    -0.005 C 
HETATM   43  C31 UNL     1      -6.399  13.138  22.694  1.00  0.00     0.019 C 
HETATM   44  C32 UNL     1      -7.309  15.555  22.927  1.00  0.00     0.028 C 
HETATM   45  C39 UNL     1      -8.486  14.011  21.340  1.00  0.00     0.070 C 
HETATM   46  C37 UNL     1      -8.373  16.320  22.126  1.00  0.00     0.013 C 
HETATM   47  C38 UNL     1      -8.615  15.476  20.884  1.00  0.00     0.040 C 
HETATM   48  C41 UNL     1     -11.131  14.005  21.811  1.00  0.00     0.008 C 
HETATM   49  C42 UNL     1     -11.996  13.372  22.908  1.00  0.00     0.006 C 
HETATM   50  C44 UNL     1     -12.692  11.333  24.190  1.00  0.00     0.156 C 
BRANCH  44  51
HETATM   51  C33 UNL     1      -5.910  16.023  22.615  1.00  0.00    -0.045 A 
HETATM   52  C34 UNL     1      -4.822  15.714  23.315  1.00  0.00     0.087 A 
HETATM   53  C35 UNL     1      -3.684  16.392  22.699  1.00  0.00     0.283 A 
HETATM   54  O4  UNL     1      -2.541  16.353  23.109  1.00  0.00    -0.260 OA
HETATM   55  O5  UNL     1      -4.127  17.092  21.623  1.00  0.00    -0.314 OA
HETATM   56  C36 UNL     1      -5.540  16.924  21.490  1.00  0.00     0.213 A 
ENDBRANCH  44  51
BRANCH  45  57
HETATM   57  O6  UNL     1      -7.681  13.349  20.344  1.00  0.00    -0.389 OA
HETATM   58  H51 UNL     1      -8.169  13.354  19.504  1.00  0.00     0.210 HD
ENDBRANCH  45  57
ENDBRANCH  30  32
ENDBRANCH   1  30
TORSDOF 10
ENDMDL
MODEL 9
REMARK minimizedAffinity -10.0239687
REMARK CNNscore 0.19449842
REMARK CNNaffinity 7.94064569
REMARK  10 active torsions:
REMARK  status: ('A' for Active; 'I' for Inactive)
REMARK    1  A    between atoms: C2_2  and  C3_3 
REMARK    2  A    between atoms: C4_4  and  C18_19 
REMARK    3  A    between atoms: C19_20  and  O1_21 
REMARK    4  A    between atoms: N2_22  and  C20_23 
REMARK    5  A    between atoms: C20_23  and  C21_24 
REMARK    6  A    between atoms: C21_24  and  O3_26 
REMARK    7  A    between atoms: O3_26  and  C22_27 
REMARK    8  A    between atoms: C32_37  and  C33_38 
REMARK    9  A    between atoms: C39_46  and  O6_47 
REMARK   10  A    between atoms: C45_53  and  O7_54 
ROOT
HETATM    1  C21 UNL     1     -11.984   7.290  13.488  1.00  0.00     0.222 C 
HETATM    2  O2  UNL     1     -11.843   7.443  12.283  1.00  0.00    -0.287 OA
ENDROOT
BRANCH   1   3
HETATM    3  C20 UNL     1     -13.265   7.650  14.245  1.00  0.00     0.328 C 
BRANCH   3   4
HETATM    4  N2  UNL     1     -13.450   9.188  14.587  1.00  0.00    -0.023 N 
HETATM    5  C6  UNL     1     -14.814   9.355  15.356  1.00  0.00     0.214 C 
HETATM    6  C5  UNL     1     -14.730  10.689  16.129  1.00  0.00     0.041 C 
HETATM    7  C7  UNL     1     -16.046   9.400  14.396  1.00  0.00     0.109 C 
HETATM    8  C4  UNL     1     -13.756  11.631  15.401  1.00  0.00     0.004 C 
HETATM    9  C3  UNL     1     -12.351  11.130  15.797  1.00  0.00     0.047 C 
HETATM   10  C45 UNL     1     -12.271   9.604  15.483  1.00  0.00     0.329 C 
HETATM   11  N1  UNL     1     -16.577   8.078  13.958  1.00  0.00    -0.279 NA
HETATM   12  C15 UNL     1     -15.765  10.170  13.074  1.00  0.00     0.035 C 
HETATM   13  C8  UNL     1     -17.314   7.283  14.943  1.00  0.00     0.117 C 
HETATM   14  C9  UNL     1     -17.368   8.481  12.831  1.00  0.00     0.018 A 
HETATM   15  C10 UNL     1     -18.411   7.787  12.229  1.00  0.00     0.024 A 
HETATM   16  C14 UNL     1     -16.946   9.713  12.291  1.00  0.00    -0.024 A 
HETATM   17  C11 UNL     1     -19.031   8.346  11.105  1.00  0.00     0.002 A 
HETATM   18  C12 UNL     1     -18.608   9.580  10.588  1.00  0.00     0.001 A 
HETATM   19  C13 UNL     1     -17.553  10.274  11.178  1.00  0.00     0.010 A 
HETATM   20  C16 UNL     1     -14.492   9.692  12.374  1.00  0.00     0.053 C 
HETATM   21  C19 UNL     1     -15.406  11.638  13.322  1.00  0.00     0.139 C 
HETATM   22  C17 UNL     1     -13.450  10.133  13.365  1.00  0.00     0.202 C 
HETATM   23  C18 UNL     1     -13.945  11.529  13.865  1.00  0.00     0.051 C 
BRANCH   9  24
HETATM   24  C2  UNL     1     -11.184  11.897  15.147  1.00  0.00     0.005 C 
HETATM   25  C1  UNL     1      -9.855  11.156  15.218  1.00  0.00     0.005 C 
ENDBRANCH   9  24
BRANCH  10  26
HETATM   26  O7  UNL     1     -12.249   8.822  16.657  1.00  0.00    -0.369 OA
HETATM   27  H61 UNL     1     -11.946   9.370  17.416  1.00  0.00     0.212 HD
ENDBRANCH  10  26
BRANCH  21  28
HETATM   28  O1  UNL     1     -16.258  12.293  14.234  1.00  0.00    -0.394 OA
HETATM   29  H24 UNL     1     -16.864  12.879  13.730  1.00  0.00     0.210 HD
ENDBRANCH  21  28
ENDBRANCH   3   4
ENDBRANCH   1   3
BRANCH   1  30
HETATM   30  O3  UNL     1     -11.049   6.792  14.343  1.00  0.00     0.000 OA
HETATM   31 BR1  UNL     1      -9.819   6.802  13.104  1.00  0.00    -0.148 Br
BRANCH  30  32
HETATM   32  C22 UNL     1      -9.768   7.473  14.357  1.00  0.00    -0.009 C 
HETATM   33  C23 UNL     1      -9.314   7.554  15.805  1.00  0.00     0.006 C 
HETATM   34  C24 UNL     1      -7.807   7.763  15.881  1.00  0.00     0.010 C 
HETATM   35  C25 UNL     1      -7.016   6.527  15.363  1.00  0.00    -0.036 C 
HETATM   36  C26 UNL     1      -7.017   5.485  16.524  1.00  0.00     0.016 C 
HETATM   37  C27 UNL     1      -5.522   6.925  15.036  1.00  0.00     0.001 C 
HETATM   38  C43 UNL     1      -7.724   5.864  14.131  1.00  0.00    -0.005 C 
HETATM   39  C28 UNL     1      -5.390   8.059  13.986  1.00  0.00     0.007 C 
HETATM   40  C40 UNL     1      -4.684   5.687  14.650  1.00  0.00     0.025 C 
HETATM   41  C29 UNL     1      -4.228   7.881  13.001  1.00  0.00     0.013 C 
HETATM   42  C30 UNL     1      -2.912   7.413  13.667  1.00  0.00    -0.005 C 
HETATM   43  C31 UNL     1      -2.415   8.589  14.547  1.00  0.00     0.019 C 
HETATM   44  C32 UNL     1      -1.887   7.050  12.528  1.00  0.00     0.028 C 
HETATM   45  C39 UNL     1      -3.169   6.065  14.444  1.00  0.00     0.070 C 
HETATM   46  C37 UNL     1      -2.064   5.537  12.331  1.00  0.00     0.013 C 
HETATM   47  C38 UNL     1      -2.337   4.987  13.723  1.00  0.00     0.040 C 
HETATM   48  C41 UNL     1      -5.388   4.830  13.564  1.00  0.00     0.008 C 
HETATM   49  C42 UNL     1      -6.740   5.348  13.058  1.00  0.00     0.006 C 
HETATM   50  C44 UNL     1      -8.779   6.758  13.427  1.00  0.00     0.156 C 
BRANCH  44  51
HETATM   51  C33 UNL     1      -0.442   7.438  12.716  1.00  0.00    -0.045 A 
HETATM   52  C34 UNL     1       0.174   8.434  12.085  1.00  0.00     0.087 A 
HETATM   53  C35 UNL     1       1.567   8.453  12.529  1.00  0.00     0.283 A 
HETATM   54  O4  UNL     1       2.420   9.216  12.123  1.00  0.00    -0.260 OA
HETATM   55  O5  UNL     1       1.746   7.458  13.435  1.00  0.00    -0.314 OA
HETATM   56  C36 UNL     1       0.520   6.748  13.618  1.00  0.00     0.213 A 
ENDBRANCH  44  51
BRANCH  45  57
HETATM   57  O6  UNL     1      -2.597   6.201  15.760  1.00  0.00    -0.389 OA
HETATM   58  H51 UNL     1      -2.724   5.363  16.237  1.00  0.00     0.210 HD
ENDBRANCH  45  57
ENDBRANCH  30  32
ENDBRANCH   1  30
TORSDOF 10
ENDMDL
