MODEL 1
REMARK minimizedAffinity -8.83966637
REMARK  5 active torsions:
REMARK  status: ('A' for Active; 'I' for Inactive)
REMARK    1  A    between atoms: C2_2  and  C3_3 
REMARK    2  A    between atoms: C4_5  and  C5_6 
REMARK    3  A    between atoms: C5_6  and  C6_7 
REMARK    4  A    between atoms: C6_7  and  C7_8 
REMARK    5  A    between atoms: C7_8  and  C9_10 
ROOT
HETATM    1  C9  UNL     1      -5.990   7.411  14.557  1.00  0.00    -0.002 C 
HETATM    2  C10 UNL     1      -5.653   8.706  15.332  1.00  0.00     0.007 C 
HETATM    3  C11 UNL     1      -4.141   8.963  15.124  1.00  0.00     0.015 C 
HETATM    4  C12 UNL     1      -3.728   8.037  13.958  1.00  0.00    -0.005 C 
HETATM    5  C13 UNL     1      -4.098   8.771  12.633  1.00  0.00     0.021 C 
HETATM    6  C14 UNL     1      -2.279   7.615  13.760  1.00  0.00    -0.000 C 
HETATM    7  C15 UNL     1      -1.956   6.423  13.194  1.00  0.00    -0.060 C 
HETATM    8  C16 UNL     1      -3.058   5.408  12.825  1.00  0.00     0.036 C 
HETATM    9  C17 UNL     1      -4.519   5.792  13.137  1.00  0.00     0.015 C 
HETATM   10  C18 UNL     1      -4.598   6.766  14.314  1.00  0.00    -0.028 C 
HETATM   11  C19 UNL     1      -4.082   6.037  15.591  1.00  0.00     0.016 C 
HETATM   12  C20 UNL     1      -0.500   5.974  12.920  1.00  0.00    -0.014 C 
HETATM   13  C21 UNL     1      -0.136   4.907  13.991  1.00  0.00     0.020 C 
HETATM   14  C22 UNL     1      -0.385   5.308  11.516  1.00  0.00     0.021 C 
HETATM   15  C23 UNL     1       1.010   5.407  10.924  1.00  0.00     0.080 C 
HETATM   16  C24 UNL     1       1.331   6.859  10.656  1.00  0.00     0.135 C 
HETATM   17  O2  UNL     1       1.958   7.175   9.644  1.00  0.00    -0.297 OA
HETATM   18  C25 UNL     1       0.859   7.898  11.692  1.00  0.00     0.018 C 
HETATM   19  C26 UNL     1       2.025   8.895  11.884  1.00  0.00     0.023 C 
HETATM   20  C27 UNL     1      -0.323   8.664  11.081  1.00  0.00     0.023 C 
HETATM   21  C28 UNL     1       0.545   7.149  13.039  1.00  0.00     0.020 C 
HETATM   22  C29 UNL     1       0.207   8.054  14.228  1.00  0.00     0.090 C 
HETATM   23  C30 UNL     1      -1.204   8.566  14.173  1.00  0.00     0.157 C 
HETATM   24  O3  UNL     1      -1.461   9.722  14.498  1.00  0.00    -0.293 OA
ENDROOT
BRANCH   1  25
HETATM   25  C7  UNL     1      -7.211   6.575  15.027  1.00  0.00    -0.014 C 
HETATM   26  C8  UNL     1      -7.397   6.748  16.547  1.00  0.00     0.010 C 
BRANCH  25  27
HETATM   27  C6  UNL     1      -7.362   5.084  14.656  1.00  0.00     0.008 C 
BRANCH  27  28
HETATM   28  C5  UNL     1      -8.011   4.744  13.312  1.00  0.00     0.028 C 
BRANCH  28  29
HETATM   29  C4  UNL     1      -6.989   4.198  12.351  1.00  0.00    -0.017 C 
HETATM   30  C2  UNL     1      -6.684   2.906  12.133  1.00  0.00    -0.028 C 
HETATM   31  C1  UNL     1      -7.319   1.709  12.766  1.00  0.00     0.051 C 
BRANCH  30  32
HETATM   32  C3  UNL     1      -5.611   2.601  11.136  1.00  0.00     0.265 C 
HETATM   33  O1  UNL     1      -5.464   3.205  10.081  1.00  0.00    -0.302 OA
ENDBRANCH  30  32
ENDBRANCH  28  29
ENDBRANCH  27  28
ENDBRANCH  25  27
ENDBRANCH   1  25
TORSDOF 5
ENDMDL
MODEL 2
REMARK minimizedAffinity -8.576231
REMARK  5 active torsions:
REMARK  status: ('A' for Active; 'I' for Inactive)
REMARK    1  A    between atoms: C2_2  and  C3_3 
REMARK    2  A    between atoms: C4_5  and  C5_6 
REMARK    3  A    between atoms: C5_6  and  C6_7 
REMARK    4  A    between atoms: C6_7  and  C7_8 
REMARK    5  A    between atoms: C7_8  and  C9_10 
ROOT
HETATM    1  C9  UNL     1      -2.758   4.430  12.894  1.00  0.00    -0.002 C 
HETATM    2  C10 UNL     1      -1.890   4.871  11.692  1.00  0.00     0.007 C 
HETATM    3  C11 UNL     1      -1.367   6.289  12.023  1.00  0.00     0.015 C 
HETATM    4  C12 UNL     1      -1.638   6.480  13.533  1.00  0.00    -0.005 C 
HETATM    5  C13 UNL     1      -0.462   5.801  14.301  1.00  0.00     0.021 C 
HETATM    6  C14 UNL     1      -1.734   7.869  14.148  1.00  0.00    -0.000 C 
HETATM    7  C15 UNL     1      -2.512   8.112  15.235  1.00  0.00    -0.060 C 
HETATM    8  C16 UNL     1      -3.407   7.002  15.821  1.00  0.00     0.036 C 
HETATM    9  C17 UNL     1      -3.395   5.627  15.121  1.00  0.00     0.015 C 
HETATM   10  C18 UNL     1      -3.042   5.763  13.639  1.00  0.00    -0.028 C 
HETATM   11  C19 UNL     1      -4.173   6.573  12.937  1.00  0.00     0.016 C 
HETATM   12  C20 UNL     1      -2.599   9.493  15.931  1.00  0.00    -0.014 C 
HETATM   13  C21 UNL     1      -3.963  10.125  15.534  1.00  0.00     0.020 C 
HETATM   14  C22 UNL     1      -2.574   9.330  17.480  1.00  0.00     0.021 C 
HETATM   15  C23 UNL     1      -2.044  10.558  18.198  1.00  0.00     0.080 C 
HETATM   16  C24 UNL     1      -0.589  10.752  17.838  1.00  0.00     0.135 C 
HETATM   17  O2  UNL     1       0.213  11.131  18.693  1.00  0.00    -0.297 OA
HETATM   18  C25 UNL     1      -0.170  10.470  16.382  1.00  0.00     0.018 C 
HETATM   19  C26 UNL     1       0.795  11.606  15.970  1.00  0.00     0.023 C 
HETATM   20  C27 UNL     1       0.617   9.152  16.368  1.00  0.00     0.023 C 
HETATM   21  C28 UNL     1      -1.460  10.487  15.482  1.00  0.00     0.020 C 
HETATM   22  C29 UNL     1      -1.209  10.375  13.975  1.00  0.00     0.090 C 
HETATM   23  C30 UNL     1      -0.918   8.966  13.547  1.00  0.00     0.157 C 
HETATM   24  O3  UNL     1      -0.060   8.736  12.699  1.00  0.00    -0.293 OA
ENDROOT
BRANCH   1  25
HETATM   25  C7  UNL     1      -3.871   3.376  12.644  1.00  0.00    -0.014 C 
HETATM   26  C8  UNL     1      -3.281   2.182  11.867  1.00  0.00     0.010 C 
BRANCH  25  27
HETATM   27  C6  UNL     1      -5.233   3.767  12.031  1.00  0.00     0.008 C 
BRANCH  27  28
HETATM   28  C5  UNL     1      -6.499   3.250  12.717  1.00  0.00     0.028 C 
BRANCH  28  29
HETATM   29  C4  UNL     1      -6.944   4.199  13.797  1.00  0.00    -0.017 C 
HETATM   30  C2  UNL     1      -7.756   5.263  13.665  1.00  0.00    -0.028 C 
HETATM   31  C1  UNL     1      -8.439   5.728  12.418  1.00  0.00     0.051 C 
BRANCH  30  32
HETATM   32  C3  UNL     1      -8.044   6.078  14.886  1.00  0.00     0.265 C 
HETATM   33  O1  UNL     1      -8.017   5.636  16.027  1.00  0.00    -0.302 OA
ENDBRANCH  30  32
ENDBRANCH  28  29
ENDBRANCH  27  28
ENDBRANCH  25  27
ENDBRANCH   1  25
TORSDOF 5
ENDMDL
MODEL 3
REMARK minimizedAffinity -8.42309666
REMARK  5 active torsions:
REMARK  status: ('A' for Active; 'I' for Inactive)
REMARK    1  A    between atoms: C2_2  and  C3_3 
REMARK    2  A    between atoms: C4_5  and  C5_6 
REMARK    3  A    between atoms: C5_6  and  C6_7 
REMARK    4  A    between atoms: C6_7  and  C7_8 
REMARK    5  A    between atoms: C7_8  and  C9_10 
ROOT
HETATM    1  C9  UNL     1      -4.997   5.907  13.774  1.00  0.00    -0.002 C 
HETATM    2  C10 UNL     1      -4.223   5.348  12.557  1.00  0.00     0.007 C 
HETATM    3  C11 UNL     1      -2.842   6.045  12.555  1.00  0.00     0.015 C 
HETATM    4  C12 UNL     1      -2.715   6.700  13.949  1.00  0.00    -0.005 C 
HETATM    5  C13 UNL     1      -2.225   5.594  14.934  1.00  0.00     0.021 C 
HETATM    6  C14 UNL     1      -1.766   7.864  14.191  1.00  0.00    -0.000 C 
HETATM    7  C15 UNL     1      -2.025   8.810  15.132  1.00  0.00    -0.060 C 
HETATM    8  C16 UNL     1      -3.351   8.786  15.920  1.00  0.00     0.036 C 
HETATM    9  C17 UNL     1      -4.363   7.670  15.587  1.00  0.00     0.015 C 
HETATM   10  C18 UNL     1      -4.205   7.191  14.143  1.00  0.00    -0.028 C 
HETATM   11  C19 UNL     1      -4.566   8.371  13.192  1.00  0.00     0.016 C 
HETATM   12  C20 UNL     1      -1.064   9.981  15.454  1.00  0.00    -0.014 C 
HETATM   13  C21 UNL     1      -1.676  11.266  14.827  1.00  0.00     0.020 C 
HETATM   14  C22 UNL     1      -0.958  10.197  16.993  1.00  0.00     0.021 C 
HETATM   15  C23 UNL     1       0.350  10.843  17.413  1.00  0.00     0.080 C 
HETATM   16  C24 UNL     1       1.489   9.898  17.108  1.00  0.00     0.135 C 
HETATM   17  O2  UNL     1       2.437   9.802  17.890  1.00  0.00    -0.297 OA
HETATM   18  C25 UNL     1       1.416   9.091  15.797  1.00  0.00     0.018 C 
HETATM   19  C26 UNL     1       2.831   9.123  15.176  1.00  0.00     0.023 C 
HETATM   20  C27 UNL     1       1.092   7.635  16.162  1.00  0.00     0.023 C 
HETATM   21  C28 UNL     1       0.377   9.787  14.843  1.00  0.00     0.020 C 
HETATM   22  C29 UNL     1       0.290   9.201  13.431  1.00  0.00     0.090 C 
HETATM   23  C30 UNL     1      -0.508   7.929  13.388  1.00  0.00     0.157 C 
HETATM   24  O3  UNL     1      -0.151   6.992  12.678  1.00  0.00    -0.293 OA
ENDROOT
BRANCH   1  25
HETATM   25  C7  UNL     1      -6.549   5.885  13.726  1.00  0.00    -0.014 C 
HETATM   26  C8  UNL     1      -7.100   5.495  15.112  1.00  0.00     0.010 C 
BRANCH  25  27
HETATM   27  C6  UNL     1      -7.314   5.111  12.631  1.00  0.00     0.008 C 
BRANCH  27  28
HETATM   28  C5  UNL     1      -7.215   3.584  12.635  1.00  0.00     0.028 C 
BRANCH  28  29
HETATM   29  C4  UNL     1      -5.814   3.140  12.311  1.00  0.00    -0.017 C 
HETATM   30  C2  UNL     1      -5.444   2.050  11.614  1.00  0.00    -0.028 C 
HETATM   31  C1  UNL     1      -6.343   1.046  10.965  1.00  0.00     0.051 C 
BRANCH  30  32
HETATM   32  C3  UNL     1      -3.981   1.801  11.433  1.00  0.00     0.265 C 
HETATM   33  O1  UNL     1      -3.410   0.777  11.785  1.00  0.00    -0.302 OA
ENDBRANCH  30  32
ENDBRANCH  28  29
ENDBRANCH  27  28
ENDBRANCH  25  27
ENDBRANCH   1  25
TORSDOF 5
ENDMDL
MODEL 4
REMARK minimizedAffinity -8.29505157
REMARK  5 active torsions:
REMARK  status: ('A' for Active; 'I' for Inactive)
REMARK    1  A    between atoms: C2_2  and  C3_3 
REMARK    2  A    between atoms: C4_5  and  C5_6 
REMARK    3  A    between atoms: C5_6  and  C6_7 
REMARK    4  A    between atoms: C6_7  and  C7_8 
REMARK    5  A    between atoms: C7_8  and  C9_10 
ROOT
HETATM    1  C9  UNL     1      -1.054   7.387  13.593  1.00  0.00    -0.002 C 
HETATM    2  C10 UNL     1      -0.790   7.199  15.105  1.00  0.00     0.007 C 
HETATM    3  C11 UNL     1       0.725   7.432  15.320  1.00  0.00     0.015 C 
HETATM    4  C12 UNL     1       1.222   8.096  14.017  1.00  0.00    -0.005 C 
HETATM    5  C13 UNL     1       0.909   9.621  14.128  1.00  0.00     0.021 C 
HETATM    6  C14 UNL     1       2.689   8.044  13.615  1.00  0.00    -0.000 C 
HETATM    7  C15 UNL     1       3.069   8.056  12.310  1.00  0.00    -0.060 C 
HETATM    8  C16 UNL     1       2.014   8.021  11.187  1.00  0.00     0.036 C 
HETATM    9  C17 UNL     1       0.529   7.955  11.600  1.00  0.00     0.015 C 
HETATM   10  C18 UNL     1       0.363   7.286  12.966  1.00  0.00    -0.028 C 
HETATM   11  C19 UNL     1       0.824   5.803  12.846  1.00  0.00     0.016 C 
HETATM   12  C20 UNL     1       4.549   8.062  11.852  1.00  0.00    -0.014 C 
HETATM   13  C21 UNL     1       4.877   6.633  11.333  1.00  0.00     0.020 C 
HETATM   14  C22 UNL     1       4.756   9.062  10.676  1.00  0.00     0.021 C 
HETATM   15  C23 UNL     1       6.179   9.585  10.584  1.00  0.00     0.080 C 
HETATM   16  C24 UNL     1       6.482  10.412  11.811  1.00  0.00     0.135 C 
HETATM   17  O2  UNL     1       7.157  11.438  11.713  1.00  0.00    -0.297 OA
HETATM   18  C25 UNL     1       5.930   9.915  13.162  1.00  0.00     0.018 C 
HETATM   19  C26 UNL     1       7.060  10.102  14.200  1.00  0.00     0.023 C 
HETATM   20  C27 UNL     1       4.766  10.835  13.559  1.00  0.00     0.023 C 
HETATM   21  C28 UNL     1       5.559   8.393  13.017  1.00  0.00     0.020 C 
HETATM   22  C29 UNL     1       5.135   7.696  14.313  1.00  0.00     0.090 C 
HETATM   23  C30 UNL     1       3.718   8.015  14.697  1.00  0.00     0.157 C 
HETATM   24  O3  UNL     1       3.417   8.203  15.872  1.00  0.00    -0.293 OA
ENDROOT
BRANCH   1  25
HETATM   25  C7  UNL     1      -2.281   6.666  12.970  1.00  0.00    -0.014 C 
HETATM   26  C8  UNL     1      -3.483   7.631  12.940  1.00  0.00     0.010 C 
BRANCH  25  27
HETATM   27  C6  UNL     1      -2.745   5.281  13.470  1.00  0.00     0.008 C 
BRANCH  27  28
HETATM   28  C5  UNL     1      -3.487   4.377  12.483  1.00  0.00     0.028 C 
BRANCH  28  29
HETATM   29  C4  UNL     1      -4.934   4.238  12.874  1.00  0.00    -0.017 C 
HETATM   30  C2  UNL     1      -5.828   3.357  12.389  1.00  0.00    -0.028 C 
HETATM   31  C1  UNL     1      -5.581   2.284  11.378  1.00  0.00     0.051 C 
BRANCH  30  32
HETATM   32  C3  UNL     1      -7.226   3.420  12.918  1.00  0.00     0.265 C 
HETATM   33  O1  UNL     1      -8.007   2.477  12.906  1.00  0.00    -0.302 OA
ENDBRANCH  30  32
ENDBRANCH  28  29
ENDBRANCH  27  28
ENDBRANCH  25  27
ENDBRANCH   1  25
TORSDOF 5
ENDMDL
MODEL 5
REMARK minimizedAffinity -8.28527451
REMARK  5 active torsions:
REMARK  status: ('A' for Active; 'I' for Inactive)
REMARK    1  A    between atoms: C2_2  and  C3_3 
REMARK    2  A    between atoms: C4_5  and  C5_6 
REMARK    3  A    between atoms: C5_6  and  C6_7 
REMARK    4  A    between atoms: C6_7  and  C7_8 
REMARK    5  A    between atoms: C7_8  and  C9_10 
ROOT
HETATM    1  C9  UNL     1      -2.843   4.280  12.641  1.00  0.00    -0.002 C 
HETATM    2  C10 UNL     1      -2.031   4.238  11.326  1.00  0.00     0.007 C 
HETATM    3  C11 UNL     1      -0.970   5.361  11.427  1.00  0.00     0.015 C 
HETATM    4  C12 UNL     1      -0.956   5.772  12.916  1.00  0.00    -0.005 C 
HETATM    5  C13 UNL     1      -0.040   4.755  13.666  1.00  0.00     0.021 C 
HETATM    6  C14 UNL     1      -0.437   7.135  13.353  1.00  0.00    -0.000 C 
HETATM    7  C15 UNL     1      -0.920   7.758  14.460  1.00  0.00    -0.060 C 
HETATM    8  C16 UNL     1      -2.089   7.143  15.256  1.00  0.00     0.036 C 
HETATM    9  C17 UNL     1      -2.690   5.819  14.740  1.00  0.00     0.015 C 
HETATM   10  C18 UNL     1      -2.502   5.676  13.229  1.00  0.00    -0.028 C 
HETATM   11  C19 UNL     1      -3.317   6.801  12.524  1.00  0.00     0.016 C 
HETATM   12  C20 UNL     1      -0.386   9.116  14.977  1.00  0.00    -0.014 C 
HETATM   13  C21 UNL     1      -1.445  10.196  14.615  1.00  0.00     0.020 C 
HETATM   14  C22 UNL     1      -0.231   9.092  16.527  1.00  0.00     0.021 C 
HETATM   15  C23 UNL     1       0.813  10.071  17.035  1.00  0.00     0.080 C 
HETATM   16  C24 UNL     1       2.174   9.645  16.535  1.00  0.00     0.135 C 
HETATM   17  O2  UNL     1       3.161   9.752  17.265  1.00  0.00    -0.297 OA
HETATM   18  C25 UNL     1       2.268   9.097  15.097  1.00  0.00     0.018 C 
HETATM   19  C26 UNL     1       3.532   9.722  14.464  1.00  0.00     0.023 C 
HETATM   20  C27 UNL     1       2.485   7.579  15.189  1.00  0.00     0.023 C 
HETATM   21  C28 UNL     1       0.979   9.541  14.312  1.00  0.00     0.020 C 
HETATM   22  C29 UNL     1       0.977   9.209  12.817  1.00  0.00     0.090 C 
HETATM   23  C30 UNL     1       0.653   7.767  12.552  1.00  0.00     0.157 C 
HETATM   24  O3  UNL     1       1.244   7.146  11.672  1.00  0.00    -0.293 OA
ENDROOT
BRANCH   1  25
HETATM   25  C7  UNL     1      -4.295   3.730  12.621  1.00  0.00    -0.014 C 
HETATM   26  C8  UNL     1      -4.676   3.339  11.179  1.00  0.00     0.010 C 
BRANCH  25  27
HETATM   27  C6  UNL     1      -5.462   4.504  13.270  1.00  0.00     0.008 C 
BRANCH  27  28
HETATM   28  C5  UNL     1      -6.886   4.024  12.981  1.00  0.00     0.028 C 
BRANCH  28  29
HETATM   29  C4  UNL     1      -7.897   4.970  13.571  1.00  0.00    -0.017 C 
HETATM   30  C2  UNL     1      -8.749   5.772  12.906  1.00  0.00    -0.028 C 
HETATM   31  C1  UNL     1      -8.917   5.879  11.424  1.00  0.00     0.051 C 
BRANCH  30  32
HETATM   32  C3  UNL     1      -9.656   6.647  13.711  1.00  0.00     0.265 C 
HETATM   33  O1  UNL     1     -10.838   6.831  13.454  1.00  0.00    -0.302 OA
ENDBRANCH  30  32
ENDBRANCH  28  29
ENDBRANCH  27  28
ENDBRANCH  25  27
ENDBRANCH   1  25
TORSDOF 5
ENDMDL
MODEL 6
REMARK minimizedAffinity -8.26245022
REMARK  5 active torsions:
REMARK  status: ('A' for Active; 'I' for Inactive)
REMARK    1  A    between atoms: C2_2  and  C3_3 
REMARK    2  A    between atoms: C4_5  and  C5_6 
REMARK    3  A    between atoms: C5_6  and  C6_7 
REMARK    4  A    between atoms: C6_7  and  C7_8 
REMARK    5  A    between atoms: C7_8  and  C9_10 
ROOT
HETATM    1  C9  UNL     1      -4.212   5.051  13.408  1.00  0.00    -0.002 C 
HETATM    2  C10 UNL     1      -3.355   4.732  12.161  1.00  0.00     0.007 C 
HETATM    3  C11 UNL     1      -2.115   5.656  12.230  1.00  0.00     0.015 C 
HETATM    4  C12 UNL     1      -2.102   6.211  13.672  1.00  0.00    -0.005 C 
HETATM    5  C13 UNL     1      -1.426   5.132  14.574  1.00  0.00     0.021 C 
HETATM    6  C14 UNL     1      -1.369   7.499  14.015  1.00  0.00    -0.000 C 
HETATM    7  C15 UNL     1      -1.787   8.308  15.024  1.00  0.00    -0.060 C 
HETATM    8  C16 UNL     1      -3.087   7.994  15.791  1.00  0.00     0.036 C 
HETATM    9  C17 UNL     1      -3.891   6.749  15.361  1.00  0.00     0.015 C 
HETATM   10  C18 UNL     1      -3.654   6.420  13.886  1.00  0.00    -0.028 C 
HETATM   11  C19 UNL     1      -4.216   7.591  13.025  1.00  0.00     0.016 C 
HETATM   12  C20 UNL     1      -1.043   9.598  15.448  1.00  0.00    -0.014 C 
HETATM   13  C21 UNL     1      -1.869  10.804  14.916  1.00  0.00     0.020 C 
HETATM   14  C22 UNL     1      -0.973   9.708  17.001  1.00  0.00     0.021 C 
HETATM   15  C23 UNL     1       0.204  10.535  17.486  1.00  0.00     0.080 C 
HETATM   16  C24 UNL     1       1.489   9.829  17.122  1.00  0.00     0.135 C 
HETATM   17  O2  UNL     1       2.440   9.836  17.905  1.00  0.00    -0.297 OA
HETATM   18  C25 UNL     1       1.554   9.127  15.751  1.00  0.00     0.018 C 
HETATM   19  C26 UNL     1       2.942   9.452  15.151  1.00  0.00     0.023 C 
HETATM   20  C27 UNL     1       1.488   7.612  15.998  1.00  0.00     0.023 C 
HETATM   21  C28 UNL     1       0.409   9.706  14.842  1.00  0.00     0.020 C 
HETATM   22  C29 UNL     1       0.423   9.227  13.387  1.00  0.00     0.090 C 
HETATM   23  C30 UNL     1      -0.143   7.844  13.235  1.00  0.00     0.157 C 
HETATM   24  O3  UNL     1       0.370   7.041  12.459  1.00  0.00    -0.293 OA
ENDROOT
BRANCH   1  25
HETATM   25  C7  UNL     1      -5.737   4.765  13.340  1.00  0.00    -0.014 C 
HETATM   26  C8  UNL     1      -5.999   3.613  12.349  1.00  0.00     0.010 C 
BRANCH  25  27
HETATM   27  C6  UNL     1      -6.762   5.894  13.099  1.00  0.00     0.008 C 
BRANCH  27  28
HETATM   28  C5  UNL     1      -8.248   5.533  13.154  1.00  0.00     0.028 C 
BRANCH  28  29
HETATM   29  C4  UNL     1      -9.021   6.574  13.919  1.00  0.00    -0.017 C 
HETATM   30  C2  UNL     1      -8.890   6.894  15.219  1.00  0.00    -0.028 C 
HETATM   31  C1  UNL     1      -7.917   6.318  16.197  1.00  0.00     0.051 C 
BRANCH  30  32
HETATM   32  C3  UNL     1      -9.788   7.956  15.769  1.00  0.00     0.265 C 
HETATM   33  O1  UNL     1      -9.687   8.424  16.896  1.00  0.00    -0.302 OA
ENDBRANCH  30  32
ENDBRANCH  28  29
ENDBRANCH  27  28
ENDBRANCH  25  27
ENDBRANCH   1  25
TORSDOF 5
ENDMDL
MODEL 7
REMARK minimizedAffinity -8.18084908
REMARK  5 active torsions:
REMARK  status: ('A' for Active; 'I' for Inactive)
REMARK    1  A    between atoms: C2_2  and  C3_3 
REMARK    2  A    between atoms: C4_5  and  C5_6 
REMARK    3  A    between atoms: C5_6  and  C6_7 
REMARK    4  A    between atoms: C6_7  and  C7_8 
REMARK    5  A    between atoms: C7_8  and  C9_10 
ROOT
HETATM    1  C9  UNL     1      -4.698   5.884  13.070  1.00  0.00    -0.002 C 
HETATM    2  C10 UNL     1      -5.732   6.326  14.133  1.00  0.00     0.007 C 
HETATM    3  C11 UNL     1      -5.016   7.351  15.044  1.00  0.00     0.015 C 
HETATM    4  C12 UNL     1      -3.730   7.744  14.282  1.00  0.00    -0.005 C 
HETATM    5  C13 UNL     1      -4.126   8.845  13.250  1.00  0.00     0.021 C 
HETATM    6  C14 UNL     1      -2.528   8.328  15.011  1.00  0.00    -0.000 C 
HETATM    7  C15 UNL     1      -1.261   8.137  14.559  1.00  0.00    -0.060 C 
HETATM    8  C16 UNL     1      -0.994   7.229  13.341  1.00  0.00     0.036 C 
HETATM    9  C17 UNL     1      -2.206   6.544  12.677  1.00  0.00     0.015 C 
HETATM   10  C18 UNL     1      -3.343   6.336  13.680  1.00  0.00    -0.028 C 
HETATM   11  C19 UNL     1      -2.855   5.340  14.775  1.00  0.00     0.016 C 
HETATM   12  C20 UNL     1      -0.012   8.757  15.232  1.00  0.00    -0.014 C 
HETATM   13  C21 UNL     1       0.710   7.617  16.004  1.00  0.00     0.020 C 
HETATM   14  C22 UNL     1       0.972   9.312  14.158  1.00  0.00     0.021 C 
HETATM   15  C23 UNL     1       1.855  10.430  14.683  1.00  0.00     0.080 C 
HETATM   16  C24 UNL     1       0.992  11.622  15.023  1.00  0.00     0.135 C 
HETATM   17  O2  UNL     1       1.394  12.763  14.786  1.00  0.00    -0.297 OA
HETATM   18  C25 UNL     1      -0.377  11.350  15.678  1.00  0.00     0.018 C 
HETATM   19  C26 UNL     1      -0.544  12.392  16.808  1.00  0.00     0.023 C 
HETATM   20  C27 UNL     1      -1.461  11.617  14.624  1.00  0.00     0.023 C 
HETATM   21  C28 UNL     1      -0.364   9.892  16.268  1.00  0.00     0.020 C 
HETATM   22  C29 UNL     1      -1.597   9.508  17.091  1.00  0.00     0.090 C 
HETATM   23  C30 UNL     1      -2.774   9.158  16.228  1.00  0.00     0.157 C 
HETATM   24  O3  UNL     1      -3.907   9.513  16.544  1.00  0.00    -0.293 OA
ENDROOT
BRANCH   1  25
HETATM   25  C7  UNL     1      -4.878   4.489  12.412  1.00  0.00    -0.014 C 
HETATM   26  C8  UNL     1      -6.225   3.883  12.854  1.00  0.00     0.010 C 
BRANCH  25  27
HETATM   27  C6  UNL     1      -3.777   3.410  12.490  1.00  0.00     0.008 C 
BRANCH  27  28
HETATM   28  C5  UNL     1      -4.151   1.978  12.098  1.00  0.00     0.028 C 
BRANCH  28  29
HETATM   29  C4  UNL     1      -2.978   1.275  11.470  1.00  0.00    -0.017 C 
HETATM   30  C2  UNL     1      -1.788   1.809  11.138  1.00  0.00    -0.028 C 
HETATM   31  C1  UNL     1      -1.341   3.220  11.355  1.00  0.00     0.051 C 
BRANCH  30  32
HETATM   32  C3  UNL     1      -0.774   0.913  10.503  1.00  0.00     0.265 C 
HETATM   33  O1  UNL     1      -0.117   0.079  11.112  1.00  0.00    -0.302 OA
ENDBRANCH  30  32
ENDBRANCH  28  29
ENDBRANCH  27  28
ENDBRANCH  25  27
ENDBRANCH   1  25
TORSDOF 5
ENDMDL
MODEL 8
REMARK minimizedAffinity -8.1636858
REMARK  5 active torsions:
REMARK  status: ('A' for Active; 'I' for Inactive)
REMARK    1  A    between atoms: C2_2  and  C3_3 
REMARK    2  A    between atoms: C4_5  and  C5_6 
REMARK    3  A    between atoms: C5_6  and  C6_7 
REMARK    4  A    between atoms: C6_7  and  C7_8 
REMARK    5  A    between atoms: C7_8  and  C9_10 
ROOT
HETATM    1  C9  UNL     1      -3.811   8.881  14.557  1.00  0.00    -0.002 C 
HETATM    2  C10 UNL     1      -3.498   8.850  16.072  1.00  0.00     0.007 C 
HETATM    3  C11 UNL     1      -1.971   8.639  16.202  1.00  0.00     0.015 C 
HETATM    4  C12 UNL     1      -1.400   8.917  14.793  1.00  0.00    -0.005 C 
HETATM    5  C13 UNL     1      -1.238  10.463  14.659  1.00  0.00     0.021 C 
HETATM    6  C14 UNL     1      -0.051   8.360  14.364  1.00  0.00    -0.000 C 
HETATM    7  C15 UNL     1       0.215   8.061  13.066  1.00  0.00    -0.060 C 
HETATM    8  C16 UNL     1      -0.887   8.182  11.994  1.00  0.00     0.036 C 
HETATM    9  C17 UNL     1      -2.289   8.634  12.454  1.00  0.00     0.015 C 
HETATM   10  C18 UNL     1      -2.539   8.260  13.916  1.00  0.00    -0.028 C 
HETATM   11  C19 UNL     1      -2.550   6.706  14.031  1.00  0.00     0.016 C 
HETATM   12  C20 UNL     1       1.590   7.546  12.572  1.00  0.00    -0.014 C 
HETATM   13  C21 UNL     1       1.438   6.025  12.288  1.00  0.00     0.020 C 
HETATM   14  C22 UNL     1       1.993   8.248  11.241  1.00  0.00     0.021 C 
HETATM   15  C23 UNL     1       3.495   8.292  11.024  1.00  0.00     0.080 C 
HETATM   16  C24 UNL     1       4.123   9.162  12.088  1.00  0.00     0.135 C 
HETATM   17  O2  UNL     1       5.062   9.906  11.802  1.00  0.00    -0.297 OA
HETATM   18  C25 UNL     1       3.554   9.065  13.517  1.00  0.00     0.018 C 
HETATM   19  C26 UNL     1       4.765   9.051  14.478  1.00  0.00     0.023 C 
HETATM   20  C27 UNL     1       2.749  10.344  13.789  1.00  0.00     0.023 C 
HETATM   21  C28 UNL     1       2.739   7.725  13.637  1.00  0.00     0.020 C 
HETATM   22  C29 UNL     1       2.228   7.392  15.042  1.00  0.00     0.090 C 
HETATM   23  C30 UNL     1       1.003   8.181  15.407  1.00  0.00     0.157 C 
HETATM   24  O3  UNL     1       0.864   8.626  16.543  1.00  0.00    -0.293 OA
ENDROOT
BRANCH   1  25
HETATM   25  C7  UNL     1      -5.240   8.484  14.097  1.00  0.00    -0.014 C 
HETATM   26  C8  UNL     1      -6.178   8.439  15.319  1.00  0.00     0.010 C 
BRANCH  25  27
HETATM   27  C6  UNL     1      -5.489   7.244  13.211  1.00  0.00     0.008 C 
BRANCH  27  28
HETATM   28  C5  UNL     1      -5.937   5.953  13.899  1.00  0.00     0.028 C 
BRANCH  28  29
HETATM   29  C4  UNL     1      -5.635   4.758  13.036  1.00  0.00    -0.017 C 
HETATM   30  C2  UNL     1      -6.487   3.787  12.660  1.00  0.00    -0.028 C 
HETATM   31  C1  UNL     1      -7.945   3.692  12.979  1.00  0.00     0.051 C 
BRANCH  30  32
HETATM   32  C3  UNL     1      -5.951   2.679  11.809  1.00  0.00     0.265 C 
HETATM   33  O1  UNL     1      -6.526   1.614  11.628  1.00  0.00    -0.302 OA
ENDBRANCH  30  32
ENDBRANCH  28  29
ENDBRANCH  27  28
ENDBRANCH  25  27
ENDBRANCH   1  25
TORSDOF 5
ENDMDL
MODEL 9
REMARK minimizedAffinity -8.00742722
REMARK  5 active torsions:
REMARK  status: ('A' for Active; 'I' for Inactive)
REMARK    1  A    between atoms: C2_2  and  C3_3 
REMARK    2  A    between atoms: C4_5  and  C5_6 
REMARK    3  A    between atoms: C5_6  and  C6_7 
REMARK    4  A    between atoms: C6_7  and  C7_8 
REMARK    5  A    between atoms: C7_8  and  C9_10 
ROOT
HETATM    1  C9  UNL     1      -3.222   5.510  12.629  1.00  0.00    -0.002 C 
HETATM    2  C10 UNL     1      -4.427   5.685  13.582  1.00  0.00     0.007 C 
HETATM    3  C11 UNL     1      -4.052   6.821  14.563  1.00  0.00     0.015 C 
HETATM    4  C12 UNL     1      -2.819   7.509  13.936  1.00  0.00    -0.005 C 
HETATM    5  C13 UNL     1      -3.348   8.519  12.871  1.00  0.00     0.021 C 
HETATM    6  C14 UNL     1      -1.856   8.328  14.784  1.00  0.00    -0.000 C 
HETATM    7  C15 UNL     1      -0.540   8.434  14.462  1.00  0.00    -0.060 C 
HETATM    8  C16 UNL     1       0.042   7.639  13.275  1.00  0.00     0.036 C 
HETATM    9  C17 UNL     1      -0.915   6.718  12.491  1.00  0.00     0.015 C 
HETATM   10  C18 UNL     1      -2.068   6.237  13.373  1.00  0.00    -0.028 C 
HETATM   11  C19 UNL     1      -1.480   5.348  14.510  1.00  0.00     0.016 C 
HETATM   12  C20 UNL     1       0.467   9.300  15.259  1.00  0.00    -0.014 C 
HETATM   13  C21 UNL     1       1.346   8.331  16.098  1.00  0.00     0.020 C 
HETATM   14  C22 UNL     1       1.402  10.086  14.292  1.00  0.00     0.021 C 
HETATM   15  C23 UNL     1       1.956  11.359  14.905  1.00  0.00     0.080 C 
HETATM   16  C24 UNL     1       0.819  12.321  15.159  1.00  0.00     0.135 C 
HETATM   17  O2  UNL     1       0.976  13.528  14.966  1.00  0.00    -0.297 OA
HETATM   18  C25 UNL     1      -0.512  11.735  15.671  1.00  0.00     0.018 C 
HETATM   19  C26 UNL     1      -1.018  12.685  16.781  1.00  0.00     0.023 C 
HETATM   20  C27 UNL     1      -1.520  11.780  14.514  1.00  0.00     0.023 C 
HETATM   21  C28 UNL     1      -0.230  10.303  16.257  1.00  0.00     0.020 C 
HETATM   22  C29 UNL     1      -1.420   9.633  16.950  1.00  0.00     0.090 C 
HETATM   23  C30 UNL     1      -2.400   9.051  15.971  1.00  0.00     0.157 C 
HETATM   24  O3  UNL     1      -3.608   9.137  16.172  1.00  0.00    -0.293 OA
ENDROOT
BRANCH   1  25
HETATM   25  C7  UNL     1      -3.019   4.127  11.952  1.00  0.00    -0.014 C 
HETATM   26  C8  UNL     1      -1.673   4.116  11.200  1.00  0.00     0.010 C 
BRANCH  25  27
HETATM   27  C6  UNL     1      -4.111   3.493  11.064  1.00  0.00     0.008 C 
BRANCH  27  28
HETATM   28  C5  UNL     1      -5.321   2.864  11.759  1.00  0.00     0.028 C 
BRANCH  28  29
HETATM   29  C4  UNL     1      -6.502   3.796  11.718  1.00  0.00    -0.017 C 
HETATM   30  C2  UNL     1      -7.417   3.996  12.684  1.00  0.00    -0.028 C 
HETATM   31  C1  UNL     1      -7.450   3.366  14.040  1.00  0.00     0.051 C 
BRANCH  30  32
HETATM   32  C3  UNL     1      -8.522   4.965  12.409  1.00  0.00     0.265 C 
HETATM   33  O1  UNL     1      -8.795   5.917  13.128  1.00  0.00    -0.302 OA
ENDBRANCH  30  32
ENDBRANCH  28  29
ENDBRANCH  27  28
ENDBRANCH  25  27
ENDBRANCH   1  25
TORSDOF 5
ENDMDL
