MODEL 1
REMARK minimizedAffinity -10.2075586
REMARK  11 active torsions:
REMARK  status: ('A' for Active; 'I' for Inactive)
REMARK    1  A    between atoms: C2_2  and  C3_3 
REMARK    2  A    between atoms: C2_2  and  C10_11 
REMARK    3  A    between atoms: C4_4  and  C5_5 
REMARK    4  A    between atoms: C5_5  and  C7_7 
REMARK    5  A    between atoms: C7_7  and  C9_9 
REMARK    6  A    between atoms: C9_9  and  O1_10 
REMARK    7  A    between atoms: C11_12  and  O2_13 
REMARK    8  A    between atoms: C12_14  and  O3_15 
REMARK    9  A    between atoms: C23_26  and  O4_27 
REMARK   10  A    between atoms: C26_30  and  O5_31 
REMARK   11  A    between atoms: C28_33  and  O6_34 
ROOT
HETATM    1  C10 UNL     1      -5.635   5.422  13.054  1.00  0.00     0.033 C 
HETATM    2  C11 UNL     1      -6.549   4.300  12.472  1.00  0.00     0.152 C 
HETATM    3  C12 UNL     1      -8.013   4.747  12.751  1.00  0.00     0.155 C 
HETATM    4  C13 UNL     1      -7.868   6.151  13.342  1.00  0.00     0.060 C 
HETATM    5  C14 UNL     1      -6.529   6.098  14.145  1.00  0.00    -0.028 C 
HETATM    6  C15 UNL     1      -6.563   5.282  15.460  1.00  0.00     0.016 C 
HETATM    7  C16 UNL     1      -6.149   7.549  14.487  1.00  0.00     0.011 C 
HETATM    8  C17 UNL     1      -7.275   8.267  15.259  1.00  0.00     0.009 C 
HETATM    9  C18 UNL     1      -8.625   8.251  14.490  1.00  0.00     0.029 C 
HETATM   10  C19 UNL     1      -9.771   9.102  15.166  1.00  0.00    -0.031 C 
HETATM   11  C20 UNL     1     -10.086   8.588  16.596  1.00  0.00     0.016 C 
HETATM   12  C21 UNL     1      -9.322  10.598  15.291  1.00  0.00     0.012 C 
HETATM   13  C22 UNL     1     -10.368  11.637  14.857  1.00  0.00     0.032 C 
HETATM   14  C23 UNL     1     -11.795  11.279  15.254  1.00  0.00     0.118 C 
HETATM   15  C24 UNL     1     -12.207   9.868  14.809  1.00  0.00     0.039 C 
HETATM   16  C25 UNL     1     -11.029   9.044  14.243  1.00  0.00     0.025 C 
HETATM   17  C26 UNL     1     -11.455   7.609  13.885  1.00  0.00     0.126 C 
HETATM   18  C27 UNL     1     -10.312   6.833  13.224  1.00  0.00     0.071 C 
HETATM   19  C28 UNL     1      -9.051   6.796  14.094  1.00  0.00     0.071 C 
ENDROOT
BRANCH   1  20
HETATM   20  C2  UNL     1      -4.139   5.098  13.333  1.00  0.00     0.011 C 
HETATM   21  C1  UNL     1      -3.406   6.346  13.856  1.00  0.00     0.015 C 
BRANCH  20  22
HETATM   22  C3  UNL     1      -3.350   4.376  12.265  1.00  0.00    -0.026 C 
HETATM   23  C4  UNL     1      -2.025   4.164  12.247  1.00  0.00    -0.026 C 
BRANCH  23  24
HETATM   24  C5  UNL     1      -1.297   3.475  11.115  1.00  0.00     0.009 C 
HETATM   25  C6  UNL     1       0.189   3.379  11.480  1.00  0.00     0.014 C 
BRANCH  24  26
HETATM   26  C7  UNL     1      -1.945   2.116  10.735  1.00  0.00     0.012 C 
HETATM   27  C8  UNL     1      -3.067   1.671  11.682  1.00  0.00     0.012 C 
BRANCH  26  28
HETATM   28  C9  UNL     1      -0.882   1.011  10.618  1.00  0.00     0.168 C 
BRANCH  28  29
HETATM   29  O1  UNL     1      -0.664   0.688   9.250  1.00  0.00    -0.400 OA
HETATM   30  H17 UNL     1      -0.009  -0.027   9.228  1.00  0.00     0.209 HD
ENDBRANCH  28  29
ENDBRANCH  26  28
ENDBRANCH  24  26
ENDBRANCH  23  24
ENDBRANCH  20  22
ENDBRANCH   1  20
BRANCH   2  31
HETATM   31  O2  UNL     1      -6.306   3.010  13.004  1.00  0.00    -0.393 OA
HETATM   32  H20 UNL     1      -7.049   2.816  13.613  1.00  0.00     0.210 HD
ENDBRANCH   2  31
BRANCH   3  33
HETATM   33  O3  UNL     1      -8.661   3.855  13.663  1.00  0.00    -0.392 OA
HETATM   34  H22 UNL     1      -9.341   3.384  13.155  1.00  0.00     0.210 HD
ENDBRANCH   3  33
BRANCH  19  35
HETATM   35  O6  UNL     1      -9.385   6.029  15.241  1.00  0.00    -0.389 OA
HETATM   36  H48 UNL     1      -9.297   5.082  15.002  1.00  0.00     0.210 HD
ENDBRANCH  19  35
BRANCH  17  37
HETATM   37  O5  UNL     1     -12.551   7.636  12.962  1.00  0.00    -0.395 OA
HETATM   38  H45 UNL     1     -12.289   8.189  12.201  1.00  0.00     0.210 HD
ENDBRANCH  17  37
BRANCH  14  39
HETATM   39  O4  UNL     1     -11.939  11.387  16.670  1.00  0.00    -0.396 OA
HETATM   40  H40 UNL     1     -11.704  12.298  16.925  1.00  0.00     0.210 HD
ENDBRANCH  14  39
TORSDOF 11
ENDMDL
MODEL 2
REMARK minimizedAffinity -10.0481615
REMARK  11 active torsions:
REMARK  status: ('A' for Active; 'I' for Inactive)
REMARK    1  A    between atoms: C2_2  and  C3_3 
REMARK    2  A    between atoms: C2_2  and  C10_11 
REMARK    3  A    between atoms: C4_4  and  C5_5 
REMARK    4  A    between atoms: C5_5  and  C7_7 
REMARK    5  A    between atoms: C7_7  and  C9_9 
REMARK    6  A    between atoms: C9_9  and  O1_10 
REMARK    7  A    between atoms: C11_12  and  O2_13 
REMARK    8  A    between atoms: C12_14  and  O3_15 
REMARK    9  A    between atoms: C23_26  and  O4_27 
REMARK   10  A    between atoms: C26_30  and  O5_31 
REMARK   11  A    between atoms: C28_33  and  O6_34 
ROOT
HETATM    1  C10 UNL     1      -5.001   7.786  13.938  1.00  0.00     0.033 C 
HETATM    2  C11 UNL     1      -4.783   8.996  14.899  1.00  0.00     0.152 C 
HETATM    3  C12 UNL     1      -3.254   9.285  14.890  1.00  0.00     0.155 C 
HETATM    4  C13 UNL     1      -2.700   8.332  13.830  1.00  0.00     0.060 C 
HETATM    5  C14 UNL     1      -3.611   7.067  13.931  1.00  0.00    -0.028 C 
HETATM    6  C15 UNL     1      -3.403   6.185  15.186  1.00  0.00     0.016 C 
HETATM    7  C16 UNL     1      -3.333   6.208  12.685  1.00  0.00     0.011 C 
HETATM    8  C17 UNL     1      -1.838   5.853  12.559  1.00  0.00     0.009 C 
HETATM    9  C18 UNL     1      -0.928   7.112  12.535  1.00  0.00     0.029 C 
HETATM   10  C19 UNL     1       0.597   6.811  12.256  1.00  0.00    -0.031 C 
HETATM   11  C20 UNL     1       1.193   5.873  13.339  1.00  0.00     0.016 C 
HETATM   12  C21 UNL     1       0.755   6.094  10.872  1.00  0.00     0.012 C 
HETATM   13  C22 UNL     1       1.872   6.644   9.971  1.00  0.00     0.032 C 
HETATM   14  C23 UNL     1       3.136   7.037  10.726  1.00  0.00     0.118 C 
HETATM   15  C24 UNL     1       2.863   7.987  11.901  1.00  0.00     0.039 C 
HETATM   16  C25 UNL     1       1.358   8.173  12.192  1.00  0.00     0.025 C 
HETATM   17  C26 UNL     1       1.120   9.061  13.426  1.00  0.00     0.126 C 
HETATM   18  C27 UNL     1      -0.372   9.331  13.645  1.00  0.00     0.071 C 
HETATM   19  C28 UNL     1      -1.186   8.039  13.773  1.00  0.00     0.071 C 
ENDROOT
BRANCH   1  20
HETATM   20  C2  UNL     1      -6.322   6.973  14.049  1.00  0.00     0.011 C 
HETATM   21  C1  UNL     1      -7.140   7.436  15.267  1.00  0.00     0.015 C 
BRANCH  20  22
HETATM   22  C3  UNL     1      -6.248   5.466  13.948  1.00  0.00    -0.026 C 
HETATM   23  C4  UNL     1      -6.348   4.727  12.833  1.00  0.00    -0.026 C 
BRANCH  23  24
HETATM   24  C5  UNL     1      -6.315   3.216  12.818  1.00  0.00     0.009 C 
HETATM   25  C6  UNL     1      -7.748   2.696  12.984  1.00  0.00     0.014 C 
BRANCH  24  26
HETATM   26  C7  UNL     1      -5.578   2.652  11.572  1.00  0.00     0.012 C 
HETATM   27  C8  UNL     1      -6.063   1.264  11.133  1.00  0.00     0.012 C 
BRANCH  26  28
HETATM   28  C9  UNL     1      -4.057   2.637  11.791  1.00  0.00     0.168 C 
BRANCH  28  29
HETATM   29  O1  UNL     1      -3.526   1.368  11.431  1.00  0.00    -0.400 OA
HETATM   30  H17 UNL     1      -2.572   1.397  11.610  1.00  0.00     0.209 HD
ENDBRANCH  28  29
ENDBRANCH  26  28
ENDBRANCH  24  26
ENDBRANCH  23  24
ENDBRANCH  20  22
ENDBRANCH   1  20
BRANCH   2  31
HETATM   31  O2  UNL     1      -5.249   8.789  16.220  1.00  0.00    -0.393 OA
HETATM   32  H20 UNL     1      -4.454   8.652  16.777  1.00  0.00     0.210 HD
ENDBRANCH   2  31
BRANCH   3  33
HETATM   33  O3  UNL     1      -2.674   9.041  16.175  1.00  0.00    -0.392 OA
HETATM   34  H22 UNL     1      -2.415   9.905  16.532  1.00  0.00     0.210 HD
ENDBRANCH   3  33
BRANCH  19  35
HETATM   35  O6  UNL     1      -0.757   7.419  14.976  1.00  0.00    -0.389 OA
HETATM   36  H48 UNL     1      -1.238   7.844  15.718  1.00  0.00     0.210 HD
ENDBRANCH  19  35
BRANCH  17  37
HETATM   37  O5  UNL     1       1.768  10.328  13.254  1.00  0.00    -0.395 OA
HETATM   38  H45 UNL     1       1.463  10.708  12.409  1.00  0.00     0.210 HD
ENDBRANCH  17  37
BRANCH  14  39
HETATM   39  O4  UNL     1       3.789   5.864  11.209  1.00  0.00    -0.396 OA
HETATM   40  H40 UNL     1       3.980   5.292  10.444  1.00  0.00     0.210 HD
ENDBRANCH  14  39
TORSDOF 11
ENDMDL
MODEL 3
REMARK minimizedAffinity -9.77153969
REMARK  11 active torsions:
REMARK  status: ('A' for Active; 'I' for Inactive)
REMARK    1  A    between atoms: C2_2  and  C3_3 
REMARK    2  A    between atoms: C2_2  and  C10_11 
REMARK    3  A    between atoms: C4_4  and  C5_5 
REMARK    4  A    between atoms: C5_5  and  C7_7 
REMARK    5  A    between atoms: C7_7  and  C9_9 
REMARK    6  A    between atoms: C9_9  and  O1_10 
REMARK    7  A    between atoms: C11_12  and  O2_13 
REMARK    8  A    between atoms: C12_14  and  O3_15 
REMARK    9  A    between atoms: C23_26  and  O4_27 
REMARK   10  A    between atoms: C26_30  and  O5_31 
REMARK   11  A    between atoms: C28_33  and  O6_34 
ROOT
HETATM    1  C10 UNL     1      -6.758   6.783  13.777  1.00  0.00     0.033 C 
HETATM    2  C11 UNL     1      -6.869   8.098  14.610  1.00  0.00     0.152 C 
HETATM    3  C12 UNL     1      -5.422   8.659  14.726  1.00  0.00     0.155 C 
HETATM    4  C13 UNL     1      -4.588   7.726  13.846  1.00  0.00     0.060 C 
HETATM    5  C14 UNL     1      -5.275   6.332  13.997  1.00  0.00    -0.028 C 
HETATM    6  C15 UNL     1      -5.075   5.626  15.359  1.00  0.00     0.016 C 
HETATM    7  C16 UNL     1      -4.705   5.424  12.893  1.00  0.00     0.011 C 
HETATM    8  C17 UNL     1      -3.167   5.337  12.965  1.00  0.00     0.009 C 
HETATM    9  C18 UNL     1      -2.489   6.734  12.891  1.00  0.00     0.029 C 
HETATM   10  C19 UNL     1      -0.912   6.691  12.808  1.00  0.00    -0.031 C 
HETATM   11  C20 UNL     1      -0.302   5.984  14.047  1.00  0.00     0.016 C 
HETATM   12  C21 UNL     1      -0.466   5.887  11.539  1.00  0.00     0.012 C 
HETATM   13  C22 UNL     1       0.642   6.543  10.701  1.00  0.00     0.032 C 
HETATM   14  C23 UNL     1       1.719   7.230  11.533  1.00  0.00     0.118 C 
HETATM   15  C24 UNL     1       1.146   8.222  12.556  1.00  0.00     0.039 C 
HETATM   16  C25 UNL     1      -0.393   8.156  12.667  1.00  0.00     0.025 C 
HETATM   17  C26 UNL     1      -0.928   9.099  13.759  1.00  0.00     0.126 C 
HETATM   18  C27 UNL     1      -2.459   9.112  13.789  1.00  0.00     0.071 C 
HETATM   19  C28 UNL     1      -3.051   7.711  13.980  1.00  0.00     0.071 C 
ENDROOT
BRANCH   1  20
HETATM   20  C2  UNL     1      -7.924   5.756  13.843  1.00  0.00     0.011 C 
HETATM   21  C1  UNL     1      -7.497   4.415  13.220  1.00  0.00     0.015 C 
BRANCH  20  22
HETATM   22  C3  UNL     1      -9.293   6.195  13.375  1.00  0.00    -0.026 C 
HETATM   23  C4  UNL     1     -10.144   7.006  14.021  1.00  0.00    -0.026 C 
BRANCH  23  24
HETATM   24  C5  UNL     1     -11.523   7.360  13.511  1.00  0.00     0.009 C 
HETATM   25  C6  UNL     1     -12.549   6.478  14.231  1.00  0.00     0.014 C 
BRANCH  24  26
HETATM   26  C7  UNL     1     -11.817   8.882  13.608  1.00  0.00     0.012 C 
HETATM   27  C8  UNL     1     -12.157   9.364  15.025  1.00  0.00     0.012 C 
BRANCH  26  28
HETATM   28  C9  UNL     1     -12.927   9.294  12.629  1.00  0.00     0.168 C 
BRANCH  28  29
HETATM   29  O1  UNL     1     -12.360   9.918  11.484  1.00  0.00    -0.400 OA
HETATM   30  H17 UNL     1     -13.097  10.182  10.909  1.00  0.00     0.209 HD
ENDBRANCH  28  29
ENDBRANCH  26  28
ENDBRANCH  24  26
ENDBRANCH  23  24
ENDBRANCH  20  22
ENDBRANCH   1  20
BRANCH   2  31
HETATM   31  O2  UNL     1      -7.451   7.935  15.890  1.00  0.00    -0.393 OA
HETATM   32  H20 UNL     1      -6.718   8.000  16.539  1.00  0.00     0.210 HD
ENDBRANCH   2  31
BRANCH   3  33
HETATM   33  O3  UNL     1      -4.971   8.647  16.084  1.00  0.00    -0.392 OA
HETATM   34  H22 UNL     1      -4.908   9.574  16.364  1.00  0.00     0.210 HD
ENDBRANCH   3  33
BRANCH  19  35
HETATM   35  O6  UNL     1      -2.673   7.297  15.285  1.00  0.00    -0.389 OA
HETATM   36  H48 UNL     1      -3.307   7.695  15.919  1.00  0.00     0.210 HD
ENDBRANCH  19  35
BRANCH  17  37
HETATM   37  O5  UNL     1      -0.489  10.441  13.510  1.00  0.00    -0.395 OA
HETATM   38  H45 UNL     1      -0.749  10.678  12.600  1.00  0.00     0.210 HD
ENDBRANCH  17  37
BRANCH  14  39
HETATM   39  O4  UNL     1       2.498   6.247  12.214  1.00  0.00    -0.396 OA
HETATM   40  H40 UNL     1       2.876   5.650  11.543  1.00  0.00     0.210 HD
ENDBRANCH  14  39
TORSDOF 11
ENDMDL
MODEL 4
REMARK minimizedAffinity -9.61445141
REMARK  11 active torsions:
REMARK  status: ('A' for Active; 'I' for Inactive)
REMARK    1  A    between atoms: C2_2  and  C3_3 
REMARK    2  A    between atoms: C2_2  and  C10_11 
REMARK    3  A    between atoms: C4_4  and  C5_5 
REMARK    4  A    between atoms: C5_5  and  C7_7 
REMARK    5  A    between atoms: C7_7  and  C9_9 
REMARK    6  A    between atoms: C9_9  and  O1_10 
REMARK    7  A    between atoms: C11_12  and  O2_13 
REMARK    8  A    between atoms: C12_14  and  O3_15 
REMARK    9  A    between atoms: C23_26  and  O4_27 
REMARK   10  A    between atoms: C26_30  and  O5_31 
REMARK   11  A    between atoms: C28_33  and  O6_34 
ROOT
HETATM    1  C10 UNL     1      -1.969   6.591  12.325  1.00  0.00     0.033 C 
HETATM    2  C11 UNL     1      -2.195   5.142  11.795  1.00  0.00     0.152 C 
HETATM    3  C12 UNL     1      -3.618   4.725  12.269  1.00  0.00     0.155 C 
HETATM    4  C13 UNL     1      -4.182   5.992  12.916  1.00  0.00     0.060 C 
HETATM    5  C14 UNL     1      -2.937   6.690  13.550  1.00  0.00    -0.028 C 
HETATM    6  C15 UNL     1      -2.354   6.011  14.813  1.00  0.00     0.016 C 
HETATM    7  C16 UNL     1      -3.363   8.121  13.925  1.00  0.00     0.011 C 
HETATM    8  C17 UNL     1      -4.587   8.124  14.863  1.00  0.00     0.009 C 
HETATM    9  C18 UNL     1      -5.800   7.363  14.259  1.00  0.00     0.029 C 
HETATM   10  C19 UNL     1      -7.126   7.465  15.112  1.00  0.00    -0.031 C 
HETATM   11  C20 UNL     1      -6.924   6.888  16.538  1.00  0.00     0.016 C 
HETATM   12  C21 UNL     1      -7.547   8.966  15.266  1.00  0.00     0.012 C 
HETATM   13  C22 UNL     1      -9.034   9.260  15.016  1.00  0.00     0.032 C 
HETATM   14  C23 UNL     1      -9.974   8.190  15.559  1.00  0.00     0.118 C 
HETATM   15  C24 UNL     1      -9.609   6.775  15.087  1.00  0.00     0.039 C 
HETATM   16  C25 UNL     1      -8.258   6.714  14.342  1.00  0.00     0.025 C 
HETATM   17  C26 UNL     1      -7.881   5.273  13.958  1.00  0.00     0.126 C 
HETATM   18  C27 UNL     1      -6.596   5.231  13.125  1.00  0.00     0.071 C 
HETATM   19  C28 UNL     1      -5.417   5.902  13.836  1.00  0.00     0.071 C 
ENDROOT
BRANCH   1  20
HETATM   20  C2  UNL     1      -0.516   7.138  12.407  1.00  0.00     0.011 C 
HETATM   21  C1  UNL     1      -0.518   8.677  12.400  1.00  0.00     0.015 C 
BRANCH  20  22
HETATM   22  C3  UNL     1       0.522   6.563  11.470  1.00  0.00    -0.026 C 
HETATM   23  C4  UNL     1       0.915   7.072  10.293  1.00  0.00    -0.026 C 
BRANCH  23  24
HETATM   24  C5  UNL     1       1.926   6.410   9.384  1.00  0.00     0.009 C 
HETATM   25  C6  UNL     1       2.395   7.438   8.348  1.00  0.00     0.014 C 
BRANCH  24  26
HETATM   26  C7  UNL     1       3.080   5.736  10.174  1.00  0.00     0.012 C 
HETATM   27  C8  UNL     1       4.201   6.699  10.588  1.00  0.00     0.012 C 
BRANCH  26  28
HETATM   28  C9  UNL     1       3.665   4.549   9.393  1.00  0.00     0.168 C 
BRANCH  28  29
HETATM   29  O1  UNL     1       3.108   3.330   9.870  1.00  0.00    -0.400 OA
HETATM   30  H17 UNL     1       3.524   2.611   9.368  1.00  0.00     0.209 HD
ENDBRANCH  28  29
ENDBRANCH  26  28
ENDBRANCH  24  26
ENDBRANCH  23  24
ENDBRANCH  20  22
ENDBRANCH   1  20
BRANCH   2  31
HETATM   31  O2  UNL     1      -1.226   4.202  12.221  1.00  0.00    -0.393 OA
HETATM   32  H20 UNL     1      -1.660   3.645  12.903  1.00  0.00     0.210 HD
ENDBRANCH   2  31
BRANCH   3  33
HETATM   33  O3  UNL     1      -3.555   3.640  13.200  1.00  0.00    -0.392 OA
HETATM   34  H22 UNL     1      -3.931   2.866  12.751  1.00  0.00     0.210 HD
ENDBRANCH   3  33
BRANCH  19  35
HETATM   35  O6  UNL     1      -5.130   5.098  14.971  1.00  0.00    -0.389 OA
HETATM   36  H48 UNL     1      -4.575   4.347  14.671  1.00  0.00     0.210 HD
ENDBRANCH  19  35
BRANCH  17  37
HETATM   37  O5  UNL     1      -8.925   4.683  13.173  1.00  0.00    -0.395 OA
HETATM   38  H45 UNL     1      -9.105   5.275  12.419  1.00  0.00     0.210 HD
ENDBRANCH  17  37
BRANCH  14  39
HETATM   39  O4  UNL     1      -9.970   8.228  16.986  1.00  0.00    -0.396 OA
HETATM   40  H40 UNL     1     -10.234   9.124  17.261  1.00  0.00     0.210 HD
ENDBRANCH  14  39
TORSDOF 11
ENDMDL
MODEL 5
REMARK minimizedAffinity -9.56907845
REMARK  11 active torsions:
REMARK  status: ('A' for Active; 'I' for Inactive)
REMARK    1  A    between atoms: C2_2  and  C3_3 
REMARK    2  A    between atoms: C2_2  and  C10_11 
REMARK    3  A    between atoms: C4_4  and  C5_5 
REMARK    4  A    between atoms: C5_5  and  C7_7 
REMARK    5  A    between atoms: C7_7  and  C9_9 
REMARK    6  A    between atoms: C9_9  and  O1_10 
REMARK    7  A    between atoms: C11_12  and  O2_13 
REMARK    8  A    between atoms: C12_14  and  O3_15 
REMARK    9  A    between atoms: C23_26  and  O4_27 
REMARK   10  A    between atoms: C26_30  and  O5_31 
REMARK   11  A    between atoms: C28_33  and  O6_34 
ROOT
HETATM    1  C10 UNL     1      -2.335   7.431  12.951  1.00  0.00     0.033 C 
HETATM    2  C11 UNL     1      -2.378   5.960  12.432  1.00  0.00     0.152 C 
HETATM    3  C12 UNL     1      -3.800   5.425  12.769  1.00  0.00     0.155 C 
HETATM    4  C13 UNL     1      -4.536   6.645  13.328  1.00  0.00     0.060 C 
HETATM    5  C14 UNL     1      -3.428   7.459  14.069  1.00  0.00    -0.028 C 
HETATM    6  C15 UNL     1      -2.920   6.851  15.399  1.00  0.00     0.016 C 
HETATM    7  C16 UNL     1      -4.013   8.851  14.367  1.00  0.00     0.011 C 
HETATM    8  C17 UNL     1      -5.323   8.758  15.176  1.00  0.00     0.009 C 
HETATM    9  C18 UNL     1      -6.396   7.883  14.470  1.00  0.00     0.029 C 
HETATM   10  C19 UNL     1      -7.806   7.878  15.182  1.00  0.00    -0.031 C 
HETATM   11  C20 UNL     1      -7.702   7.340  16.633  1.00  0.00     0.016 C 
HETATM   12  C21 UNL     1      -8.370   9.338  15.260  1.00  0.00     0.012 C 
HETATM   13  C22 UNL     1      -9.844   9.496  14.854  1.00  0.00     0.032 C 
HETATM   14  C23 UNL     1     -10.737   8.353  15.322  1.00  0.00     0.118 C 
HETATM   15  C24 UNL     1     -10.205   6.970  14.921  1.00  0.00     0.039 C 
HETATM   16  C25 UNL     1      -8.784   7.021  14.318  1.00  0.00     0.025 C 
HETATM   17  C26 UNL     1      -8.245   5.613  14.006  1.00  0.00     0.126 C 
HETATM   18  C27 UNL     1      -6.883   5.675  13.308  1.00  0.00     0.071 C 
HETATM   19  C28 UNL     1      -5.846   6.458  14.120  1.00  0.00     0.071 C 
ENDROOT
BRANCH   1  20
HETATM   20  C2  UNL     1      -0.951   8.106  13.168  1.00  0.00     0.011 C 
HETATM   21  C1  UNL     1      -1.106   9.633  13.274  1.00  0.00     0.015 C 
BRANCH  20  22
HETATM   22  C3  UNL     1       0.192   7.709  12.260  1.00  0.00    -0.026 C 
HETATM   23  C4  UNL     1       0.541   8.291  11.103  1.00  0.00    -0.026 C 
BRANCH  23  24
HETATM   24  C5  UNL     1       1.669   7.804  10.222  1.00  0.00     0.009 C 
HETATM   25  C6  UNL     1       1.891   6.312  10.495  1.00  0.00     0.014 C 
BRANCH  24  26
HETATM   26  C7  UNL     1       1.440   8.146   8.725  1.00  0.00     0.012 C 
HETATM   27  C8  UNL     1      -0.037   8.302   8.338  1.00  0.00     0.012 C 
BRANCH  26  28
HETATM   28  C9  UNL     1       2.120   7.114   7.812  1.00  0.00     0.168 C 
BRANCH  28  29
HETATM   29  O1  UNL     1       1.575   7.189   6.501  1.00  0.00    -0.400 OA
HETATM   30  H17 UNL     1       2.014   6.505   5.970  1.00  0.00     0.209 HD
ENDBRANCH  28  29
ENDBRANCH  26  28
ENDBRANCH  24  26
ENDBRANCH  23  24
ENDBRANCH  20  22
ENDBRANCH   1  20
BRANCH   2  31
HETATM   31  O2  UNL     1      -1.380   5.116  12.975  1.00  0.00    -0.393 OA
HETATM   32  H20 UNL     1      -1.830   4.531  13.621  1.00  0.00     0.210 HD
ENDBRANCH   2  31
BRANCH   3  33
HETATM   33  O3  UNL     1      -3.739   4.362  13.725  1.00  0.00    -0.392 OA
HETATM   34  H22 UNL     1      -3.998   3.552  13.257  1.00  0.00     0.210 HD
ENDBRANCH   3  33
BRANCH  19  35
HETATM   35  O6  UNL     1      -5.608   5.697  15.295  1.00  0.00    -0.389 OA
HETATM   36  H48 UNL     1      -4.962   4.995  15.070  1.00  0.00     0.210 HD
ENDBRANCH  19  35
BRANCH  17  37
HETATM   37  O5  UNL     1      -9.148   4.922  13.133  1.00  0.00    -0.395 OA
HETATM   38  H45 UNL     1      -9.300   5.486  12.351  1.00  0.00     0.210 HD
ENDBRANCH  17  37
BRANCH  14  39
HETATM   39  O4  UNL     1     -10.883   8.410  16.741  1.00  0.00    -0.396 OA
HETATM   40  H40 UNL     1     -11.252   9.283  16.968  1.00  0.00     0.210 HD
ENDBRANCH  14  39
TORSDOF 11
ENDMDL
MODEL 6
REMARK minimizedAffinity -9.56882095
REMARK  11 active torsions:
REMARK  status: ('A' for Active; 'I' for Inactive)
REMARK    1  A    between atoms: C2_2  and  C3_3 
REMARK    2  A    between atoms: C2_2  and  C10_11 
REMARK    3  A    between atoms: C4_4  and  C5_5 
REMARK    4  A    between atoms: C5_5  and  C7_7 
REMARK    5  A    between atoms: C7_7  and  C9_9 
REMARK    6  A    between atoms: C9_9  and  O1_10 
REMARK    7  A    between atoms: C11_12  and  O2_13 
REMARK    8  A    between atoms: C12_14  and  O3_15 
REMARK    9  A    between atoms: C23_26  and  O4_27 
REMARK   10  A    between atoms: C26_30  and  O5_31 
REMARK   11  A    between atoms: C28_33  and  O6_34 
ROOT
HETATM    1  C10 UNL     1      -2.651   8.552  14.934  1.00  0.00     0.033 C 
HETATM    2  C11 UNL     1      -1.788   8.595  16.233  1.00  0.00     0.152 C 
HETATM    3  C12 UNL     1      -0.372   8.093  15.827  1.00  0.00     0.155 C 
HETATM    4  C13 UNL     1      -0.456   7.925  14.308  1.00  0.00     0.060 C 
HETATM    5  C14 UNL     1      -1.931   7.482  14.048  1.00  0.00    -0.028 C 
HETATM    6  C15 UNL     1      -2.286   6.036  14.474  1.00  0.00     0.016 C 
HETATM    7  C16 UNL     1      -2.184   7.617  12.537  1.00  0.00     0.011 C 
HETATM    8  C17 UNL     1      -1.167   6.801  11.713  1.00  0.00     0.009 C 
HETATM    9  C18 UNL     1       0.303   7.193  12.030  1.00  0.00     0.029 C 
HETATM   10  C19 UNL     1       1.379   6.496  11.107  1.00  0.00    -0.031 C 
HETATM   11  C20 UNL     1       1.310   4.951  11.230  1.00  0.00     0.016 C 
HETATM   12  C21 UNL     1       1.111   6.861   9.607  1.00  0.00     0.012 C 
HETATM   13  C22 UNL     1       2.351   7.277   8.800  1.00  0.00     0.032 C 
HETATM   14  C23 UNL     1       3.601   6.471   9.133  1.00  0.00     0.118 C 
HETATM   15  C24 UNL     1       3.912   6.436  10.636  1.00  0.00     0.039 C 
HETATM   16  C25 UNL     1       2.787   7.044  11.501  1.00  0.00     0.025 C 
HETATM   17  C26 UNL     1       3.089   6.917  13.005  1.00  0.00     0.126 C 
HETATM   18  C27 UNL     1       2.024   7.618  13.853  1.00  0.00     0.071 C 
HETATM   19  C28 UNL     1       0.612   7.097  13.564  1.00  0.00     0.071 C 
ENDROOT
BRANCH   1  20
HETATM   20  C2  UNL     1      -4.201   8.569  15.067  1.00  0.00     0.011 C 
HETATM   21  C1  UNL     1      -4.635   9.534  16.185  1.00  0.00     0.015 C 
BRANCH  20  22
HETATM   22  C3  UNL     1      -4.930   7.246  15.137  1.00  0.00    -0.026 C 
HETATM   23  C4  UNL     1      -5.871   6.799  14.291  1.00  0.00    -0.026 C 
BRANCH  23  24
HETATM   24  C5  UNL     1      -6.594   5.482  14.456  1.00  0.00     0.009 C 
HETATM   25  C6  UNL     1      -7.590   5.615  15.613  1.00  0.00     0.014 C 
BRANCH  24  26
HETATM   26  C7  UNL     1      -7.230   4.987  13.128  1.00  0.00     0.012 C 
HETATM   27  C8  UNL     1      -8.603   5.601  12.824  1.00  0.00     0.012 C 
BRANCH  26  28
HETATM   28  C9  UNL     1      -7.318   3.452  13.097  1.00  0.00     0.168 C 
BRANCH  28  29
HETATM   29  O1  UNL     1      -8.678   3.043  13.042  1.00  0.00    -0.400 OA
HETATM   30  H17 UNL     1      -8.685   2.073  13.050  1.00  0.00     0.209 HD
ENDBRANCH  28  29
ENDBRANCH  26  28
ENDBRANCH  24  26
ENDBRANCH  23  24
ENDBRANCH  20  22
ENDBRANCH   1  20
BRANCH   2  31
HETATM   31  O2  UNL     1      -2.304   7.832  17.308  1.00  0.00    -0.393 OA
HETATM   32  H20 UNL     1      -1.740   7.033  17.378  1.00  0.00     0.210 HD
ENDBRANCH   2  31
BRANCH   3  33
HETATM   33  O3  UNL     1      -0.055   6.858  16.477  1.00  0.00    -0.392 OA
HETATM   34  H22 UNL     1       0.651   7.052  17.114  1.00  0.00     0.210 HD
ENDBRANCH   3  33
BRANCH  19  35
HETATM   35  O6  UNL     1       0.590   5.748  14.009  1.00  0.00    -0.389 OA
HETATM   36  H48 UNL     1       0.433   5.756  14.977  1.00  0.00     0.210 HD
ENDBRANCH  19  35
BRANCH  17  37
HETATM   37  O5  UNL     1       4.352   7.526  13.306  1.00  0.00    -0.395 OA
HETATM   38  H45 UNL     1       4.332   8.440  12.967  1.00  0.00     0.210 HD
ENDBRANCH  17  37
BRANCH  14  39
HETATM   39  O4  UNL     1       3.452   5.135   8.651  1.00  0.00    -0.396 OA
HETATM   40  H40 UNL     1       3.288   5.182   7.691  1.00  0.00     0.210 HD
ENDBRANCH  14  39
TORSDOF 11
ENDMDL
MODEL 7
REMARK minimizedAffinity -9.24806881
REMARK  11 active torsions:
REMARK  status: ('A' for Active; 'I' for Inactive)
REMARK    1  A    between atoms: C2_2  and  C3_3 
REMARK    2  A    between atoms: C2_2  and  C10_11 
REMARK    3  A    between atoms: C4_4  and  C5_5 
REMARK    4  A    between atoms: C5_5  and  C7_7 
REMARK    5  A    between atoms: C7_7  and  C9_9 
REMARK    6  A    between atoms: C9_9  and  O1_10 
REMARK    7  A    between atoms: C11_12  and  O2_13 
REMARK    8  A    between atoms: C12_14  and  O3_15 
REMARK    9  A    between atoms: C23_26  and  O4_27 
REMARK   10  A    between atoms: C26_30  and  O5_31 
REMARK   11  A    between atoms: C28_33  and  O6_34 
ROOT
HETATM    1  C10 UNL     1       1.045   6.909  10.986  1.00  0.00     0.033 C 
HETATM    2  C11 UNL     1       1.011   5.426  10.503  1.00  0.00     0.152 C 
HETATM    3  C12 UNL     1      -0.263   4.795  11.136  1.00  0.00     0.155 C 
HETATM    4  C13 UNL     1      -0.961   5.971  11.823  1.00  0.00     0.060 C 
HETATM    5  C14 UNL     1       0.209   6.886  12.308  1.00  0.00    -0.028 C 
HETATM    6  C15 UNL     1       1.028   6.353  13.508  1.00  0.00     0.016 C 
HETATM    7  C16 UNL     1      -0.410   8.237  12.706  1.00  0.00     0.011 C 
HETATM    8  C17 UNL     1      -1.511   8.068  13.772  1.00  0.00     0.009 C 
HETATM    9  C18 UNL     1      -2.635   7.097  13.315  1.00  0.00     0.029 C 
HETATM   10  C19 UNL     1      -3.862   7.006  14.306  1.00  0.00    -0.031 C 
HETATM   11  C20 UNL     1      -3.417   6.516  15.709  1.00  0.00     0.016 C 
HETATM   12  C21 UNL     1      -4.511   8.421  14.484  1.00  0.00     0.012 C 
HETATM   13  C22 UNL     1      -6.045   8.457  14.394  1.00  0.00     0.032 C 
HETATM   14  C23 UNL     1      -6.729   7.264  15.050  1.00  0.00     0.118 C 
HETATM   15  C24 UNL     1      -6.183   5.914  14.562  1.00  0.00     0.039 C 
HETATM   16  C25 UNL     1      -4.927   6.055  13.675  1.00  0.00     0.025 C 
HETATM   17  C26 UNL     1      -4.356   4.684  13.272  1.00  0.00     0.126 C 
HETATM   18  C27 UNL     1      -3.178   4.828  12.304  1.00  0.00     0.071 C 
HETATM   19  C28 UNL     1      -2.059   5.708  12.873  1.00  0.00     0.071 C 
ENDROOT
BRANCH   1  20
HETATM   20  C2  UNL     1       2.387   7.691  10.902  1.00  0.00     0.011 C 
HETATM   21  C1  UNL     1       2.766   7.955   9.433  1.00  0.00     0.015 C 
BRANCH  20  22
HETATM   22  C3  UNL     1       3.560   7.194  11.715  1.00  0.00    -0.026 C 
HETATM   23  C4  UNL     1       4.828   7.629  11.651  1.00  0.00    -0.026 C 
BRANCH  23  24
HETATM   24  C5  UNL     1       5.961   7.046  12.463  1.00  0.00     0.009 C 
HETATM   25  C6  UNL     1       7.036   6.530  11.499  1.00  0.00     0.014 C 
BRANCH  24  26
HETATM   26  C7  UNL     1       6.495   8.038  13.532  1.00  0.00     0.012 C 
HETATM   27  C8  UNL     1       7.933   7.756  13.985  1.00  0.00     0.012 C 
BRANCH  26  28
HETATM   28  C9  UNL     1       5.558   8.095  14.749  1.00  0.00     0.168 C 
BRANCH  28  29
HETATM   29  O1  UNL     1       6.241   7.640  15.911  1.00  0.00    -0.400 OA
HETATM   30  H17 UNL     1       5.606   7.669  16.644  1.00  0.00     0.209 HD
ENDBRANCH  28  29
ENDBRANCH  26  28
ENDBRANCH  24  26
ENDBRANCH  23  24
ENDBRANCH  20  22
ENDBRANCH   1  20
BRANCH   2  31
HETATM   31  O2  UNL     1       2.164   4.673  10.835  1.00  0.00    -0.393 OA
HETATM   32  H20 UNL     1       1.904   4.075  11.567  1.00  0.00     0.210 HD
ENDBRANCH   2  31
BRANCH   3  33
HETATM   33  O3  UNL     1       0.079   3.766  12.069  1.00  0.00    -0.392 OA
HETATM   34  H22 UNL     1      -0.207   2.926  11.675  1.00  0.00     0.210 HD
ENDBRANCH   3  33
BRANCH  19  35
HETATM   35  O6  UNL     1      -1.524   4.999  13.981  1.00  0.00    -0.389 OA
HETATM   36  H48 UNL     1      -0.885   4.341  13.633  1.00  0.00     0.210 HD
ENDBRANCH  19  35
BRANCH  17  37
HETATM   37  O5  UNL     1      -5.363   3.904  12.614  1.00  0.00    -0.395 OA
HETATM   38  H45 UNL     1      -5.718   4.434  11.876  1.00  0.00     0.210 HD
ENDBRANCH  17  37
BRANCH  14  39
HETATM   39  O4  UNL     1      -6.581   7.348  16.468  1.00  0.00    -0.396 OA
HETATM   40  H40 UNL     1      -6.962   8.196  16.757  1.00  0.00     0.210 HD
ENDBRANCH  14  39
TORSDOF 11
ENDMDL
MODEL 8
REMARK minimizedAffinity -9.22642136
REMARK  11 active torsions:
REMARK  status: ('A' for Active; 'I' for Inactive)
REMARK    1  A    between atoms: C2_2  and  C3_3 
REMARK    2  A    between atoms: C2_2  and  C10_11 
REMARK    3  A    between atoms: C4_4  and  C5_5 
REMARK    4  A    between atoms: C5_5  and  C7_7 
REMARK    5  A    between atoms: C7_7  and  C9_9 
REMARK    6  A    between atoms: C9_9  and  O1_10 
REMARK    7  A    between atoms: C11_12  and  O2_13 
REMARK    8  A    between atoms: C12_14  and  O3_15 
REMARK    9  A    between atoms: C23_26  and  O4_27 
REMARK   10  A    between atoms: C26_30  and  O5_31 
REMARK   11  A    between atoms: C28_33  and  O6_34 
ROOT
HETATM    1  C10 UNL     1      -1.787   8.643  14.240  1.00  0.00     0.033 C 
HETATM    2  C11 UNL     1      -1.585   8.247  15.736  1.00  0.00     0.152 C 
HETATM    3  C12 UNL     1      -0.064   7.966  15.906  1.00  0.00     0.155 C 
HETATM    4  C13 UNL     1       0.541   8.348  14.553  1.00  0.00     0.060 C 
HETATM    5  C14 UNL     1      -0.568   7.982  13.516  1.00  0.00    -0.028 C 
HETATM    6  C15 UNL     1      -0.785   6.469  13.268  1.00  0.00     0.016 C 
HETATM    7  C16 UNL     1      -0.174   8.638  12.181  1.00  0.00     0.011 C 
HETATM    8  C17 UNL     1       1.233   8.202  11.725  1.00  0.00     0.009 C 
HETATM    9  C18 UNL     1       2.323   8.499  12.792  1.00  0.00     0.029 C 
HETATM   10  C19 UNL     1       3.801   8.211  12.315  1.00  0.00    -0.031 C 
HETATM   11  C20 UNL     1       3.984   6.722  11.919  1.00  0.00     0.016 C 
HETATM   12  C21 UNL     1       4.133   9.078  11.053  1.00  0.00     0.012 C 
HETATM   13  C22 UNL     1       5.494   9.792  11.086  1.00  0.00     0.032 C 
HETATM   14  C23 UNL     1       6.612   8.959  11.701  1.00  0.00     0.118 C 
HETATM   15  C24 UNL     1       6.253   8.401  13.086  1.00  0.00     0.039 C 
HETATM   16  C25 UNL     1       4.773   8.625  13.464  1.00  0.00     0.025 C 
HETATM   17  C26 UNL     1       4.424   7.981  14.818  1.00  0.00     0.126 C 
HETATM   18  C27 UNL     1       2.986   8.300  15.238  1.00  0.00     0.071 C 
HETATM   19  C28 UNL     1       1.961   7.873  14.182  1.00  0.00     0.071 C 
ENDROOT
BRANCH   1  20
HETATM   20  C2  UNL     1      -3.217   8.564  13.633  1.00  0.00     0.011 C 
HETATM   21  C1  UNL     1      -4.223   9.312  14.526  1.00  0.00     0.015 C 
BRANCH  20  22
HETATM   22  C3  UNL     1      -3.736   7.214  13.192  1.00  0.00    -0.026 C 
HETATM   23  C4  UNL     1      -4.967   6.720  13.391  1.00  0.00    -0.026 C 
BRANCH  23  24
HETATM   24  C5  UNL     1      -5.400   5.336  12.963  1.00  0.00     0.009 C 
HETATM   25  C6  UNL     1      -4.289   4.345  13.328  1.00  0.00     0.014 C 
BRANCH  24  26
HETATM   26  C7  UNL     1      -6.798   4.954  13.520  1.00  0.00     0.012 C 
HETATM   27  C8  UNL     1      -7.016   5.350  14.986  1.00  0.00     0.012 C 
BRANCH  26  28
HETATM   28  C9  UNL     1      -7.078   3.455  13.329  1.00  0.00     0.168 C 
BRANCH  28  29
HETATM   29  O1  UNL     1      -8.480   3.223  13.286  1.00  0.00    -0.400 OA
HETATM   30  H17 UNL     1      -8.608   2.266  13.191  1.00  0.00     0.209 HD
ENDBRANCH  28  29
ENDBRANCH  26  28
ENDBRANCH  24  26
ENDBRANCH  23  24
ENDBRANCH  20  22
ENDBRANCH   1  20
BRANCH   2  31
HETATM   31  O2  UNL     1      -2.353   7.136  16.159  1.00  0.00    -0.393 OA
HETATM   32  H20 UNL     1      -1.731   6.382  16.239  1.00  0.00     0.210 HD
ENDBRANCH   2  31
BRANCH   3  33
HETATM   33  O3  UNL     1       0.176   6.591  16.222  1.00  0.00    -0.392 OA
HETATM   34  H22 UNL     1       0.492   6.568  17.139  1.00  0.00     0.210 HD
ENDBRANCH   3  33
BRANCH  19  35
HETATM   35  O6  UNL     1       2.010   6.454  14.135  1.00  0.00    -0.389 OA
HETATM   36  H48 UNL     1       1.457   6.112  14.869  1.00  0.00     0.210 HD
ENDBRANCH  19  35
BRANCH  17  37
HETATM   37  O5  UNL     1       5.295   8.480  15.840  1.00  0.00    -0.395 OA
HETATM   38  H45 UNL     1       5.248   9.455  15.825  1.00  0.00     0.210 HD
ENDBRANCH  17  37
BRANCH  14  39
HETATM   39  O4  UNL     1       6.941   7.879  10.828  1.00  0.00    -0.396 OA
HETATM   40  H40 UNL     1       7.195   8.259   9.967  1.00  0.00     0.210 HD
ENDBRANCH  14  39
TORSDOF 11
ENDMDL
MODEL 9
REMARK minimizedAffinity -8.96877384
REMARK  11 active torsions:
REMARK  status: ('A' for Active; 'I' for Inactive)
REMARK    1  A    between atoms: C2_2  and  C3_3 
REMARK    2  A    between atoms: C2_2  and  C10_11 
REMARK    3  A    between atoms: C4_4  and  C5_5 
REMARK    4  A    between atoms: C5_5  and  C7_7 
REMARK    5  A    between atoms: C7_7  and  C9_9 
REMARK    6  A    between atoms: C9_9  and  O1_10 
REMARK    7  A    between atoms: C11_12  and  O2_13 
REMARK    8  A    between atoms: C12_14  and  O3_15 
REMARK    9  A    between atoms: C23_26  and  O4_27 
REMARK   10  A    between atoms: C26_30  and  O5_31 
REMARK   11  A    between atoms: C28_33  and  O6_34 
ROOT
HETATM    1  C10 UNL     1      -2.380   4.773  11.256  1.00  0.00     0.033 C 
HETATM    2  C11 UNL     1      -3.087   3.590  10.524  1.00  0.00     0.152 C 
HETATM    3  C12 UNL     1      -4.540   3.545  11.080  1.00  0.00     0.155 C 
HETATM    4  C13 UNL     1      -4.633   4.776  11.983  1.00  0.00     0.060 C 
HETATM    5  C14 UNL     1      -3.198   4.928  12.581  1.00  0.00    -0.028 C 
HETATM    6  C15 UNL     1      -2.795   3.876  13.642  1.00  0.00     0.016 C 
HETATM    7  C16 UNL     1      -3.123   6.321  13.229  1.00  0.00     0.011 C 
HETATM    8  C17 UNL     1      -4.229   6.519  14.285  1.00  0.00     0.009 C 
HETATM    9  C18 UNL     1      -5.652   6.293  13.705  1.00  0.00     0.029 C 
HETATM   10  C19 UNL     1      -6.827   6.630  14.705  1.00  0.00    -0.031 C 
HETATM   11  C20 UNL     1      -6.743   5.759  15.986  1.00  0.00     0.016 C 
HETATM   12  C21 UNL     1      -6.737   8.130  15.148  1.00  0.00     0.012 C 
HETATM   13  C22 UNL     1      -8.063   8.906  15.117  1.00  0.00     0.032 C 
HETATM   14  C23 UNL     1      -9.264   8.090  15.579  1.00  0.00     0.118 C 
HETATM   15  C24 UNL     1      -9.398   6.748  14.845  1.00  0.00     0.039 C 
HETATM   16  C25 UNL     1      -8.180   6.421  13.954  1.00  0.00     0.025 C 
HETATM   17  C26 UNL     1      -8.305   5.034  13.300  1.00  0.00     0.126 C 
HETATM   18  C27 UNL     1      -7.149   4.762  12.333  1.00  0.00     0.071 C 
HETATM   19  C28 UNL     1      -5.780   4.894  13.009  1.00  0.00     0.071 C 
ENDROOT
BRANCH   1  20
HETATM   20  C2  UNL     1      -0.826   4.825  11.264  1.00  0.00     0.011 C 
HETATM   21  C1  UNL     1      -0.270   4.112  12.509  1.00  0.00     0.015 C 
BRANCH  20  22
HETATM   22  C3  UNL     1      -0.151   6.154  11.015  1.00  0.00    -0.026 C 
HETATM   23  C4  UNL     1       0.587   6.496   9.948  1.00  0.00    -0.026 C 
BRANCH  23  24
HETATM   24  C5  UNL     1       1.275   7.833   9.793  1.00  0.00     0.009 C 
HETATM   25  C6  UNL     1       1.299   8.530  11.158  1.00  0.00     0.014 C 
BRANCH  24  26
HETATM   26  C7  UNL     1       2.670   7.706   9.123  1.00  0.00     0.012 C 
HETATM   27  C8  UNL     1       2.828   8.539   7.843  1.00  0.00     0.012 C 
BRANCH  26  28
HETATM   28  C9  UNL     1       3.017   6.235   8.843  1.00  0.00     0.168 C 
BRANCH  28  29
HETATM   29  O1  UNL     1       4.084   5.817   9.686  1.00  0.00    -0.400 OA
HETATM   30  H17 UNL     1       4.284   4.895   9.456  1.00  0.00     0.209 HD
ENDBRANCH  28  29
ENDBRANCH  26  28
ENDBRANCH  24  26
ENDBRANCH  23  24
ENDBRANCH  20  22
ENDBRANCH   1  20
BRANCH   2  31
HETATM   31  O2  UNL     1      -2.448   2.336  10.681  1.00  0.00    -0.393 OA
HETATM   32  H20 UNL     1      -2.999   1.819  11.306  1.00  0.00     0.210 HD
ENDBRANCH   2  31
BRANCH   3  33
HETATM   33  O3  UNL     1      -4.777   2.336  11.808  1.00  0.00    -0.392 OA
HETATM   34  H22 UNL     1      -5.405   1.813  11.283  1.00  0.00     0.210 HD
ENDBRANCH   3  33
BRANCH  19  35
HETATM   35  O6  UNL     1      -5.704   3.840  13.958  1.00  0.00    -0.389 OA
HETATM   36  H48 UNL     1      -5.436   3.027  13.479  1.00  0.00     0.210 HD
ENDBRANCH  19  35
BRANCH  17  37
HETATM   37  O5  UNL     1      -9.524   4.951  12.551  1.00  0.00    -0.395 OA
HETATM   38  H45 UNL     1      -9.546   5.701  11.928  1.00  0.00     0.210 HD
ENDBRANCH  17  37
BRANCH  14  39
HETATM   39  O4  UNL     1      -9.171   7.853  16.983  1.00  0.00    -0.396 OA
HETATM   40  H40 UNL     1      -9.120   8.718  17.429  1.00  0.00     0.210 HD
ENDBRANCH  14  39
TORSDOF 11
ENDMDL
