MODEL 1
REMARK minimizedAffinity -7.35917377
REMARK  6 active torsions:
REMARK  status: ('A' for Active; 'I' for Inactive)
REMARK    1  A    between atoms: C9_10  and  C10_11 
REMARK    2  A    between atoms: C11_13  and  O3_14 
REMARK    3  A    between atoms: C12_15  and  C13_16 
REMARK    4  A    between atoms: C14_18  and  O5_19 
REMARK    5  A    between atoms: C16_21  and  C17_22 
REMARK    6  A    between atoms: C17_22  and  C18_23 
ROOT
HETATM    1  C1  UNL     1      17.820  -5.014  11.910  1.00  0.00     0.043 C 
HETATM    2  C2  UNL     1      18.720  -5.130  10.715  1.00  0.00    -0.087 C 
HETATM    3  C3  UNL     1      18.820  -4.209   9.736  1.00  0.00    -0.024 C 
HETATM    4  C4  UNL     1      17.993  -2.987   9.498  1.00  0.00     0.030 C 
HETATM    5  C5  UNL     1      16.619  -3.198   8.829  1.00  0.00     0.042 C 
HETATM    6  C6  UNL     1      16.411  -4.300   7.731  1.00  0.00     0.069 C 
HETATM    7  C7  UNL     1      17.522  -4.214   6.658  1.00  0.00     0.047 C 
HETATM    8  O1  UNL     1      15.209  -3.842   7.028  1.00  0.00    -0.338 OA
HETATM    9  C8  UNL     1      14.691  -4.768   6.162  1.00  0.00     0.095 A 
HETATM   10  C9  UNL     1      14.315  -4.394   4.869  1.00  0.00     0.070 A 
HETATM   11  C11 UNL     1      13.738  -5.342   4.010  1.00  0.00     0.097 A 
HETATM   12  C12 UNL     1      13.508  -6.645   4.467  1.00  0.00     0.069 A 
HETATM   13  C14 UNL     1      13.856  -6.996   5.783  1.00  0.00     0.091 A 
HETATM   14  C15 UNL     1      14.468  -6.065   6.630  1.00  0.00     0.015 A 
HETATM   15  C16 UNL     1      14.782  -6.333   8.087  1.00  0.00     0.032 C 
HETATM   16  C21 UNL     1      16.177  -5.731   8.416  1.00  0.00     0.034 C 
HETATM   17  C22 UNL     1      17.393  -6.674   8.302  1.00  0.00     0.006 A 
HETATM   18  C23 UNL     1      17.534  -7.681   9.442  1.00  0.00    -0.001 A 
HETATM   19  C24 UNL     1      18.691  -7.704  10.414  1.00  0.00     0.010 C 
HETATM   20  C25 UNL     1      19.519  -6.417  10.585  1.00  0.00     0.034 C 
HETATM   21  C26 UNL     1      17.617  -8.167   8.005  1.00  0.00    -0.039 A 
HETATM   22  C27 UNL     1      16.539  -9.093   7.509  1.00  0.00     0.015 C 
HETATM   23  C28 UNL     1      18.970  -8.513   7.411  1.00  0.00     0.015 C 
ENDROOT
BRANCH  15  24
HETATM   24  C17 UNL     1      13.618  -5.716   8.931  1.00  0.00     0.014 C 
BRANCH  24  25
HETATM   25  C18 UNL     1      12.190  -6.261   8.711  1.00  0.00    -0.022 C 
HETATM   26  C19 UNL     1      11.339  -5.389   7.798  1.00  0.00     0.009 C 
HETATM   27  C20 UNL     1      11.457  -6.557  10.019  1.00  0.00     0.009 C 
ENDBRANCH  24  25
ENDBRANCH  15  24
BRANCH  13  28
HETATM   28  O5  UNL     1      13.583  -8.237   6.298  1.00  0.00    -0.359 OA
HETATM   29  H15 UNL     1      13.162  -8.782   5.594  1.00  0.00     0.217 HD
ENDBRANCH  13  28
BRANCH  10  30
HETATM   30  C10 UNL     1      14.536  -3.005   4.424  1.00  0.00     0.275 C 
HETATM   31  O2  UNL     1      13.716  -2.131   4.694  1.00  0.00    -0.301 OA
ENDBRANCH  10  30
BRANCH  12  32
HETATM   32  C13 UNL     1      12.878  -7.632   3.568  1.00  0.00     0.275 C 
HETATM   33  O4  UNL     1      12.049  -8.430   4.003  1.00  0.00    -0.301 OA
ENDBRANCH  12  32
BRANCH  11  34
HETATM   34  O3  UNL     1      13.376  -5.023   2.724  1.00  0.00    -0.359 OA
HETATM   35  H13 UNL     1      13.591  -4.074   2.561  1.00  0.00     0.217 HD
ENDBRANCH  11  34
TORSDOF 6
ENDMDL
MODEL 2
REMARK minimizedAffinity -6.92687225
REMARK  6 active torsions:
REMARK  status: ('A' for Active; 'I' for Inactive)
REMARK    1  A    between atoms: C9_10  and  C10_11 
REMARK    2  A    between atoms: C11_13  and  O3_14 
REMARK    3  A    between atoms: C12_15  and  C13_16 
REMARK    4  A    between atoms: C14_18  and  O5_19 
REMARK    5  A    between atoms: C16_21  and  C17_22 
REMARK    6  A    between atoms: C17_22  and  C18_23 
ROOT
HETATM    1  C1  UNL     1       0.017  11.997  18.630  1.00  0.00     0.043 C 
HETATM    2  C2  UNL     1       0.819  13.175  18.160  1.00  0.00    -0.087 C 
HETATM    3  C3  UNL     1       1.842  13.110  17.285  1.00  0.00    -0.024 C 
HETATM    4  C4  UNL     1       2.524  11.908  16.716  1.00  0.00     0.030 C 
HETATM    5  C5  UNL     1       3.565  11.209  17.616  1.00  0.00     0.042 C 
HETATM    6  C6  UNL     1       4.485  12.033  18.585  1.00  0.00     0.069 C 
HETATM    7  C7  UNL     1       5.135  13.221  17.837  1.00  0.00     0.047 C 
HETATM    8  O1  UNL     1       5.605  11.120  18.831  1.00  0.00    -0.338 OA
HETATM    9  C8  UNL     1       6.437  11.529  19.839  1.00  0.00     0.095 A 
HETATM   10  C9  UNL     1       7.824  11.504  19.664  1.00  0.00     0.070 A 
HETATM   11  C11 UNL     1       8.666  11.877  20.723  1.00  0.00     0.097 A 
HETATM   12  C12 UNL     1       8.112  12.235  21.958  1.00  0.00     0.069 A 
HETATM   13  C14 UNL     1       6.717  12.217  22.130  1.00  0.00     0.091 A 
HETATM   14  C15 UNL     1       5.872  11.885  21.065  1.00  0.00     0.015 A 
HETATM   15  C16 UNL     1       4.370  11.746  21.196  1.00  0.00     0.032 C 
HETATM   16  C21 UNL     1       3.700  12.374  19.941  1.00  0.00     0.034 C 
HETATM   17  C22 UNL     1       3.262  13.850  20.043  1.00  0.00     0.006 A 
HETATM   18  C23 UNL     1       1.996  14.088  20.865  1.00  0.00    -0.001 A 
HETATM   19  C24 UNL     1       0.708  14.639  20.297  1.00  0.00     0.010 C 
HETATM   20  C25 UNL     1       0.478  14.522  18.779  1.00  0.00     0.034 C 
HETATM   21  C26 UNL     1       3.233  14.927  21.142  1.00  0.00    -0.039 A 
HETATM   22  C27 UNL     1       3.904  14.775  22.481  1.00  0.00     0.015 C 
HETATM   23  C28 UNL     1       3.290  16.360  20.647  1.00  0.00     0.015 C 
ENDROOT
BRANCH  15  24
HETATM   24  C17 UNL     1       4.060  10.224  21.376  1.00  0.00     0.014 C 
BRANCH  24  25
HETATM   25  C18 UNL     1       3.574   9.738  22.759  1.00  0.00    -0.022 C 
HETATM   26  C19 UNL     1       2.574   8.592  22.684  1.00  0.00     0.009 C 
HETATM   27  C20 UNL     1       3.041  10.870  23.636  1.00  0.00     0.009 C 
ENDBRANCH  24  25
ENDBRANCH  15  24
BRANCH  13  28
HETATM   28  O5  UNL     1       6.133  12.488  23.342  1.00  0.00    -0.359 OA
HETATM   29  H15 UNL     1       6.842  12.710  23.988  1.00  0.00     0.217 HD
ENDBRANCH  13  28
BRANCH  10  30
HETATM   30  C10 UNL     1       8.382  11.090  18.364  1.00  0.00     0.275 C 
HETATM   31  O2  UNL     1       8.366   9.906  18.032  1.00  0.00    -0.301 OA
ENDBRANCH  10  30
BRANCH  12  32
HETATM   32  C13 UNL     1       9.002  12.602  23.077  1.00  0.00     0.275 C 
HETATM   33  O4  UNL     1       8.840  13.662  23.679  1.00  0.00    -0.301 OA
ENDBRANCH  12  32
BRANCH  11  34
HETATM   34  O3  UNL     1      10.032  11.890  20.587  1.00  0.00    -0.359 OA
HETATM   35  H13 UNL     1      10.262  11.605  19.671  1.00  0.00     0.217 HD
ENDBRANCH  11  34
TORSDOF 6
ENDMDL
MODEL 3
REMARK minimizedAffinity -6.69321537
REMARK  6 active torsions:
REMARK  status: ('A' for Active; 'I' for Inactive)
REMARK    1  A    between atoms: C9_10  and  C10_11 
REMARK    2  A    between atoms: C11_13  and  O3_14 
REMARK    3  A    between atoms: C12_15  and  C13_16 
REMARK    4  A    between atoms: C14_18  and  O5_19 
REMARK    5  A    between atoms: C16_21  and  C17_22 
REMARK    6  A    between atoms: C17_22  and  C18_23 
ROOT
HETATM    1  C1  UNL     1      14.672  -7.827  -0.272  1.00  0.00     0.043 C 
HETATM    2  C2  UNL     1      15.407  -6.581   0.128  1.00  0.00    -0.087 C 
HETATM    3  C3  UNL     1      16.499  -6.552   0.918  1.00  0.00    -0.024 C 
HETATM    4  C4  UNL     1      17.129  -7.659   1.700  1.00  0.00     0.030 C 
HETATM    5  C5  UNL     1      16.463  -8.027   3.042  1.00  0.00     0.042 C 
HETATM    6  C6  UNL     1      15.810  -6.928   3.954  1.00  0.00     0.069 C 
HETATM    7  C7  UNL     1      16.778  -5.737   4.145  1.00  0.00     0.047 C 
HETATM    8  O1  UNL     1      15.779  -7.569   5.272  1.00  0.00    -0.338 OA
HETATM    9  C8  UNL     1      15.038  -6.886   6.199  1.00  0.00     0.095 A 
HETATM   10  C9  UNL     1      15.544  -6.662   7.483  1.00  0.00     0.070 A 
HETATM   11  C11 UNL     1      14.753  -6.006   8.438  1.00  0.00     0.097 A 
HETATM   12  C12 UNL     1      13.449  -5.615   8.110  1.00  0.00     0.069 A 
HETATM   13  C14 UNL     1      12.940  -5.882   6.827  1.00  0.00     0.091 A 
HETATM   14  C15 UNL     1      13.740  -6.501   5.859  1.00  0.00     0.015 A 
HETATM   15  C16 UNL     1      13.236  -6.911   4.491  1.00  0.00     0.032 C 
HETATM   16  C21 UNL     1      14.331  -6.584   3.437  1.00  0.00     0.034 C 
HETATM   17  C22 UNL     1      14.232  -5.219   2.722  1.00  0.00     0.006 A 
HETATM   18  C23 UNL     1      13.146  -5.134   1.652  1.00  0.00    -0.001 A 
HETATM   19  C24 UNL     1      13.420  -4.918   0.181  1.00  0.00     0.010 C 
HETATM   20  C25 UNL     1      14.823  -5.261  -0.351  1.00  0.00     0.034 C 
HETATM   21  C26 UNL     1      13.240  -4.044   2.706  1.00  0.00    -0.039 A 
HETATM   22  C27 UNL     1      12.099  -3.898   3.676  1.00  0.00     0.015 C 
HETATM   23  C28 UNL     1      13.837  -2.698   2.337  1.00  0.00     0.015 C 
ENDROOT
BRANCH  15  24
HETATM   24  C17 UNL     1      12.876  -8.431   4.569  1.00  0.00     0.014 C 
BRANCH  24  25
HETATM   25  C18 UNL     1      12.114  -9.061   3.383  1.00  0.00    -0.022 C 
HETATM   26  C19 UNL     1      10.937  -9.929   3.808  1.00  0.00     0.009 C 
HETATM   27  C20 UNL     1      13.029  -9.818   2.420  1.00  0.00     0.009 C 
ENDBRANCH  24  25
ENDBRANCH  15  24
BRANCH  13  28
HETATM   28  O5  UNL     1      11.646  -5.585   6.485  1.00  0.00    -0.359 OA
HETATM   29  H15 UNL     1      11.210  -5.152   7.255  1.00  0.00     0.217 HD
ENDBRANCH  13  28
BRANCH  10  30
HETATM   30  C10 UNL     1      16.908  -7.116   7.812  1.00  0.00     0.275 C 
HETATM   31  O2  UNL     1      17.090  -8.231   8.295  1.00  0.00    -0.301 OA
ENDBRANCH  10  30
BRANCH  12  32
HETATM   32  C13 UNL     1      12.611  -4.948   9.127  1.00  0.00     0.275 C 
HETATM   33  O4  UNL     1      11.608  -5.504   9.570  1.00  0.00    -0.301 OA
ENDBRANCH  12  32
BRANCH  11  34
HETATM   34  O3  UNL     1      15.219  -5.745   9.703  1.00  0.00    -0.359 OA
HETATM   35  H13 UNL     1      16.140  -6.089   9.778  1.00  0.00     0.217 HD
ENDBRANCH  11  34
TORSDOF 6
ENDMDL
MODEL 4
REMARK minimizedAffinity -6.62831545
REMARK  6 active torsions:
REMARK  status: ('A' for Active; 'I' for Inactive)
REMARK    1  A    between atoms: C9_10  and  C10_11 
REMARK    2  A    between atoms: C11_13  and  O3_14 
REMARK    3  A    between atoms: C12_15  and  C13_16 
REMARK    4  A    between atoms: C14_18  and  O5_19 
REMARK    5  A    between atoms: C16_21  and  C17_22 
REMARK    6  A    between atoms: C17_22  and  C18_23 
ROOT
HETATM    1  C1  UNL     1      12.148  -7.706   4.581  1.00  0.00     0.043 C 
HETATM    2  C2  UNL     1      13.535  -7.779   4.014  1.00  0.00    -0.087 C 
HETATM    3  C3  UNL     1      14.517  -8.574   4.482  1.00  0.00    -0.024 C 
HETATM    4  C4  UNL     1      14.545  -9.415   5.717  1.00  0.00     0.030 C 
HETATM    5  C5  UNL     1      14.830  -8.686   7.047  1.00  0.00     0.042 C 
HETATM    6  C6  UNL     1      15.824  -7.472   7.110  1.00  0.00     0.069 C 
HETATM    7  C7  UNL     1      17.150  -7.818   6.393  1.00  0.00     0.047 C 
HETATM    8  O1  UNL     1      16.195  -7.425   8.528  1.00  0.00    -0.338 OA
HETATM    9  C8  UNL     1      16.885  -6.295   8.879  1.00  0.00     0.095 A 
HETATM   10  C9  UNL     1      18.040  -6.387   9.661  1.00  0.00     0.070 A 
HETATM   11  C11 UNL     1      18.708  -5.218  10.056  1.00  0.00     0.097 A 
HETATM   12  C12 UNL     1      18.191  -3.967   9.695  1.00  0.00     0.069 A 
HETATM   13  C14 UNL     1      17.007  -3.890   8.941  1.00  0.00     0.091 A 
HETATM   14  C15 UNL     1      16.360  -5.054   8.511  1.00  0.00     0.015 A 
HETATM   15  C16 UNL     1      15.032  -5.057   7.784  1.00  0.00     0.032 C 
HETATM   16  C21 UNL     1      15.085  -6.124   6.655  1.00  0.00     0.034 C 
HETATM   17  C22 UNL     1      15.501  -5.640   5.249  1.00  0.00     0.006 A 
HETATM   18  C23 UNL     1      14.425  -4.861   4.494  1.00  0.00    -0.001 A 
HETATM   19  C24 UNL     1      13.789  -5.328   3.205  1.00  0.00     0.010 C 
HETATM   20  C25 UNL     1      13.854  -6.829   2.868  1.00  0.00     0.034 C 
HETATM   21  C26 UNL     1      15.829  -4.288   4.593  1.00  0.00    -0.039 A 
HETATM   22  C27 UNL     1      16.016  -3.007   5.362  1.00  0.00     0.015 C 
HETATM   23  C28 UNL     1      16.751  -4.358   3.390  1.00  0.00     0.015 C 
ENDROOT
BRANCH  15  24
HETATM   24  C17 UNL     1      13.922  -5.329   8.851  1.00  0.00     0.014 C 
BRANCH  24  25
HETATM   25  C18 UNL     1      12.631  -6.044   8.395  1.00  0.00    -0.022 C 
HETATM   26  C19 UNL     1      11.891  -5.313   7.282  1.00  0.00     0.009 C 
HETATM   27  C20 UNL     1      11.689  -6.370   9.553  1.00  0.00     0.009 C 
ENDBRANCH  24  25
ENDBRANCH  15  24
BRANCH  13  28
HETATM   28  O5  UNL     1      16.425  -2.689   8.628  1.00  0.00    -0.359 OA
HETATM   29  H15 UNL     1      16.989  -1.965   8.986  1.00  0.00     0.217 HD
ENDBRANCH  13  28
BRANCH  10  30
HETATM   30  C10 UNL     1      18.542  -7.716  10.056  1.00  0.00     0.275 C 
HETATM   31  O2  UNL     1      18.681  -7.997  11.245  1.00  0.00    -0.301 OA
ENDBRANCH  10  30
BRANCH  12  32
HETATM   32  C13 UNL     1      18.884  -2.739  10.134  1.00  0.00     0.275 C 
HETATM   33  O4  UNL     1      19.303  -2.638  11.286  1.00  0.00    -0.301 OA
ENDBRANCH  12  32
BRANCH  11  34
HETATM   34  O3  UNL     1      19.858  -5.263  10.804  1.00  0.00    -0.359 OA
HETATM   35  H13 UNL     1      20.083  -6.206  10.983  1.00  0.00     0.217 HD
ENDBRANCH  11  34
TORSDOF 6
ENDMDL
MODEL 5
REMARK minimizedAffinity -6.43957329
REMARK  6 active torsions:
REMARK  status: ('A' for Active; 'I' for Inactive)
REMARK    1  A    between atoms: C9_10  and  C10_11 
REMARK    2  A    between atoms: C11_13  and  O3_14 
REMARK    3  A    between atoms: C12_15  and  C13_16 
REMARK    4  A    between atoms: C14_18  and  O5_19 
REMARK    5  A    between atoms: C16_21  and  C17_22 
REMARK    6  A    between atoms: C17_22  and  C18_23 
ROOT
HETATM    1  C1  UNL     1      -2.656   8.719  12.220  1.00  0.00     0.043 C 
HETATM    2  C2  UNL     1      -2.161   7.859  13.346  1.00  0.00    -0.087 C 
HETATM    3  C3  UNL     1      -1.307   8.265  14.306  1.00  0.00    -0.024 C 
HETATM    4  C4  UNL     1      -0.535   9.541  14.407  1.00  0.00     0.030 C 
HETATM    5  C5  UNL     1       0.748   9.645  13.557  1.00  0.00     0.042 C 
HETATM    6  C6  UNL     1       1.664   8.394  13.313  1.00  0.00     0.069 C 
HETATM    7  C7  UNL     1       1.963   7.670  14.647  1.00  0.00     0.047 C 
HETATM    8  O1  UNL     1       2.951   8.994  12.945  1.00  0.00    -0.338 OA
HETATM    9  C8  UNL     1       3.860   8.093  12.458  1.00  0.00     0.095 A 
HETATM   10  C9  UNL     1       5.180   8.101  12.919  1.00  0.00     0.070 A 
HETATM   11  C11 UNL     1       6.112   7.206  12.374  1.00  0.00     0.097 A 
HETATM   12  C12 UNL     1       5.724   6.338  11.346  1.00  0.00     0.069 A 
HETATM   13  C14 UNL     1       4.403   6.368  10.867  1.00  0.00     0.091 A 
HETATM   14  C15 UNL     1       3.459   7.231  11.435  1.00  0.00     0.015 A 
HETATM   15  C16 UNL     1       2.048   7.395  10.911  1.00  0.00     0.032 C 
HETATM   16  C21 UNL     1       1.076   7.498  12.119  1.00  0.00     0.034 C 
HETATM   17  C22 UNL     1       0.413   6.190  12.602  1.00  0.00     0.006 A 
HETATM   18  C23 UNL     1      -0.715   5.676  11.710  1.00  0.00    -0.001 A 
HETATM   19  C24 UNL     1      -2.157   5.559  12.150  1.00  0.00     0.010 C 
HETATM   20  C25 UNL     1      -2.618   6.408  13.348  1.00  0.00     0.034 C 
HETATM   21  C26 UNL     1       0.388   4.723  12.140  1.00  0.00    -0.039 A 
HETATM   22  C27 UNL     1       1.293   4.164  11.076  1.00  0.00     0.015 C 
HETATM   23  C28 UNL     1       0.111   3.706  13.232  1.00  0.00     0.015 C 
ENDROOT
BRANCH  15  24
HETATM   24  C17 UNL     1       2.041   8.660   9.991  1.00  0.00     0.014 C 
BRANCH  24  25
HETATM   25  C18 UNL     1       1.319   8.567   8.629  1.00  0.00    -0.022 C 
HETATM   26  C19 UNL     1      -0.191   8.411   8.749  1.00  0.00     0.009 C 
HETATM   27  C20 UNL     1       1.906   7.491   7.715  1.00  0.00     0.009 C 
ENDBRANCH  24  25
ENDBRANCH  15  24
BRANCH  13  28
HETATM   28  O5  UNL     1       3.997   5.589   9.813  1.00  0.00    -0.359 OA
HETATM   29  H15 UNL     1       4.757   5.034   9.523  1.00  0.00     0.217 HD
ENDBRANCH  13  28
BRANCH  10  30
HETATM   30  C10 UNL     1       5.570   9.050  13.978  1.00  0.00     0.275 C 
HETATM   31  O2  UNL     1       6.718   9.486  14.025  1.00  0.00    -0.301 OA
ENDBRANCH  10  30
BRANCH  12  32
HETATM   32  C13 UNL     1       6.716   5.415  10.759  1.00  0.00     0.275 C 
HETATM   33  O4  UNL     1       6.353   4.491  10.033  1.00  0.00    -0.301 OA
ENDBRANCH  12  32
BRANCH  11  34
HETATM   34  O3  UNL     1       7.412   7.164  12.814  1.00  0.00    -0.359 OA
HETATM   35  H13 UNL     1       7.528   7.837  13.525  1.00  0.00     0.217 HD
ENDBRANCH  11  34
TORSDOF 6
ENDMDL
MODEL 6
REMARK minimizedAffinity -6.10705328
REMARK  6 active torsions:
REMARK  status: ('A' for Active; 'I' for Inactive)
REMARK    1  A    between atoms: C9_10  and  C10_11 
REMARK    2  A    between atoms: C11_13  and  O3_14 
REMARK    3  A    between atoms: C12_15  and  C13_16 
REMARK    4  A    between atoms: C14_18  and  O5_19 
REMARK    5  A    between atoms: C16_21  and  C17_22 
REMARK    6  A    between atoms: C17_22  and  C18_23 
ROOT
HETATM    1  C1  UNL     1       4.747   8.529  10.088  1.00  0.00     0.043 C 
HETATM    2  C2  UNL     1       4.792   7.478  11.158  1.00  0.00    -0.087 C 
HETATM    3  C3  UNL     1       4.405   6.198  10.995  1.00  0.00    -0.024 C 
HETATM    4  C4  UNL     1       3.708   5.560   9.837  1.00  0.00     0.030 C 
HETATM    5  C5  UNL     1       2.184   5.783   9.735  1.00  0.00     0.042 C 
HETATM    6  C6  UNL     1       1.287   5.861  11.022  1.00  0.00     0.069 C 
HETATM    7  C7  UNL     1       1.594   4.677  11.970  1.00  0.00     0.047 C 
HETATM    8  O1  UNL     1      -0.053   5.559  10.507  1.00  0.00    -0.338 OA
HETATM    9  C8  UNL     1      -1.055   5.793  11.411  1.00  0.00     0.095 A 
HETATM   10  C9  UNL     1      -2.062   4.843  11.611  1.00  0.00     0.070 A 
HETATM   11  C11 UNL     1      -3.110   5.118  12.502  1.00  0.00     0.097 A 
HETATM   12  C12 UNL     1      -3.160   6.356  13.156  1.00  0.00     0.069 A 
HETATM   13  C14 UNL     1      -2.160   7.314  12.915  1.00  0.00     0.091 A 
HETATM   14  C15 UNL     1      -1.091   7.029  12.058  1.00  0.00     0.015 A 
HETATM   15  C16 UNL     1      -0.033   8.040  11.670  1.00  0.00     0.032 C 
HETATM   16  C21 UNL     1       1.351   7.332  11.656  1.00  0.00     0.034 C 
HETATM   17  C22 UNL     1       2.193   7.409  12.948  1.00  0.00     0.006 A 
HETATM   18  C23 UNL     1       2.862   8.759  13.198  1.00  0.00    -0.001 A 
HETATM   19  C24 UNL     1       4.358   8.970  13.233  1.00  0.00     0.010 C 
HETATM   20  C25 UNL     1       5.252   7.928  12.537  1.00  0.00     0.034 C 
HETATM   21  C26 UNL     1       2.067   8.102  14.315  1.00  0.00    -0.039 A 
HETATM   22  C27 UNL     1       0.818   8.791  14.793  1.00  0.00     0.015 C 
HETATM   23  C28 UNL     1       2.804   7.423  15.455  1.00  0.00     0.015 C 
ENDROOT
BRANCH  15  24
HETATM   24  C17 UNL     1      -0.447   8.634  10.285  1.00  0.00     0.014 C 
BRANCH  24  25
HETATM   25  C18 UNL     1       0.310   8.151   9.029  1.00  0.00    -0.022 C 
HETATM   26  C19 UNL     1       1.554   8.971   8.714  1.00  0.00     0.009 C 
HETATM   27  C20 UNL     1      -0.589   8.033   7.798  1.00  0.00     0.009 C 
ENDBRANCH  24  25
ENDBRANCH  15  24
BRANCH  13  28
HETATM   28  O5  UNL     1      -2.208   8.565  13.476  1.00  0.00    -0.359 OA
HETATM   29  H15 UNL     1      -3.003   8.620  14.054  1.00  0.00     0.217 HD
ENDBRANCH  13  28
BRANCH  10  30
HETATM   30  C10 UNL     1      -2.003   3.563  10.883  1.00  0.00     0.275 C 
HETATM   31  O2  UNL     1      -1.329   2.633  11.320  1.00  0.00    -0.301 OA
ENDBRANCH  10  30
BRANCH  12  32
HETATM   32  C13 UNL     1      -4.278   6.650  14.074  1.00  0.00     0.275 C 
HETATM   33  O4  UNL     1      -4.066   6.853  15.268  1.00  0.00    -0.301 OA
ENDBRANCH  12  32
BRANCH  11  34
HETATM   34  O3  UNL     1      -4.106   4.206  12.746  1.00  0.00    -0.359 OA
HETATM   35  H13 UNL     1      -3.935   3.398  12.206  1.00  0.00     0.217 HD
ENDBRANCH  11  34
TORSDOF 6
ENDMDL
MODEL 7
REMARK minimizedAffinity -6.09092617
REMARK  6 active torsions:
REMARK  status: ('A' for Active; 'I' for Inactive)
REMARK    1  A    between atoms: C9_10  and  C10_11 
REMARK    2  A    between atoms: C11_13  and  O3_14 
REMARK    3  A    between atoms: C12_15  and  C13_16 
REMARK    4  A    between atoms: C14_18  and  O5_19 
REMARK    5  A    between atoms: C16_21  and  C17_22 
REMARK    6  A    between atoms: C17_22  and  C18_23 
ROOT
HETATM    1  C1  UNL     1     -14.086  -6.126   9.325  1.00  0.00     0.043 C 
HETATM    2  C2  UNL     1     -15.365  -5.342   9.265  1.00  0.00    -0.087 C 
HETATM    3  C3  UNL     1     -15.446  -3.998   9.332  1.00  0.00    -0.024 C 
HETATM    4  C4  UNL     1     -14.378  -3.000   9.641  1.00  0.00     0.030 C 
HETATM    5  C5  UNL     1     -14.011  -2.812  11.128  1.00  0.00     0.042 C 
HETATM    6  C6  UNL     1     -15.103  -2.907  12.252  1.00  0.00     0.069 C 
HETATM    7  C7  UNL     1     -16.331  -2.039  11.890  1.00  0.00     0.047 C 
HETATM    8  O1  UNL     1     -14.486  -2.189  13.372  1.00  0.00    -0.338 OA
HETATM    9  C8  UNL     1     -15.159  -2.332  14.556  1.00  0.00     0.095 A 
HETATM   10  C9  UNL     1     -15.424  -1.218  15.357  1.00  0.00     0.070 A 
HETATM   11  C11 UNL     1     -16.070  -1.387  16.591  1.00  0.00     0.097 A 
HETATM   12  C12 UNL     1     -16.408  -2.673  17.029  1.00  0.00     0.069 A 
HETATM   13  C14 UNL     1     -16.099  -3.787  16.229  1.00  0.00     0.091 A 
HETATM   14  C15 UNL     1     -15.492  -3.620  14.979  1.00  0.00     0.015 A 
HETATM   15  C16 UNL     1     -15.038  -4.771  14.105  1.00  0.00     0.032 C 
HETATM   16  C21 UNL     1     -15.385  -4.440  12.626  1.00  0.00     0.034 C 
HETATM   17  C22 UNL     1     -16.731  -4.968  12.086  1.00  0.00     0.006 A 
HETATM   18  C23 UNL     1     -16.758  -6.464  11.781  1.00  0.00    -0.001 A 
HETATM   19  C24 UNL     1     -16.957  -7.044  10.399  1.00  0.00     0.010 C 
HETATM   20  C25 UNL     1     -16.654  -6.145   9.187  1.00  0.00     0.034 C 
HETATM   21  C26 UNL     1     -17.870  -5.854  12.618  1.00  0.00    -0.039 A 
HETATM   22  C27 UNL     1     -17.994  -6.288  14.053  1.00  0.00     0.015 C 
HETATM   23  C28 UNL     1     -19.229  -5.609  11.988  1.00  0.00     0.015 C 
ENDROOT
BRANCH  15  24
HETATM   24  C17 UNL     1     -13.508  -4.969  14.361  1.00  0.00     0.014 C 
BRANCH  24  25
HETATM   25  C18 UNL     1     -13.015  -6.371  14.781  1.00  0.00    -0.022 C 
HETATM   26  C19 UNL     1     -13.010  -6.588  16.288  1.00  0.00     0.009 C 
HETATM   27  C20 UNL     1     -11.659  -6.733  14.174  1.00  0.00     0.009 C 
ENDBRANCH  24  25
ENDBRANCH  15  24
BRANCH  13  28
HETATM   28  O5  UNL     1     -16.344  -5.070  16.649  1.00  0.00    -0.359 OA
HETATM   29  H15 UNL     1     -16.775  -5.033  17.534  1.00  0.00     0.217 HD
ENDBRANCH  13  28
BRANCH  10  30
HETATM   30  C10 UNL     1     -15.026   0.122  14.888  1.00  0.00     0.275 C 
HETATM   31  O2  UNL     1     -14.509   0.921  15.665  1.00  0.00    -0.301 OA
ENDBRANCH  10  30
BRANCH  12  32
HETATM   32  C13 UNL     1     -17.064  -2.848  18.340  1.00  0.00     0.275 C 
HETATM   33  O4  UNL     1     -16.504  -2.479  19.371  1.00  0.00    -0.301 OA
ENDBRANCH  12  32
BRANCH  11  34
HETATM   34  O3  UNL     1     -16.371  -0.318  17.399  1.00  0.00    -0.359 OA
HETATM   35  H13 UNL     1     -16.061   0.509  16.959  1.00  0.00     0.217 HD
ENDBRANCH  11  34
TORSDOF 6
ENDMDL
MODEL 8
REMARK minimizedAffinity -6.07484436
REMARK  6 active torsions:
REMARK  status: ('A' for Active; 'I' for Inactive)
REMARK    1  A    between atoms: C9_10  and  C10_11 
REMARK    2  A    between atoms: C11_13  and  O3_14 
REMARK    3  A    between atoms: C12_15  and  C13_16 
REMARK    4  A    between atoms: C14_18  and  O5_19 
REMARK    5  A    between atoms: C16_21  and  C17_22 
REMARK    6  A    between atoms: C17_22  and  C18_23 
ROOT
HETATM    1  C1  UNL     1     -20.412   4.284  14.368  1.00  0.00     0.043 C 
HETATM    2  C2  UNL     1     -21.131   2.982  14.162  1.00  0.00    -0.087 C 
HETATM    3  C3  UNL     1     -21.396   2.088  15.134  1.00  0.00    -0.024 C 
HETATM    4  C4  UNL     1     -20.928   2.066  16.553  1.00  0.00     0.030 C 
HETATM    5  C5  UNL     1     -19.494   1.552  16.802  1.00  0.00     0.042 C 
HETATM    6  C6  UNL     1     -18.887   0.389  15.939  1.00  0.00     0.069 C 
HETATM    7  C7  UNL     1     -19.875  -0.798  15.854  1.00  0.00     0.047 C 
HETATM    8  O1  UNL     1     -17.803  -0.118  16.787  1.00  0.00    -0.338 OA
HETATM    9  C8  UNL     1     -16.969  -0.996  16.147  1.00  0.00     0.095 A 
HETATM   10  C9  UNL     1     -16.597  -2.194  16.764  1.00  0.00     0.070 A 
HETATM   11  C11 UNL     1     -15.702  -3.061  16.118  1.00  0.00     0.097 A 
HETATM   12  C12 UNL     1     -15.158  -2.701  14.879  1.00  0.00     0.069 A 
HETATM   13  C14 UNL     1     -15.512  -1.474  14.290  1.00  0.00     0.091 A 
HETATM   14  C15 UNL     1     -16.435  -0.626  14.911  1.00  0.00     0.015 A 
HETATM   15  C16 UNL     1     -16.791   0.751  14.392  1.00  0.00     0.032 C 
HETATM   16  C21 UNL     1     -18.323   0.964  14.552  1.00  0.00     0.034 C 
HETATM   17  C22 UNL     1     -19.210   0.616  13.337  1.00  0.00     0.006 A 
HETATM   18  C23 UNL     1     -19.166   1.633  12.199  1.00  0.00    -0.001 A 
HETATM   19  C24 UNL     1     -20.354   2.452  11.746  1.00  0.00     0.010 C 
HETATM   20  C25 UNL     1     -21.521   2.639  12.732  1.00  0.00     0.034 C 
HETATM   21  C26 UNL     1     -18.978   0.158  11.887  1.00  0.00    -0.039 A 
HETATM   22  C27 UNL     1     -17.643  -0.287  11.353  1.00  0.00     0.015 C 
HETATM   23  C28 UNL     1     -20.119  -0.625  11.265  1.00  0.00     0.015 C 
ENDROOT
BRANCH  15  24
HETATM   24  C17 UNL     1     -15.930   1.783  15.192  1.00  0.00     0.014 C 
BRANCH  24  25
HETATM   25  C18 UNL     1     -16.385   3.258  15.205  1.00  0.00    -0.022 C 
HETATM   26  C19 UNL     1     -15.312   4.231  14.735  1.00  0.00     0.009 C 
HETATM   27  C20 UNL     1     -16.962   3.693  16.552  1.00  0.00     0.009 C 
ENDBRANCH  24  25
ENDBRANCH  15  24
BRANCH  13  28
HETATM   28  O5  UNL     1     -14.949  -1.047  13.114  1.00  0.00    -0.359 OA
HETATM   29  H15 UNL     1     -14.329  -1.742  12.793  1.00  0.00     0.217 HD
ENDBRANCH  13  28
BRANCH  10  30
HETATM   30  C10 UNL     1     -17.159  -2.532  18.085  1.00  0.00     0.275 C 
HETATM   31  O2  UNL     1     -16.460  -2.452  19.093  1.00  0.00    -0.301 OA
ENDBRANCH  10  30
BRANCH  12  32
HETATM   32  C13 UNL     1     -14.197  -3.604  14.215  1.00  0.00     0.275 C 
HETATM   33  O4  UNL     1     -13.151  -3.923  14.778  1.00  0.00    -0.301 OA
ENDBRANCH  12  32
BRANCH  11  34
HETATM   34  O3  UNL     1     -15.329  -4.258  16.677  1.00  0.00    -0.359 OA
HETATM   35  H13 UNL     1     -15.786  -4.358  17.545  1.00  0.00     0.217 HD
ENDBRANCH  11  34
TORSDOF 6
ENDMDL
MODEL 9
REMARK minimizedAffinity -6.01662016
REMARK  6 active torsions:
REMARK  status: ('A' for Active; 'I' for Inactive)
REMARK    1  A    between atoms: C9_10  and  C10_11 
REMARK    2  A    between atoms: C11_13  and  O3_14 
REMARK    3  A    between atoms: C12_15  and  C13_16 
REMARK    4  A    between atoms: C14_18  and  O5_19 
REMARK    5  A    between atoms: C16_21  and  C17_22 
REMARK    6  A    between atoms: C17_22  and  C18_23 
ROOT
HETATM    1  C1  UNL     1     -19.796  -0.475  17.884  1.00  0.00     0.043 C 
HETATM    2  C2  UNL     1     -20.085  -1.880  17.442  1.00  0.00    -0.087 C 
HETATM    3  C3  UNL     1     -19.347  -2.958  17.772  1.00  0.00    -0.024 C 
HETATM    4  C4  UNL     1     -18.030  -3.022  18.475  1.00  0.00     0.030 C 
HETATM    5  C5  UNL     1     -16.775  -2.721  17.628  1.00  0.00     0.042 C 
HETATM    6  C6  UNL     1     -16.687  -3.158  16.123  1.00  0.00     0.069 C 
HETATM    7  C7  UNL     1     -17.098  -4.640  15.963  1.00  0.00     0.047 C 
HETATM    8  O1  UNL     1     -15.243  -3.165  15.866  1.00  0.00    -0.338 OA
HETATM    9  C8  UNL     1     -14.921  -3.296  14.542  1.00  0.00     0.095 A 
HETATM   10  C9  UNL     1     -13.934  -4.202  14.141  1.00  0.00     0.070 A 
HETATM   11  C11 UNL     1     -13.578  -4.289  12.787  1.00  0.00     0.097 A 
HETATM   12  C12 UNL     1     -14.185  -3.440  11.853  1.00  0.00     0.069 A 
HETATM   13  C14 UNL     1     -15.147  -2.507  12.277  1.00  0.00     0.091 A 
HETATM   14  C15 UNL     1     -15.535  -2.445  13.621  1.00  0.00     0.015 A 
HETATM   15  C16 UNL     1     -16.487  -1.405  14.173  1.00  0.00     0.032 C 
HETATM   16  C21 UNL     1     -17.440  -2.093  15.190  1.00  0.00     0.034 C 
HETATM   17  C22 UNL     1     -18.796  -2.598  14.651  1.00  0.00     0.006 A 
HETATM   18  C23 UNL     1     -19.829  -1.505  14.388  1.00  0.00    -0.001 A 
HETATM   19  C24 UNL     1     -21.142  -1.383  15.127  1.00  0.00     0.010 C 
HETATM   20  C25 UNL     1     -21.265  -2.069  16.500  1.00  0.00     0.034 C 
HETATM   21  C26 UNL     1     -19.549  -2.540  13.311  1.00  0.00    -0.039 A 
HETATM   22  C27 UNL     1     -18.931  -2.070  12.022  1.00  0.00     0.015 C 
HETATM   23  C28 UNL     1     -20.544  -3.662  13.078  1.00  0.00     0.015 C 
ENDROOT
BRANCH  15  24
HETATM   24  C17 UNL     1     -15.616  -0.269  14.800  1.00  0.00     0.014 C 
BRANCH  24  25
HETATM   25  C18 UNL     1     -15.435   1.038  13.998  1.00  0.00    -0.022 C 
HETATM   26  C19 UNL     1     -15.071   2.238  14.862  1.00  0.00     0.009 C 
HETATM   27  C20 UNL     1     -16.630   1.357  13.100  1.00  0.00     0.009 C 
ENDBRANCH  24  25
ENDBRANCH  15  24
BRANCH  13  28
HETATM   28  O5  UNL     1     -15.714  -1.607  11.411  1.00  0.00    -0.359 OA
HETATM   29  H15 UNL     1     -15.354  -1.772  10.509  1.00  0.00     0.217 HD
ENDBRANCH  13  28
BRANCH  10  30
HETATM   30  C10 UNL     1     -13.287  -5.060  15.151  1.00  0.00     0.275 C 
HETATM   31  O2  UNL     1     -12.146  -4.810  15.534  1.00  0.00    -0.301 OA
ENDBRANCH  10  30
BRANCH  12  32
HETATM   32  C13 UNL     1     -13.788  -3.518  10.432  1.00  0.00     0.275 C 
HETATM   33  O4  UNL     1     -13.469  -2.501   9.819  1.00  0.00    -0.301 OA
ENDBRANCH  12  32
BRANCH  11  34
HETATM   34  O3  UNL     1     -12.632  -5.181  12.346  1.00  0.00    -0.359 OA
HETATM   35  H13 UNL     1     -12.295  -5.693  13.120  1.00  0.00     0.217 HD
ENDBRANCH  11  34
TORSDOF 6
ENDMDL
