MODEL 1
REMARK minimizedAffinity -10.4307938
REMARK CNNscore 0.736973464
REMARK CNNaffinity 6.99205351
REMARK  6 active torsions:
REMARK  status: ('A' for Active; 'I' for Inactive)
REMARK    1  A    between atoms: C15_17  and  C16_18 
REMARK    2  A    between atoms: C22_26  and  O5_27 
REMARK    3  A    between atoms: C23_28  and  C24_29 
REMARK    4  A    between atoms: C27_34  and  O8_35 
REMARK    5  A    between atoms: C28_36  and  O9_37 
REMARK    6  A    between atoms: C29_38  and  O10_39 
ROOT
HETATM    1  C1  UNL     1      -7.167  44.955 -29.074  1.00  0.00     0.042 C 
HETATM    2  C2  UNL     1      -8.472  45.371 -28.399  1.00  0.00     0.152 C 
HETATM    3  O1  UNL     1      -8.186  45.519 -26.994  1.00  0.00    -0.348 OA
HETATM    4  C3  UNL     1      -9.085  46.426 -26.363  1.00  0.00     0.325 C 
HETATM    5  O2  UNL     1      -9.017  46.320 -24.931  1.00  0.00    -0.347 OA
HETATM    6  C4  UNL     1      -7.747  46.770 -24.453  1.00  0.00     0.158 C 
HETATM    7  C5  UNL     1      -7.697  46.594 -22.937  1.00  0.00     0.069 C 
HETATM    8  C6  UNL     1      -6.399  47.128 -22.377  1.00  0.00    -0.065 C 
HETATM    9  C7  UNL     1      -5.613  46.345 -21.617  1.00  0.00    -0.022 C 
HETATM   10  C8  UNL     1      -4.323  46.793 -20.992  1.00  0.00     0.035 C 
HETATM   11  C9  UNL     1      -4.183  48.327 -20.968  1.00  0.00     0.030 C 
HETATM   12  C10 UNL     1      -4.545  48.901 -22.360  1.00  0.00     0.012 C 
HETATM   13  C11 UNL     1      -4.158  50.385 -22.510  1.00  0.00     0.007 C 
HETATM   14  C12 UNL     1      -3.792  51.059 -21.188  1.00  0.00     0.013 C 
HETATM   15  C13 UNL     1      -2.646  50.366 -20.411  1.00  0.00    -0.005 C 
HETATM   16  C14 UNL     1      -2.669  50.931 -18.970  1.00  0.00     0.019 C 
HETATM   17  C15 UNL     1      -1.254  50.618 -21.109  1.00  0.00     0.028 C 
HETATM   18  C20 UNL     1      -0.510  49.293 -20.945  1.00  0.00     0.013 C 
HETATM   19  C21 UNL     1      -1.605  48.275 -21.232  1.00  0.00     0.040 C 
HETATM   20  C22 UNL     1      -2.810  48.797 -20.433  1.00  0.00     0.070 C 
HETATM   21  C23 UNL     1      -6.032  48.571 -22.747  1.00  0.00     0.043 C 
HETATM   22  C25 UNL     1      -6.225  48.775 -24.275  1.00  0.00     0.056 C 
HETATM   23  C26 UNL     1      -7.569  48.252 -24.804  1.00  0.00     0.156 C 
HETATM   24  O7  UNL     1      -7.600  48.442 -26.223  1.00  0.00    -0.341 OA
HETATM   25  C27 UNL     1      -8.791  47.893 -26.833  1.00  0.00     0.242 C 
HETATM   26  C28 UNL     1      -8.523  47.908 -28.370  1.00  0.00     0.216 C 
HETATM   27  C29 UNL     1      -9.056  46.650 -29.055  1.00  0.00     0.181 C 
ENDROOT
BRANCH  17  28
HETATM   28  C16 UNL     1      -0.483  51.840 -20.707  1.00  0.00    -0.045 A 
HETATM   29  C17 UNL     1       0.355  52.531 -21.478  1.00  0.00     0.087 A 
HETATM   30  C18 UNL     1       0.839  53.665 -20.693  1.00  0.00     0.283 A 
HETATM   31  O3  UNL     1       1.573  54.534 -21.121  1.00  0.00    -0.260 OA
HETATM   32  O4  UNL     1       0.323  53.587 -19.441  1.00  0.00    -0.314 OA
HETATM   33  C19 UNL     1      -0.551  52.456 -19.361  1.00  0.00     0.213 A 
ENDBRANCH  17  28
BRANCH  20  34
HETATM   34  O5  UNL     1      -2.643  48.256 -19.114  1.00  0.00    -0.389 OA
HETATM   35  H29 UNL     1      -3.452  48.437 -18.602  1.00  0.00     0.210 HD
ENDBRANCH  20  34
BRANCH  21  36
HETATM   36  C24 UNL     1      -6.985  49.524 -21.997  1.00  0.00     0.245 C 
HETATM   37  O6  UNL     1      -7.340  49.398 -20.828  1.00  0.00    -0.306 OA
ENDBRANCH  21  36
BRANCH  25  38
HETATM   38  O8  UNL     1      -9.884  48.777 -26.541  1.00  0.00    -0.359 OA
HETATM   39  H34 UNL     1     -10.334  48.416 -25.759  1.00  0.00     0.213 HD
ENDBRANCH  25  38
BRANCH  26  40
HETATM   40  O9  UNL     1      -9.104  49.071 -28.998  1.00  0.00    -0.387 OA
HETATM   41  H36 UNL     1      -9.589  49.529 -28.272  1.00  0.00     0.210 HD
ENDBRANCH  26  40
BRANCH  27  42
HETATM   42  O10 UNL     1     -10.483  46.619 -28.917  1.00  0.00    -0.390 OA
HETATM   43  H38 UNL     1     -10.845  47.221 -29.603  1.00  0.00     0.210 HD
ENDBRANCH  27  42
TORSDOF 6
ENDMDL
MODEL 2
REMARK minimizedAffinity -7.51468658
REMARK CNNscore 0.687939346
REMARK CNNaffinity 6.4156394
REMARK  6 active torsions:
REMARK  status: ('A' for Active; 'I' for Inactive)
REMARK    1  A    between atoms: C15_17  and  C16_18 
REMARK    2  A    between atoms: C22_26  and  O5_27 
REMARK    3  A    between atoms: C23_28  and  C24_29 
REMARK    4  A    between atoms: C27_34  and  O8_35 
REMARK    5  A    between atoms: C28_36  and  O9_37 
REMARK    6  A    between atoms: C29_38  and  O10_39 
ROOT
HETATM    1  C1  UNL     1       7.711  53.749  -5.206  1.00  0.00     0.042 C 
HETATM    2  C2  UNL     1       7.206  55.173  -4.982  1.00  0.00     0.152 C 
HETATM    3  O1  UNL     1       6.257  55.448  -6.031  1.00  0.00    -0.348 OA
HETATM    4  C3  UNL     1       5.311  56.441  -5.643  1.00  0.00     0.325 C 
HETATM    5  O2  UNL     1       4.589  56.948  -6.777  1.00  0.00    -0.347 OA
HETATM    6  C4  UNL     1       3.752  55.934  -7.336  1.00  0.00     0.158 C 
HETATM    7  C5  UNL     1       3.044  56.498  -8.566  1.00  0.00     0.069 C 
HETATM    8  C6  UNL     1       2.087  55.482  -9.147  1.00  0.00    -0.065 C 
HETATM    9  C7  UNL     1       2.176  55.128 -10.442  1.00  0.00    -0.022 C 
HETATM   10  C8  UNL     1       1.255  54.153 -11.117  1.00  0.00     0.035 C 
HETATM   11  C9  UNL     1      -0.031  53.901 -10.307  1.00  0.00     0.030 C 
HETATM   12  C10 UNL     1       0.335  53.637  -8.826  1.00  0.00     0.012 C 
HETATM   13  C11 UNL     1      -0.853  53.094  -8.008  1.00  0.00     0.007 C 
HETATM   14  C12 UNL     1      -2.198  53.219  -8.724  1.00  0.00     0.013 C 
HETATM   15  C13 UNL     1      -2.250  52.535 -10.112  1.00  0.00    -0.005 C 
HETATM   16  C14 UNL     1      -3.509  53.071 -10.835  1.00  0.00     0.019 C 
HETATM   17  C15 UNL     1      -2.290  50.964  -9.968  1.00  0.00     0.028 C 
HETATM   18  C20 UNL     1      -1.422  50.462 -11.122  1.00  0.00     0.013 C 
HETATM   19  C21 UNL     1      -0.256  51.441 -11.092  1.00  0.00     0.040 C 
HETATM   20  C22 UNL     1      -0.933  52.813 -10.935  1.00  0.00     0.070 C 
HETATM   21  C23 UNL     1       1.059  54.876  -8.184  1.00  0.00     0.043 C 
HETATM   22  C25 UNL     1       1.774  54.436  -6.878  1.00  0.00     0.056 C 
HETATM   23  C26 UNL     1       2.711  55.505  -6.296  1.00  0.00     0.156 C 
HETATM   24  O7  UNL     1       3.352  54.960  -5.136  1.00  0.00    -0.341 OA
HETATM   25  C27 UNL     1       4.330  55.859  -4.566  1.00  0.00     0.242 C 
HETATM   26  C28 UNL     1       5.131  55.010  -3.531  1.00  0.00     0.216 C 
HETATM   27  C29 UNL     1       6.624  55.339  -3.554  1.00  0.00     0.181 C 
ENDROOT
BRANCH  17  28
HETATM   28  C16 UNL     1      -3.635  50.309  -9.847  1.00  0.00    -0.045 A 
HETATM   29  C17 UNL     1      -4.770  50.736 -10.396  1.00  0.00     0.087 A 
HETATM   30  C18 UNL     1      -5.812  49.767 -10.058  1.00  0.00     0.283 A 
HETATM   31  O3  UNL     1      -6.958  49.822 -10.457  1.00  0.00    -0.260 OA
HETATM   32  O4  UNL     1      -5.281  48.812  -9.254  1.00  0.00    -0.314 OA
HETATM   33  C19 UNL     1      -3.884  49.068  -9.077  1.00  0.00     0.213 A 
ENDBRANCH  17  28
BRANCH  20  34
HETATM   34  O5  UNL     1      -1.253  53.223 -12.272  1.00  0.00    -0.389 OA
HETATM   35  H29 UNL     1      -1.556  54.149 -12.246  1.00  0.00     0.210 HD
ENDBRANCH  20  34
BRANCH  21  36
HETATM   36  C24 UNL     1       0.018  55.959  -7.837  1.00  0.00     0.245 C 
HETATM   37  O6  UNL     1      -0.431  56.179  -6.715  1.00  0.00    -0.306 OA
ENDBRANCH  21  36
BRANCH  25  38
HETATM   38  O8  UNL     1       3.624  56.898  -3.871  1.00  0.00    -0.359 OA
HETATM   39  H34 UNL     1       3.555  57.648  -4.485  1.00  0.00     0.213 HD
ENDBRANCH  25  38
BRANCH  26  40
HETATM   40  O9  UNL     1       4.627  55.195  -2.191  1.00  0.00    -0.387 OA
HETATM   41  H36 UNL     1       3.927  55.883  -2.281  1.00  0.00     0.210 HD
ENDBRANCH  26  40
BRANCH  27  42
HETATM   42  O10 UNL     1       6.802  56.703  -3.147  1.00  0.00    -0.390 OA
HETATM   43  H38 UNL     1       6.751  56.713  -2.167  1.00  0.00     0.210 HD
ENDBRANCH  27  42
TORSDOF 6
ENDMDL
MODEL 3
REMARK minimizedAffinity -8.10512352
REMARK CNNscore 0.679510236
REMARK CNNaffinity 5.89016199
REMARK  6 active torsions:
REMARK  status: ('A' for Active; 'I' for Inactive)
REMARK    1  A    between atoms: C15_17  and  C16_18 
REMARK    2  A    between atoms: C22_26  and  O5_27 
REMARK    3  A    between atoms: C23_28  and  C24_29 
REMARK    4  A    between atoms: C27_34  and  O8_35 
REMARK    5  A    between atoms: C28_36  and  O9_37 
REMARK    6  A    between atoms: C29_38  and  O10_39 
ROOT
HETATM    1  C1  UNL     1      -4.024  49.671  -9.444  1.00  0.00     0.042 C 
HETATM    2  C2  UNL     1      -3.929  50.425 -10.769  1.00  0.00     0.152 C 
HETATM    3  O1  UNL     1      -3.333  51.704 -10.478  1.00  0.00    -0.348 OA
HETATM    4  C3  UNL     1      -2.665  52.248 -11.613  1.00  0.00     0.325 C 
HETATM    5  O2  UNL     1      -2.367  53.641 -11.428  1.00  0.00    -0.347 OA
HETATM    6  C4  UNL     1      -1.396  53.816 -10.393  1.00  0.00     0.158 C 
HETATM    7  C5  UNL     1      -1.146  55.309 -10.194  1.00  0.00     0.069 C 
HETATM    8  C6  UNL     1      -0.069  55.540  -9.159  1.00  0.00    -0.065 C 
HETATM    9  C7  UNL     1      -0.306  56.327  -8.095  1.00  0.00    -0.022 C 
HETATM   10  C8  UNL     1       0.708  56.640  -7.033  1.00  0.00     0.035 C 
HETATM   11  C9  UNL     1       2.146  56.307  -7.474  1.00  0.00     0.030 C 
HETATM   12  C10 UNL     1       2.178  54.893  -8.104  1.00  0.00     0.012 C 
HETATM   13  C11 UNL     1       3.611  54.365  -8.309  1.00  0.00     0.007 C 
HETATM   14  C12 UNL     1       4.688  55.438  -8.146  1.00  0.00     0.013 C 
HETATM   15  C13 UNL     1       4.662  56.170  -6.781  1.00  0.00    -0.005 C 
HETATM   16  C14 UNL     1       5.535  57.438  -6.930  1.00  0.00     0.019 C 
HETATM   17  C15 UNL     1       5.192  55.234  -5.627  1.00  0.00     0.028 C 
HETATM   18  C20 UNL     1       4.300  55.572  -4.433  1.00  0.00     0.013 C 
HETATM   19  C21 UNL     1       2.927  55.681  -5.083  1.00  0.00     0.040 C 
HETATM   20  C22 UNL     1       3.185  56.516  -6.348  1.00  0.00     0.070 C 
HETATM   21  C23 UNL     1       1.264  54.812  -9.380  1.00  0.00     0.043 C 
HETATM   22  C25 UNL     1       0.986  53.322  -9.723  1.00  0.00     0.056 C 
HETATM   23  C26 UNL     1      -0.089  53.126 -10.802  1.00  0.00     0.156 C 
HETATM   24  O7  UNL     1      -0.295  51.721 -10.983  1.00  0.00    -0.341 OA
HETATM   25  C27 UNL     1      -1.361  51.430 -11.916  1.00  0.00     0.242 C 
HETATM   26  C28 UNL     1      -1.652  49.905 -11.762  1.00  0.00     0.216 C 
HETATM   27  C29 UNL     1      -3.148  49.599 -11.825  1.00  0.00     0.181 C 
ENDROOT
BRANCH  17  28
HETATM   28  C16 UNL     1       6.666  55.240  -5.345  1.00  0.00    -0.045 A 
HETATM   29  C17 UNL     1       7.590  55.938  -6.005  1.00  0.00     0.087 A 
HETATM   30  C18 UNL     1       8.876  55.679  -5.361  1.00  0.00     0.283 A 
HETATM   31  O3  UNL     1       9.922  56.211  -5.675  1.00  0.00    -0.260 OA
HETATM   32  O4  UNL     1       8.697  54.775  -4.364  1.00  0.00    -0.314 OA
HETATM   33  C19 UNL     1       7.306  54.448  -4.270  1.00  0.00     0.213 A 
ENDBRANCH  17  28
BRANCH  20  34
HETATM   34  O5  UNL     1       3.096  57.881  -5.915  1.00  0.00    -0.389 OA
HETATM   35  H29 UNL     1       3.110  58.456  -6.702  1.00  0.00     0.210 HD
ENDBRANCH  20  34
BRANCH  21  36
HETATM   36  C24 UNL     1       1.985  55.468 -10.575  1.00  0.00     0.245 C 
HETATM   37  O6  UNL     1       3.201  55.494 -10.742  1.00  0.00    -0.306 OA
ENDBRANCH  21  36
BRANCH  25  38
HETATM   38  O8  UNL     1      -0.870  51.680 -13.241  1.00  0.00    -0.359 OA
HETATM   39  H34 UNL     1      -1.150  52.579 -13.478  1.00  0.00     0.213 HD
ENDBRANCH  25  38
BRANCH  26  40
HETATM   40  O9  UNL     1      -0.968  49.130 -12.771  1.00  0.00    -0.387 OA
HETATM   41  H36 UNL     1      -0.536  49.802 -13.349  1.00  0.00     0.210 HD
ENDBRANCH  26  40
BRANCH  27  42
HETATM   42  O10 UNL     1      -3.637  49.950 -13.127  1.00  0.00    -0.390 OA
HETATM   43  H38 UNL     1      -3.397  49.210 -13.726  1.00  0.00     0.210 HD
ENDBRANCH  27  42
TORSDOF 6
ENDMDL
MODEL 4
REMARK minimizedAffinity -6.99016762
REMARK CNNscore 0.580325663
REMARK CNNaffinity 5.81032324
REMARK  6 active torsions:
REMARK  status: ('A' for Active; 'I' for Inactive)
REMARK    1  A    between atoms: C15_17  and  C16_18 
REMARK    2  A    between atoms: C22_26  and  O5_27 
REMARK    3  A    between atoms: C23_28  and  C24_29 
REMARK    4  A    between atoms: C27_34  and  O8_35 
REMARK    5  A    between atoms: C28_36  and  O9_37 
REMARK    6  A    between atoms: C29_38  and  O10_39 
ROOT
HETATM    1  C1  UNL     1      -2.098  52.660  -9.013  1.00  0.00     0.042 C 
HETATM    2  C2  UNL     1      -1.391  52.772 -10.363  1.00  0.00     0.152 C 
HETATM    3  O1  UNL     1      -0.359  53.765 -10.211  1.00  0.00    -0.348 OA
HETATM    4  C3  UNL     1       0.708  53.567 -11.134  1.00  0.00     0.325 C 
HETATM    5  O2  UNL     1       1.557  54.724 -11.211  1.00  0.00    -0.347 OA
HETATM    6  C4  UNL     1       2.255  54.919  -9.980  1.00  0.00     0.158 C 
HETATM    7  C5  UNL     1       3.104  56.184 -10.086  1.00  0.00     0.069 C 
HETATM    8  C6  UNL     1       3.921  56.390  -8.831  1.00  0.00    -0.065 C 
HETATM    9  C7  UNL     1       3.845  57.548  -8.153  1.00  0.00    -0.022 C 
HETATM   10  C8  UNL     1       4.637  57.858  -6.915  1.00  0.00     0.035 C 
HETATM   11  C9  UNL     1       5.826  56.897  -6.722  1.00  0.00     0.030 C 
HETATM   12  C10 UNL     1       5.349  55.438  -6.924  1.00  0.00     0.012 C 
HETATM   13  C11 UNL     1       6.395  54.401  -6.470  1.00  0.00     0.007 C 
HETATM   14  C12 UNL     1       7.777  55.000  -6.212  1.00  0.00     0.013 C 
HETATM   15  C13 UNL     1       7.795  56.150  -5.174  1.00  0.00    -0.005 C 
HETATM   16  C14 UNL     1       9.156  56.870  -5.319  1.00  0.00     0.019 C 
HETATM   17  C15 UNL     1       7.584  55.596  -3.712  1.00  0.00     0.028 C 
HETATM   18  C20 UNL     1       6.709  56.651  -3.036  1.00  0.00     0.013 C 
HETATM   19  C21 UNL     1       5.708  56.986  -4.134  1.00  0.00     0.040 C 
HETATM   20  C22 UNL     1       6.580  57.132  -5.393  1.00  0.00     0.070 C 
HETATM   21  C23 UNL     1       4.793  55.212  -8.377  1.00  0.00     0.043 C 
HETATM   22  C25 UNL     1       3.952  53.906  -8.410  1.00  0.00     0.056 C 
HETATM   23  C26 UNL     1       3.162  53.712  -9.714  1.00  0.00     0.156 C 
HETATM   24  O7  UNL     1       2.387  52.514  -9.597  1.00  0.00    -0.341 OA
HETATM   25  C27 UNL     1       1.531  52.291 -10.741  1.00  0.00     0.242 C 
HETATM   26  C28 UNL     1       0.557  51.146 -10.323  1.00  0.00     0.216 C 
HETATM   27  C29 UNL     1      -0.863  51.391 -10.832  1.00  0.00     0.181 C 
ENDROOT
BRANCH  17  28
HETATM   28  C16 UNL     1       8.803  55.185  -2.940  1.00  0.00    -0.045 A 
HETATM   29  C17 UNL     1       9.506  54.068  -3.116  1.00  0.00     0.087 A 
HETATM   30  C18 UNL     1      10.632  54.107  -2.183  1.00  0.00     0.283 A 
HETATM   31  O3  UNL     1      11.509  53.268  -2.128  1.00  0.00    -0.260 OA
HETATM   32  O4  UNL     1      10.535  55.227  -1.423  1.00  0.00    -0.314 OA
HETATM   33  C19 UNL     1       9.400  55.989  -1.848  1.00  0.00     0.213 A 
ENDBRANCH  17  28
BRANCH  20  34
HETATM   34  O5  UNL     1       7.028  58.496  -5.376  1.00  0.00    -0.389 OA
HETATM   35  H29 UNL     1       7.468  58.686  -6.224  1.00  0.00     0.210 HD
ENDBRANCH  20  34
BRANCH  21  36
HETATM   36  C24 UNL     1       5.969  55.068  -9.363  1.00  0.00     0.245 C 
HETATM   37  O6  UNL     1       6.543  54.016  -9.635  1.00  0.00    -0.306 OA
ENDBRANCH  21  36
BRANCH  25  38
HETATM   38  O8  UNL     1       2.353  51.831 -11.825  1.00  0.00    -0.359 OA
HETATM   39  H34 UNL     1       2.568  52.611 -12.363  1.00  0.00     0.213 HD
ENDBRANCH  25  38
BRANCH  26  40
HETATM   40  O9  UNL     1       1.015  49.861 -10.797  1.00  0.00    -0.387 OA
HETATM   41  H36 UNL     1       1.816  50.065 -11.333  1.00  0.00     0.210 HD
ENDBRANCH  26  40
BRANCH  27  42
HETATM   42  O10 UNL     1      -0.850  51.374 -12.266  1.00  0.00    -0.390 OA
HETATM   43  H38 UNL     1      -0.848  50.429 -12.536  1.00  0.00     0.210 HD
ENDBRANCH  27  42
TORSDOF 6
ENDMDL
MODEL 5
REMARK minimizedAffinity -8.07755852
REMARK CNNscore 0.546666563
REMARK CNNaffinity 6.26390886
REMARK  6 active torsions:
REMARK  status: ('A' for Active; 'I' for Inactive)
REMARK    1  A    between atoms: C15_17  and  C16_18 
REMARK    2  A    between atoms: C22_26  and  O5_27 
REMARK    3  A    between atoms: C23_28  and  C24_29 
REMARK    4  A    between atoms: C27_34  and  O8_35 
REMARK    5  A    between atoms: C28_36  and  O9_37 
REMARK    6  A    between atoms: C29_38  and  O10_39 
ROOT
HETATM    1  C1  UNL     1      -8.965  43.261 -29.035  1.00  0.00     0.042 C 
HETATM    2  C2  UNL     1     -10.174  44.007 -28.474  1.00  0.00     0.152 C 
HETATM    3  O1  UNL     1      -9.831  44.403 -27.132  1.00  0.00    -0.348 OA
HETATM    4  C3  UNL     1     -10.566  45.551 -26.715  1.00  0.00     0.325 C 
HETATM    5  O2  UNL     1     -10.477  45.743 -25.294  1.00  0.00    -0.347 OA
HETATM    6  C4  UNL     1      -9.142  46.083 -24.913  1.00  0.00     0.158 C 
HETATM    7  C5  UNL     1      -9.080  46.227 -23.395  1.00  0.00     0.069 C 
HETATM    8  C6  UNL     1      -7.702  46.661 -22.952  1.00  0.00    -0.065 C 
HETATM    9  C7  UNL     1      -7.025  45.945 -22.037  1.00  0.00    -0.022 C 
HETATM   10  C8  UNL     1      -5.666  46.311 -21.513  1.00  0.00     0.035 C 
HETATM   11  C9  UNL     1      -5.294  47.775 -21.816  1.00  0.00     0.030 C 
HETATM   12  C10 UNL     1      -5.600  48.089 -23.301  1.00  0.00     0.012 C 
HETATM   13  C11 UNL     1      -4.996  49.430 -23.762  1.00  0.00     0.007 C 
HETATM   14  C12 UNL     1      -4.497  50.305 -22.612  1.00  0.00     0.013 C 
HETATM   15  C13 UNL     1      -3.450  49.624 -21.696  1.00  0.00    -0.005 C 
HETATM   16  C14 UNL     1      -3.350  50.479 -20.410  1.00  0.00     0.019 C 
HETATM   17  C15 UNL     1      -2.055  49.504 -22.422  1.00  0.00     0.028 C 
HETATM   18  C20 UNL     1      -1.517  48.146 -21.973  1.00  0.00     0.013 C 
HETATM   19  C21 UNL     1      -2.761  47.271 -22.044  1.00  0.00     0.040 C 
HETATM   20  C22 UNL     1      -3.852  48.131 -21.383  1.00  0.00     0.070 C 
HETATM   21  C23 UNL     1      -7.129  47.918 -23.619  1.00  0.00     0.043 C 
HETATM   22  C25 UNL     1      -7.329  47.820 -25.157  1.00  0.00     0.056 C 
HETATM   23  C26 UNL     1      -8.750  47.411 -25.572  1.00  0.00     0.156 C 
HETATM   24  O7  UNL     1      -8.788  47.297 -26.999  1.00  0.00    -0.341 OA
HETATM   25  C27 UNL     1     -10.064  46.822 -27.486  1.00  0.00     0.242 C 
HETATM   26  C28 UNL     1      -9.837  46.468 -28.988  1.00  0.00     0.216 C 
HETATM   27  C29 UNL     1     -10.573  45.191 -29.392  1.00  0.00     0.181 C 
ENDROOT
BRANCH  17  28
HETATM   28  C16 UNL     1      -1.096  50.650 -22.284  1.00  0.00    -0.045 A 
HETATM   29  C17 UNL     1      -0.232  50.837 -21.288  1.00  0.00     0.087 A 
HETATM   30  C18 UNL     1       0.529  52.048 -21.590  1.00  0.00     0.283 A 
HETATM   31  O3  UNL     1       1.447  52.469 -20.915  1.00  0.00    -0.260 OA
HETATM   32  O4  UNL     1       0.053  52.593 -22.738  1.00  0.00    -0.314 OA
HETATM   33  C19 UNL     1      -0.982  51.756 -23.263  1.00  0.00     0.213 A 
ENDBRANCH  17  28
BRANCH  20  34
HETATM   34  O5  UNL     1      -3.735  47.863 -19.978  1.00  0.00    -0.389 OA
HETATM   35  H29 UNL     1      -4.493  48.271 -19.523  1.00  0.00     0.210 HD
ENDBRANCH  20  34
BRANCH  21  36
HETATM   36  C24 UNL     1      -7.906  49.143 -23.097  1.00  0.00     0.245 C 
HETATM   37  O6  UNL     1      -8.536  49.935 -23.795  1.00  0.00    -0.306 OA
ENDBRANCH  21  36
BRANCH  25  38
HETATM   38  O8  UNL     1     -11.002  47.905 -27.398  1.00  0.00    -0.359 OA
HETATM   39  H34 UNL     1     -11.481  47.792 -26.560  1.00  0.00     0.213 HD
ENDBRANCH  25  38
BRANCH  26  40
HETATM   40  O9  UNL     1     -10.251  47.547 -29.855  1.00  0.00    -0.387 OA
HETATM   41  H36 UNL     1     -10.641  48.218 -29.247  1.00  0.00     0.210 HD
ENDBRANCH  26  40
BRANCH  27  42
HETATM   42  O10 UNL     1     -11.984  45.411 -29.262  1.00  0.00    -0.390 OA
HETATM   43  H38 UNL     1     -12.267  45.902 -30.064  1.00  0.00     0.210 HD
ENDBRANCH  27  42
TORSDOF 6
ENDMDL
MODEL 6
REMARK minimizedAffinity -8.1006403
REMARK CNNscore 0.526992679
REMARK CNNaffinity 5.63261652
REMARK  6 active torsions:
REMARK  status: ('A' for Active; 'I' for Inactive)
REMARK    1  A    between atoms: C15_17  and  C16_18 
REMARK    2  A    between atoms: C22_26  and  O5_27 
REMARK    3  A    between atoms: C23_28  and  C24_29 
REMARK    4  A    between atoms: C27_34  and  O8_35 
REMARK    5  A    between atoms: C28_36  and  O9_37 
REMARK    6  A    between atoms: C29_38  and  O10_39 
ROOT
HETATM    1  C1  UNL     1     -19.287  40.608 -19.100  1.00  0.00     0.042 C 
HETATM    2  C2  UNL     1     -20.364  41.635 -19.444  1.00  0.00     0.152 C 
HETATM    3  O1  UNL     1     -19.684  42.794 -19.963  1.00  0.00    -0.348 OA
HETATM    4  C3  UNL     1     -20.518  43.554 -20.833  1.00  0.00     0.325 C 
HETATM    5  O2  UNL     1     -19.970  44.858 -21.080  1.00  0.00    -0.347 OA
HETATM    6  C4  UNL     1     -18.758  44.762 -21.831  1.00  0.00     0.158 C 
HETATM    7  C5  UNL     1     -18.182  46.162 -22.027  1.00  0.00     0.069 C 
HETATM    8  C6  UNL     1     -16.937  46.116 -22.884  1.00  0.00    -0.065 C 
HETATM    9  C7  UNL     1     -15.787  46.653 -22.441  1.00  0.00    -0.022 C 
HETATM   10  C8  UNL     1     -14.509  46.684 -23.229  1.00  0.00     0.035 C 
HETATM   11  C9  UNL     1     -14.735  46.405 -24.727  1.00  0.00     0.030 C 
HETATM   12  C10 UNL     1     -15.650  45.167 -24.890  1.00  0.00     0.012 C 
HETATM   13  C11 UNL     1     -15.695  44.646 -26.340  1.00  0.00     0.007 C 
HETATM   14  C12 UNL     1     -15.092  45.616 -27.357  1.00  0.00     0.013 C 
HETATM   15  C13 UNL     1     -13.628  46.024 -27.064  1.00  0.00    -0.005 C 
HETATM   16  C14 UNL     1     -13.318  47.261 -27.940  1.00  0.00     0.019 C 
HETATM   17  C15 UNL     1     -12.636  44.835 -27.369  1.00  0.00     0.028 C 
HETATM   18  C20 UNL     1     -11.588  44.930 -26.260  1.00  0.00     0.013 C 
HETATM   19  C21 UNL     1     -12.444  45.232 -25.037  1.00  0.00     0.040 C 
HETATM   20  C22 UNL     1     -13.415  46.319 -25.529  1.00  0.00     0.070 C 
HETATM   21  C23 UNL     1     -17.061  45.407 -24.239  1.00  0.00     0.043 C 
HETATM   22  C25 UNL     1     -17.778  44.044 -24.043  1.00  0.00     0.056 C 
HETATM   23  C26 UNL     1     -19.058  44.134 -23.197  1.00  0.00     0.156 C 
HETATM   24  O7  UNL     1     -19.588  42.812 -23.040  1.00  0.00    -0.341 OA
HETATM   25  C27 UNL     1     -20.746  42.776 -22.176  1.00  0.00     0.242 C 
HETATM   26  C28 UNL     1     -21.000  41.267 -21.872  1.00  0.00     0.216 C 
HETATM   27  C29 UNL     1     -21.412  41.038 -20.419  1.00  0.00     0.181 C 
ENDROOT
BRANCH  17  28
HETATM   28  C16 UNL     1     -12.087  44.724 -28.761  1.00  0.00    -0.045 A 
HETATM   29  C17 UNL     1     -11.801  45.738 -29.576  1.00  0.00     0.087 A 
HETATM   30  C18 UNL     1     -11.247  45.169 -30.804  1.00  0.00     0.283 A 
HETATM   31  O3  UNL     1     -10.821  45.824 -31.734  1.00  0.00    -0.260 OA
HETATM   32  O4  UNL     1     -11.276  43.815 -30.715  1.00  0.00    -0.314 OA
HETATM   33  C19 UNL     1     -11.785  43.438 -29.431  1.00  0.00     0.213 A 
ENDBRANCH  17  28
BRANCH  20  34
HETATM   34  O5  UNL     1     -12.709  47.555 -25.348  1.00  0.00    -0.389 OA
HETATM   35  H29 UNL     1     -13.328  48.290 -25.509  1.00  0.00     0.210 HD
ENDBRANCH  20  34
BRANCH  21  36
HETATM   36  C24 UNL     1     -17.917  46.287 -25.172  1.00  0.00     0.245 C 
HETATM   37  O6  UNL     1     -18.430  47.360 -24.864  1.00  0.00    -0.306 OA
ENDBRANCH  21  36
BRANCH  25  38
HETATM   38  O8  UNL     1     -21.863  43.298 -22.912  1.00  0.00    -0.359 OA
HETATM   39  H34 UNL     1     -21.938  44.238 -22.676  1.00  0.00     0.213 HD
ENDBRANCH  25  38
BRANCH  26  40
HETATM   40  O9  UNL     1     -22.010  40.714 -22.743  1.00  0.00    -0.387 OA
HETATM   41  H36 UNL     1     -22.328  41.481 -23.274  1.00  0.00     0.210 HD
ENDBRANCH  26  40
BRANCH  27  42
HETATM   42  O10 UNL     1     -22.669  41.690 -20.187  1.00  0.00    -0.390 OA
HETATM   43  H38 UNL     1     -23.364  41.094 -20.544  1.00  0.00     0.210 HD
ENDBRANCH  27  42
TORSDOF 6
ENDMDL
MODEL 7
REMARK minimizedAffinity -8.4308033
REMARK CNNscore 0.488835245
REMARK CNNaffinity 6.40565491
REMARK  6 active torsions:
REMARK  status: ('A' for Active; 'I' for Inactive)
REMARK    1  A    between atoms: C15_17  and  C16_18 
REMARK    2  A    between atoms: C22_26  and  O5_27 
REMARK    3  A    between atoms: C23_28  and  C24_29 
REMARK    4  A    between atoms: C27_34  and  O8_35 
REMARK    5  A    between atoms: C28_36  and  O9_37 
REMARK    6  A    between atoms: C29_38  and  O10_39 
ROOT
HETATM    1  C1  UNL     1      -6.529  43.909 -30.785  1.00  0.00     0.042 C 
HETATM    2  C2  UNL     1      -7.824  44.711 -30.673  1.00  0.00     0.152 C 
HETATM    3  O1  UNL     1      -8.042  44.954 -29.270  1.00  0.00    -0.348 OA
HETATM    4  C3  UNL     1      -8.826  46.123 -29.051  1.00  0.00     0.325 C 
HETATM    5  O2  UNL     1      -9.318  46.180 -27.702  1.00  0.00    -0.347 OA
HETATM    6  C4  UNL     1      -8.241  46.360 -26.780  1.00  0.00     0.158 C 
HETATM    7  C5  UNL     1      -8.799  46.363 -25.359  1.00  0.00     0.069 C 
HETATM    8  C6  UNL     1      -7.704  46.628 -24.352  1.00  0.00    -0.065 C 
HETATM    9  C7  UNL     1      -7.496  45.774 -23.334  1.00  0.00    -0.022 C 
HETATM   10  C8  UNL     1      -6.455  45.966 -22.268  1.00  0.00     0.035 C 
HETATM   11  C9  UNL     1      -5.921  47.410 -22.221  1.00  0.00     0.030 C 
HETATM   12  C10 UNL     1      -5.576  47.881 -23.655  1.00  0.00     0.012 C 
HETATM   13  C11 UNL     1      -4.773  49.196 -23.673  1.00  0.00     0.007 C 
HETATM   14  C12 UNL     1      -4.747  49.916 -22.325  1.00  0.00     0.013 C 
HETATM   15  C13 UNL     1      -4.201  49.064 -21.153  1.00  0.00    -0.005 C 
HETATM   16  C14 UNL     1      -4.594  49.788 -19.844  1.00  0.00     0.019 C 
HETATM   17  C15 UNL     1      -2.638  48.880 -21.266  1.00  0.00     0.028 C 
HETATM   18  C20 UNL     1      -2.397  47.444 -20.803  1.00  0.00     0.013 C 
HETATM   19  C21 UNL     1      -3.544  46.697 -21.470  1.00  0.00     0.040 C 
HETATM   20  C22 UNL     1      -4.767  47.592 -21.207  1.00  0.00     0.070 C 
HETATM   21  C23 UNL     1      -6.848  47.881 -24.579  1.00  0.00     0.043 C 
HETATM   22  C25 UNL     1      -6.405  47.938 -26.067  1.00  0.00     0.056 C 
HETATM   23  C26 UNL     1      -7.550  47.699 -27.063  1.00  0.00     0.156 C 
HETATM   24  O7  UNL     1      -7.006  47.716 -28.388  1.00  0.00    -0.341 OA
HETATM   25  C27 UNL     1      -7.992  47.405 -29.399  1.00  0.00     0.242 C 
HETATM   26  C28 UNL     1      -7.187  47.166 -30.714  1.00  0.00     0.216 C 
HETATM   27  C29 UNL     1      -7.754  46.003 -31.527  1.00  0.00     0.181 C 
ENDROOT
BRANCH  17  28
HETATM   28  C16 UNL     1      -1.765  49.916 -20.621  1.00  0.00    -0.045 A 
HETATM   29  C17 UNL     1      -2.166  51.089 -20.133  1.00  0.00     0.087 A 
HETATM   30  C18 UNL     1      -0.995  51.747 -19.557  1.00  0.00     0.283 A 
HETATM   31  O3  UNL     1      -1.022  52.810 -18.970  1.00  0.00    -0.260 OA
HETATM   32  O4  UNL     1       0.098  50.972 -19.775  1.00  0.00    -0.314 OA
HETATM   33  C19 UNL     1      -0.303  49.768 -20.438  1.00  0.00     0.213 A 
ENDBRANCH  17  28
BRANCH  20  34
HETATM   34  O5  UNL     1      -5.248  47.191 -19.916  1.00  0.00    -0.389 OA
HETATM   35  H29 UNL     1      -6.106  47.626 -19.758  1.00  0.00     0.210 HD
ENDBRANCH  20  34
BRANCH  21  36
HETATM   36  C24 UNL     1      -7.710  49.122 -24.273  1.00  0.00     0.245 C 
HETATM   37  O6  UNL     1      -8.895  49.101 -23.948  1.00  0.00    -0.306 OA
ENDBRANCH  21  36
BRANCH  25  38
HETATM   38  O8  UNL     1      -8.831  48.558 -29.567  1.00  0.00    -0.359 OA
HETATM   39  H34 UNL     1      -9.615  48.417 -29.013  1.00  0.00     0.213 HD
ENDBRANCH  25  38
BRANCH  26  40
HETATM   40  O9  UNL     1      -7.158  48.351 -31.539  1.00  0.00    -0.387 OA
HETATM   41  H36 UNL     1      -7.729  48.999 -31.065  1.00  0.00     0.210 HD
ENDBRANCH  26  40
BRANCH  27  42
HETATM   42  O10 UNL     1      -9.083  46.340 -31.950  1.00  0.00    -0.390 OA
HETATM   43  H38 UNL     1      -8.989  46.924 -32.734  1.00  0.00     0.210 HD
ENDBRANCH  27  42
TORSDOF 6
ENDMDL
MODEL 8
REMARK minimizedAffinity -6.78935862
REMARK CNNscore 0.483405858
REMARK CNNaffinity 6.17819405
REMARK  6 active torsions:
REMARK  status: ('A' for Active; 'I' for Inactive)
REMARK    1  A    between atoms: C15_17  and  C16_18 
REMARK    2  A    between atoms: C22_26  and  O5_27 
REMARK    3  A    between atoms: C23_28  and  C24_29 
REMARK    4  A    between atoms: C27_34  and  O8_35 
REMARK    5  A    between atoms: C28_36  and  O9_37 
REMARK    6  A    between atoms: C29_38  and  O10_39 
ROOT
HETATM    1  C1  UNL     1      -6.191  40.290 -16.601  1.00  0.00     0.042 C 
HETATM    2  C2  UNL     1      -7.573  40.907 -16.393  1.00  0.00     0.152 C 
HETATM    3  O1  UNL     1      -7.439  42.320 -16.639  1.00  0.00    -0.348 OA
HETATM    4  C3  UNL     1      -8.671  42.905 -17.052  1.00  0.00     0.325 C 
HETATM    5  O2  UNL     1      -8.623  44.339 -16.973  1.00  0.00    -0.347 OA
HETATM    6  C4  UNL     1      -7.702  44.866 -17.931  1.00  0.00     0.158 C 
HETATM    7  C5  UNL     1      -7.642  46.384 -17.780  1.00  0.00     0.069 C 
HETATM    8  C6  UNL     1      -6.736  46.992 -18.825  1.00  0.00    -0.065 C 
HETATM    9  C7  UNL     1      -5.718  47.791 -18.460  1.00  0.00    -0.022 C 
HETATM   10  C8  UNL     1      -4.784  48.465 -19.423  1.00  0.00     0.035 C 
HETATM   11  C9  UNL     1      -5.334  48.481 -20.862  1.00  0.00     0.030 C 
HETATM   12  C10 UNL     1      -5.853  47.070 -21.232  1.00  0.00     0.012 C 
HETATM   13  C11 UNL     1      -6.153  46.921 -22.737  1.00  0.00     0.007 C 
HETATM   14  C12 UNL     1      -6.176  48.251 -23.490  1.00  0.00     0.013 C 
HETATM   15  C13 UNL     1      -4.876  49.082 -23.364  1.00  0.00    -0.005 C 
HETATM   16  C14 UNL     1      -5.205  50.515 -23.847  1.00  0.00     0.019 C 
HETATM   17  C15 UNL     1      -3.709  48.440 -24.209  1.00  0.00     0.028 C 
HETATM   18  C20 UNL     1      -2.465  48.647 -23.346  1.00  0.00     0.013 C 
HETATM   19  C21 UNL     1      -2.987  48.325 -21.952  1.00  0.00     0.040 C 
HETATM   20  C22 UNL     1      -4.332  49.068 -21.883  1.00  0.00     0.070 C 
HETATM   21  C23 UNL     1      -7.026  46.624 -20.285  1.00  0.00     0.043 C 
HETATM   22  C25 UNL     1      -7.226  45.087 -20.399  1.00  0.00     0.056 C 
HETATM   23  C26 UNL     1      -8.179  44.508 -19.343  1.00  0.00     0.156 C 
HETATM   24  O7  UNL     1      -8.231  43.087 -19.514  1.00  0.00    -0.341 OA
HETATM   25  C27 UNL     1      -9.033  42.434 -18.503  1.00  0.00     0.242 C 
HETATM   26  C28 UNL     1      -8.735  40.909 -18.649  1.00  0.00     0.216 C 
HETATM   27  C29 UNL     1      -8.631  40.215 -17.291  1.00  0.00     0.181 C 
ENDROOT
BRANCH  17  28
HETATM   28  C16 UNL     1      -3.571  48.862 -25.642  1.00  0.00    -0.045 A 
HETATM   29  C17 UNL     1      -4.294  48.415 -26.667  1.00  0.00     0.087 A 
HETATM   30  C18 UNL     1      -3.853  49.134 -27.861  1.00  0.00     0.283 A 
HETATM   31  O3  UNL     1      -4.353  49.011 -28.962  1.00  0.00    -0.260 OA
HETATM   32  O4  UNL     1      -2.824  49.953 -27.528  1.00  0.00    -0.314 OA
HETATM   33  C19 UNL     1      -2.583  49.858 -26.120  1.00  0.00     0.213 A 
ENDBRANCH  17  28
BRANCH  20  34
HETATM   34  O5  UNL     1      -3.998  50.398 -21.458  1.00  0.00    -0.389 OA
HETATM   35  H29 UNL     1      -4.825  50.874 -21.260  1.00  0.00     0.210 HD
ENDBRANCH  20  34
BRANCH  21  36
HETATM   36  C24 UNL     1      -8.331  47.324 -20.715  1.00  0.00     0.245 C 
HETATM   37  O6  UNL     1      -8.661  48.466 -20.402  1.00  0.00    -0.306 OA
ENDBRANCH  21  36
BRANCH  25  38
HETATM   38  O8  UNL     1     -10.414  42.671 -18.813  1.00  0.00    -0.359 OA
HETATM   39  H34 UNL     1     -10.692  43.437 -18.283  1.00  0.00     0.213 HD
ENDBRANCH  25  38
BRANCH  26  40
HETATM   40  O9  UNL     1      -9.742  40.246 -19.444  1.00  0.00    -0.387 OA
HETATM   41  H36 UNL     1     -10.408  40.947 -19.635  1.00  0.00     0.210 HD
ENDBRANCH  26  40
BRANCH  27  42
HETATM   42  O10 UNL     1      -9.904  40.293 -16.634  1.00  0.00    -0.390 OA
HETATM   43  H38 UNL     1     -10.465  39.586 -17.023  1.00  0.00     0.210 HD
ENDBRANCH  27  42
TORSDOF 6
ENDMDL
MODEL 9
REMARK minimizedAffinity -11.1636133
REMARK CNNscore 0.444556028
REMARK CNNaffinity 7.49262476
REMARK  6 active torsions:
REMARK  status: ('A' for Active; 'I' for Inactive)
REMARK    1  A    between atoms: C15_17  and  C16_18 
REMARK    2  A    between atoms: C22_26  and  O5_27 
REMARK    3  A    between atoms: C23_28  and  C24_29 
REMARK    4  A    between atoms: C27_34  and  O8_35 
REMARK    5  A    between atoms: C28_36  and  O9_37 
REMARK    6  A    between atoms: C29_38  and  O10_39 
ROOT
HETATM    1  C1  UNL     1       2.564  51.364 -26.931  1.00  0.00     0.042 C 
HETATM    2  C2  UNL     1       1.097  51.435 -27.353  1.00  0.00     0.152 C 
HETATM    3  O1  UNL     1       0.343  50.715 -26.358  1.00  0.00    -0.348 OA
HETATM    4  C3  UNL     1      -1.005  51.170 -26.284  1.00  0.00     0.325 C 
HETATM    5  O2  UNL     1      -1.829  50.250 -25.550  1.00  0.00    -0.347 OA
HETATM    6  C4  UNL     1      -1.445  50.217 -24.174  1.00  0.00     0.158 C 
HETATM    7  C5  UNL     1      -2.309  49.192 -23.442  1.00  0.00     0.069 C 
HETATM    8  C6  UNL     1      -1.989  49.177 -21.965  1.00  0.00    -0.065 C 
HETATM    9  C7  UNL     1      -1.647  48.028 -21.355  1.00  0.00    -0.022 C 
HETATM   10  C8  UNL     1      -1.342  47.907 -19.890  1.00  0.00     0.035 C 
HETATM   11  C9  UNL     1      -1.837  49.122 -19.083  1.00  0.00     0.030 C 
HETATM   12  C10 UNL     1      -1.412  50.427 -19.800  1.00  0.00     0.012 C 
HETATM   13  C11 UNL     1      -1.611  51.679 -18.925  1.00  0.00     0.007 C 
HETATM   14  C12 UNL     1      -2.456  51.426 -17.677  1.00  0.00     0.013 C 
HETATM   15  C13 UNL     1      -1.918  50.305 -16.754  1.00  0.00    -0.005 C 
HETATM   16  C14 UNL     1      -3.060  49.932 -15.779  1.00  0.00     0.019 C 
HETATM   17  C15 UNL     1      -0.628  50.781 -15.979  1.00  0.00     0.028 C 
HETATM   18  C20 UNL     1       0.266  49.542 -15.948  1.00  0.00     0.013 C 
HETATM   19  C21 UNL     1       0.091  48.987 -17.355  1.00  0.00     0.040 C 
HETATM   20  C22 UNL     1      -1.427  49.063 -17.593  1.00  0.00     0.070 C 
HETATM   21  C23 UNL     1      -2.046  50.525 -21.235  1.00  0.00     0.043 C 
HETATM   22  C25 UNL     1      -1.281  51.593 -22.065  1.00  0.00     0.056 C 
HETATM   23  C26 UNL     1      -1.657  51.603 -23.555  1.00  0.00     0.156 C 
HETATM   24  O7  UNL     1      -0.846  52.581 -24.217  1.00  0.00    -0.341 OA
HETATM   25  C27 UNL     1      -1.057  52.602 -25.647  1.00  0.00     0.242 C 
HETATM   26  C28 UNL     1       0.095  53.478 -26.231  1.00  0.00     0.216 C 
HETATM   27  C29 UNL     1       0.642  52.906 -27.538  1.00  0.00     0.181 C 
ENDROOT
BRANCH  17  28
HETATM   28  C16 UNL     1      -0.821  51.464 -14.657  1.00  0.00    -0.045 A 
HETATM   29  C17 UNL     1      -1.942  51.484 -13.938  1.00  0.00     0.087 A 
HETATM   30  C18 UNL     1      -1.659  52.220 -12.707  1.00  0.00     0.283 A 
HETATM   31  O3  UNL     1      -2.451  52.369 -11.798  1.00  0.00    -0.260 OA
HETATM   32  O4  UNL     1      -0.383  52.680 -12.751  1.00  0.00    -0.314 OA
HETATM   33  C19 UNL     1       0.238  52.230 -13.960  1.00  0.00     0.213 A 
ENDBRANCH  17  28
BRANCH  20  34
HETATM   34  O5  UNL     1      -1.949  47.846 -17.040  1.00  0.00    -0.389 OA
HETATM   35  H29 UNL     1      -2.889  47.773 -17.289  1.00  0.00     0.210 HD
ENDBRANCH  20  34
BRANCH  21  36
HETATM   36  C24 UNL     1      -3.522  50.954 -21.119  1.00  0.00     0.245 C 
HETATM   37  O6  UNL     1      -4.101  51.722 -21.883  1.00  0.00    -0.306 OA
ENDBRANCH  21  36
BRANCH  25  38
HETATM   38  O8  UNL     1      -2.312  53.254 -25.899  1.00  0.00    -0.359 OA
HETATM   39  H34 UNL     1      -2.977  52.552 -25.992  1.00  0.00     0.213 HD
ENDBRANCH  25  38
BRANCH  26  40
HETATM   40  O9  UNL     1      -0.334  54.839 -26.452  1.00  0.00    -0.387 OA
HETATM   41  H36 UNL     1      -1.294  54.836 -26.229  1.00  0.00     0.210 HD
ENDBRANCH  26  40
BRANCH  27  42
HETATM   42  O10 UNL     1      -0.398  52.937 -28.526  1.00  0.00    -0.390 OA
HETATM   43  H38 UNL     1      -0.431  53.857 -28.870  1.00  0.00     0.210 HD
ENDBRANCH  27  42
TORSDOF 6
ENDMDL
