MODEL 1
REMARK minimizedAffinity -7.240201
REMARK CNNscore 0.148975194
REMARK CNNaffinity 6.43883181
REMARK  9 active torsions:
REMARK  status: ('A' for Active; 'I' for Inactive)
REMARK       I    between atoms: N1_1  and  C1_2 
REMARK       I    between atoms: C1_2  and  N2_3 
REMARK    1  A    between atoms: N3_4  and  C2_6 
REMARK    2  A    between atoms: C2_6  and  C3_7 
REMARK    3  A    between atoms: C3_7  and  C4_8 
REMARK    4  A    between atoms: C4_8  and  C5_9 
REMARK    5  A    between atoms: C5_9  and  O1_10 
REMARK    6  A    between atoms: C19_25  and  S1_26 
REMARK    7  A    between atoms: C28_38  and  C29_39 
REMARK    8  A    between atoms: C29_39  and  O6_40 
REMARK    9  A    between atoms: C35_46  and  O7_47 
ROOT
HETATM    1  C2  UNL     1       2.540  12.459  17.964  1.00  0.00     0.171 C 
HETATM    2  O2  UNL     1       1.958  11.783  19.145  1.00  0.00    -0.316 OA
HETATM    3  C11 UNL     1       2.802  11.483  20.181  1.00  0.00     0.072 C 
HETATM    4  C12 UNL     1       2.457  11.999  21.431  1.00  0.00     0.037 C 
HETATM    5  C13 UNL     1       3.380  11.962  22.479  1.00  0.00     0.010 C 
HETATM    6  C14 UNL     1       4.643  11.382  22.293  1.00  0.00    -0.058 C 
HETATM    7  C15 UNL     1       4.895  10.713  21.089  1.00  0.00     0.010 C 
HETATM    8  C16 UNL     1       3.981  10.766  20.030  1.00  0.00     0.037 C 
HETATM    9  C17 UNL     1       5.676  11.495  23.387  1.00  0.00     0.040 C 
HETATM   10  C18 UNL     1       7.156  11.674  23.002  1.00  0.00     0.028 C 
HETATM   11  C19 UNL     1       7.653  12.935  22.206  1.00  0.00     0.140 C 
HETATM   12  C20 UNL     1       6.729  14.196  22.249  1.00  0.00     0.053 C 
HETATM   13  C21 UNL     1       7.132  15.078  23.472  1.00  0.00    -0.013 C 
HETATM   14  C22 UNL     1       7.914  16.150  23.216  1.00  0.00    -0.050 C 
HETATM   15  C23 UNL     1       8.709  16.074  21.926  1.00  0.00     0.043 C 
HETATM   16  C24 UNL     1       7.708  16.209  20.793  1.00  0.00     0.016 C 
HETATM   17  C25 UNL     1       7.308  17.703  20.604  1.00  0.00     0.039 C 
HETATM   18  C26 UNL     1       7.593  18.772  21.716  1.00  0.00     0.123 C 
HETATM   19  C27 UNL     1       8.990  19.452  21.615  1.00  0.00     0.039 C 
HETATM   20  C28 UNL     1       9.194  20.881  22.221  1.00  0.00     0.023 C 
HETATM   21  C30 UNL     1      10.247  20.928  23.368  1.00  0.00     0.101 C 
HETATM   22  C31 UNL     1       9.784  20.237  24.574  1.00  0.00    -0.101 C 
HETATM   23  C32 UNL     1       9.212  19.575  25.395  1.00  0.00    -0.066 C 
HETATM   24  C33 UNL     1       8.261  18.730  26.054  1.00  0.00     0.029 C 
HETATM   25  C34 UNL     1       7.939  18.988  27.392  1.00  0.00     0.057 C 
HETATM   26  C35 UNL     1       6.860  18.329  27.966  1.00  0.00     0.067 C 
HETATM   27  C36 UNL     1       6.079  17.463  27.212  1.00  0.00     0.037 C 
HETATM   28  C37 UNL     1       6.409  17.207  25.874  1.00  0.00     0.014 C 
HETATM   29  C38 UNL     1       7.551  17.772  25.285  1.00  0.00    -0.006 C 
HETATM   30  C39 UNL     1       7.968  17.524  23.836  1.00  0.00     0.185 C 
HETATM   31  O8  UNL     1       7.169  18.418  23.034  1.00  0.00    -0.371 OA
HETATM   32  C40 UNL     1       6.472  15.296  21.118  1.00  0.00     0.104 A 
HETATM   33  C41 UNL     1       5.517  14.884  20.010  1.00  0.00     0.082 A 
HETATM   34  C42 UNL     1       5.912  14.101  18.937  1.00  0.00     0.010 C 
HETATM   35  C43 UNL     1       4.956  13.382  18.207  1.00  0.00     0.011 C 
HETATM   36  C44 UNL     1       3.576  13.521  18.446  1.00  0.00    -0.003 C 
HETATM   37  C45 UNL     1       3.188  14.512  19.360  1.00  0.00     0.011 C 
HETATM   38  C46 UNL     1       4.143  15.160  20.149  1.00  0.00     0.010 C 
HETATM   39 NA1  UNL     1       4.852  14.604  20.667  1.00  0.00    -0.398 Na
ATOM     40  HA1 UNL     1       3.941  14.217  20.914  1.00  0.00     0.155 HD
ENDROOT
BRANCH   1  41
HETATM   41  N3  UNL     1       3.032  11.507  16.951  1.00  0.00    -0.331 N 
HETATM   42  C1  UNL     1       2.630  10.308  16.811  1.00  0.00     0.146 C 
HETATM   43  N1  UNL     1       1.683   9.590  17.450  1.00  0.00    -0.376 N 
HETATM   44  N2  UNL     1       3.176   9.539  15.837  1.00  0.00    -0.274 NA
HETATM   45  H1  UNL     1       1.233  10.025  18.244  1.00  0.00     0.158 HD
HETATM   46  H2  UNL     1       1.920   8.616  17.597  1.00  0.00     0.158 HD
HETATM   47  H3  UNL     1       2.449   9.116  15.271  1.00  0.00     0.127 HD
HETATM   48  H4  UNL     1       3.747  10.127  15.233  1.00  0.00     0.127 HD
ATOM     49  H3  UNL     1       3.755  11.836  16.311  1.00  0.00     0.165 HD
ENDBRANCH   1  41
BRANCH   1  50
HETATM   50  C3  UNL     1       1.289  13.182  17.356  1.00  0.00     0.070 C 
BRANCH  50  51
HETATM   51  C4  UNL     1      -0.026  12.374  17.210  1.00  0.00     0.043 C 
BRANCH  51  52
HETATM   52  C5  UNL     1      -1.082  12.445  18.349  1.00  0.00     0.058 C 
HETATM   53  C6  UNL     1      -1.506  11.064  18.888  1.00  0.00     0.038 C 
HETATM   54  C7  UNL     1      -2.220  10.192  17.853  1.00  0.00     0.003 C 
HETATM   55  C8  UNL     1      -3.054  10.989  16.852  1.00  0.00     0.000 C 
HETATM   56  C9  UNL     1      -3.516  12.312  17.437  1.00  0.00     0.003 C 
HETATM   57  C10 UNL     1      -2.356  13.203  17.890  1.00  0.00     0.038 C 
BRANCH  52  58
HETATM   58  O1  UNL     1      -0.540  13.224  19.421  1.00  0.00    -0.390 OA
HETATM   59  H9  UNL     1       0.087  12.637  19.894  1.00  0.00     0.210 HD
ENDBRANCH  52  58
ENDBRANCH  51  52
ENDBRANCH  50  51
ENDBRANCH   1  50
BRANCH  11  60
HETATM   60  S1  UNL     1       8.485  12.412  20.692  1.00  0.00     0.106 S 
HETATM   61  O3  UNL     1       9.024  13.672  20.173  1.00  0.00    -0.595 OA
HETATM   62  O4  UNL     1       9.514  11.464  21.105  1.00  0.00    -0.595 OA
HETATM   63  O5  UNL     1       7.447  11.845  19.837  1.00  0.00    -0.595 OA
ENDBRANCH  11  60
BRANCH  20  64
HETATM   64  C29 UNL     1       7.908  21.634  22.584  1.00  0.00     0.169 C 
BRANCH  64  65
HETATM   65  O6  UNL     1       8.205  22.991  22.905  1.00  0.00    -0.400 OA
HETATM   66  H42 UNL     1       8.422  23.446  22.073  1.00  0.00     0.209 HD
ENDBRANCH  64  65
ENDBRANCH  20  64
BRANCH  26  67
HETATM   67  O7  UNL     1       6.494  18.559  29.261  1.00  0.00    -0.361 OA
HETATM   68  H46 UNL     1       7.146  19.158  29.654  1.00  0.00     0.217 HD
ENDBRANCH  26  67
TORSDOF 9
ENDMDL
MODEL 2
REMARK minimizedAffinity -7.57677317
REMARK CNNscore 0.1362468
REMARK CNNaffinity 6.45529127
REMARK  9 active torsions:
REMARK  status: ('A' for Active; 'I' for Inactive)
REMARK       I    between atoms: N1_1  and  C1_2 
REMARK       I    between atoms: C1_2  and  N2_3 
REMARK    1  A    between atoms: N3_4  and  C2_6 
REMARK    2  A    between atoms: C2_6  and  C3_7 
REMARK    3  A    between atoms: C3_7  and  C4_8 
REMARK    4  A    between atoms: C4_8  and  C5_9 
REMARK    5  A    between atoms: C5_9  and  O1_10 
REMARK    6  A    between atoms: C19_25  and  S1_26 
REMARK    7  A    between atoms: C28_38  and  C29_39 
REMARK    8  A    between atoms: C29_39  and  O6_40 
REMARK    9  A    between atoms: C35_46  and  O7_47 
ROOT
HETATM    1  C2  UNL     1     -15.822   5.637  24.598  1.00  0.00     0.171 C 
HETATM    2  O2  UNL     1     -17.048   5.086  23.979  1.00  0.00    -0.316 OA
HETATM    3  C11 UNL     1     -17.728   5.887  23.101  1.00  0.00     0.072 C 
HETATM    4  C12 UNL     1     -17.933   5.369  21.821  1.00  0.00     0.037 C 
HETATM    5  C13 UNL     1     -18.382   6.204  20.795  1.00  0.00     0.010 C 
HETATM    6  C14 UNL     1     -18.659   7.555  21.049  1.00  0.00    -0.058 C 
HETATM    7  C15 UNL     1     -18.619   8.003  22.375  1.00  0.00     0.010 C 
HETATM    8  C16 UNL     1     -18.148   7.175  23.402  1.00  0.00     0.037 C 
HETATM    9  C17 UNL     1     -18.990   8.471  19.896  1.00  0.00     0.040 C 
HETATM   10  C18 UNL     1     -18.490   9.926  19.930  1.00  0.00     0.028 C 
HETATM   11  C19 UNL     1     -16.957  10.270  19.949  1.00  0.00     0.140 C 
HETATM   12  C20 UNL     1     -15.985   9.153  19.446  1.00  0.00     0.053 C 
HETATM   13  C21 UNL     1     -15.781   9.313  17.908  1.00  0.00    -0.013 C 
HETATM   14  C22 UNL     1     -14.646   9.928  17.506  1.00  0.00    -0.050 C 
HETATM   15  C23 UNL     1     -13.994  10.819  18.546  1.00  0.00     0.043 C 
HETATM   16  C24 UNL     1     -13.426   9.898  19.610  1.00  0.00     0.016 C 
HETATM   17  C25 UNL     1     -12.084   9.276  19.121  1.00  0.00     0.039 C 
HETATM   18  C26 UNL     1     -11.676   9.298  17.607  1.00  0.00     0.123 C 
HETATM   19  C27 UNL     1     -10.892  10.570  17.168  1.00  0.00     0.039 C 
HETATM   20  C28 UNL     1      -9.933  10.492  15.933  1.00  0.00     0.023 C 
HETATM   21  C30 UNL     1     -10.345  11.433  14.763  1.00  0.00     0.101 C 
HETATM   22  C31 UNL     1     -11.584  11.000  14.113  1.00  0.00    -0.101 C 
HETATM   23  C32 UNL     1     -12.620  10.483  13.798  1.00  0.00    -0.066 C 
HETATM   24  C33 UNL     1     -13.775   9.635  13.766  1.00  0.00     0.029 C 
HETATM   25  C34 UNL     1     -14.243   9.175  12.529  1.00  0.00     0.057 C 
HETATM   26  C35 UNL     1     -15.209   8.177  12.502  1.00  0.00     0.067 C 
HETATM   27  C36 UNL     1     -15.669   7.607  13.680  1.00  0.00     0.037 C 
HETATM   28  C37 UNL     1     -15.198   8.075  14.915  1.00  0.00     0.014 C 
HETATM   29  C38 UNL     1     -14.299   9.151  14.992  1.00  0.00    -0.006 C 
HETATM   30  C39 UNL     1     -13.758   9.711  16.306  1.00  0.00     0.185 C 
HETATM   31  O8  UNL     1     -12.675   8.839  16.693  1.00  0.00    -0.371 OA
HETATM   32  C40 UNL     1     -14.505   8.806  19.942  1.00  0.00     0.104 A 
HETATM   33  C41 UNL     1     -14.417   8.017  21.237  1.00  0.00     0.082 A 
HETATM   34  C42 UNL     1     -14.525   8.614  22.483  1.00  0.00     0.010 C 
HETATM   35  C43 UNL     1     -14.889   7.846  23.598  1.00  0.00     0.011 C 
HETATM   36  C44 UNL     1     -15.032   6.447  23.525  1.00  0.00    -0.003 C 
HETATM   37  C45 UNL     1     -14.665   5.836  22.317  1.00  0.00     0.011 C 
HETATM   38  C46 UNL     1     -14.392   6.610  21.185  1.00  0.00     0.010 C 
HETATM   39 NA1  UNL     1     -15.053   7.359  20.897  1.00  0.00    -0.398 Na
ATOM     40  HA1 UNL     1     -15.605   6.507  21.000  1.00  0.00     0.155 HD
ENDROOT
BRANCH   1  41
HETATM   41  N3  UNL     1     -16.095   6.353  25.858  1.00  0.00    -0.331 N 
HETATM   42  C1  UNL     1     -15.300   6.430  26.848  1.00  0.00     0.146 C 
HETATM   43  N1  UNL     1     -14.049   5.966  27.043  1.00  0.00    -0.376 N 
HETATM   44  N2  UNL     1     -15.685   7.120  27.951  1.00  0.00    -0.274 NA
HETATM   45  H1  UNL     1     -13.657   5.379  26.318  1.00  0.00     0.158 HD
HETATM   46  H2  UNL     1     -13.863   5.633  27.982  1.00  0.00     0.158 HD
HETATM   47  H3  UNL     1     -14.973   7.791  28.214  1.00  0.00     0.127 HD
HETATM   48  H4  UNL     1     -16.541   7.629  27.739  1.00  0.00     0.127 HD
ATOM     49  H3  UNL     1     -16.996   6.825  25.943  1.00  0.00     0.165 HD
ENDBRANCH   1  41
BRANCH   1  50
HETATM   50  C3  UNL     1     -15.030   4.335  24.964  1.00  0.00     0.070 C 
BRANCH  50  51
HETATM   51  C4  UNL     1     -13.621   4.136  24.348  1.00  0.00     0.043 C 
BRANCH  51  52
HETATM   52  C5  UNL     1     -13.216   2.724  23.838  1.00  0.00     0.058 C 
HETATM   53  C6  UNL     1     -13.991   1.575  24.513  1.00  0.00     0.038 C 
HETATM   54  C7  UNL     1     -13.728   1.453  26.015  1.00  0.00     0.003 C 
HETATM   55  C8  UNL     1     -12.312   1.857  26.422  1.00  0.00     0.000 C 
HETATM   56  C9  UNL     1     -11.326   1.667  25.281  1.00  0.00     0.003 C 
HETATM   57  C10 UNL     1     -11.697   2.470  24.032  1.00  0.00     0.038 C 
BRANCH  52  58
HETATM   58  O1  UNL     1     -13.434   2.674  22.424  1.00  0.00    -0.390 OA
HETATM   59  H9  UNL     1     -14.400   2.558  22.301  1.00  0.00     0.210 HD
ENDBRANCH  52  58
ENDBRANCH  51  52
ENDBRANCH  50  51
ENDBRANCH   1  50
BRANCH  11  60
HETATM   60  S1  UNL     1     -16.577  11.288  21.391  1.00  0.00     0.106 S 
HETATM   61  O3  UNL     1     -17.548  12.380  21.274  1.00  0.00    -0.595 OA
HETATM   62  O4  UNL     1     -16.794  10.435  22.554  1.00  0.00    -0.595 OA
HETATM   63  O5  UNL     1     -15.199  11.735  21.216  1.00  0.00    -0.595 OA
ENDBRANCH  11  60
BRANCH  20  64
HETATM   64  C29 UNL     1      -9.596   9.076  15.447  1.00  0.00     0.169 C 
BRANCH  64  65
HETATM   65  O6  UNL     1      -8.207   8.979  15.137  1.00  0.00    -0.400 OA
HETATM   66  H42 UNL     1      -7.721   8.975  15.980  1.00  0.00     0.209 HD
ENDBRANCH  64  65
ENDBRANCH  20  64
BRANCH  26  67
HETATM   67  O7  UNL     1     -15.685   7.682  11.322  1.00  0.00    -0.361 OA
HETATM   68  H46 UNL     1     -15.292   8.197  10.602  1.00  0.00     0.217 HD
ENDBRANCH  26  67
TORSDOF 9
ENDMDL
MODEL 3
REMARK minimizedAffinity -7.47381973
REMARK CNNscore 0.112283997
REMARK CNNaffinity 7.07799196
REMARK  9 active torsions:
REMARK  status: ('A' for Active; 'I' for Inactive)
REMARK       I    between atoms: N1_1  and  C1_2 
REMARK       I    between atoms: C1_2  and  N2_3 
REMARK    1  A    between atoms: N3_4  and  C2_6 
REMARK    2  A    between atoms: C2_6  and  C3_7 
REMARK    3  A    between atoms: C3_7  and  C4_8 
REMARK    4  A    between atoms: C4_8  and  C5_9 
REMARK    5  A    between atoms: C5_9  and  O1_10 
REMARK    6  A    between atoms: C19_25  and  S1_26 
REMARK    7  A    between atoms: C28_38  and  C29_39 
REMARK    8  A    between atoms: C29_39  and  O6_40 
REMARK    9  A    between atoms: C35_46  and  O7_47 
ROOT
HETATM    1  C2  UNL     1       5.266  14.856  -0.071  1.00  0.00     0.171 C 
HETATM    2  O2  UNL     1       4.585  15.731  -1.052  1.00  0.00    -0.316 OA
HETATM    3  C11 UNL     1       3.225  15.851  -0.954  1.00  0.00     0.072 C 
HETATM    4  C12 UNL     1       2.725  17.146  -0.807  1.00  0.00     0.037 C 
HETATM    5  C13 UNL     1       1.390  17.341  -0.446  1.00  0.00     0.010 C 
HETATM    6  C14 UNL     1       0.537  16.243  -0.261  1.00  0.00    -0.058 C 
HETATM    7  C15 UNL     1       1.014  14.969  -0.591  1.00  0.00     0.010 C 
HETATM    8  C16 UNL     1       2.357  14.768  -0.932  1.00  0.00     0.037 C 
HETATM    9  C17 UNL     1      -0.853  16.471   0.280  1.00  0.00     0.040 C 
HETATM   10  C18 UNL     1      -1.461  15.432   1.240  1.00  0.00     0.028 C 
HETATM   11  C19 UNL     1      -0.813  15.124   2.638  1.00  0.00     0.140 C 
HETATM   12  C20 UNL     1       0.142  16.217   3.220  1.00  0.00     0.053 C 
HETATM   13  C21 UNL     1      -0.695  17.221   4.071  1.00  0.00    -0.013 C 
HETATM   14  C22 UNL     1      -0.669  17.050   5.412  1.00  0.00    -0.050 C 
HETATM   15  C23 UNL     1      -0.285  15.658   5.876  1.00  0.00     0.043 C 
HETATM   16  C24 UNL     1       1.191  15.490   5.566  1.00  0.00     0.016 C 
HETATM   17  C25 UNL     1       2.052  16.219   6.639  1.00  0.00     0.039 C 
HETATM   18  C26 UNL     1       1.428  17.292   7.598  1.00  0.00     0.123 C 
HETATM   19  C27 UNL     1       0.831  16.712   8.914  1.00  0.00     0.039 C 
HETATM   20  C28 UNL     1       0.728  17.630  10.179  1.00  0.00     0.023 C 
HETATM   21  C30 UNL     1      -0.732  17.855  10.669  1.00  0.00     0.101 C 
HETATM   22  C31 UNL     1      -1.510  18.673   9.736  1.00  0.00    -0.101 C 
HETATM   23  C32 UNL     1      -1.938  19.296   8.804  1.00  0.00    -0.066 C 
HETATM   24  C33 UNL     1      -2.070  19.943   7.533  1.00  0.00     0.029 C 
HETATM   25  C34 UNL     1      -2.728  21.178   7.466  1.00  0.00     0.057 C 
HETATM   26  C35 UNL     1      -2.659  21.917   6.292  1.00  0.00     0.067 C 
HETATM   27  C36 UNL     1      -1.909  21.465   5.216  1.00  0.00     0.037 C 
HETATM   28  C37 UNL     1      -1.255  20.227   5.288  1.00  0.00     0.014 C 
HETATM   29  C38 UNL     1      -1.382  19.401   6.416  1.00  0.00    -0.006 C 
HETATM   30  C39 UNL     1      -0.703  18.039   6.550  1.00  0.00     0.185 C 
HETATM   31  O8  UNL     1       0.653  18.311   6.960  1.00  0.00    -0.371 OA
HETATM   32  C40 UNL     1       1.454  16.035   4.117  1.00  0.00     0.104 A 
HETATM   33  C41 UNL     1       2.709  15.626   3.364  1.00  0.00     0.082 A 
HETATM   34  C42 UNL     1       2.967  14.314   3.001  1.00  0.00     0.010 C 
HETATM   35  C43 UNL     1       3.859  14.040   1.955  1.00  0.00     0.011 C 
HETATM   36  C44 UNL     1       4.608  15.055   1.329  1.00  0.00    -0.003 C 
HETATM   37  C45 UNL     1       4.524  16.339   1.887  1.00  0.00     0.011 C 
HETATM   38  C46 UNL     1       3.569  16.625   2.867  1.00  0.00     0.010 C 
HETATM   39 NA1  UNL     1       2.577  16.349   2.721  1.00  0.00    -0.398 Na
ATOM     40  HA1 UNL     1       2.857  16.877   1.895  1.00  0.00     0.155 HD
ENDROOT
BRANCH   1  41
HETATM   41  N3  UNL     1       5.366  13.459  -0.532  1.00  0.00    -0.331 N 
HETATM   42  C1  UNL     1       5.315  13.078  -1.745  1.00  0.00     0.146 C 
HETATM   43  N1  UNL     1       5.204  13.760  -2.904  1.00  0.00    -0.376 N 
HETATM   44  N2  UNL     1       5.415  11.755  -2.026  1.00  0.00    -0.274 NA
HETATM   45  H1  UNL     1       5.062  14.759  -2.838  1.00  0.00     0.158 HD
HETATM   46  H2  UNL     1       4.628  13.310  -3.605  1.00  0.00     0.158 HD
HETATM   47  H3  UNL     1       6.126  11.597  -2.731  1.00  0.00     0.127 HD
HETATM   48  H4  UNL     1       5.688  11.259  -1.180  1.00  0.00     0.127 HD
ATOM     49  H3  UNL     1       5.486  12.738   0.180  1.00  0.00     0.165 HD
ENDBRANCH   1  41
BRANCH   1  50
HETATM   50  C3  UNL     1       6.717  15.449  -0.060  1.00  0.00     0.070 C 
BRANCH  50  51
HETATM   51  C4  UNL     1       7.026  16.651  -0.988  1.00  0.00     0.043 C 
BRANCH  51  52
HETATM   52  C5  UNL     1       8.228  17.575  -0.647  1.00  0.00     0.058 C 
HETATM   53  C6  UNL     1       7.992  19.057  -1.002  1.00  0.00     0.038 C 
HETATM   54  C7  UNL     1       7.817  19.311  -2.501  1.00  0.00     0.003 C 
HETATM   55  C8  UNL     1       8.628  18.360  -3.380  1.00  0.00     0.000 C 
HETATM   56  C9  UNL     1       9.859  17.843  -2.657  1.00  0.00     0.003 C 
HETATM   57  C10 UNL     1       9.522  17.102  -1.360  1.00  0.00     0.038 C 
BRANCH  52  58
HETATM   58  O1  UNL     1       8.502  17.464   0.754  1.00  0.00    -0.390 OA
HETATM   59  H9  UNL     1       7.821  18.004   1.208  1.00  0.00     0.210 HD
ENDBRANCH  52  58
ENDBRANCH  51  52
ENDBRANCH  50  51
ENDBRANCH   1  50
BRANCH  11  60
HETATM   60  S1  UNL     1      -0.438  13.363   2.762  1.00  0.00     0.106 S 
HETATM   61  O3  UNL     1      -1.065  12.993   4.035  1.00  0.00    -0.595 OA
HETATM   62  O4  UNL     1      -1.061  12.736   1.601  1.00  0.00    -0.595 OA
HETATM   63  O5  UNL     1       1.018  13.263   2.798  1.00  0.00    -0.595 OA
ENDBRANCH  11  60
BRANCH  20  64
HETATM   64  C29 UNL     1       1.527  18.937  10.112  1.00  0.00     0.169 C 
BRANCH  64  65
HETATM   65  O6  UNL     1       2.864  18.722  10.561  1.00  0.00    -0.400 OA
HETATM   66  H42 UNL     1       3.326  18.222   9.866  1.00  0.00     0.209 HD
ENDBRANCH  64  65
ENDBRANCH  20  64
BRANCH  26  67
HETATM   67  O7  UNL     1      -3.268  23.134   6.182  1.00  0.00    -0.361 OA
HETATM   68  H46 UNL     1      -3.768  23.292   6.997  1.00  0.00     0.217 HD
ENDBRANCH  26  67
TORSDOF 9
ENDMDL
MODEL 4
REMARK minimizedAffinity -8.38505745
REMARK CNNscore 0.110326782
REMARK CNNaffinity 6.16628647
REMARK  9 active torsions:
REMARK  status: ('A' for Active; 'I' for Inactive)
REMARK       I    between atoms: N1_1  and  C1_2 
REMARK       I    between atoms: C1_2  and  N2_3 
REMARK    1  A    between atoms: N3_4  and  C2_6 
REMARK    2  A    between atoms: C2_6  and  C3_7 
REMARK    3  A    between atoms: C3_7  and  C4_8 
REMARK    4  A    between atoms: C4_8  and  C5_9 
REMARK    5  A    between atoms: C5_9  and  O1_10 
REMARK    6  A    between atoms: C19_25  and  S1_26 
REMARK    7  A    between atoms: C28_38  and  C29_39 
REMARK    8  A    between atoms: C29_39  and  O6_40 
REMARK    9  A    between atoms: C35_46  and  O7_47 
ROOT
HETATM    1  C2  UNL     1       2.242   9.565  16.261  1.00  0.00     0.171 C 
HETATM    2  O2  UNL     1       2.591   9.486  17.697  1.00  0.00    -0.316 OA
HETATM    3  C11 UNL     1       2.365  10.598  18.465  1.00  0.00     0.072 C 
HETATM    4  C12 UNL     1       1.545  10.424  19.580  1.00  0.00     0.037 C 
HETATM    5  C13 UNL     1       1.057  11.539  20.266  1.00  0.00     0.010 C 
HETATM    6  C14 UNL     1       1.411  12.834  19.860  1.00  0.00    -0.058 C 
HETATM    7  C15 UNL     1       2.375  12.974  18.855  1.00  0.00     0.010 C 
HETATM    8  C16 UNL     1       2.851  11.860  18.151  1.00  0.00     0.037 C 
HETATM    9  C17 UNL     1       0.747  14.021  20.515  1.00  0.00     0.040 C 
HETATM   10  C18 UNL     1       0.423  15.261  19.661  1.00  0.00     0.028 C 
HETATM   11  C19 UNL     1      -0.577  15.189  18.452  1.00  0.00     0.140 C 
HETATM   12  C20 UNL     1      -1.580  13.988  18.445  1.00  0.00     0.053 C 
HETATM   13  C21 UNL     1      -2.873  14.404  19.211  1.00  0.00    -0.013 C 
HETATM   14  C22 UNL     1      -3.932  14.777  18.457  1.00  0.00    -0.050 C 
HETATM   15  C23 UNL     1      -3.591  15.237  17.052  1.00  0.00     0.043 C 
HETATM   16  C24 UNL     1      -3.152  14.003  16.287  1.00  0.00     0.016 C 
HETATM   17  C25 UNL     1      -4.394  13.172  15.847  1.00  0.00     0.039 C 
HETATM   18  C26 UNL     1      -5.803  13.401  16.498  1.00  0.00     0.123 C 
HETATM   19  C27 UNL     1      -6.667  14.491  15.800  1.00  0.00     0.039 C 
HETATM   20  C28 UNL     1      -8.227  14.426  15.919  1.00  0.00     0.023 C 
HETATM   21  C30 UNL     1      -8.850  15.662  16.634  1.00  0.00     0.101 C 
HETATM   22  C31 UNL     1      -8.517  15.704  18.060  1.00  0.00    -0.101 C 
HETATM   23  C32 UNL     1      -8.065  15.545  19.159  1.00  0.00    -0.066 C 
HETATM   24  C33 UNL     1      -7.316  15.048  20.275  1.00  0.00     0.029 C 
HETATM   25  C34 UNL     1      -7.932  14.988  21.532  1.00  0.00     0.057 C 
HETATM   26  C35 UNL     1      -7.303  14.298  22.560  1.00  0.00     0.067 C 
HETATM   27  C36 UNL     1      -6.104  13.635  22.335  1.00  0.00     0.037 C 
HETATM   28  C37 UNL     1      -5.492  13.701  21.076  1.00  0.00     0.014 C 
HETATM   29  C38 UNL     1      -6.041  14.472  20.038  1.00  0.00    -0.006 C 
HETATM   30  C39 UNL     1      -5.416  14.591  18.650  1.00  0.00     0.185 C 
HETATM   31  O8  UNL     1      -5.826  13.411  17.927  1.00  0.00    -0.371 OA
HETATM   32  C40 UNL     1      -2.176  13.180  17.201  1.00  0.00     0.104 A 
HETATM   33  C41 UNL     1      -1.247  12.145  16.588  1.00  0.00     0.082 A 
HETATM   34  C42 UNL     1      -0.247  12.480  15.689  1.00  0.00     0.010 C 
HETATM   35  C43 UNL     1       0.842  11.618  15.501  1.00  0.00     0.011 C 
HETATM   36  C44 UNL     1       0.902  10.349  16.107  1.00  0.00    -0.003 C 
HETATM   37  C45 UNL     1      -0.240   9.926  16.804  1.00  0.00     0.011 C 
HETATM   38  C46 UNL     1      -1.283  10.820  17.065  1.00  0.00     0.010 C 
HETATM   39 NA1  UNL     1      -1.075  11.756  17.467  1.00  0.00    -0.398 Na
ATOM     40  HA1 UNL     1      -0.623  11.072  18.073  1.00  0.00     0.155 HD
ENDROOT
BRANCH   1  41
HETATM   41  N3  UNL     1       3.360  10.052  15.432  1.00  0.00    -0.331 N 
HETATM   42  C1  UNL     1       3.313  10.249  14.176  1.00  0.00     0.146 C 
HETATM   43  N1  UNL     1       2.313  10.130  13.277  1.00  0.00    -0.376 N 
HETATM   44  N2  UNL     1       4.423  10.695  13.537  1.00  0.00    -0.274 NA
HETATM   45  H1  UNL     1       1.438   9.748  13.610  1.00  0.00     0.158 HD
HETATM   46  H2  UNL     1       2.598   9.773  12.374  1.00  0.00     0.158 HD
HETATM   47  H3  UNL     1       4.202  11.508  12.973  1.00  0.00     0.127 HD
HETATM   48  H4  UNL     1       5.116  10.967  14.231  1.00  0.00     0.127 HD
ATOM     49  H3  UNL     1       4.243  10.246  15.904  1.00  0.00     0.165 HD
ENDBRANCH   1  41
BRANCH   1  50
HETATM   50  C3  UNL     1       2.014   8.057  15.900  1.00  0.00     0.070 C 
BRANCH  50  51
HETATM   51  C4  UNL     1       1.291   7.723  14.570  1.00  0.00     0.043 C 
BRANCH  51  52
HETATM   52  C5  UNL     1       0.009   6.845  14.611  1.00  0.00     0.058 C 
HETATM   53  C6  UNL     1       0.091   5.584  13.727  1.00  0.00     0.038 C 
HETATM   54  C7  UNL     1       0.215   5.888  12.232  1.00  0.00     0.003 C 
HETATM   55  C8  UNL     1      -0.512   7.162  11.804  1.00  0.00     0.000 C 
HETATM   56  C9  UNL     1      -1.674   7.480  12.729  1.00  0.00     0.003 C 
HETATM   57  C10 UNL     1      -1.244   7.657  14.188  1.00  0.00     0.038 C 
BRANCH  52  58
HETATM   58  O1  UNL     1      -0.230   6.455  15.967  1.00  0.00    -0.390 OA
HETATM   59  H9  UNL     1       0.402   5.729  16.157  1.00  0.00     0.210 HD
ENDBRANCH  52  58
ENDBRANCH  51  52
ENDBRANCH  50  51
ENDBRANCH   1  50
BRANCH  11  60
HETATM   60  S1  UNL     1       0.243  15.756  16.947  1.00  0.00     0.106 S 
HETATM   61  O3  UNL     1       1.259  14.722  16.729  1.00  0.00    -0.595 OA
HETATM   62  O4  UNL     1      -0.787  15.789  15.915  1.00  0.00    -0.595 OA
HETATM   63  O5  UNL     1       0.820  17.058  17.269  1.00  0.00    -0.595 OA
ENDBRANCH  11  60
BRANCH  20  64
HETATM   64  C29 UNL     1      -8.794  13.103  16.449  1.00  0.00     0.169 C 
BRANCH  64  65
HETATM   65  O6  UNL     1      -8.907  12.156  15.389  1.00  0.00    -0.400 OA
HETATM   66  H42 UNL     1      -8.007  11.861  15.165  1.00  0.00     0.209 HD
ENDBRANCH  64  65
ENDBRANCH  20  64
BRANCH  26  67
HETATM   67  O7  UNL     1      -7.869  14.196  23.797  1.00  0.00    -0.361 OA
HETATM   68  H46 UNL     1      -8.678  14.729  23.800  1.00  0.00     0.217 HD
ENDBRANCH  26  67
TORSDOF 9
ENDMDL
MODEL 5
REMARK minimizedAffinity -7.67083931
REMARK CNNscore 0.106645599
REMARK CNNaffinity 7.04118156
REMARK  9 active torsions:
REMARK  status: ('A' for Active; 'I' for Inactive)
REMARK       I    between atoms: N1_1  and  C1_2 
REMARK       I    between atoms: C1_2  and  N2_3 
REMARK    1  A    between atoms: N3_4  and  C2_6 
REMARK    2  A    between atoms: C2_6  and  C3_7 
REMARK    3  A    between atoms: C3_7  and  C4_8 
REMARK    4  A    between atoms: C4_8  and  C5_9 
REMARK    5  A    between atoms: C5_9  and  O1_10 
REMARK    6  A    between atoms: C19_25  and  S1_26 
REMARK    7  A    between atoms: C28_38  and  C29_39 
REMARK    8  A    between atoms: C29_39  and  O6_40 
REMARK    9  A    between atoms: C35_46  and  O7_47 
ROOT
HETATM    1  C2  UNL     1      -0.580   9.543  15.194  1.00  0.00     0.171 C 
HETATM    2  O2  UNL     1       0.135   9.464  16.488  1.00  0.00    -0.316 OA
HETATM    3  C11 UNL     1       0.180  10.597  17.255  1.00  0.00     0.072 C 
HETATM    4  C12 UNL     1      -0.322  10.488  18.553  1.00  0.00     0.037 C 
HETATM    5  C13 UNL     1      -0.550  11.639  19.310  1.00  0.00     0.010 C 
HETATM    6  C14 UNL     1      -0.248  12.905  18.788  1.00  0.00    -0.058 C 
HETATM    7  C15 UNL     1       0.420  12.973  17.559  1.00  0.00     0.010 C 
HETATM    8  C16 UNL     1       0.631  11.824  16.788  1.00  0.00     0.037 C 
HETATM    9  C17 UNL     1      -0.650  14.138  19.560  1.00  0.00     0.040 C 
HETATM   10  C18 UNL     1      -1.124  15.382  18.788  1.00  0.00     0.028 C 
HETATM   11  C19 UNL     1      -2.412  15.353  17.888  1.00  0.00     0.140 C 
HETATM   12  C20 UNL     1      -3.442  14.213  18.183  1.00  0.00     0.053 C 
HETATM   13  C21 UNL     1      -4.462  14.715  19.251  1.00  0.00    -0.013 C 
HETATM   14  C22 UNL     1      -5.661  15.139  18.794  1.00  0.00    -0.050 C 
HETATM   15  C23 UNL     1      -5.683  15.559  17.336  1.00  0.00     0.043 C 
HETATM   16  C24 UNL     1      -5.529  14.290  16.518  1.00  0.00     0.016 C 
HETATM   17  C25 UNL     1      -6.885  13.528  16.447  1.00  0.00     0.039 C 
HETATM   18  C26 UNL     1      -8.056  13.848  17.441  1.00  0.00     0.123 C 
HETATM   19  C27 UNL     1      -9.016  14.977  16.965  1.00  0.00     0.039 C 
HETATM   20  C28 UNL     1     -10.489  15.006  17.496  1.00  0.00     0.023 C 
HETATM   21  C30 UNL     1     -10.833  16.286  18.314  1.00  0.00     0.101 C 
HETATM   22  C31 UNL     1     -10.131  16.328  19.598  1.00  0.00    -0.101 C 
HETATM   23  C32 UNL     1      -9.411  16.159  20.543  1.00  0.00    -0.066 C 
HETATM   24  C33 UNL     1      -8.421  15.633  21.435  1.00  0.00     0.029 C 
HETATM   25  C34 UNL     1      -8.682  15.627  22.811  1.00  0.00     0.057 C 
HETATM   26  C35 UNL     1      -7.839  14.916  23.655  1.00  0.00     0.067 C 
HETATM   27  C36 UNL     1      -6.781  14.180  23.141  1.00  0.00     0.037 C 
HETATM   28  C37 UNL     1      -6.523  14.193  21.762  1.00  0.00     0.014 C 
HETATM   29  C38 UNL     1      -7.286  14.980  20.886  1.00  0.00    -0.006 C 
HETATM   30  C39 UNL     1      -7.048  15.044  19.378  1.00  0.00     0.185 C 
HETATM   31  O8  UNL     1      -7.698  13.880  18.825  1.00  0.00    -0.371 OA
HETATM   32  C40 UNL     1      -4.390  13.424  17.165  1.00  0.00     0.104 A 
HETATM   33  C41 UNL     1      -3.714  12.328  16.358  1.00  0.00     0.082 A 
HETATM   34  C42 UNL     1      -2.972  12.591  15.217  1.00  0.00     0.010 C 
HETATM   35  C43 UNL     1      -2.020  11.664  14.772  1.00  0.00     0.011 C 
HETATM   36  C44 UNL     1      -1.869  10.402  15.378  1.00  0.00    -0.003 C 
HETATM   37  C45 UNL     1      -2.805  10.057  16.364  1.00  0.00     0.011 C 
HETATM   38  C46 UNL     1      -3.692  11.014  16.865  1.00  0.00     0.010 C 
HETATM   39 NA1  UNL     1      -3.335  11.942  17.171  1.00  0.00    -0.398 Na
ATOM     40  HA1 UNL     1      -2.775  11.241  17.655  1.00  0.00     0.155 HD
ENDROOT
BRANCH   1  41
HETATM   41  N3  UNL     1       0.301   9.951  14.084  1.00  0.00    -0.331 N 
HETATM   42  C1  UNL     1       1.531   9.645  13.969  1.00  0.00     0.146 C 
HETATM   43  N1  UNL     1       2.349   8.886  14.726  1.00  0.00    -0.376 N 
HETATM   44  N2  UNL     1       2.225  10.096  12.895  1.00  0.00    -0.274 NA
HETATM   45  H1  UNL     1       1.974   8.531  15.596  1.00  0.00     0.158 HD
HETATM   46  H2  UNL     1       3.298   9.233  14.801  1.00  0.00     0.158 HD
HETATM   47  H3  UNL     1       2.706   9.329  12.439  1.00  0.00     0.127 HD
HETATM   48  H4  UNL     1       1.573  10.504  12.229  1.00  0.00     0.127 HD
ATOM     49  H3  UNL     1      -0.109  10.527  13.348  1.00  0.00     0.165 HD
ENDBRANCH   1  41
BRANCH   1  50
HETATM   50  C3  UNL     1      -0.975   8.046  14.949  1.00  0.00     0.070 C 
BRANCH  50  51
HETATM   51  C4  UNL     1      -1.982   7.729  13.814  1.00  0.00     0.043 C 
BRANCH  51  52
HETATM   52  C5  UNL     1      -2.859   6.450  13.921  1.00  0.00     0.058 C 
HETATM   53  C6  UNL     1      -4.052   6.432  12.944  1.00  0.00     0.038 C 
HETATM   54  C7  UNL     1      -5.077   7.538  13.203  1.00  0.00     0.003 C 
HETATM   55  C8  UNL     1      -5.212   7.914  14.677  1.00  0.00     0.000 C 
HETATM   56  C9  UNL     1      -4.836   6.757  15.586  1.00  0.00     0.003 C 
HETATM   57  C10 UNL     1      -3.405   6.262  15.362  1.00  0.00     0.038 C 
BRANCH  52  58
HETATM   58  O1  UNL     1      -2.030   5.311  13.675  1.00  0.00    -0.390 OA
HETATM   59  H9  UNL     1      -1.903   5.271  12.703  1.00  0.00     0.210 HD
ENDBRANCH  52  58
ENDBRANCH  51  52
ENDBRANCH  50  51
ENDBRANCH   1  50
BRANCH  11  60
HETATM   60  S1  UNL     1      -1.993  15.850  16.204  1.00  0.00     0.106 S 
HETATM   61  O3  UNL     1      -3.309  15.981  15.574  1.00  0.00    -0.595 OA
HETATM   62  O4  UNL     1      -1.275  17.114  16.325  1.00  0.00    -0.595 OA
HETATM   63  O5  UNL     1      -1.204  14.756  15.646  1.00  0.00    -0.595 OA
ENDBRANCH  11  60
BRANCH  20  64
HETATM   64  C29 UNL     1     -10.964  13.726  18.195  1.00  0.00     0.169 C 
BRANCH  64  65
HETATM   65  O6  UNL     1     -11.474  12.801  17.236  1.00  0.00    -0.400 OA
HETATM   66  H42 UNL     1     -10.714  12.440  16.749  1.00  0.00     0.209 HD
ENDBRANCH  64  65
ENDBRANCH  20  64
BRANCH  26  67
HETATM   67  O7  UNL     1      -8.061  14.864  25.001  1.00  0.00    -0.361 OA
HETATM   68  H46 UNL     1      -8.810  15.444  25.202  1.00  0.00     0.217 HD
ENDBRANCH  26  67
TORSDOF 9
ENDMDL
MODEL 6
REMARK minimizedAffinity -8.83376694
REMARK CNNscore 0.10402365
REMARK CNNaffinity 6.79264832
REMARK  9 active torsions:
REMARK  status: ('A' for Active; 'I' for Inactive)
REMARK       I    between atoms: N1_1  and  C1_2 
REMARK       I    between atoms: C1_2  and  N2_3 
REMARK    1  A    between atoms: N3_4  and  C2_6 
REMARK    2  A    between atoms: C2_6  and  C3_7 
REMARK    3  A    between atoms: C3_7  and  C4_8 
REMARK    4  A    between atoms: C4_8  and  C5_9 
REMARK    5  A    between atoms: C5_9  and  O1_10 
REMARK    6  A    between atoms: C19_25  and  S1_26 
REMARK    7  A    between atoms: C28_38  and  C29_39 
REMARK    8  A    between atoms: C29_39  and  O6_40 
REMARK    9  A    between atoms: C35_46  and  O7_47 
ROOT
HETATM    1  C2  UNL     1      -9.385  -8.044  -4.116  1.00  0.00     0.171 C 
HETATM    2  O2  UNL     1     -10.739  -7.812  -3.565  1.00  0.00    -0.316 OA
HETATM    3  C11 UNL     1     -11.208  -8.706  -2.640  1.00  0.00     0.072 C 
HETATM    4  C12 UNL     1     -11.597  -8.177  -1.409  1.00  0.00     0.037 C 
HETATM    5  C13 UNL     1     -11.842  -9.031  -0.330  1.00  0.00     0.010 C 
HETATM    6  C14 UNL     1     -11.728 -10.420  -0.484  1.00  0.00    -0.058 C 
HETATM    7  C15 UNL     1     -11.514 -10.930  -1.770  1.00  0.00     0.010 C 
HETATM    8  C16 UNL     1     -11.248 -10.078  -2.849  1.00  0.00     0.037 C 
HETATM    9  C17 UNL     1     -11.841 -11.310   0.730  1.00  0.00     0.040 C 
HETATM   10  C18 UNL     1     -10.961 -12.569   0.818  1.00  0.00     0.028 C 
HETATM   11  C19 UNL     1      -9.393 -12.477   0.855  1.00  0.00     0.140 C 
HETATM   12  C20 UNL     1      -8.785 -11.103   1.289  1.00  0.00     0.053 C 
HETATM   13  C21 UNL     1      -8.606 -11.094   2.839  1.00  0.00    -0.013 C 
HETATM   14  C22 UNL     1      -7.363 -11.342   3.309  1.00  0.00    -0.050 C 
HETATM   15  C23 UNL     1      -6.451 -12.089   2.353  1.00  0.00     0.043 C 
HETATM   16  C24 UNL     1      -6.115 -11.122   1.232  1.00  0.00     0.016 C 
HETATM   17  C25 UNL     1      -5.015 -10.122   1.697  1.00  0.00     0.039 C 
HETATM   18  C26 UNL     1      -4.677  -9.926   3.216  1.00  0.00     0.123 C 
HETATM   19  C27 UNL     1      -3.593 -10.898   3.767  1.00  0.00     0.039 C 
HETATM   20  C28 UNL     1      -2.742 -10.474   5.011  1.00  0.00     0.023 C 
HETATM   21  C30 UNL     1      -2.926 -11.409   6.242  1.00  0.00     0.101 C 
HETATM   22  C31 UNL     1      -4.262 -11.290   6.833  1.00  0.00    -0.101 C 
HETATM   23  C32 UNL     1      -5.411 -11.059   7.086  1.00  0.00    -0.066 C 
HETATM   24  C33 UNL     1      -6.754 -10.563   7.031  1.00  0.00     0.029 C 
HETATM   25  C34 UNL     1      -7.379 -10.165   8.219  1.00  0.00     0.057 C 
HETATM   26  C35 UNL     1      -8.581  -9.473   8.151  1.00  0.00     0.067 C 
HETATM   27  C36 UNL     1      -9.133  -9.135   6.923  1.00  0.00     0.037 C 
HETATM   28  C37 UNL     1      -8.503  -9.539   5.737  1.00  0.00     0.014 C 
HETATM   29  C38 UNL     1      -7.342 -10.328   5.761  1.00  0.00    -0.006 C 
HETATM   30  C39 UNL     1      -6.617 -10.806   4.504  1.00  0.00     0.185 C 
HETATM   31  O8  UNL     1      -5.799  -9.698   4.073  1.00  0.00    -0.371 OA
HETATM   32  C40 UNL     1      -7.437 -10.396   0.796  1.00  0.00     0.104 A 
HETATM   33  C41 UNL     1      -7.518  -9.705  -0.555  1.00  0.00     0.082 A 
HETATM   34  C42 UNL     1      -7.409 -10.394  -1.752  1.00  0.00     0.010 C 
HETATM   35  C43 UNL     1      -7.924  -9.835  -2.930  1.00  0.00     0.011 C 
HETATM   36  C44 UNL     1      -8.447  -8.528  -2.968  1.00  0.00    -0.003 C 
HETATM   37  C45 UNL     1      -8.310  -7.758  -1.804  1.00  0.00     0.011 C 
HETATM   38  C46 UNL     1      -7.880  -8.346  -0.611  1.00  0.00     0.010 C 
HETATM   39 NA1  UNL     1      -8.322  -9.226  -0.279  1.00  0.00    -0.398 Na
ATOM     40  HA1 UNL     1      -9.081  -8.569  -0.457  1.00  0.00     0.155 HD
ENDROOT
BRANCH   1  41
HETATM   41  N3  UNL     1      -9.402  -8.893  -5.322  1.00  0.00    -0.331 N 
HETATM   42  C1  UNL     1      -8.444  -9.015  -6.150  1.00  0.00     0.146 C 
HETATM   43  N1  UNL     1      -7.200  -8.493  -6.178  1.00  0.00    -0.376 N 
HETATM   44  N2  UNL     1      -8.599  -9.829  -7.223  1.00  0.00    -0.274 NA
HETATM   45  H1  UNL     1      -6.969  -7.816  -5.463  1.00  0.00     0.158 HD
HETATM   46  H2  UNL     1      -6.870  -8.241  -7.102  1.00  0.00     0.158 HD
HETATM   47  H3  UNL     1      -7.822 -10.477  -7.290  1.00  0.00     0.127 HD
HETATM   48  H4  UNL     1      -9.454 -10.369  -7.106  1.00  0.00     0.127 HD
ATOM     49  H3  UNL     1     -10.252  -9.427  -5.507  1.00  0.00     0.165 HD
ENDBRANCH   1  41
BRANCH   1  50
HETATM   50  C3  UNL     1      -8.966  -6.603  -4.566  1.00  0.00     0.070 C 
BRANCH  50  51
HETATM   51  C4  UNL     1     -10.076  -5.630  -5.039  1.00  0.00     0.043 C 
BRANCH  51  52
HETATM   52  C5  UNL     1      -9.732  -4.124  -5.214  1.00  0.00     0.058 C 
HETATM   53  C6  UNL     1     -10.858  -3.173  -4.760  1.00  0.00     0.038 C 
HETATM   54  C7  UNL     1     -12.142  -3.300  -5.584  1.00  0.00     0.003 C 
HETATM   55  C8  UNL     1     -11.894  -3.662  -7.048  1.00  0.00     0.000 C 
HETATM   56  C9  UNL     1     -10.525  -3.200  -7.515  1.00  0.00     0.003 C 
HETATM   57  C10 UNL     1      -9.381  -3.795  -6.690  1.00  0.00     0.038 C 
BRANCH  52  58
HETATM   58  O1  UNL     1      -8.545  -3.841  -4.467  1.00  0.00    -0.390 OA
HETATM   59  H9  UNL     1      -8.823  -3.778  -3.529  1.00  0.00     0.210 HD
ENDBRANCH  52  58
ENDBRANCH  51  52
ENDBRANCH  50  51
ENDBRANCH   1  50
BRANCH  11  60
HETATM   60  S1  UNL     1      -8.692 -13.448  -0.496  1.00  0.00     0.106 S 
HETATM   61  O3  UNL     1      -7.254 -13.392  -0.215  1.00  0.00    -0.595 OA
HETATM   62  O4  UNL     1      -9.260 -14.786  -0.366  1.00  0.00    -0.595 OA
HETATM   63  O5  UNL     1      -9.057 -12.751  -1.725  1.00  0.00    -0.595 OA
ENDBRANCH  11  60
BRANCH  20  64
HETATM   64  C29 UNL     1      -2.824  -8.990   5.391  1.00  0.00     0.169 C 
BRANCH  64  65
HETATM   65  O6  UNL     1      -3.995  -8.746   6.170  1.00  0.00    -0.400 OA
HETATM   66  H42 UNL     1      -3.841  -9.125   7.052  1.00  0.00     0.209 HD
ENDBRANCH  64  65
ENDBRANCH  20  64
BRANCH  26  67
HETATM   67  O7  UNL     1      -9.222  -9.048   9.279  1.00  0.00    -0.361 OA
HETATM   68  H46 UNL     1      -8.731  -9.383  10.044  1.00  0.00     0.217 HD
ENDBRANCH  26  67
TORSDOF 9
ENDMDL
MODEL 7
REMARK minimizedAffinity -8.45622158
REMARK CNNscore 0.0996020585
REMARK CNNaffinity 5.86596441
REMARK  9 active torsions:
REMARK  status: ('A' for Active; 'I' for Inactive)
REMARK       I    between atoms: N1_1  and  C1_2 
REMARK       I    between atoms: C1_2  and  N2_3 
REMARK    1  A    between atoms: N3_4  and  C2_6 
REMARK    2  A    between atoms: C2_6  and  C3_7 
REMARK    3  A    between atoms: C3_7  and  C4_8 
REMARK    4  A    between atoms: C4_8  and  C5_9 
REMARK    5  A    between atoms: C5_9  and  O1_10 
REMARK    6  A    between atoms: C19_25  and  S1_26 
REMARK    7  A    between atoms: C28_38  and  C29_39 
REMARK    8  A    between atoms: C29_39  and  O6_40 
REMARK    9  A    between atoms: C35_46  and  O7_47 
ROOT
HETATM    1  C2  UNL     1       3.329  11.839  21.070  1.00  0.00     0.171 C 
HETATM    2  O2  UNL     1       4.171  12.445  20.015  1.00  0.00    -0.316 OA
HETATM    3  C11 UNL     1       3.753  12.312  18.718  1.00  0.00     0.072 C 
HETATM    4  C12 UNL     1       3.578  13.495  17.999  1.00  0.00     0.037 C 
HETATM    5  C13 UNL     1       2.917  13.470  16.768  1.00  0.00     0.010 C 
HETATM    6  C14 UNL     1       2.454  12.258  16.235  1.00  0.00    -0.058 C 
HETATM    7  C15 UNL     1       2.802  11.070  16.888  1.00  0.00     0.010 C 
HETATM    8  C16 UNL     1       3.446  11.092  18.132  1.00  0.00     0.037 C 
HETATM    9  C17 UNL     1       1.607  12.276  14.986  1.00  0.00     0.040 C 
HETATM   10  C18 UNL     1       0.459  11.260  14.847  1.00  0.00     0.028 C 
HETATM   11  C19 UNL     1      -0.756  11.249  15.843  1.00  0.00     0.140 C 
HETATM   12  C20 UNL     1      -1.012  12.566  16.647  1.00  0.00     0.053 C 
HETATM   13  C21 UNL     1      -1.970  13.483  15.827  1.00  0.00    -0.013 C 
HETATM   14  C22 UNL     1      -3.273  13.480  16.189  1.00  0.00    -0.050 C 
HETATM   15  C23 UNL     1      -3.723  12.251  16.957  1.00  0.00     0.043 C 
HETATM   16  C24 UNL     1      -3.075  12.335  18.326  1.00  0.00     0.016 C 
HETATM   17  C25 UNL     1      -3.853  13.337  19.229  1.00  0.00     0.039 C 
HETATM   18  C26 UNL     1      -4.859  14.375  18.620  1.00  0.00     0.123 C 
HETATM   19  C27 UNL     1      -6.318  13.850  18.473  1.00  0.00     0.039 C 
HETATM   20  C28 UNL     1      -7.503  14.873  18.462  1.00  0.00     0.023 C 
HETATM   21  C30 UNL     1      -8.319  14.870  17.136  1.00  0.00     0.101 C 
HETATM   22  C31 UNL     1      -7.550  15.407  16.011  1.00  0.00    -0.101 C 
HETATM   23  C32 UNL     1      -6.710  15.822  15.262  1.00  0.00    -0.066 C 
HETATM   24  C33 UNL     1      -5.468  16.277  14.711  1.00  0.00     0.029 C 
HETATM   25  C34 UNL     1      -5.479  17.346  13.805  1.00  0.00     0.057 C 
HETATM   26  C35 UNL     1      -4.276  17.941  13.449  1.00  0.00     0.067 C 
HETATM   27  C36 UNL     1      -3.083  17.518  14.018  1.00  0.00     0.037 C 
HETATM   28  C37 UNL     1      -3.078  16.446  14.921  1.00  0.00     0.014 C 
HETATM   29  C38 UNL     1      -4.257  15.750  15.231  1.00  0.00    -0.006 C 
HETATM   30  C39 UNL     1      -4.315  14.570  16.199  1.00  0.00     0.185 C 
HETATM   31  O8  UNL     1      -4.362  15.144  17.522  1.00  0.00    -0.371 OA
HETATM   32  C40 UNL     1      -1.572  12.747  18.134  1.00  0.00     0.104 A 
HETATM   33  C41 UNL     1      -0.566  12.501  19.246  1.00  0.00     0.082 A 
HETATM   34  C42 UNL     1      -0.241  11.230  19.691  1.00  0.00     0.010 C 
HETATM   35  C43 UNL     1       0.970  11.012  20.363  1.00  0.00     0.011 C 
HETATM   36  C44 UNL     1       1.827  12.071  20.717  1.00  0.00    -0.003 C 
HETATM   37  C45 UNL     1       1.355  13.371  20.486  1.00  0.00     0.011 C 
HETATM   38  C46 UNL     1       0.194  13.581  19.737  1.00  0.00     0.010 C 
HETATM   39 NA1  UNL     1       0.074  13.104  18.821  1.00  0.00    -0.398 Na
ATOM     40  HA1 UNL     1       0.978  13.576  18.788  1.00  0.00     0.155 HD
ENDROOT
BRANCH   1  41
HETATM   41  N3  UNL     1       3.703  10.443  21.362  1.00  0.00    -0.331 N 
HETATM   42  C1  UNL     1       3.477   9.833  22.456  1.00  0.00     0.146 C 
HETATM   43  N1  UNL     1       2.846  10.208  23.588  1.00  0.00    -0.376 N 
HETATM   44  N2  UNL     1       3.884   8.546  22.589  1.00  0.00    -0.274 NA
HETATM   45  H1  UNL     1       2.541  11.171  23.647  1.00  0.00     0.158 HD
HETATM   46  H2  UNL     1       3.266   9.858  24.441  1.00  0.00     0.158 HD
HETATM   47  H3  UNL     1       3.117   7.966  22.911  1.00  0.00     0.127 HD
HETATM   48  H4  UNL     1       4.186   8.200  21.681  1.00  0.00     0.127 HD
ATOM     49  H3  UNL     1       4.183   9.923  20.627  1.00  0.00     0.165 HD
ENDBRANCH   1  41
BRANCH   1  50
HETATM   50  C3  UNL     1       3.712  12.697  22.325  1.00  0.00     0.070 C 
BRANCH  50  51
HETATM   51  C4  UNL     1       5.209  12.798  22.715  1.00  0.00     0.043 C 
BRANCH  51  52
HETATM   52  C5  UNL     1       6.074  13.929  22.091  1.00  0.00     0.058 C 
HETATM   53  C6  UNL     1       7.152  13.418  21.114  1.00  0.00     0.038 C 
HETATM   54  C7  UNL     1       8.216  12.538  21.775  1.00  0.00     0.003 C 
HETATM   55  C8  UNL     1       8.516  12.925  23.222  1.00  0.00     0.000 C 
HETATM   56  C9  UNL     1       8.226  14.394  23.479  1.00  0.00     0.003 C 
HETATM   57  C10 UNL     1       6.772  14.775  23.189  1.00  0.00     0.038 C 
BRANCH  52  58
HETATM   58  O1  UNL     1       5.206  14.836  21.404  1.00  0.00    -0.390 OA
HETATM   59  H9  UNL     1       4.974  14.401  20.557  1.00  0.00     0.210 HD
ENDBRANCH  52  58
ENDBRANCH  51  52
ENDBRANCH  50  51
ENDBRANCH   1  50
BRANCH  11  60
HETATM   60  S1  UNL     1      -0.906   9.620  16.606  1.00  0.00     0.106 S 
HETATM   61  O3  UNL     1      -1.064   8.738  15.445  1.00  0.00    -0.595 OA
HETATM   62  O4  UNL     1       0.337   9.403  17.338  1.00  0.00    -0.595 OA
HETATM   63  O5  UNL     1      -2.101   9.675  17.442  1.00  0.00    -0.595 OA
ENDBRANCH  11  60
BRANCH  20  64
HETATM   64  C29 UNL     1      -7.154  16.293  18.925  1.00  0.00     0.169 C 
BRANCH  64  65
HETATM   65  O6  UNL     1      -6.335  16.941  17.953  1.00  0.00    -0.400 OA
HETATM   66  H42 UNL     1      -6.904  17.159  17.194  1.00  0.00     0.209 HD
ENDBRANCH  64  65
ENDBRANCH  20  64
BRANCH  26  67
HETATM   67  O7  UNL     1      -4.235  18.996  12.584  1.00  0.00    -0.361 OA
HETATM   68  H46 UNL     1      -5.134  19.150  12.258  1.00  0.00     0.217 HD
ENDBRANCH  26  67
TORSDOF 9
ENDMDL
MODEL 8
REMARK minimizedAffinity -7.56930542
REMARK CNNscore 0.0987934843
REMARK CNNaffinity 6.21380472
REMARK  9 active torsions:
REMARK  status: ('A' for Active; 'I' for Inactive)
REMARK       I    between atoms: N1_1  and  C1_2 
REMARK       I    between atoms: C1_2  and  N2_3 
REMARK    1  A    between atoms: N3_4  and  C2_6 
REMARK    2  A    between atoms: C2_6  and  C3_7 
REMARK    3  A    between atoms: C3_7  and  C4_8 
REMARK    4  A    between atoms: C4_8  and  C5_9 
REMARK    5  A    between atoms: C5_9  and  O1_10 
REMARK    6  A    between atoms: C19_25  and  S1_26 
REMARK    7  A    between atoms: C28_38  and  C29_39 
REMARK    8  A    between atoms: C29_39  and  O6_40 
REMARK    9  A    between atoms: C35_46  and  O7_47 
ROOT
HETATM    1  C2  UNL     1       2.108  12.722  16.936  1.00  0.00     0.171 C 
HETATM    2  O2  UNL     1       2.172  11.318  17.399  1.00  0.00    -0.316 OA
HETATM    3  C11 UNL     1       2.864  11.063  18.553  1.00  0.00     0.072 C 
HETATM    4  C12 UNL     1       2.158  10.421  19.571  1.00  0.00     0.037 C 
HETATM    5  C13 UNL     1       2.698  10.353  20.857  1.00  0.00     0.010 C 
HETATM    6  C14 UNL     1       3.961  10.899  21.128  1.00  0.00    -0.058 C 
HETATM    7  C15 UNL     1       4.722  11.374  20.053  1.00  0.00     0.010 C 
HETATM    8  C16 UNL     1       4.176  11.464  18.767  1.00  0.00     0.037 C 
HETATM    9  C17 UNL     1       4.452  10.954  22.554  1.00  0.00     0.040 C 
HETATM   10  C18 UNL     1       5.284  12.165  23.012  1.00  0.00     0.028 C 
HETATM   11  C19 UNL     1       4.691  13.620  23.010  1.00  0.00     0.140 C 
HETATM   12  C20 UNL     1       3.131  13.737  23.007  1.00  0.00     0.053 C 
HETATM   13  C21 UNL     1       2.622  13.763  24.482  1.00  0.00    -0.013 C 
HETATM   14  C22 UNL     1       2.315  14.974  24.997  1.00  0.00    -0.050 C 
HETATM   15  C23 UNL     1       2.972  16.153  24.305  1.00  0.00     0.043 C 
HETATM   16  C24 UNL     1       2.313  16.278  22.944  1.00  0.00     0.016 C 
HETATM   17  C25 UNL     1       0.926  16.973  23.080  1.00  0.00     0.039 C 
HETATM   18  C26 UNL     1       0.205  17.095  24.468  1.00  0.00     0.123 C 
HETATM   19  C27 UNL     1       0.580  18.370  25.279  1.00  0.00     0.039 C 
HETATM   20  C28 UNL     1      -0.432  18.934  26.333  1.00  0.00     0.023 C 
HETATM   21  C30 UNL     1       0.119  18.933  27.790  1.00  0.00     0.101 C 
HETATM   22  C31 UNL     1       0.268  17.578  28.325  1.00  0.00    -0.101 C 
HETATM   23  C32 UNL     1       0.353  16.395  28.504  1.00  0.00    -0.066 C 
HETATM   24  C33 UNL     1       0.349  14.975  28.309  1.00  0.00     0.029 C 
HETATM   25  C34 UNL     1      -0.151  14.153  29.327  1.00  0.00     0.057 C 
HETATM   26  C35 UNL     1      -0.373  12.809  29.060  1.00  0.00     0.067 C 
HETATM   27  C36 UNL     1      -0.151  12.294  27.791  1.00  0.00     0.037 C 
HETATM   28  C37 UNL     1       0.353  13.122  26.777  1.00  0.00     0.014 C 
HETATM   29  C38 UNL     1       0.689  14.461  27.030  1.00  0.00    -0.006 C 
HETATM   30  C39 UNL     1       1.250  15.409  25.972  1.00  0.00     0.185 C 
HETATM   31  O8  UNL     1       0.112  15.885  25.223  1.00  0.00    -0.371 OA
HETATM   32  C40 UNL     1       2.204  14.842  22.317  1.00  0.00     0.104 A 
HETATM   33  C41 UNL     1       1.993  14.677  20.822  1.00  0.00     0.082 A 
HETATM   34  C42 UNL     1       2.923  15.100  19.885  1.00  0.00     0.010 C 
HETATM   35  C43 UNL     1       2.920  14.547  18.597  1.00  0.00     0.011 C 
HETATM   36  C44 UNL     1       1.917  13.655  18.171  1.00  0.00    -0.003 C 
HETATM   37  C45 UNL     1       0.844  13.444  19.049  1.00  0.00     0.011 C 
HETATM   38  C46 UNL     1       0.896  13.923  20.361  1.00  0.00     0.010 C 
HETATM   39 NA1  UNL     1       1.737  13.743  20.945  1.00  0.00    -0.398 Na
ATOM     40  HA1 UNL     1       1.437  12.839  20.582  1.00  0.00     0.155 HD
ENDROOT
BRANCH   1  41
HETATM   41  N3  UNL     1       3.226  13.075  16.041  1.00  0.00    -0.331 N 
HETATM   42  C1  UNL     1       3.805  12.277  15.236  1.00  0.00     0.146 C 
HETATM   43  N1  UNL     1       3.586  10.982  14.931  1.00  0.00    -0.376 N 
HETATM   44  N2  UNL     1       4.827  12.738  14.474  1.00  0.00    -0.274 NA
HETATM   45  H1  UNL     1       2.884  10.494  15.472  1.00  0.00     0.158 HD
HETATM   46  H2  UNL     1       4.425  10.439  14.766  1.00  0.00     0.158 HD
HETATM   47  H3  UNL     1       4.672  12.507  13.499  1.00  0.00     0.127 HD
HETATM   48  H4  UNL     1       4.872  13.751  14.558  1.00  0.00     0.127 HD
ATOM     49  H3  UNL     1       3.563  14.038  16.070  1.00  0.00     0.165 HD
ENDBRANCH   1  41
BRANCH   1  50
HETATM   50  C3  UNL     1       0.801  12.719  16.071  1.00  0.00     0.070 C 
BRANCH  50  51
HETATM   51  C4  UNL     1       0.067  11.371  15.855  1.00  0.00     0.043 C 
BRANCH  51  52
HETATM   52  C5  UNL     1      -1.410  11.389  15.373  1.00  0.00     0.058 C 
HETATM   53  C6  UNL     1      -2.329  12.292  16.220  1.00  0.00     0.038 C 
HETATM   54  C7  UNL     1      -2.479  11.830  17.671  1.00  0.00     0.003 C 
HETATM   55  C8  UNL     1      -2.414  10.313  17.840  1.00  0.00     0.000 C 
HETATM   56  C9  UNL     1      -2.856   9.591  16.579  1.00  0.00     0.003 C 
HETATM   57  C10 UNL     1      -2.014   9.959  15.354  1.00  0.00     0.038 C 
BRANCH  52  58
HETATM   58  O1  UNL     1      -1.437  11.832  14.012  1.00  0.00    -0.390 OA
HETATM   59  H9  UNL     1      -1.324  12.805  14.041  1.00  0.00     0.210 HD
ENDBRANCH  52  58
ENDBRANCH  51  52
ENDBRANCH  50  51
ENDBRANCH   1  50
BRANCH  11  60
HETATM   60  S1  UNL     1       5.731  14.704  22.010  1.00  0.00     0.106 S 
HETATM   61  O3  UNL     1       7.061  14.488  22.586  1.00  0.00    -0.595 OA
HETATM   62  O4  UNL     1       5.606  14.226  20.637  1.00  0.00    -0.595 OA
HETATM   63  O5  UNL     1       5.231  16.057  22.229  1.00  0.00    -0.595 OA
ENDBRANCH  11  60
BRANCH  20  64
HETATM   64  C29 UNL     1      -1.855  18.367  26.251  1.00  0.00     0.169 C 
BRANCH  64  65
HETATM   65  O6  UNL     1      -1.932  17.127  26.951  1.00  0.00    -0.400 OA
HETATM   66  H42 UNL     1      -1.900  17.329  27.902  1.00  0.00     0.209 HD
ENDBRANCH  64  65
ENDBRANCH  20  64
BRANCH  26  67
HETATM   67  O7  UNL     1      -0.876  11.970  30.012  1.00  0.00    -0.361 OA
HETATM   68  H46 UNL     1      -0.950  12.467  30.840  1.00  0.00     0.217 HD
ENDBRANCH  26  67
TORSDOF 9
ENDMDL
MODEL 9
REMARK minimizedAffinity -8.08036518
REMARK CNNscore 0.0953161865
REMARK CNNaffinity 6.58499527
REMARK  9 active torsions:
REMARK  status: ('A' for Active; 'I' for Inactive)
REMARK       I    between atoms: N1_1  and  C1_2 
REMARK       I    between atoms: C1_2  and  N2_3 
REMARK    1  A    between atoms: N3_4  and  C2_6 
REMARK    2  A    between atoms: C2_6  and  C3_7 
REMARK    3  A    between atoms: C3_7  and  C4_8 
REMARK    4  A    between atoms: C4_8  and  C5_9 
REMARK    5  A    between atoms: C5_9  and  O1_10 
REMARK    6  A    between atoms: C19_25  and  S1_26 
REMARK    7  A    between atoms: C28_38  and  C29_39 
REMARK    8  A    between atoms: C29_39  and  O6_40 
REMARK    9  A    between atoms: C35_46  and  O7_47 
ROOT
HETATM    1  C2  UNL     1      -3.106   8.609  15.893  1.00  0.00     0.171 C 
HETATM    2  O2  UNL     1      -2.867   9.254  14.582  1.00  0.00    -0.316 OA
HETATM    3  C11 UNL     1      -2.657  10.607  14.572  1.00  0.00     0.072 C 
HETATM    4  C12 UNL     1      -1.466  11.045  13.991  1.00  0.00     0.037 C 
HETATM    5  C13 UNL     1      -1.053  12.368  14.164  1.00  0.00     0.010 C 
HETATM    6  C14 UNL     1      -1.842  13.270  14.892  1.00  0.00    -0.058 C 
HETATM    7  C15 UNL     1      -3.112  12.854  15.308  1.00  0.00     0.010 C 
HETATM    8  C16 UNL     1      -3.521  11.523  15.155  1.00  0.00     0.037 C 
HETATM    9  C17 UNL     1      -1.301  14.646  15.198  1.00  0.00     0.040 C 
HETATM   10  C18 UNL     1      -1.635  15.296  16.553  1.00  0.00     0.028 C 
HETATM   11  C19 UNL     1      -1.171  14.655  17.910  1.00  0.00     0.140 C 
HETATM   12  C20 UNL     1       0.022  13.647  17.834  1.00  0.00     0.053 C 
HETATM   13  C21 UNL     1       1.361  14.433  17.996  1.00  0.00    -0.013 C 
HETATM   14  C22 UNL     1       1.936  14.407  19.219  1.00  0.00    -0.050 C 
HETATM   15  C23 UNL     1       0.996  14.086  20.365  1.00  0.00     0.043 C 
HETATM   16  C24 UNL     1       0.626  12.621  20.224  1.00  0.00     0.016 C 
HETATM   17  C25 UNL     1       1.781  11.721  20.756  1.00  0.00     0.039 C 
HETATM   18  C26 UNL     1       3.226  12.291  20.975  1.00  0.00     0.123 C 
HETATM   19  C27 UNL     1       3.470  12.907  22.384  1.00  0.00     0.039 C 
HETATM   20  C28 UNL     1       4.926  12.960  22.957  1.00  0.00     0.023 C 
HETATM   21  C30 UNL     1       5.441  14.406  23.220  1.00  0.00     0.101 C 
HETATM   22  C31 UNL     1       5.661  15.150  21.977  1.00  0.00    -0.101 C 
HETATM   23  C32 UNL     1       5.703  15.554  20.849  1.00  0.00    -0.066 C 
HETATM   24  C33 UNL     1       5.571  15.663  19.426  1.00  0.00     0.029 C 
HETATM   25  C34 UNL     1       6.602  16.264  18.694  1.00  0.00     0.057 C 
HETATM   26  C35 UNL     1       6.592  16.167  17.308  1.00  0.00     0.067 C 
HETATM   27  C36 UNL     1       5.601  15.444  16.658  1.00  0.00     0.037 C 
HETATM   28  C37 UNL     1       4.570  14.847  17.398  1.00  0.00     0.014 C 
HETATM   29  C38 UNL     1       4.485  15.007  18.790  1.00  0.00    -0.006 C 
HETATM   30  C39 UNL     1       3.382  14.391  19.648  1.00  0.00     0.185 C 
HETATM   31  O8  UNL     1       3.774  13.021  19.875  1.00  0.00    -0.371 OA
HETATM   32  C40 UNL     1       0.296  12.341  18.715  1.00  0.00     0.104 A 
HETATM   33  C41 UNL     1      -0.505  11.110  18.325  1.00  0.00     0.082 A 
HETATM   34  C42 UNL     1      -1.816  10.915  18.728  1.00  0.00     0.010 C 
HETATM   35  C43 UNL     1      -2.646  10.042  18.011  1.00  0.00     0.011 C 
HETATM   36  C44 UNL     1      -2.159   9.250  16.954  1.00  0.00    -0.003 C 
HETATM   37  C45 UNL     1      -0.774   9.272  16.733  1.00  0.00     0.011 C 
HETATM   38  C46 UNL     1       0.033  10.208  17.387  1.00  0.00     0.010 C 
HETATM   39 NA1  UNL     1      -0.236  11.212  17.392  1.00  0.00    -0.398 Na
ATOM     40  HA1 UNL     1      -0.246  10.912  16.417  1.00  0.00     0.155 HD
ENDROOT
BRANCH   1  41
HETATM   41  N3  UNL     1      -4.535   8.576  16.256  1.00  0.00    -0.331 N 
HETATM   42  C1  UNL     1      -5.500   8.452  15.437  1.00  0.00     0.146 C 
HETATM   43  N1  UNL     1      -5.536   8.285  14.099  1.00  0.00    -0.376 N 
HETATM   44  N2  UNL     1      -6.770   8.443  15.911  1.00  0.00    -0.274 NA
HETATM   45  H1  UNL     1      -4.654   8.332  13.605  1.00  0.00     0.158 HD
HETATM   46  H2  UNL     1      -6.292   8.773  13.633  1.00  0.00     0.158 HD
HETATM   47  H3  UNL     1      -7.275   7.640  15.554  1.00  0.00     0.127 HD
HETATM   48  H4  UNL     1      -6.743   8.377  16.927  1.00  0.00     0.127 HD
ATOM     49  H3  UNL     1      -4.768   8.660  17.246  1.00  0.00     0.165 HD
ENDBRANCH   1  41
BRANCH   1  50
HETATM   50  C3  UNL     1      -2.661   7.132  15.614  1.00  0.00     0.070 C 
BRANCH  50  51
HETATM   51  C4  UNL     1      -1.990   6.813  14.253  1.00  0.00     0.043 C 
BRANCH  51  52
HETATM   52  C5  UNL     1      -0.472   6.483  14.223  1.00  0.00     0.058 C 
HETATM   53  C6  UNL     1       0.408   7.653  13.737  1.00  0.00     0.038 C 
HETATM   54  C7  UNL     1       0.146   8.059  12.285  1.00  0.00     0.003 C 
HETATM   55  C8  UNL     1      -0.261   6.891  11.388  1.00  0.00     0.000 C 
HETATM   56  C9  UNL     1       0.285   5.571  11.905  1.00  0.00     0.003 C 
HETATM   57  C10 UNL     1      -0.182   5.249  13.327  1.00  0.00     0.038 C 
BRANCH  52  58
HETATM   58  O1  UNL     1      -0.064   6.102  15.541  1.00  0.00    -0.390 OA
HETATM   59  H9  UNL     1       0.019   6.935  16.051  1.00  0.00     0.210 HD
ENDBRANCH  52  58
ENDBRANCH  51  52
ENDBRANCH  50  51
ENDBRANCH   1  50
BRANCH  11  60
HETATM   60  S1  UNL     1      -2.604  14.361  18.968  1.00  0.00     0.106 S 
HETATM   61  O3  UNL     1      -2.018  14.390  20.312  1.00  0.00    -0.595 OA
HETATM   62  O4  UNL     1      -3.527  15.460  18.710  1.00  0.00    -0.595 OA
HETATM   63  O5  UNL     1      -3.112  13.043  18.601  1.00  0.00    -0.595 OA
ENDBRANCH  11  60
BRANCH  20  64
HETATM   64  C29 UNL     1       5.959  12.103  22.215  1.00  0.00     0.169 C 
BRANCH  64  65
HETATM   65  O6  UNL     1       7.152  11.988  22.988  1.00  0.00    -0.400 OA
HETATM   66  H42 UNL     1       6.959  11.391  23.732  1.00  0.00     0.209 HD
ENDBRANCH  64  65
ENDBRANCH  20  64
BRANCH  26  67
HETATM   67  O7  UNL     1       7.583  16.720  16.550  1.00  0.00    -0.361 OA
HETATM   68  H46 UNL     1       8.175  17.207  17.142  1.00  0.00     0.217 HD
ENDBRANCH  26  67
TORSDOF 9
ENDMDL
