MODEL 1
REMARK minimizedAffinity -7.02300024
REMARK CNNscore 0.577528834
REMARK CNNaffinity 5.93147135
REMARK  4 active torsions:
REMARK  status: ('A' for Active; 'I' for Inactive)
REMARK    1  A    between atoms: C4_4  and  C5_5 
REMARK    2  A    between atoms: C22_22  and  C23_23 
REMARK    3  A    between atoms: C23_23  and  O2_25 
REMARK    4  A    between atoms: C28_30  and  O3_31 
ROOT
HETATM    1  C5  UNL     1     -17.803  45.202 -22.863  1.00  0.00     0.032 C 
HETATM    2  C6  UNL     1     -16.681  45.642 -23.852  1.00  0.00     0.014 C 
HETATM    3  C7  UNL     1     -15.744  46.762 -23.360  1.00  0.00     0.007 C 
HETATM    4  C8  UNL     1     -14.677  47.134 -24.391  1.00  0.00     0.007 C 
HETATM    5  C9  UNL     1     -13.929  45.913 -24.954  1.00  0.00     0.007 C 
HETATM    6  C10 UNL     1     -12.719  46.278 -25.875  1.00  0.00    -0.018 C 
HETATM    7  C11 UNL     1     -13.104  47.127 -27.109  1.00  0.00     0.020 C 
HETATM    8  C12 UNL     1     -11.545  46.995 -25.235  1.00  0.00    -0.020 C 
HETATM    9  C13 UNL     1     -10.369  46.493 -25.657  1.00  0.00    -0.021 C 
HETATM   10  C14 UNL     1     -10.539  45.272 -26.542  1.00  0.00    -0.026 C 
HETATM   11  C15 UNL     1     -10.297  45.566 -28.023  1.00  0.00     0.019 C 
HETATM   12  C16 UNL     1      -9.584  44.151 -26.099  1.00  0.00     0.019 C 
HETATM   13  C17 UNL     1     -11.996  44.934 -26.163  1.00  0.00     0.009 C 
HETATM   14  C18 UNL     1     -12.841  43.986 -26.995  1.00  0.00     0.007 C 
HETATM   15  C19 UNL     1     -14.097  43.614 -26.178  1.00  0.00     0.011 C 
HETATM   16  C20 UNL     1     -14.913  44.823 -25.578  1.00  0.00    -0.021 C 
HETATM   17  C21 UNL     1     -15.733  45.398 -26.771  1.00  0.00     0.017 C 
HETATM   18  C22 UNL     1     -15.927  44.364 -24.409  1.00  0.00     0.057 C 
HETATM   19  C24 UNL     1     -17.002  43.309 -24.873  1.00  0.00     0.023 C 
HETATM   20  C25 UNL     1     -18.435  43.834 -24.968  1.00  0.00     0.022 C 
HETATM   21  C26 UNL     1     -18.945  44.487 -23.659  1.00  0.00     0.060 C 
HETATM   22  C27 UNL     1     -19.688  43.497 -22.763  1.00  0.00     0.081 C 
HETATM   23  C28 UNL     1     -21.092  43.532 -23.312  1.00  0.00     0.267 C 
HETATM   24  O4  UNL     1     -21.298  44.862 -23.752  1.00  0.00    -0.289 OA
HETATM   25  C29 UNL     1     -20.089  45.412 -24.061  1.00  0.00     0.270 C 
HETATM   26  O5  UNL     1     -19.966  46.489 -24.626  1.00  0.00    -0.264 OA
ENDROOT
BRANCH   1  27
HETATM   27  C4  UNL     1     -18.308  46.321 -21.969  1.00  0.00    -0.018 C 
HETATM   28  C2  UNL     1     -18.490  46.312 -20.633  1.00  0.00    -0.091 C 
HETATM   29  C1  UNL     1     -18.980  47.553 -19.928  1.00  0.00     0.042 C 
HETATM   30  C3  UNL     1     -18.236  45.152 -19.711  1.00  0.00     0.042 C 
ENDBRANCH   1  27
BRANCH  23  31
HETATM   31  O3  UNL     1     -22.047  43.173 -22.336  1.00  0.00    -0.371 OA
HETATM   32  H42 UNL     1     -21.936  43.795 -21.597  1.00  0.00     0.212 HD
ENDBRANCH  23  31
BRANCH  18  33
HETATM   33  C23 UNL     1     -15.133  43.597 -23.311  1.00  0.00     0.149 C 
HETATM   34  O1  UNL     1     -14.018  43.112 -23.438  1.00  0.00    -0.649 OA
BRANCH  33  35
HETATM   35  O2  UNL     1     -15.745  43.459 -22.128  1.00  0.00    -0.776 OA
HETATM   36  H34 UNL     1     -15.088  42.988 -21.572  1.00  0.00     0.167 HD
ENDBRANCH  33  35
ENDBRANCH  18  33
TORSDOF 4
ENDMDL
MODEL 2
REMARK minimizedAffinity -7.3600769
REMARK CNNscore 0.547738671
REMARK CNNaffinity 5.84121656
REMARK  4 active torsions:
REMARK  status: ('A' for Active; 'I' for Inactive)
REMARK    1  A    between atoms: C4_4  and  C5_5 
REMARK    2  A    between atoms: C22_22  and  C23_23 
REMARK    3  A    between atoms: C23_23  and  O2_25 
REMARK    4  A    between atoms: C28_30  and  O3_31 
ROOT
HETATM    1  C5  UNL     1     -18.782  45.225 -21.939  1.00  0.00     0.032 C 
HETATM    2  C6  UNL     1     -18.714  44.292 -23.186  1.00  0.00     0.014 C 
HETATM    3  C7  UNL     1     -19.968  43.443 -23.468  1.00  0.00     0.007 C 
HETATM    4  C8  UNL     1     -19.816  42.555 -24.704  1.00  0.00     0.007 C 
HETATM    5  C9  UNL     1     -19.304  43.321 -25.938  1.00  0.00     0.007 C 
HETATM    6  C10 UNL     1     -19.307  42.478 -27.254  1.00  0.00    -0.018 C 
HETATM    7  C11 UNL     1     -18.443  41.197 -27.181  1.00  0.00     0.020 C 
HETATM    8  C12 UNL     1     -20.652  42.033 -27.798  1.00  0.00    -0.020 C 
HETATM    9  C13 UNL     1     -20.722  42.189 -29.133  1.00  0.00    -0.021 C 
HETATM   10  C14 UNL     1     -19.501  42.885 -29.706  1.00  0.00    -0.026 C 
HETATM   11  C15 UNL     1     -18.554  41.932 -30.436  1.00  0.00     0.019 C 
HETATM   12  C16 UNL     1     -19.924  44.001 -30.675  1.00  0.00     0.019 C 
HETATM   13  C17 UNL     1     -18.957  43.480 -28.389  1.00  0.00     0.009 C 
HETATM   14  C18 UNL     1     -17.540  44.013 -28.277  1.00  0.00     0.007 C 
HETATM   15  C19 UNL     1     -17.430  44.819 -26.964  1.00  0.00     0.011 C 
HETATM   16  C20 UNL     1     -17.933  44.087 -25.661  1.00  0.00    -0.021 C 
HETATM   17  C21 UNL     1     -16.787  43.104 -25.274  1.00  0.00     0.017 C 
HETATM   18  C22 UNL     1     -18.190  45.109 -24.439  1.00  0.00     0.057 C 
HETATM   19  C24 UNL     1     -16.912  45.924 -24.007  1.00  0.00     0.023 C 
HETATM   20  C25 UNL     1     -16.314  45.536 -22.655  1.00  0.00     0.022 C 
HETATM   21  C26 UNL     1     -17.330  45.593 -21.487  1.00  0.00     0.060 C 
HETATM   22  C27 UNL     1     -17.316  46.940 -20.765  1.00  0.00     0.081 C 
HETATM   23  C28 UNL     1     -16.197  46.777 -19.767  1.00  0.00     0.267 C 
HETATM   24  O4  UNL     1     -16.223  45.415 -19.382  1.00  0.00    -0.289 OA
HETATM   25  C29 UNL     1     -16.775  44.685 -20.394  1.00  0.00     0.270 C 
HETATM   26  O5  UNL     1     -16.774  43.464 -20.418  1.00  0.00    -0.264 OA
ENDROOT
BRANCH   1  27
HETATM   27  C4  UNL     1     -19.639  44.679 -20.810  1.00  0.00    -0.018 C 
HETATM   28  C2  UNL     1     -19.801  43.398 -20.421  1.00  0.00    -0.091 C 
HETATM   29  C1  UNL     1     -20.686  43.070 -19.244  1.00  0.00     0.042 C 
HETATM   30  C3  UNL     1     -19.158  42.193 -21.050  1.00  0.00     0.042 C 
ENDBRANCH   1  27
BRANCH  23  31
HETATM   31  O3  UNL     1     -16.368  47.619 -18.646  1.00  0.00    -0.371 OA
HETATM   32  H42 UNL     1     -17.229  47.393 -18.257  1.00  0.00     0.212 HD
ENDBRANCH  23  31
BRANCH  18  33
HETATM   33  C23 UNL     1     -19.178  46.222 -24.897  1.00  0.00     0.149 C 
HETATM   34  O1  UNL     1     -20.309  46.044 -25.328  1.00  0.00    -0.649 OA
BRANCH  33  35
HETATM   35  O2  UNL     1     -18.732  47.481 -24.811  1.00  0.00    -0.776 OA
HETATM   36  H34 UNL     1     -19.492  48.026 -25.108  1.00  0.00     0.167 HD
ENDBRANCH  33  35
ENDBRANCH  18  33
TORSDOF 4
ENDMDL
MODEL 3
REMARK minimizedAffinity -7.03758049
REMARK CNNscore 0.381959617
REMARK CNNaffinity 6.18526268
REMARK  4 active torsions:
REMARK  status: ('A' for Active; 'I' for Inactive)
REMARK    1  A    between atoms: C4_4  and  C5_5 
REMARK    2  A    between atoms: C22_22  and  C23_23 
REMARK    3  A    between atoms: C23_23  and  O2_25 
REMARK    4  A    between atoms: C28_30  and  O3_31 
ROOT
HETATM    1  C5  UNL     1      -1.571  52.196  -9.888  1.00  0.00     0.032 C 
HETATM    2  C6  UNL     1      -0.144  52.821  -9.807  1.00  0.00     0.014 C 
HETATM    3  C7  UNL     1       0.080  54.107 -10.625  1.00  0.00     0.007 C 
HETATM    4  C8  UNL     1       1.504  54.650 -10.493  1.00  0.00     0.007 C 
HETATM    5  C9  UNL     1       1.974  54.764  -9.031  1.00  0.00     0.007 C 
HETATM    6  C10 UNL     1       3.354  55.478  -8.862  1.00  0.00    -0.018 C 
HETATM    7  C11 UNL     1       4.516  54.785  -9.611  1.00  0.00     0.020 C 
HETATM    8  C12 UNL     1       3.436  56.944  -9.246  1.00  0.00    -0.020 C 
HETATM    9  C13 UNL     1       4.135  57.654  -8.343  1.00  0.00    -0.021 C 
HETATM   10  C14 UNL     1       4.531  56.831  -7.130  1.00  0.00    -0.026 C 
HETATM   11  C15 UNL     1       6.010  56.441  -7.126  1.00  0.00     0.019 C 
HETATM   12  C16 UNL     1       4.219  57.599  -5.835  1.00  0.00     0.019 C 
HETATM   13  C17 UNL     1       3.539  55.666  -7.330  1.00  0.00     0.009 C 
HETATM   14  C18 UNL     1       3.696  54.346  -6.598  1.00  0.00     0.007 C 
HETATM   15  C19 UNL     1       2.387  53.543  -6.762  1.00  0.00     0.011 C 
HETATM   16  C20 UNL     1       1.855  53.385  -8.238  1.00  0.00    -0.021 C 
HETATM   17  C21 UNL     1       2.739  52.271  -8.877  1.00  0.00     0.017 C 
HETATM   18  C22 UNL     1       0.308  52.929  -8.292  1.00  0.00     0.057 C 
HETATM   19  C24 UNL     1       0.022  51.551  -7.583  1.00  0.00     0.023 C 
HETATM   20  C25 UNL     1      -0.316  50.392  -8.519  1.00  0.00     0.022 C 
HETATM   21  C26 UNL     1      -1.500  50.689  -9.473  1.00  0.00     0.060 C 
HETATM   22  C27 UNL     1      -2.840  50.223  -8.905  1.00  0.00     0.081 C 
HETATM   23  C28 UNL     1      -2.894  48.772  -9.311  1.00  0.00     0.267 C 
HETATM   24  O4  UNL     1      -2.238  48.701 -10.564  1.00  0.00    -0.289 OA
HETATM   25  C29 UNL     1      -1.349  49.731 -10.651  1.00  0.00     0.270 C 
HETATM   26  O5  UNL     1      -0.521  49.829 -11.544  1.00  0.00    -0.264 OA
ENDROOT
BRANCH   1  27
HETATM   27  C4  UNL     1      -2.263  52.417 -11.221  1.00  0.00    -0.018 C 
HETATM   28  C2  UNL     1      -3.387  53.117 -11.478  1.00  0.00    -0.091 C 
HETATM   29  C1  UNL     1      -3.897  53.237 -12.893  1.00  0.00     0.042 C 
HETATM   30  C3  UNL     1      -4.230  53.843 -10.467  1.00  0.00     0.042 C 
ENDBRANCH   1  27
BRANCH  23  31
HETATM   31  O3  UNL     1      -4.223  48.305  -9.412  1.00  0.00    -0.371 OA
HETATM   32  H42 UNL     1      -4.669  48.874 -10.062  1.00  0.00     0.212 HD
ENDBRANCH  23  31
BRANCH  18  33
HETATM   33  C23 UNL     1      -0.553  53.933  -7.469  1.00  0.00     0.149 C 
HETATM   34  O1  UNL     1      -1.354  53.641  -6.592  1.00  0.00    -0.649 OA
BRANCH  33  35
HETATM   35  O2  UNL     1      -0.395  55.229  -7.767  1.00  0.00    -0.776 OA
HETATM   36  H34 UNL     1      -0.984  55.694  -7.134  1.00  0.00     0.167 HD
ENDBRANCH  33  35
ENDBRANCH  18  33
TORSDOF 4
ENDMDL
MODEL 4
REMARK minimizedAffinity -7.04838324
REMARK CNNscore 0.372533143
REMARK CNNaffinity 6.07182074
REMARK  4 active torsions:
REMARK  status: ('A' for Active; 'I' for Inactive)
REMARK    1  A    between atoms: C4_4  and  C5_5 
REMARK    2  A    between atoms: C22_22  and  C23_23 
REMARK    3  A    between atoms: C23_23  and  O2_25 
REMARK    4  A    between atoms: C28_30  and  O3_31 
ROOT
HETATM    1  C5  UNL     1      -0.129  51.949 -11.463  1.00  0.00     0.032 C 
HETATM    2  C6  UNL     1       0.773  53.117 -10.960  1.00  0.00     0.014 C 
HETATM    3  C7  UNL     1       0.039  54.324 -10.346  1.00  0.00     0.007 C 
HETATM    4  C8  UNL     1       0.996  55.424  -9.883  1.00  0.00     0.007 C 
HETATM    5  C9  UNL     1       2.146  54.895  -9.006  1.00  0.00     0.007 C 
HETATM    6  C10 UNL     1       3.035  56.017  -8.378  1.00  0.00    -0.018 C 
HETATM    7  C11 UNL     1       3.707  56.942  -9.419  1.00  0.00     0.020 C 
HETATM    8  C12 UNL     1       2.381  56.944  -7.369  1.00  0.00    -0.020 C 
HETATM    9  C13 UNL     1       3.183  57.167  -6.311  1.00  0.00    -0.021 C 
HETATM   10  C14 UNL     1       4.449  56.332  -6.350  1.00  0.00    -0.026 C 
HETATM   11  C15 UNL     1       5.689  57.139  -6.739  1.00  0.00     0.019 C 
HETATM   12  C16 UNL     1       4.699  55.670  -4.985  1.00  0.00     0.019 C 
HETATM   13  C17 UNL     1       3.986  55.289  -7.389  1.00  0.00     0.009 C 
HETATM   14  C18 UNL     1       4.967  54.372  -8.096  1.00  0.00     0.007 C 
HETATM   15  C19 UNL     1       4.165  53.255  -8.799  1.00  0.00     0.011 C 
HETATM   16  C20 UNL     1       2.976  53.732  -9.717  1.00  0.00    -0.021 C 
HETATM   17  C21 UNL     1       3.646  54.222 -11.036  1.00  0.00     0.017 C 
HETATM   18  C22 UNL     1       1.942  52.541 -10.058  1.00  0.00     0.057 C 
HETATM   19  C24 UNL     1       2.598  51.319 -10.807  1.00  0.00     0.023 C 
HETATM   20  C25 UNL     1       2.200  51.160 -12.274  1.00  0.00     0.022 C 
HETATM   21  C26 UNL     1       0.668  51.086 -12.497  1.00  0.00     0.060 C 
HETATM   22  C27 UNL     1       0.149  49.650 -12.514  1.00  0.00     0.081 C 
HETATM   23  C28 UNL     1       0.365  49.229 -13.947  1.00  0.00     0.267 C 
HETATM   24  O4  UNL     1       0.162  50.396 -14.723  1.00  0.00    -0.289 OA
HETATM   25  C29 UNL     1       0.429  51.487 -13.949  1.00  0.00     0.270 C 
HETATM   26  O5  UNL     1       0.504  52.622 -14.394  1.00  0.00    -0.264 OA
ENDROOT
BRANCH   1  27
HETATM   27  C4  UNL     1      -1.485  52.398 -11.980  1.00  0.00    -0.018 C 
HETATM   28  C2  UNL     1      -2.667  52.414 -11.332  1.00  0.00    -0.091 C 
HETATM   29  C1  UNL     1      -3.903  52.930 -12.026  1.00  0.00     0.042 C 
HETATM   30  C3  UNL     1      -2.910  51.964  -9.918  1.00  0.00     0.042 C 
ENDBRANCH   1  27
BRANCH  23  31
HETATM   31  O3  UNL     1      -0.529  48.207 -14.333  1.00  0.00    -0.371 OA
HETATM   32  H42 UNL     1      -1.426  48.554 -14.195  1.00  0.00     0.212 HD
ENDBRANCH  23  31
BRANCH  18  33
HETATM   33  C23 UNL     1       1.431  51.907  -8.731  1.00  0.00     0.149 C 
HETATM   34  O1  UNL     1       1.848  50.876  -8.220  1.00  0.00    -0.649 OA
BRANCH  33  35
HETATM   35  O2  UNL     1       0.441  52.558  -8.107  1.00  0.00    -0.776 OA
HETATM   36  H34 UNL     1       0.284  52.033  -7.294  1.00  0.00     0.167 HD
ENDBRANCH  33  35
ENDBRANCH  18  33
TORSDOF 4
ENDMDL
MODEL 5
REMARK minimizedAffinity -7.08430243
REMARK CNNscore 0.36374411
REMARK CNNaffinity 5.66455412
REMARK  4 active torsions:
REMARK  status: ('A' for Active; 'I' for Inactive)
REMARK    1  A    between atoms: C4_4  and  C5_5 
REMARK    2  A    between atoms: C22_22  and  C23_23 
REMARK    3  A    between atoms: C23_23  and  O2_25 
REMARK    4  A    between atoms: C28_30  and  O3_31 
ROOT
HETATM    1  C5  UNL     1     -17.252  45.121 -22.537  1.00  0.00     0.032 C 
HETATM    2  C6  UNL     1     -17.632  44.099 -23.651  1.00  0.00     0.014 C 
HETATM    3  C7  UNL     1     -18.640  43.004 -23.252  1.00  0.00     0.007 C 
HETATM    4  C8  UNL     1     -18.954  42.044 -24.401  1.00  0.00     0.007 C 
HETATM    5  C9  UNL     1     -19.320  42.766 -25.710  1.00  0.00     0.007 C 
HETATM    6  C10 UNL     1     -19.813  41.812 -26.845  1.00  0.00    -0.018 C 
HETATM    7  C11 UNL     1     -18.783  40.731 -27.249  1.00  0.00     0.020 C 
HETATM    8  C12 UNL     1     -21.117  41.069 -26.618  1.00  0.00    -0.020 C 
HETATM    9  C13 UNL     1     -21.889  41.075 -27.720  1.00  0.00    -0.021 C 
HETATM   10  C14 UNL     1     -21.312  41.930 -28.833  1.00  0.00    -0.026 C 
HETATM   11  C15 UNL     1     -20.692  41.106 -29.963  1.00  0.00     0.019 C 
HETATM   12  C16 UNL     1     -22.397  42.843 -29.427  1.00  0.00     0.019 C 
HETATM   13  C17 UNL     1     -20.314  42.744 -27.983  1.00  0.00     0.009 C 
HETATM   14  C18 UNL     1     -19.190  43.545 -28.615  1.00  0.00     0.007 C 
HETATM   15  C19 UNL     1     -18.601  44.483 -27.539  1.00  0.00     0.011 C 
HETATM   16  C20 UNL     1     -18.199  43.802 -26.174  1.00  0.00    -0.021 C 
HETATM   17  C21 UNL     1     -16.838  43.097 -26.452  1.00  0.00     0.017 C 
HETATM   18  C22 UNL     1     -18.008  44.873 -24.982  1.00  0.00     0.057 C 
HETATM   19  C24 UNL     1     -16.897  45.954 -25.265  1.00  0.00     0.023 C 
HETATM   20  C25 UNL     1     -15.627  45.822 -24.426  1.00  0.00     0.022 C 
HETATM   21  C26 UNL     1     -15.891  45.801 -22.900  1.00  0.00     0.060 C 
HETATM   22  C27 UNL     1     -15.798  47.191 -22.272  1.00  0.00     0.081 C 
HETATM   23  C28 UNL     1     -14.322  47.343 -22.001  1.00  0.00     0.267 C 
HETATM   24  O4  UNL     1     -13.857  46.046 -21.678  1.00  0.00    -0.289 OA
HETATM   25  C29 UNL     1     -14.677  45.128 -22.266  1.00  0.00     0.270 C 
HETATM   26  O5  UNL     1     -14.428  43.933 -22.304  1.00  0.00    -0.264 OA
ENDROOT
BRANCH   1  27
HETATM   27  C4  UNL     1     -17.274  44.538 -21.135  1.00  0.00    -0.018 C 
HETATM   28  C2  UNL     1     -17.936  44.986 -20.049  1.00  0.00    -0.091 C 
HETATM   29  C1  UNL     1     -17.843  44.235 -18.743  1.00  0.00     0.042 C 
HETATM   30  C3  UNL     1     -18.814  46.205 -19.985  1.00  0.00     0.042 C 
ENDBRANCH   1  27
BRANCH  23  31
HETATM   31  O3  UNL     1     -14.073  48.244 -20.943  1.00  0.00    -0.371 OA
HETATM   32  H42 UNL     1     -14.544  47.899 -20.167  1.00  0.00     0.212 HD
ENDBRANCH  23  31
BRANCH  18  33
HETATM   33  C23 UNL     1     -19.304  45.727 -24.845  1.00  0.00     0.149 C 
HETATM   34  O1  UNL     1     -20.401  45.315 -24.497  1.00  0.00    -0.649 OA
BRANCH  33  35
HETATM   35  O2  UNL     1     -19.189  47.027 -25.146  1.00  0.00    -0.776 OA
HETATM   36  H34 UNL     1     -20.083  47.393 -24.971  1.00  0.00     0.167 HD
ENDBRANCH  33  35
ENDBRANCH  18  33
TORSDOF 4
ENDMDL
MODEL 6
REMARK minimizedAffinity -7.15046072
REMARK CNNscore 0.274393231
REMARK CNNaffinity 5.87877274
REMARK  4 active torsions:
REMARK  status: ('A' for Active; 'I' for Inactive)
REMARK    1  A    between atoms: C4_4  and  C5_5 
REMARK    2  A    between atoms: C22_22  and  C23_23 
REMARK    3  A    between atoms: C23_23  and  O2_25 
REMARK    4  A    between atoms: C28_30  and  O3_31 
ROOT
HETATM    1  C5  UNL     1       7.190  65.223 -14.487  1.00  0.00     0.032 C 
HETATM    2  C6  UNL     1       8.551  65.460 -13.766  1.00  0.00     0.014 C 
HETATM    3  C7  UNL     1       9.153  64.244 -13.036  1.00  0.00     0.007 C 
HETATM    4  C8  UNL     1      10.483  64.563 -12.353  1.00  0.00     0.007 C 
HETATM    5  C9  UNL     1      11.483  65.277 -13.282  1.00  0.00     0.007 C 
HETATM    6  C10 UNL     1      12.907  65.456 -12.663  1.00  0.00    -0.018 C 
HETATM    7  C11 UNL     1      12.923  66.267 -11.347  1.00  0.00     0.020 C 
HETATM    8  C12 UNL     1      13.710  64.200 -12.379  1.00  0.00    -0.020 C 
HETATM    9  C13 UNL     1      14.996  64.340 -12.751  1.00  0.00    -0.021 C 
HETATM   10  C14 UNL     1      15.258  65.650 -13.470  1.00  0.00    -0.026 C 
HETATM   11  C15 UNL     1      15.990  66.675 -12.602  1.00  0.00     0.019 C 
HETATM   12  C16 UNL     1      16.080  65.408 -14.747  1.00  0.00     0.019 C 
HETATM   13  C17 UNL     1      13.795  66.000 -13.817  1.00  0.00     0.009 C 
HETATM   14  C18 UNL     1      13.388  67.395 -14.255  1.00  0.00     0.007 C 
HETATM   15  C19 UNL     1      11.957  67.322 -14.832  1.00  0.00     0.011 C 
HETATM   16  C20 UNL     1      10.883  66.607 -13.925  1.00  0.00    -0.021 C 
HETATM   17  C21 UNL     1      10.501  67.655 -12.837  1.00  0.00     0.017 C 
HETATM   18  C22 UNL     1       9.559  66.190 -14.748  1.00  0.00     0.057 C 
HETATM   19  C24 UNL     1       8.813  67.406 -15.419  1.00  0.00     0.023 C 
HETATM   20  C25 UNL     1       7.472  67.779 -14.789  1.00  0.00     0.022 C 
HETATM   21  C26 UNL     1       6.473  66.597 -14.707  1.00  0.00     0.060 C 
HETATM   22  C27 UNL     1       5.543  66.533 -15.917  1.00  0.00     0.081 C 
HETATM   23  C28 UNL     1       4.432  67.481 -15.541  1.00  0.00     0.267 C 
HETATM   24  O4  UNL     1       4.288  67.363 -14.137  1.00  0.00    -0.289 OA
HETATM   25  C29 UNL     1       5.478  66.956 -13.608  1.00  0.00     0.270 C 
HETATM   26  O5  UNL     1       5.705  66.931 -12.408  1.00  0.00    -0.264 OA
ENDROOT
BRANCH   1  27
HETATM   27  C4  UNL     1       6.307  64.191 -13.810  1.00  0.00    -0.018 C 
HETATM   28  C2  UNL     1       5.620  63.174 -14.370  1.00  0.00    -0.091 C 
HETATM   29  C1  UNL     1       4.816  62.236 -13.504  1.00  0.00     0.042 C 
HETATM   30  C3  UNL     1       5.569  62.840 -15.835  1.00  0.00     0.042 C 
ENDBRANCH   1  27
BRANCH  23  31
HETATM   31  O3  UNL     1       3.224  67.160 -16.198  1.00  0.00    -0.371 OA
HETATM   32  H42 UNL     1       3.010  66.244 -15.954  1.00  0.00     0.212 HD
ENDBRANCH  23  31
BRANCH  18  33
HETATM   33  C23 UNL     1       9.966  65.311 -15.967  1.00  0.00     0.149 C 
HETATM   34  O1  UNL     1      10.293  64.133 -15.925  1.00  0.00    -0.649 OA
BRANCH  33  35
HETATM   35  O2  UNL     1       9.958  65.916 -17.161  1.00  0.00    -0.776 OA
HETATM   36  H34 UNL     1      10.206  65.206 -17.792  1.00  0.00     0.167 HD
ENDBRANCH  33  35
ENDBRANCH  18  33
TORSDOF 4
ENDMDL
MODEL 7
REMARK minimizedAffinity -7.31018448
REMARK CNNscore 0.234952182
REMARK CNNaffinity 5.81855774
REMARK  4 active torsions:
REMARK  status: ('A' for Active; 'I' for Inactive)
REMARK    1  A    between atoms: C4_4  and  C5_5 
REMARK    2  A    between atoms: C22_22  and  C23_23 
REMARK    3  A    between atoms: C23_23  and  O2_25 
REMARK    4  A    between atoms: C28_30  and  O3_31 
ROOT
HETATM    1  C5  UNL     1       2.493  51.534 -12.813  1.00  0.00     0.032 C 
HETATM    2  C6  UNL     1       2.858  52.275 -11.490  1.00  0.00     0.014 C 
HETATM    3  C7  UNL     1       3.522  53.657 -11.648  1.00  0.00     0.007 C 
HETATM    4  C8  UNL     1       3.849  54.311 -10.305  1.00  0.00     0.007 C 
HETATM    5  C9  UNL     1       2.660  54.311  -9.327  1.00  0.00     0.007 C 
HETATM    6  C10 UNL     1       2.915  55.127  -8.018  1.00  0.00    -0.018 C 
HETATM    7  C11 UNL     1       4.123  54.628  -7.192  1.00  0.00     0.020 C 
HETATM    8  C12 UNL     1       3.103  56.627  -8.153  1.00  0.00    -0.020 C 
HETATM    9  C13 UNL     1       2.433  57.298  -7.199  1.00  0.00    -0.021 C 
HETATM   10  C14 UNL     1       1.571  56.390  -6.341  1.00  0.00    -0.026 C 
HETATM   11  C15 UNL     1       2.161  56.140  -4.952  1.00  0.00     0.019 C 
HETATM   12  C16 UNL     1       0.161  56.983  -6.179  1.00  0.00     0.019 C 
HETATM   13  C17 UNL     1       1.547  55.167  -7.281  1.00  0.00     0.009 C 
HETATM   14  C18 UNL     1       1.107  53.796  -6.800  1.00  0.00     0.007 C 
HETATM   15  C19 UNL     1       0.886  52.898  -8.038  1.00  0.00     0.011 C 
HETATM   16  C20 UNL     1       2.071  52.850  -9.076  1.00  0.00    -0.021 C 
HETATM   17  C21 UNL     1       3.131  51.897  -8.447  1.00  0.00     0.017 C 
HETATM   18  C22 UNL     1       1.614  52.262 -10.508  1.00  0.00     0.057 C 
HETATM   19  C24 UNL     1       1.040  50.796 -10.444  1.00  0.00     0.023 C 
HETATM   20  C25 UNL     1       1.933  49.717 -11.056  1.00  0.00     0.022 C 
HETATM   21  C26 UNL     1       2.338  50.004 -12.523  1.00  0.00     0.060 C 
HETATM   22  C27 UNL     1       1.386  49.359 -13.529  1.00  0.00     0.081 C 
HETATM   23  C28 UNL     1       1.934  47.961 -13.666  1.00  0.00     0.267 C 
HETATM   24  O4  UNL     1       3.338  48.085 -13.525  1.00  0.00    -0.289 OA
HETATM   25  C29 UNL     1       3.606  49.196 -12.782  1.00  0.00     0.270 C 
HETATM   26  O5  UNL     1       4.719  49.465 -12.355  1.00  0.00    -0.264 OA
ENDROOT
BRANCH   1  27
HETATM   27  C4  UNL     1       3.437  51.832 -13.964  1.00  0.00    -0.018 C 
HETATM   28  C2  UNL     1       3.134  52.125 -15.245  1.00  0.00    -0.091 C 
HETATM   29  C1  UNL     1       4.235  52.418 -16.235  1.00  0.00     0.042 C 
HETATM   30  C3  UNL     1       1.753  52.210 -15.832  1.00  0.00     0.042 C 
ENDBRANCH   1  27
BRANCH  23  31
HETATM   31  O3  UNL     1       1.603  47.387 -14.913  1.00  0.00    -0.371 OA
HETATM   32  H42 UNL     1       1.961  47.979 -15.595  1.00  0.00     0.212 HD
ENDBRANCH  23  31
BRANCH  18  33
HETATM   33  C23 UNL     1       0.407  53.089 -11.043  1.00  0.00     0.149 C 
HETATM   34  O1  UNL     1      -0.773  52.780 -10.950  1.00  0.00    -0.649 OA
BRANCH  33  35
HETATM   35  O2  UNL     1       0.706  54.238 -11.662  1.00  0.00    -0.776 OA
HETATM   36  H34 UNL     1      -0.168  54.621 -11.893  1.00  0.00     0.167 HD
ENDBRANCH  33  35
ENDBRANCH  18  33
TORSDOF 4
ENDMDL
MODEL 8
REMARK minimizedAffinity -7.83101511
REMARK CNNscore 0.194569543
REMARK CNNaffinity 5.44200277
REMARK  4 active torsions:
REMARK  status: ('A' for Active; 'I' for Inactive)
REMARK    1  A    between atoms: C4_4  and  C5_5 
REMARK    2  A    between atoms: C22_22  and  C23_23 
REMARK    3  A    between atoms: C23_23  and  O2_25 
REMARK    4  A    between atoms: C28_30  and  O3_31 
ROOT
HETATM    1  C5  UNL     1      -9.065  47.155 -27.388  1.00  0.00     0.032 C 
HETATM    2  C6  UNL     1     -10.220  46.121 -27.220  1.00  0.00     0.014 C 
HETATM    3  C7  UNL     1     -10.533  45.683 -25.776  1.00  0.00     0.007 C 
HETATM    4  C8  UNL     1     -11.675  44.668 -25.702  1.00  0.00     0.007 C 
HETATM    5  C9  UNL     1     -12.921  45.100 -26.495  1.00  0.00     0.007 C 
HETATM    6  C10 UNL     1     -14.159  44.167 -26.292  1.00  0.00    -0.018 C 
HETATM    7  C11 UNL     1     -13.908  42.695 -26.696  1.00  0.00     0.020 C 
HETATM    8  C12 UNL     1     -14.774  44.111 -24.905  1.00  0.00    -0.020 C 
HETATM    9  C13 UNL     1     -16.118  44.140 -24.959  1.00  0.00    -0.021 C 
HETATM   10  C14 UNL     1     -16.643  44.354 -26.367  1.00  0.00    -0.026 C 
HETATM   11  C15 UNL     1     -17.211  43.081 -26.996  1.00  0.00     0.019 C 
HETATM   12  C16 UNL     1     -17.734  45.438 -26.374  1.00  0.00     0.019 C 
HETATM   13  C17 UNL     1     -15.340  44.883 -27.002  1.00  0.00     0.009 C 
HETATM   14  C18 UNL     1     -15.155  44.955 -28.507  1.00  0.00     0.007 C 
HETATM   15  C19 UNL     1     -13.909  45.819 -28.801  1.00  0.00     0.011 C 
HETATM   16  C20 UNL     1     -12.596  45.423 -28.023  1.00  0.00    -0.021 C 
HETATM   17  C21 UNL     1     -12.035  44.177 -28.772  1.00  0.00     0.017 C 
HETATM   18  C22 UNL     1     -11.489  46.597 -28.043  1.00  0.00     0.057 C 
HETATM   19  C24 UNL     1     -11.022  47.011 -29.490  1.00  0.00     0.023 C 
HETATM   20  C25 UNL     1      -9.597  46.600 -29.860  1.00  0.00     0.022 C 
HETATM   21  C26 UNL     1      -8.526  47.095 -28.856  1.00  0.00     0.060 C 
HETATM   22  C27 UNL     1      -7.921  48.438 -29.263  1.00  0.00     0.081 C 
HETATM   23  C28 UNL     1      -6.823  48.039 -30.217  1.00  0.00     0.267 C 
HETATM   24  O4  UNL     1      -6.329  46.802 -29.736  1.00  0.00    -0.289 OA
HETATM   25  C29 UNL     1      -7.319  46.179 -29.034  1.00  0.00     0.270 C 
HETATM   26  O5  UNL     1      -7.242  45.024 -28.645  1.00  0.00    -0.264 OA
ENDROOT
BRANCH   1  27
HETATM   27  C4  UNL     1      -7.970  47.027 -26.345  1.00  0.00    -0.018 C 
HETATM   28  C2  UNL     1      -7.774  47.770 -25.237  1.00  0.00    -0.091 C 
HETATM   29  C1  UNL     1      -6.627  47.456 -24.308  1.00  0.00     0.042 C 
HETATM   30  C3  UNL     1      -8.617  48.931 -24.787  1.00  0.00     0.042 C 
ENDBRANCH   1  27
BRANCH  23  31
HETATM   31  O3  UNL     1      -5.794  49.005 -30.266  1.00  0.00    -0.371 OA
HETATM   32  H42 UNL     1      -5.461  49.102 -29.359  1.00  0.00     0.212 HD
ENDBRANCH  23  31
BRANCH  18  33
HETATM   33  C23 UNL     1     -12.119  47.908 -27.487  1.00  0.00     0.149 C 
HETATM   34  O1  UNL     1     -12.293  48.177 -26.307  1.00  0.00    -0.649 OA
BRANCH  33  35
HETATM   35  O2  UNL     1     -12.505  48.811 -28.398  1.00  0.00    -0.776 OA
HETATM   36  H34 UNL     1     -12.839  49.563 -27.864  1.00  0.00     0.167 HD
ENDBRANCH  33  35
ENDBRANCH  18  33
TORSDOF 4
ENDMDL
MODEL 9
REMARK minimizedAffinity -7.47240114
REMARK CNNscore 0.190183327
REMARK CNNaffinity 4.57795143
REMARK  4 active torsions:
REMARK  status: ('A' for Active; 'I' for Inactive)
REMARK    1  A    between atoms: C4_4  and  C5_5 
REMARK    2  A    between atoms: C22_22  and  C23_23 
REMARK    3  A    between atoms: C23_23  and  O2_25 
REMARK    4  A    between atoms: C28_30  and  O3_31 
ROOT
HETATM    1  C5  UNL     1     -17.622  45.973 -21.937  1.00  0.00     0.032 C 
HETATM    2  C6  UNL     1     -16.303  45.222 -22.296  1.00  0.00     0.014 C 
HETATM    3  C7  UNL     1     -16.094  44.892 -23.786  1.00  0.00     0.007 C 
HETATM    4  C8  UNL     1     -14.781  44.155 -24.050  1.00  0.00     0.007 C 
HETATM    5  C9  UNL     1     -13.564  44.835 -23.396  1.00  0.00     0.007 C 
HETATM    6  C10 UNL     1     -12.192  44.201 -23.795  1.00  0.00    -0.018 C 
HETATM    7  C11 UNL     1     -12.064  42.702 -23.434  1.00  0.00     0.020 C 
HETATM    8  C12 UNL     1     -11.766  44.309 -25.248  1.00  0.00    -0.020 C 
HETATM    9  C13 UNL     1     -10.465  44.632 -25.360  1.00  0.00    -0.021 C 
HETATM   10  C14 UNL     1      -9.819  44.929 -24.019  1.00  0.00    -0.026 C 
HETATM   11  C15 UNL     1      -8.912  43.800 -23.526  1.00  0.00     0.019 C 
HETATM   12  C16 UNL     1      -8.996  46.226 -24.095  1.00  0.00     0.019 C 
HETATM   13  C17 UNL     1     -11.110  45.146 -23.203  1.00  0.00     0.009 C 
HETATM   14  C18 UNL     1     -11.107  45.145 -21.685  1.00  0.00     0.007 C 
HETATM   15  C19 UNL     1     -12.461  45.708 -21.199  1.00  0.00     0.011 C 
HETATM   16  C20 UNL     1     -13.748  45.048 -21.827  1.00  0.00    -0.021 C 
HETATM   17  C21 UNL     1     -13.924  43.695 -21.074  1.00  0.00     0.017 C 
HETATM   18  C22 UNL     1     -15.070  45.949 -21.614  1.00  0.00     0.057 C 
HETATM   19  C24 UNL     1     -15.422  46.222 -20.102  1.00  0.00     0.023 C 
HETATM   20  C25 UNL     1     -16.663  45.500 -19.579  1.00  0.00     0.022 C 
HETATM   21  C26 UNL     1     -17.938  45.768 -20.418  1.00  0.00     0.060 C 
HETATM   22  C27 UNL     1     -18.760  46.936 -19.876  1.00  0.00     0.081 C 
HETATM   23  C28 UNL     1     -19.612  46.287 -18.814  1.00  0.00     0.267 C 
HETATM   24  O4  UNL     1     -19.885  44.981 -19.289  1.00  0.00    -0.289 OA
HETATM   25  C29 UNL     1     -18.885  44.605 -20.137  1.00  0.00     0.270 C 
HETATM   26  O5  UNL     1     -18.762  43.469 -20.567  1.00  0.00    -0.264 OA
ENDROOT
BRANCH   1  27
HETATM   27  C4  UNL     1     -18.791  45.628 -22.842  1.00  0.00    -0.018 C 
HETATM   28  C2  UNL     1     -19.179  46.235 -23.982  1.00  0.00    -0.091 C 
HETATM   29  C1  UNL     1     -20.365  45.710 -24.753  1.00  0.00     0.042 C 
HETATM   30  C3  UNL     1     -18.524  47.430 -24.617  1.00  0.00     0.042 C 
ENDBRANCH   1  27
BRANCH  23  31
HETATM   31  O3  UNL     1     -20.809  47.001 -18.592  1.00  0.00    -0.371 OA
HETATM   32  H42 UNL     1     -21.271  47.040 -19.446  1.00  0.00     0.212 HD
ENDBRANCH  23  31
BRANCH  18  33
HETATM   33  C23 UNL     1     -14.816  47.378 -22.180  1.00  0.00     0.149 C 
HETATM   34  O1  UNL     1     -14.950  47.722 -23.346  1.00  0.00    -0.649 OA
BRANCH  33  35
HETATM   35  O2  UNL     1     -14.409  48.299 -21.298  1.00  0.00    -0.776 OA
HETATM   36  H34 UNL     1     -14.336  49.122 -21.827  1.00  0.00     0.167 HD
ENDBRANCH  33  35
ENDBRANCH  18  33
TORSDOF 4
ENDMDL
