MODEL 1
REMARK minimizedAffinity -7.42226601
REMARK CNNscore 0.706056356
REMARK CNNaffinity 6.16522932
REMARK  8 active torsions:
REMARK  status: ('A' for Active; 'I' for Inactive)
REMARK    1  A    between atoms: C2_2  and  C3_3 
REMARK    2  A    between atoms: C2_2  and  C9_12 
REMARK    3  A    between atoms: C3_3  and  C4_4 
REMARK    4  A    between atoms: C4_4  and  C5_5 
REMARK    5  A    between atoms: C6_6  and  C7_7 
REMARK    6  A    between atoms: C6_6  and  C8_9 
REMARK    7  A    between atoms: C7_7  and  O1_8 
REMARK    8  A    between atoms: C8_9  and  O3_11 
ROOT
HETATM    1  C9  UNL     1     -11.569  46.850 -29.251  1.00  0.00    -0.002 C 
HETATM    2  C10 UNL     1     -11.648  45.603 -30.135  1.00  0.00     0.006 C 
HETATM    3  C11 UNL     1     -13.047  45.084 -29.825  1.00  0.00     0.006 C 
HETATM    4  C12 UNL     1     -13.188  45.242 -28.304  1.00  0.00    -0.001 C 
HETATM    5  C13 UNL     1     -14.622  45.563 -27.837  1.00  0.00    -0.000 C 
HETATM    6  C14 UNL     1     -15.635  44.492 -28.231  1.00  0.00     0.006 C 
HETATM    7  C15 UNL     1     -16.993  44.796 -27.602  1.00  0.00     0.007 C 
HETATM    8  C16 UNL     1     -16.957  44.600 -26.072  1.00  0.00     0.010 C 
HETATM    9  C17 UNL     1     -18.350  44.828 -25.382  1.00  0.00     0.018 C 
HETATM   10  C18 UNL     1     -18.469  43.968 -24.104  1.00  0.00     0.023 C 
HETATM   11  C19 UNL     1     -19.531  44.403 -26.289  1.00  0.00     0.023 C 
HETATM   12  C20 UNL     1     -18.566  46.300 -24.995  1.00  0.00     0.135 C 
HETATM   13  O4  UNL     1     -19.692  46.799 -24.953  1.00  0.00    -0.297 OA
HETATM   14  C21 UNL     1     -17.371  47.153 -24.654  1.00  0.00     0.080 C 
HETATM   15  C22 UNL     1     -16.173  46.305 -24.288  1.00  0.00     0.018 C 
HETATM   16  C23 UNL     1     -15.793  45.419 -25.454  1.00  0.00    -0.026 A 
HETATM   17  C24 UNL     1     -14.468  44.693 -25.361  1.00  0.00     0.021 A 
HETATM   18  C25 UNL     1     -14.589  45.845 -26.338  1.00  0.00    -0.028 A 
HETATM   19  C26 UNL     1     -13.762  47.085 -26.001  1.00  0.00     0.011 C 
HETATM   20  C27 UNL     1     -12.837  47.522 -27.143  1.00  0.00     0.011 C 
HETATM   21  C28 UNL     1     -12.155  46.349 -27.886  1.00  0.00    -0.036 C 
HETATM   22  C29 UNL     1     -11.096  45.707 -26.964  1.00  0.00     0.016 C 
ENDROOT
BRANCH   1  23
HETATM   23  C2  UNL     1     -10.210  47.603 -29.194  1.00  0.00    -0.014 C 
HETATM   24  C1  UNL     1      -9.054  46.808 -28.584  1.00  0.00     0.010 C 
BRANCH  23  25
HETATM   25  C3  UNL     1      -9.832  48.216 -30.570  1.00  0.00     0.008 C 
BRANCH  25  26
HETATM   26  C4  UNL     1      -8.472  48.920 -30.691  1.00  0.00     0.028 C 
BRANCH  26  27
HETATM   27  C5  UNL     1      -7.606  48.356 -31.785  1.00  0.00    -0.011 C 
HETATM   28  C6  UNL     1      -6.276  48.133 -31.779  1.00  0.00     0.035 C 
BRANCH  28  29
HETATM   29  C7  UNL     1      -5.556  47.559 -32.967  1.00  0.00     0.209 C 
BRANCH  29  30
HETATM   30  O1  UNL     1      -6.485  47.207 -33.986  1.00  0.00    -0.396 OA
HETATM   31  H12 UNL     1      -7.015  48.012 -34.153  1.00  0.00     0.209 HD
ENDBRANCH  29  30
ENDBRANCH  28  29
BRANCH  28  32
HETATM   32  C8  UNL     1      -5.446  48.382 -30.582  1.00  0.00     0.173 C 
HETATM   33  O2  UNL     1      -5.373  47.703 -29.575  1.00  0.00    -0.646 OA
BRANCH  32  34
HETATM   34  O3  UNL     1      -4.725  49.513 -30.717  1.00  0.00    -0.773 OA
HETATM   35  H13 UNL     1      -4.243  49.574 -29.864  1.00  0.00     0.167 HD
ENDBRANCH  32  34
ENDBRANCH  28  32
ENDBRANCH  26  27
ENDBRANCH  25  26
ENDBRANCH  23  25
ENDBRANCH   1  23
TORSDOF 8
ENDMDL
MODEL 2
REMARK minimizedAffinity -7.55919123
REMARK CNNscore 0.617681384
REMARK CNNaffinity 6.59659624
REMARK  8 active torsions:
REMARK  status: ('A' for Active; 'I' for Inactive)
REMARK    1  A    between atoms: C2_2  and  C3_3 
REMARK    2  A    between atoms: C2_2  and  C9_12 
REMARK    3  A    between atoms: C3_3  and  C4_4 
REMARK    4  A    between atoms: C4_4  and  C5_5 
REMARK    5  A    between atoms: C6_6  and  C7_7 
REMARK    6  A    between atoms: C6_6  and  C8_9 
REMARK    7  A    between atoms: C7_7  and  O1_8 
REMARK    8  A    between atoms: C8_9  and  O3_11 
ROOT
HETATM    1  C9  UNL     1       3.620  56.445  -9.029  1.00  0.00    -0.002 C 
HETATM    2  C10 UNL     1       4.658  55.591  -9.760  1.00  0.00     0.006 C 
HETATM    3  C11 UNL     1       3.783  54.733 -10.665  1.00  0.00     0.006 C 
HETATM    4  C12 UNL     1       2.598  54.325  -9.779  1.00  0.00    -0.001 C 
HETATM    5  C13 UNL     1       1.265  54.177 -10.541  1.00  0.00    -0.000 C 
HETATM    6  C14 UNL     1       1.324  53.131 -11.652  1.00  0.00     0.006 C 
HETATM    7  C15 UNL     1      -0.065  52.926 -12.254  1.00  0.00     0.007 C 
HETATM    8  C16 UNL     1      -1.009  52.224 -11.256  1.00  0.00     0.010 C 
HETATM    9  C17 UNL     1      -2.431  51.922 -11.851  1.00  0.00     0.018 C 
HETATM   10  C18 UNL     1      -3.042  50.668 -11.187  1.00  0.00     0.023 C 
HETATM   11  C19 UNL     1      -2.380  51.614 -13.368  1.00  0.00     0.023 C 
HETATM   12  C20 UNL     1      -3.402  53.096 -11.648  1.00  0.00     0.135 C 
HETATM   13  O4  UNL     1      -4.323  53.319 -12.437  1.00  0.00    -0.297 OA
HETATM   14  C21 UNL     1      -3.226  53.996 -10.451  1.00  0.00     0.080 C 
HETATM   15  C22 UNL     1      -2.404  53.326  -9.372  1.00  0.00     0.018 C 
HETATM   16  C23 UNL     1      -1.028  52.991  -9.906  1.00  0.00    -0.026 A 
HETATM   17  C24 UNL     1       0.012  52.553  -8.898  1.00  0.00     0.021 A 
HETATM   18  C25 UNL     1       0.154  53.923  -9.528  1.00  0.00    -0.028 A 
HETATM   19  C26 UNL     1      -0.045  55.107  -8.582  1.00  0.00     0.011 C 
HETATM   20  C27 UNL     1       1.136  56.084  -8.580  1.00  0.00     0.011 C 
HETATM   21  C28 UNL     1       2.521  55.399  -8.635  1.00  0.00    -0.036 C 
HETATM   22  C29 UNL     1       2.799  54.699  -7.287  1.00  0.00     0.016 C 
ENDROOT
BRANCH   1  23
HETATM   23  C2  UNL     1       4.130  57.384  -7.900  1.00  0.00    -0.014 C 
HETATM   24  C1  UNL     1       3.055  57.862  -6.922  1.00  0.00     0.010 C 
BRANCH  23  25
HETATM   25  C3  UNL     1       5.361  56.787  -7.164  1.00  0.00     0.008 C 
BRANCH  25  26
HETATM   26  C4  UNL     1       5.562  57.158  -5.688  1.00  0.00     0.028 C 
BRANCH  26  27
HETATM   27  C5  UNL     1       6.596  58.232  -5.481  1.00  0.00    -0.011 C 
HETATM   28  C6  UNL     1       7.892  58.100  -5.130  1.00  0.00     0.035 C 
BRANCH  28  29
HETATM   29  C7  UNL     1       8.799  59.286  -4.963  1.00  0.00     0.209 C 
BRANCH  29  30
HETATM   30  O1  UNL     1      10.137  58.938  -5.302  1.00  0.00    -0.396 OA
HETATM   31  H12 UNL     1      10.093  58.554  -6.200  1.00  0.00     0.209 HD
ENDBRANCH  29  30
ENDBRANCH  28  29
BRANCH  28  32
HETATM   32  C8  UNL     1       8.521  56.776  -4.943  1.00  0.00     0.173 C 
HETATM   33  O2  UNL     1       9.105  56.108  -5.775  1.00  0.00    -0.646 OA
BRANCH  32  34
HETATM   34  O3  UNL     1       8.378  56.345  -3.674  1.00  0.00    -0.773 OA
HETATM   35  H13 UNL     1       8.812  55.465  -3.687  1.00  0.00     0.167 HD
ENDBRANCH  32  34
ENDBRANCH  28  32
ENDBRANCH  26  27
ENDBRANCH  25  26
ENDBRANCH  23  25
ENDBRANCH   1  23
TORSDOF 8
ENDMDL
MODEL 3
REMARK minimizedAffinity -7.93461609
REMARK CNNscore 0.273105353
REMARK CNNaffinity 5.54942703
REMARK  8 active torsions:
REMARK  status: ('A' for Active; 'I' for Inactive)
REMARK    1  A    between atoms: C2_2  and  C3_3 
REMARK    2  A    between atoms: C2_2  and  C9_12 
REMARK    3  A    between atoms: C3_3  and  C4_4 
REMARK    4  A    between atoms: C4_4  and  C5_5 
REMARK    5  A    between atoms: C6_6  and  C7_7 
REMARK    6  A    between atoms: C6_6  and  C8_9 
REMARK    7  A    between atoms: C7_7  and  O1_8 
REMARK    8  A    between atoms: C8_9  and  O3_11 
ROOT
HETATM    1  C9  UNL     1       4.912  66.389 -34.629  1.00  0.00    -0.002 C 
HETATM    2  C10 UNL     1       6.141  67.293 -34.743  1.00  0.00     0.006 C 
HETATM    3  C11 UNL     1       5.620  68.428 -35.615  1.00  0.00     0.006 C 
HETATM    4  C12 UNL     1       4.789  67.730 -36.700  1.00  0.00    -0.001 C 
HETATM    5  C13 UNL     1       3.574  68.547 -37.184  1.00  0.00    -0.000 C 
HETATM    6  C14 UNL     1       3.960  69.901 -37.774  1.00  0.00     0.006 C 
HETATM    7  C15 UNL     1       2.731  70.582 -38.373  1.00  0.00     0.007 C 
HETATM    8  C16 UNL     1       2.249  69.849 -39.643  1.00  0.00     0.010 C 
HETATM    9  C17 UNL     1       1.030  70.552 -40.343  1.00  0.00     0.018 C 
HETATM   10  C18 UNL     1       1.049  70.281 -41.864  1.00  0.00     0.023 C 
HETATM   11  C19 UNL     1       1.072  72.092 -40.187  1.00  0.00     0.023 C 
HETATM   12  C20 UNL     1      -0.315  70.064 -39.782  1.00  0.00     0.135 C 
HETATM   13  O4  UNL     1      -1.311  70.790 -39.765  1.00  0.00    -0.297 OA
HETATM   14  C21 UNL     1      -0.420  68.659 -39.244  1.00  0.00     0.080 C 
HETATM   15  C22 UNL     1       0.695  67.782 -39.767  1.00  0.00     0.018 C 
HETATM   16  C23 UNL     1       2.034  68.342 -39.342  1.00  0.00    -0.026 A 
HETATM   17  C24 UNL     1       3.246  67.460 -39.555  1.00  0.00     0.021 A 
HETATM   18  C25 UNL     1       2.758  67.681 -38.138  1.00  0.00    -0.028 A 
HETATM   19  C26 UNL     1       2.173  66.451 -37.443  1.00  0.00     0.011 C 
HETATM   20  C27 UNL     1       2.844  66.140 -36.100  1.00  0.00     0.011 C 
HETATM   21  C28 UNL     1       4.378  66.337 -36.102  1.00  0.00    -0.036 C 
HETATM   22  C29 UNL     1       5.034  65.227 -36.950  1.00  0.00     0.016 C 
ENDROOT
BRANCH   1  23
HETATM   23  C2  UNL     1       5.088  65.028 -33.899  1.00  0.00    -0.014 C 
HETATM   24  C1  UNL     1       4.209  63.892 -34.428  1.00  0.00     0.010 C 
BRANCH  23  25
HETATM   25  C3  UNL     1       6.581  64.612 -33.805  1.00  0.00     0.008 C 
BRANCH  25  26
HETATM   26  C4  UNL     1       7.185  63.839 -34.987  1.00  0.00     0.028 C 
BRANCH  26  27
HETATM   27  C5  UNL     1       6.849  62.372 -34.971  1.00  0.00    -0.011 C 
HETATM   28  C6  UNL     1       7.571  61.346 -34.475  1.00  0.00     0.035 C 
BRANCH  28  29
HETATM   29  C7  UNL     1       7.089  59.924 -34.540  1.00  0.00     0.209 C 
BRANCH  29  30
HETATM   30  O1  UNL     1       7.325  59.380 -35.834  1.00  0.00    -0.396 OA
HETATM   31  H12 UNL     1       8.276  59.519 -36.012  1.00  0.00     0.209 HD
ENDBRANCH  29  30
ENDBRANCH  28  29
BRANCH  28  32
HETATM   32  C8  UNL     1       8.859  61.558 -33.782  1.00  0.00     0.173 C 
HETATM   33  O2  UNL     1       9.928  61.854 -34.278  1.00  0.00    -0.646 OA
BRANCH  32  34
HETATM   34  O3  UNL     1       8.729  61.382 -32.451  1.00  0.00    -0.773 OA
HETATM   35  H13 UNL     1       9.641  61.528 -32.117  1.00  0.00     0.167 HD
ENDBRANCH  32  34
ENDBRANCH  28  32
ENDBRANCH  26  27
ENDBRANCH  25  26
ENDBRANCH  23  25
ENDBRANCH   1  23
TORSDOF 8
ENDMDL
MODEL 4
REMARK minimizedAffinity -7.81701469
REMARK CNNscore 0.19491151
REMARK CNNaffinity 6.31982422
REMARK  8 active torsions:
REMARK  status: ('A' for Active; 'I' for Inactive)
REMARK    1  A    between atoms: C2_2  and  C3_3 
REMARK    2  A    between atoms: C2_2  and  C9_12 
REMARK    3  A    between atoms: C3_3  and  C4_4 
REMARK    4  A    between atoms: C4_4  and  C5_5 
REMARK    5  A    between atoms: C6_6  and  C7_7 
REMARK    6  A    between atoms: C6_6  and  C8_9 
REMARK    7  A    between atoms: C7_7  and  O1_8 
REMARK    8  A    between atoms: C8_9  and  O3_11 
ROOT
HETATM    1  C9  UNL     1       1.643  49.972 -14.663  1.00  0.00    -0.002 C 
HETATM    2  C10 UNL     1       0.709  48.776 -14.466  1.00  0.00     0.006 C 
HETATM    3  C11 UNL     1       0.165  48.564 -15.873  1.00  0.00     0.006 C 
HETATM    4  C12 UNL     1      -0.120  49.980 -16.393  1.00  0.00    -0.001 C 
HETATM    5  C13 UNL     1       0.095  50.147 -17.911  1.00  0.00    -0.000 C 
HETATM    6  C14 UNL     1      -0.784  49.221 -18.746  1.00  0.00     0.006 C 
HETATM    7  C15 UNL     1      -0.634  49.551 -20.230  1.00  0.00     0.007 C 
HETATM    8  C16 UNL     1      -1.267  50.918 -20.565  1.00  0.00     0.010 C 
HETATM    9  C17 UNL     1      -1.206  51.274 -22.094  1.00  0.00     0.018 C 
HETATM   10  C18 UNL     1      -2.396  52.178 -22.488  1.00  0.00     0.023 C 
HETATM   11  C19 UNL     1      -1.314  50.018 -22.994  1.00  0.00     0.023 C 
HETATM   12  C20 UNL     1       0.096  52.001 -22.464  1.00  0.00     0.135 C 
HETATM   13  O4  UNL     1       0.596  51.903 -23.587  1.00  0.00    -0.297 OA
HETATM   14  C21 UNL     1       0.777  52.861 -21.429  1.00  0.00     0.080 C 
HETATM   15  C22 UNL     1      -0.177  53.254 -20.323  1.00  0.00     0.018 C 
HETATM   16  C23 UNL     1      -0.697  52.016 -19.627  1.00  0.00    -0.026 A 
HETATM   17  C24 UNL     1      -1.459  52.223 -18.336  1.00  0.00     0.021 A 
HETATM   18  C25 UNL     1      -0.071  51.621 -18.263  1.00  0.00    -0.028 A 
HETATM   19  C26 UNL     1       0.992  52.497 -17.600  1.00  0.00     0.011 C 
HETATM   20  C27 UNL     1       1.713  51.798 -16.441  1.00  0.00     0.011 C 
HETATM   21  C28 UNL     1       0.786  50.943 -15.546  1.00  0.00    -0.036 C 
HETATM   22  C29 UNL     1      -0.127  51.875 -14.721  1.00  0.00     0.016 C 
ENDROOT
BRANCH   1  23
HETATM   23  C2  UNL     1       2.306  50.580 -13.395  1.00  0.00    -0.014 C 
HETATM   24  C1  UNL     1       1.497  50.427 -12.105  1.00  0.00     0.010 C 
BRANCH  23  25
HETATM   25  C3  UNL     1       3.772  50.099 -13.222  1.00  0.00     0.008 C 
BRANCH  25  26
HETATM   26  C4  UNL     1       4.166  49.471 -11.876  1.00  0.00     0.028 C 
BRANCH  26  27
HETATM   27  C5  UNL     1       4.554  50.489 -10.837  1.00  0.00    -0.011 C 
HETATM   28  C6  UNL     1       5.670  50.541 -10.082  1.00  0.00     0.035 C 
BRANCH  28  29
HETATM   29  C7  UNL     1       5.906  51.635  -9.079  1.00  0.00     0.209 C 
BRANCH  29  30
HETATM   30  O1  UNL     1       7.000  52.450  -9.484  1.00  0.00    -0.396 OA
HETATM   31  H12 UNL     1       6.793  52.741 -10.395  1.00  0.00     0.209 HD
ENDBRANCH  29  30
ENDBRANCH  28  29
BRANCH  28  32
HETATM   32  C8  UNL     1       6.763  49.558 -10.233  1.00  0.00     0.173 C 
HETATM   33  O2  UNL     1       6.803  48.422  -9.802  1.00  0.00    -0.646 OA
BRANCH  32  34
HETATM   34  O3  UNL     1       7.786  50.074 -10.944  1.00  0.00    -0.773 OA
HETATM   35  H13 UNL     1       8.442  49.343 -10.953  1.00  0.00     0.167 HD
ENDBRANCH  32  34
ENDBRANCH  28  32
ENDBRANCH  26  27
ENDBRANCH  25  26
ENDBRANCH  23  25
ENDBRANCH   1  23
TORSDOF 8
ENDMDL
MODEL 5
REMARK minimizedAffinity -9.89903069
REMARK CNNscore 0.19003731
REMARK CNNaffinity 6.24761581
REMARK  8 active torsions:
REMARK  status: ('A' for Active; 'I' for Inactive)
REMARK    1  A    between atoms: C2_2  and  C3_3 
REMARK    2  A    between atoms: C2_2  and  C9_12 
REMARK    3  A    between atoms: C3_3  and  C4_4 
REMARK    4  A    between atoms: C4_4  and  C5_5 
REMARK    5  A    between atoms: C6_6  and  C7_7 
REMARK    6  A    between atoms: C6_6  and  C8_9 
REMARK    7  A    between atoms: C7_7  and  O1_8 
REMARK    8  A    between atoms: C8_9  and  O3_11 
ROOT
HETATM    1  C9  UNL     1      -0.060  51.652 -21.923  1.00  0.00    -0.002 C 
HETATM    2  C10 UNL     1       0.177  53.154 -21.747  1.00  0.00     0.006 C 
HETATM    3  C11 UNL     1       0.722  53.224 -20.326  1.00  0.00     0.006 C 
HETATM    4  C12 UNL     1      -0.156  52.251 -19.528  1.00  0.00    -0.001 C 
HETATM    5  C13 UNL     1       0.584  51.534 -18.380  1.00  0.00    -0.000 C 
HETATM    6  C14 UNL     1       1.166  52.496 -17.349  1.00  0.00     0.006 C 
HETATM    7  C15 UNL     1       1.742  51.716 -16.169  1.00  0.00     0.007 C 
HETATM    8  C16 UNL     1       0.623  51.056 -15.337  1.00  0.00     0.010 C 
HETATM    9  C17 UNL     1       1.155  50.301 -14.065  1.00  0.00     0.018 C 
HETATM   10  C18 UNL     1       0.090  50.306 -12.947  1.00  0.00     0.023 C 
HETATM   11  C19 UNL     1       2.407  50.982 -13.460  1.00  0.00     0.023 C 
HETATM   12  C20 UNL     1       1.523  48.841 -14.375  1.00  0.00     0.135 C 
HETATM   13  O4  UNL     1       2.405  48.249 -13.749  1.00  0.00    -0.297 OA
HETATM   14  C21 UNL     1       0.783  48.113 -15.469  1.00  0.00     0.080 C 
HETATM   15  C22 UNL     1      -0.535  48.783 -15.785  1.00  0.00     0.018 C 
HETATM   16  C23 UNL     1      -0.294  50.201 -16.253  1.00  0.00    -0.026 A 
HETATM   17  C24 UNL     1      -1.472  50.936 -16.856  1.00  0.00     0.021 A 
HETATM   18  C25 UNL     1      -0.354  50.493 -17.777  1.00  0.00    -0.028 A 
HETATM   19  C26 UNL     1      -0.720  49.396 -18.776  1.00  0.00     0.011 C 
HETATM   20  C27 UNL     1      -0.419  49.779 -20.230  1.00  0.00     0.011 C 
HETATM   21  C28 UNL     1      -0.756  51.248 -20.578  1.00  0.00    -0.036 C 
HETATM   22  C29 UNL     1      -2.289  51.427 -20.605  1.00  0.00     0.016 C 
ENDROOT
BRANCH   1  23
HETATM   23  C2  UNL     1      -0.748  51.184 -23.236  1.00  0.00    -0.014 C 
HETATM   24  C1  UNL     1      -2.275  51.108 -23.173  1.00  0.00     0.010 C 
BRANCH  23  25
HETATM   25  C3  UNL     1      -0.256  51.993 -24.466  1.00  0.00     0.008 C 
BRANCH  25  26
HETATM   26  C4  UNL     1       0.210  51.207 -25.701  1.00  0.00     0.028 C 
BRANCH  26  27
HETATM   27  C5  UNL     1      -0.898  50.435 -26.366  1.00  0.00    -0.011 C 
HETATM   28  C6  UNL     1      -2.034  50.900 -26.924  1.00  0.00     0.035 C 
BRANCH  28  29
HETATM   29  C7  UNL     1      -3.048  49.986 -27.553  1.00  0.00     0.209 C 
BRANCH  29  30
HETATM   30  O1  UNL     1      -3.448  50.489 -28.823  1.00  0.00    -0.396 OA
HETATM   31  H12 UNL     1      -2.621  50.625 -29.328  1.00  0.00     0.209 HD
ENDBRANCH  29  30
ENDBRANCH  28  29
BRANCH  28  32
HETATM   32  C8  UNL     1      -2.330  52.346 -27.008  1.00  0.00     0.173 C 
HETATM   33  O2  UNL     1      -2.998  53.012 -26.240  1.00  0.00    -0.646 OA
BRANCH  32  34
HETATM   34  O3  UNL     1      -1.747  52.899 -28.090  1.00  0.00    -0.773 OA
HETATM   35  H13 UNL     1      -2.033  53.838 -28.042  1.00  0.00     0.167 HD
ENDBRANCH  32  34
ENDBRANCH  28  32
ENDBRANCH  26  27
ENDBRANCH  25  26
ENDBRANCH  23  25
ENDBRANCH   1  23
TORSDOF 8
ENDMDL
MODEL 6
REMARK minimizedAffinity -8.16687107
REMARK CNNscore 0.185080573
REMARK CNNaffinity 5.67459106
REMARK  8 active torsions:
REMARK  status: ('A' for Active; 'I' for Inactive)
REMARK    1  A    between atoms: C2_2  and  C3_3 
REMARK    2  A    between atoms: C2_2  and  C9_12 
REMARK    3  A    between atoms: C3_3  and  C4_4 
REMARK    4  A    between atoms: C4_4  and  C5_5 
REMARK    5  A    between atoms: C6_6  and  C7_7 
REMARK    6  A    between atoms: C6_6  and  C8_9 
REMARK    7  A    between atoms: C7_7  and  O1_8 
REMARK    8  A    between atoms: C8_9  and  O3_11 
ROOT
HETATM    1  C9  UNL     1      -2.661  49.169 -24.241  1.00  0.00    -0.002 C 
HETATM    2  C10 UNL     1      -2.230  50.568 -24.689  1.00  0.00     0.006 C 
HETATM    3  C11 UNL     1      -1.458  51.066 -23.474  1.00  0.00     0.006 C 
HETATM    4  C12 UNL     1      -2.300  50.617 -22.272  1.00  0.00    -0.001 C 
HETATM    5  C13 UNL     1      -1.470  50.261 -21.021  1.00  0.00    -0.000 C 
HETATM    6  C14 UNL     1      -0.623  51.425 -20.514  1.00  0.00     0.006 C 
HETATM    7  C15 UNL     1       0.043  51.052 -19.191  1.00  0.00     0.007 C 
HETATM    8  C16 UNL     1      -0.994  50.942 -18.054  1.00  0.00     0.010 C 
HETATM    9  C17 UNL     1      -0.352  50.632 -16.653  1.00  0.00     0.018 C 
HETATM   10  C18 UNL     1      -1.215  51.227 -15.518  1.00  0.00     0.023 C 
HETATM   11  C19 UNL     1       1.051  51.270 -16.497  1.00  0.00     0.023 C 
HETATM   12  C20 UNL     1      -0.207  49.122 -16.408  1.00  0.00     0.135 C 
HETATM   13  O4  UNL     1       0.692  48.665 -15.699  1.00  0.00    -0.297 OA
HETATM   14  C21 UNL     1      -1.191  48.176 -17.048  1.00  0.00     0.080 C 
HETATM   15  C22 UNL     1      -2.459  48.891 -17.458  1.00  0.00     0.018 C 
HETATM   16  C23 UNL     1      -2.137  49.975 -18.463  1.00  0.00    -0.026 A 
HETATM   17  C24 UNL     1      -3.307  50.621 -19.175  1.00  0.00     0.021 A 
HETATM   18  C25 UNL     1      -2.410  49.689 -19.965  1.00  0.00    -0.028 A 
HETATM   19  C26 UNL     1      -3.054  48.378 -20.414  1.00  0.00     0.011 C 
HETATM   20  C27 UNL     1      -2.951  48.142 -21.925  1.00  0.00     0.011 C 
HETATM   21  C28 UNL     1      -3.172  49.412 -22.779  1.00  0.00    -0.036 C 
HETATM   22  C29 UNL     1      -4.658  49.821 -22.711  1.00  0.00     0.016 C 
ENDROOT
BRANCH   1  23
HETATM   23  C2  UNL     1      -3.601  48.371 -25.187  1.00  0.00    -0.014 C 
HETATM   24  C1  UNL     1      -5.094  48.653 -25.004  1.00  0.00     0.010 C 
BRANCH  23  25
HETATM   25  C3  UNL     1      -3.165  48.493 -26.673  1.00  0.00     0.008 C 
BRANCH  25  26
HETATM   26  C4  UNL     1      -4.144  49.152 -27.655  1.00  0.00     0.028 C 
BRANCH  26  27
HETATM   27  C5  UNL     1      -4.452  48.294 -28.853  1.00  0.00    -0.011 C 
HETATM   28  C6  UNL     1      -5.593  47.643 -29.154  1.00  0.00     0.035 C 
BRANCH  28  29
HETATM   29  C7  UNL     1      -5.738  46.819 -30.403  1.00  0.00     0.209 C 
BRANCH  29  30
HETATM   30  O1  UNL     1      -4.599  46.984 -31.239  1.00  0.00    -0.396 OA
HETATM   31  H12 UNL     1      -3.825  46.779 -30.678  1.00  0.00     0.209 HD
ENDBRANCH  29  30
ENDBRANCH  28  29
BRANCH  28  32
HETATM   32  C8  UNL     1      -6.799  47.743 -28.305  1.00  0.00     0.173 C 
HETATM   33  O2  UNL     1      -7.088  47.058 -27.343  1.00  0.00    -0.646 OA
BRANCH  32  34
HETATM   34  O3  UNL     1      -7.607  48.737 -28.724  1.00  0.00    -0.773 OA
HETATM   35  H13 UNL     1      -8.365  48.685 -28.102  1.00  0.00     0.167 HD
ENDBRANCH  32  34
ENDBRANCH  28  32
ENDBRANCH  26  27
ENDBRANCH  25  26
ENDBRANCH  23  25
ENDBRANCH   1  23
TORSDOF 8
ENDMDL
MODEL 7
REMARK minimizedAffinity -7.41268587
REMARK CNNscore 0.16979593
REMARK CNNaffinity 4.96066093
REMARK  8 active torsions:
REMARK  status: ('A' for Active; 'I' for Inactive)
REMARK    1  A    between atoms: C2_2  and  C3_3 
REMARK    2  A    between atoms: C2_2  and  C9_12 
REMARK    3  A    between atoms: C3_3  and  C4_4 
REMARK    4  A    between atoms: C4_4  and  C5_5 
REMARK    5  A    between atoms: C6_6  and  C7_7 
REMARK    6  A    between atoms: C6_6  and  C8_9 
REMARK    7  A    between atoms: C7_7  and  O1_8 
REMARK    8  A    between atoms: C8_9  and  O3_11 
ROOT
HETATM    1  C9  UNL     1       2.941  68.723 -36.591  1.00  0.00    -0.002 C 
HETATM    2  C10 UNL     1       2.481  69.829 -35.638  1.00  0.00     0.006 C 
HETATM    3  C11 UNL     1       1.121  70.199 -36.216  1.00  0.00     0.006 C 
HETATM    4  C12 UNL     1       1.339  70.216 -37.735  1.00  0.00    -0.001 C 
HETATM    5  C13 UNL     1       0.108  69.774 -38.551  1.00  0.00    -0.000 C 
HETATM    6  C14 UNL     1      -1.119  70.648 -38.306  1.00  0.00     0.006 C 
HETATM    7  C15 UNL     1      -2.245  70.254 -39.259  1.00  0.00     0.007 C 
HETATM    8  C16 UNL     1      -1.908  70.643 -40.714  1.00  0.00     0.010 C 
HETATM    9  C17 UNL     1      -3.066  70.326 -41.728  1.00  0.00     0.018 C 
HETATM   10  C18 UNL     1      -3.035  71.317 -42.913  1.00  0.00     0.023 C 
HETATM   11  C19 UNL     1      -4.467  70.479 -41.085  1.00  0.00     0.023 C 
HETATM   12  C20 UNL     1      -2.964  68.899 -42.289  1.00  0.00     0.135 C 
HETATM   13  O4  UNL     1      -3.964  68.268 -42.638  1.00  0.00    -0.297 OA
HETATM   14  C21 UNL     1      -1.607  68.256 -42.420  1.00  0.00     0.080 C 
HETATM   15  C22 UNL     1      -0.503  69.289 -42.417  1.00  0.00     0.018 C 
HETATM   16  C23 UNL     1      -0.526  70.063 -41.118  1.00  0.00    -0.026 A 
HETATM   17  C24 UNL     1       0.660  70.960 -40.831  1.00  0.00     0.021 A 
HETATM   18  C25 UNL     1       0.508  69.689 -40.021  1.00  0.00    -0.028 A 
HETATM   19  C26 UNL     1       1.569  68.618 -40.269  1.00  0.00     0.011 C 
HETATM   20  C27 UNL     1       2.280  68.163 -38.989  1.00  0.00     0.011 C 
HETATM   21  C28 UNL     1       2.596  69.311 -38.002  1.00  0.00    -0.036 C 
HETATM   22  C29 UNL     1       3.718  70.194 -38.588  1.00  0.00     0.016 C 
ENDROOT
BRANCH   1  23
HETATM   23  C2  UNL     1       4.379  68.163 -36.399  1.00  0.00    -0.014 C 
HETATM   24  C1  UNL     1       5.238  68.921 -35.385  1.00  0.00     0.010 C 
BRANCH  23  25
HETATM   25  C3  UNL     1       4.372  66.634 -36.128  1.00  0.00     0.008 C 
BRANCH  25  26
HETATM   26  C4  UNL     1       4.632  66.161 -34.690  1.00  0.00     0.028 C 
BRANCH  26  27
HETATM   27  C5  UNL     1       4.466  64.676 -34.514  1.00  0.00    -0.011 C 
HETATM   28  C6  UNL     1       4.352  63.969 -33.372  1.00  0.00     0.035 C 
BRANCH  28  29
HETATM   29  C7  UNL     1       4.192  62.474 -33.369  1.00  0.00     0.209 C 
BRANCH  29  30
HETATM   30  O1  UNL     1       3.484  62.054 -32.209  1.00  0.00    -0.396 OA
HETATM   31  H12 UNL     1       2.656  62.574 -32.199  1.00  0.00     0.209 HD
ENDBRANCH  29  30
ENDBRANCH  28  29
BRANCH  28  32
HETATM   32  C8  UNL     1       4.319  64.622 -32.047  1.00  0.00     0.173 C 
HETATM   33  O2  UNL     1       3.409  64.617 -31.239  1.00  0.00    -0.646 OA
BRANCH  32  34
HETATM   34  O3  UNL     1       5.473  65.271 -31.796  1.00  0.00    -0.773 OA
HETATM   35  H13 UNL     1       5.317  65.672 -30.913  1.00  0.00     0.167 HD
ENDBRANCH  32  34
ENDBRANCH  28  32
ENDBRANCH  26  27
ENDBRANCH  25  26
ENDBRANCH  23  25
ENDBRANCH   1  23
TORSDOF 8
ENDMDL
MODEL 8
REMARK minimizedAffinity -8.43251038
REMARK CNNscore 0.16854924
REMARK CNNaffinity 5.75688505
REMARK  8 active torsions:
REMARK  status: ('A' for Active; 'I' for Inactive)
REMARK    1  A    between atoms: C2_2  and  C3_3 
REMARK    2  A    between atoms: C2_2  and  C9_12 
REMARK    3  A    between atoms: C3_3  and  C4_4 
REMARK    4  A    between atoms: C4_4  and  C5_5 
REMARK    5  A    between atoms: C6_6  and  C7_7 
REMARK    6  A    between atoms: C6_6  and  C8_9 
REMARK    7  A    between atoms: C7_7  and  O1_8 
REMARK    8  A    between atoms: C8_9  and  O3_11 
ROOT
HETATM    1  C9  UNL     1      -4.672  48.156 -22.028  1.00  0.00    -0.002 C 
HETATM    2  C10 UNL     1      -5.619  47.796 -23.175  1.00  0.00     0.006 C 
HETATM    3  C11 UNL     1      -4.834  48.267 -24.393  1.00  0.00     0.006 C 
HETATM    4  C12 UNL     1      -4.244  49.620 -23.972  1.00  0.00    -0.001 C 
HETATM    5  C13 UNL     1      -2.867  49.925 -24.595  1.00  0.00    -0.000 C 
HETATM    6  C14 UNL     1      -2.891  49.949 -26.121  1.00  0.00     0.006 C 
HETATM    7  C15 UNL     1      -1.539  50.411 -26.661  1.00  0.00     0.007 C 
HETATM    8  C16 UNL     1      -1.299  51.905 -26.360  1.00  0.00     0.010 C 
HETATM    9  C17 UNL     1       0.047  52.452 -26.960  1.00  0.00     0.018 C 
HETATM   10  C18 UNL     1      -0.078  53.957 -27.288  1.00  0.00     0.023 C 
HETATM   11  C19 UNL     1       0.420  51.759 -28.293  1.00  0.00     0.023 C 
HETATM   12  C20 UNL     1       1.225  52.266 -25.991  1.00  0.00     0.135 C 
HETATM   13  O4  UNL     1       2.379  52.112 -26.398  1.00  0.00    -0.297 OA
HETATM   14  C21 UNL     1       0.965  52.275 -24.506  1.00  0.00     0.080 C 
HETATM   15  C22 UNL     1      -0.355  52.937 -24.181  1.00  0.00     0.018 C 
HETATM   16  C23 UNL     1      -1.487  52.184 -24.845  1.00  0.00    -0.026 A 
HETATM   17  C24 UNL     1      -2.894  52.548 -24.423  1.00  0.00     0.021 A 
HETATM   18  C25 UNL     1      -2.333  51.214 -23.977  1.00  0.00    -0.028 A 
HETATM   19  C26 UNL     1      -2.081  51.074 -22.476  1.00  0.00     0.011 C 
HETATM   20  C27 UNL     1      -2.780  49.857 -21.858  1.00  0.00     0.011 C 
HETATM   21  C28 UNL     1      -4.206  49.606 -22.402  1.00  0.00    -0.036 C 
HETATM   22  C29 UNL     1      -5.153  50.707 -21.879  1.00  0.00     0.016 C 
ENDROOT
BRANCH   1  23
HETATM   23  C2  UNL     1      -5.188  47.939 -20.577  1.00  0.00    -0.014 C 
HETATM   24  C1  UNL     1      -4.704  48.972 -19.558  1.00  0.00     0.010 C 
BRANCH  23  25
HETATM   25  C3  UNL     1      -6.729  47.757 -20.534  1.00  0.00     0.008 C 
BRANCH  25  26
HETATM   26  C4  UNL     1      -7.567  48.888 -19.919  1.00  0.00     0.028 C 
BRANCH  26  27
HETATM   27  C5  UNL     1      -8.129  48.544 -18.566  1.00  0.00    -0.011 C 
HETATM   28  C6  UNL     1      -9.328  48.006 -18.263  1.00  0.00     0.035 C 
BRANCH  28  29
HETATM   29  C7  UNL     1      -9.740  47.721 -16.845  1.00  0.00     0.209 C 
BRANCH  29  30
HETATM   30  O1  UNL     1     -11.159  47.716 -16.735  1.00  0.00    -0.396 OA
HETATM   31  H12 UNL     1     -11.476  47.083 -17.409  1.00  0.00     0.209 HD
ENDBRANCH  29  30
ENDBRANCH  28  29
BRANCH  28  32
HETATM   32  C8  UNL     1     -10.293  47.606 -19.307  1.00  0.00     0.173 C 
HETATM   33  O2  UNL     1     -10.278  46.595 -19.983  1.00  0.00    -0.646 OA
BRANCH  32  34
HETATM   34  O3  UNL     1     -11.264  48.530 -19.452  1.00  0.00    -0.773 OA
HETATM   35  H13 UNL     1     -11.817  48.162 -20.175  1.00  0.00     0.167 HD
ENDBRANCH  32  34
ENDBRANCH  28  32
ENDBRANCH  26  27
ENDBRANCH  25  26
ENDBRANCH  23  25
ENDBRANCH   1  23
TORSDOF 8
ENDMDL
MODEL 9
REMARK minimizedAffinity -7.63755512
REMARK CNNscore 0.168043509
REMARK CNNaffinity 6.24007559
REMARK  8 active torsions:
REMARK  status: ('A' for Active; 'I' for Inactive)
REMARK    1  A    between atoms: C2_2  and  C3_3 
REMARK    2  A    between atoms: C2_2  and  C9_12 
REMARK    3  A    between atoms: C3_3  and  C4_4 
REMARK    4  A    between atoms: C4_4  and  C5_5 
REMARK    5  A    between atoms: C6_6  and  C7_7 
REMARK    6  A    between atoms: C6_6  and  C8_9 
REMARK    7  A    between atoms: C7_7  and  O1_8 
REMARK    8  A    between atoms: C8_9  and  O3_11 
ROOT
HETATM    1  C9  UNL     1      -0.865  50.885 -15.383  1.00  0.00    -0.002 C 
HETATM    2  C10 UNL     1      -2.264  50.794 -14.769  1.00  0.00     0.006 C 
HETATM    3  C11 UNL     1      -2.146  51.728 -13.572  1.00  0.00     0.006 C 
HETATM    4  C12 UNL     1      -0.769  51.412 -12.972  1.00  0.00    -0.001 C 
HETATM    5  C13 UNL     1      -0.068  52.630 -12.334  1.00  0.00    -0.000 C 
HETATM    6  C14 UNL     1      -0.873  53.258 -11.200  1.00  0.00     0.006 C 
HETATM    7  C15 UNL     1      -0.053  54.350 -10.516  1.00  0.00     0.007 C 
HETATM    8  C16 UNL     1       1.128  53.749  -9.724  1.00  0.00     0.010 C 
HETATM    9  C17 UNL     1       1.962  54.824  -8.939  1.00  0.00     0.018 C 
HETATM   10  C18 UNL     1       2.593  54.201  -7.673  1.00  0.00     0.023 C 
HETATM   11  C19 UNL     1       1.086  55.999  -8.441  1.00  0.00     0.023 C 
HETATM   12  C20 UNL     1       3.091  55.416  -9.798  1.00  0.00     0.135 C 
HETATM   13  O4  UNL     1       3.499  56.566  -9.627  1.00  0.00    -0.297 OA
HETATM   14  C21 UNL     1       3.718  54.567 -10.875  1.00  0.00     0.080 C 
HETATM   15  C22 UNL     1       3.461  53.095 -10.638  1.00  0.00     0.018 C 
HETATM   16  C23 UNL     1       1.973  52.824 -10.641  1.00  0.00    -0.026 A 
HETATM   17  C24 UNL     1       1.539  51.375 -10.675  1.00  0.00     0.021 A 
HETATM   18  C25 UNL     1       1.340  52.214 -11.921  1.00  0.00    -0.028 A 
HETATM   19  C26 UNL     1       2.204  51.827 -13.121  1.00  0.00     0.011 C 
HETATM   20  C27 UNL     1       1.387  51.548 -14.388  1.00  0.00     0.011 C 
HETATM   21  C28 UNL     1       0.073  50.772 -14.133  1.00  0.00    -0.036 C 
HETATM   22  C29 UNL     1       0.407  49.315 -13.748  1.00  0.00     0.016 C 
ENDROOT
BRANCH   1  23
HETATM   23  C2  UNL     1      -0.547  49.950 -16.584  1.00  0.00    -0.014 C 
HETATM   24  C1  UNL     1      -1.762  49.255 -17.202  1.00  0.00     0.010 C 
BRANCH  23  25
HETATM   25  C3  UNL     1       0.323  50.661 -17.655  1.00  0.00     0.008 C 
BRANCH  25  26
HETATM   26  C4  UNL     1      -0.308  51.826 -18.432  1.00  0.00     0.028 C 
BRANCH  26  27
HETATM   27  C5  UNL     1      -0.193  51.675 -19.925  1.00  0.00    -0.011 C 
HETATM   28  C6  UNL     1       0.446  52.470 -20.807  1.00  0.00     0.035 C 
BRANCH  28  29
HETATM   29  C7  UNL     1       0.464  52.176 -22.281  1.00  0.00     0.209 C 
BRANCH  29  30
HETATM   30  O1  UNL     1      -0.595  51.290 -22.623  1.00  0.00    -0.396 OA
HETATM   31  H12 UNL     1      -1.411  51.705 -22.278  1.00  0.00     0.209 HD
ENDBRANCH  29  30
ENDBRANCH  28  29
BRANCH  28  32
HETATM   32  C8  UNL     1       1.221  53.652 -20.376  1.00  0.00     0.173 C 
HETATM   33  O2  UNL     1       1.531  54.620 -21.044  1.00  0.00    -0.646 OA
BRANCH  32  34
HETATM   34  O3  UNL     1       1.579  53.553 -19.080  1.00  0.00    -0.773 OA
HETATM   35  H13 UNL     1       2.095  54.374 -18.928  1.00  0.00     0.167 HD
ENDBRANCH  32  34
ENDBRANCH  28  32
ENDBRANCH  26  27
ENDBRANCH  25  26
ENDBRANCH  23  25
ENDBRANCH   1  23
TORSDOF 8
ENDMDL
