MODEL 1
REMARK minimizedAffinity -6.4855237
REMARK  16 active torsions:
REMARK  status: ('A' for Active; 'I' for Inactive)
REMARK    1  A    between atoms: C2_2  and  C3_3 
REMARK    2  A    between atoms: C3_3  and  C4_4 
REMARK    3  A    between atoms: C4_4  and  C5_5 
REMARK    4  A    between atoms: C5_5  and  C6_6 
REMARK    5  A    between atoms: C6_6  and  C7_7 
REMARK    6  A    between atoms: C7_7  and  C8_8 
REMARK    7  A    between atoms: C8_8  and  N1_9 
REMARK    8  A    between atoms: N1_9  and  C9_10 
REMARK    9  A    between atoms: N1_9  and  C11_12 
REMARK   10  A    between atoms: N1_9  and  C13_14 
REMARK   11  A    between atoms: C13_14  and  C14_15 
REMARK   12  A    between atoms: C14_15  and  O1_16 
REMARK   13  A    between atoms: O1_16  and  C15_17 
REMARK   14  A    between atoms: C15_17  and  C16_19 
REMARK   15  A    between atoms: C16_19  and  C17_20 
REMARK   16  A    between atoms: C16_19  and  C22_25 
ROOT
HETATM    1  C14 UNL     1      -3.046   6.630  15.010  1.00  0.00     0.206 C 
ENDROOT
BRANCH   1   2
HETATM    2  C13 UNL     1      -1.724   5.989  14.547  1.00  0.00     0.264 C 
BRANCH   2   3
HETATM    3  N1  UNL     1      -0.773   6.882  13.652  1.00  0.00    -0.066 N 
BRANCH   3   4
HETATM    4  C8  UNL     1      -0.420   6.098  12.363  1.00  0.00     0.237 C 
BRANCH   4   5
HETATM    5  C7  UNL     1       1.011   5.574  12.290  1.00  0.00     0.028 C 
BRANCH   5   6
HETATM    6  C6  UNL     1       1.801   6.318  11.205  1.00  0.00     0.002 C 
BRANCH   6   7
HETATM    7  C5  UNL     1       2.682   5.399  10.352  1.00  0.00     0.000 C 
BRANCH   7   8
HETATM    8  C4  UNL     1       2.923   5.931   8.936  1.00  0.00     0.000 C 
BRANCH   8   9
HETATM    9  C3  UNL     1       3.221   7.433   8.895  1.00  0.00    -0.000 C 
BRANCH   9  10
HETATM   10  C2  UNL     1       2.403   8.192   7.850  1.00  0.00    -0.005 C 
HETATM   11  C1  UNL     1       0.954   8.349   8.287  1.00  0.00     0.005 C 
ENDBRANCH   9  10
ENDBRANCH   8   9
ENDBRANCH   7   8
ENDBRANCH   6   7
ENDBRANCH   5   6
ENDBRANCH   4   5
ENDBRANCH   3   4
BRANCH   3  12
HETATM   12  C9  UNL     1      -1.659   8.137  13.303  1.00  0.00     0.233 C 
HETATM   13  C10 UNL     1      -1.213   8.945  12.092  1.00  0.00     0.035 C 
ENDBRANCH   3  12
BRANCH   3  14
HETATM   14  C11 UNL     1       0.460   7.335  14.467  1.00  0.00     0.233 C 
HETATM   15  C12 UNL     1       0.248   7.433  15.965  1.00  0.00     0.035 C 
ENDBRANCH   3  14
ENDBRANCH   2   3
ENDBRANCH   1   2
BRANCH   1  16
HETATM   16  O1  UNL     1      -4.168   5.773  14.724  1.00  0.00    -0.319 OA
BRANCH  16  17
HETATM   17  C15 UNL     1      -4.867   6.088  13.597  1.00  0.00     0.263 C 
HETATM   18  O2  UNL     1      -4.986   7.235  13.186  1.00  0.00    -0.265 OA
BRANCH  17  19
HETATM   19  C16 UNL     1      -5.472   4.866  12.919  1.00  0.00     0.093 C 
BRANCH  19  20
HETATM   20  C17 UNL     1      -6.717   4.351  13.696  1.00  0.00    -0.001 C 
HETATM   21  C18 UNL     1      -7.870   3.875  12.804  1.00  0.00     0.005 C 
HETATM   22  C19 UNL     1      -8.589   5.149  12.379  1.00  0.00     0.000 C 
HETATM   23  C20 UNL     1      -8.334   6.161  13.495  1.00  0.00     0.000 C 
HETATM   24  C21 UNL     1      -7.418   5.461  14.496  1.00  0.00     0.005 C 
ENDBRANCH  19  20
BRANCH  19  25
HETATM   25  C22 UNL     1      -4.410   3.779  12.646  1.00  0.00    -0.001 C 
HETATM   26  C23 UNL     1      -4.923   2.518  11.945  1.00  0.00     0.005 C 
HETATM   27  C24 UNL     1      -3.643   1.774  11.588  1.00  0.00     0.000 C 
HETATM   28  C25 UNL     1      -2.596   2.858  11.331  1.00  0.00     0.000 C 
HETATM   29  C26 UNL     1      -3.228   4.181  11.763  1.00  0.00     0.005 C 
ENDBRANCH  19  25
ENDBRANCH  17  19
ENDBRANCH  16  17
ENDBRANCH   1  16
TORSDOF 16
ENDMDL
MODEL 2
REMARK minimizedAffinity -6.46591997
REMARK  16 active torsions:
REMARK  status: ('A' for Active; 'I' for Inactive)
REMARK    1  A    between atoms: C2_2  and  C3_3 
REMARK    2  A    between atoms: C3_3  and  C4_4 
REMARK    3  A    between atoms: C4_4  and  C5_5 
REMARK    4  A    between atoms: C5_5  and  C6_6 
REMARK    5  A    between atoms: C6_6  and  C7_7 
REMARK    6  A    between atoms: C7_7  and  C8_8 
REMARK    7  A    between atoms: C8_8  and  N1_9 
REMARK    8  A    between atoms: N1_9  and  C9_10 
REMARK    9  A    between atoms: N1_9  and  C11_12 
REMARK   10  A    between atoms: N1_9  and  C13_14 
REMARK   11  A    between atoms: C13_14  and  C14_15 
REMARK   12  A    between atoms: C14_15  and  O1_16 
REMARK   13  A    between atoms: O1_16  and  C15_17 
REMARK   14  A    between atoms: C15_17  and  C16_19 
REMARK   15  A    between atoms: C16_19  and  C17_20 
REMARK   16  A    between atoms: C16_19  and  C22_25 
ROOT
HETATM    1  C14 UNL     1      -3.410   6.549  14.226  1.00  0.00     0.206 C 
ENDROOT
BRANCH   1   2
HETATM    2  C13 UNL     1      -2.558   6.564  12.943  1.00  0.00     0.264 C 
BRANCH   2   3
HETATM    3  N1  UNL     1      -1.092   5.980  13.053  1.00  0.00    -0.066 N 
BRANCH   3   4
HETATM    4  C8  UNL     1      -0.115   6.949  12.341  1.00  0.00     0.237 C 
BRANCH   4   5
HETATM    5  C7  UNL     1      -0.163   6.920  10.816  1.00  0.00     0.028 C 
BRANCH   5   6
HETATM    6  C6  UNL     1       0.211   8.291  10.240  1.00  0.00     0.002 C 
BRANCH   6   7
HETATM    7  C5  UNL     1      -0.064   8.419   8.738  1.00  0.00     0.000 C 
BRANCH   7   8
HETATM    8  C4  UNL     1       1.092   7.925   7.864  1.00  0.00     0.000 C 
BRANCH   8   9
HETATM    9  C3  UNL     1       2.466   8.391   8.356  1.00  0.00    -0.000 C 
BRANCH   9  10
HETATM   10  C2  UNL     1       3.320   7.266   8.942  1.00  0.00    -0.005 C 
HETATM   11  C1  UNL     1       2.884   5.907   8.418  1.00  0.00     0.005 C 
ENDBRANCH   9  10
ENDBRANCH   8   9
ENDBRANCH   7   8
ENDBRANCH   6   7
ENDBRANCH   5   6
ENDBRANCH   4   5
ENDBRANCH   3   4
BRANCH   3  12
HETATM   12  C9  UNL     1      -0.812   5.962  14.603  1.00  0.00     0.233 C 
HETATM   13  C10 UNL     1       0.104   7.062  15.123  1.00  0.00     0.035 C 
ENDBRANCH   3  12
BRANCH   3  14
HETATM   14  C11 UNL     1      -1.048   4.534  12.508  1.00  0.00     0.233 C 
HETATM   15  C12 UNL     1      -2.279   4.094  11.738  1.00  0.00     0.035 C 
ENDBRANCH   3  14
ENDBRANCH   2   3
ENDBRANCH   1   2
BRANCH   1  16
HETATM   16  O1  UNL     1      -4.692   5.935  13.992  1.00  0.00    -0.319 OA
BRANCH  16  17
HETATM   17  C15 UNL     1      -5.628   6.744  13.420  1.00  0.00     0.263 C 
HETATM   18  O2  UNL     1      -5.397   7.901  13.092  1.00  0.00    -0.265 OA
BRANCH  17  19
HETATM   19  C16 UNL     1      -6.972   6.052  13.239  1.00  0.00     0.093 C 
BRANCH  19  20
HETATM   20  C17 UNL     1      -8.014   6.567  14.274  1.00  0.00    -0.001 C 
HETATM   21  C18 UNL     1      -7.631   7.884  14.958  1.00  0.00     0.005 C 
HETATM   22  C19 UNL     1      -6.649   7.486  16.054  1.00  0.00     0.000 C 
HETATM   23  C20 UNL     1      -7.011   6.050  16.432  1.00  0.00     0.000 C 
HETATM   24  C21 UNL     1      -8.144   5.641  15.494  1.00  0.00     0.005 C 
ENDBRANCH  19  20
BRANCH  19  25
HETATM   25  C22 UNL     1      -6.825   4.515  13.210  1.00  0.00    -0.001 C 
HETATM   26  C23 UNL     1      -8.128   3.732  13.030  1.00  0.00     0.005 C 
HETATM   27  C24 UNL     1      -7.646   2.309  12.782  1.00  0.00     0.000 C 
HETATM   28  C25 UNL     1      -6.308   2.448  12.058  1.00  0.00     0.000 C 
HETATM   29  C26 UNL     1      -5.942   3.932  12.106  1.00  0.00     0.005 C 
ENDBRANCH  19  25
ENDBRANCH  17  19
ENDBRANCH  16  17
ENDBRANCH   1  16
TORSDOF 16
ENDMDL
MODEL 3
REMARK minimizedAffinity -6.45628834
REMARK  16 active torsions:
REMARK  status: ('A' for Active; 'I' for Inactive)
REMARK    1  A    between atoms: C2_2  and  C3_3 
REMARK    2  A    between atoms: C3_3  and  C4_4 
REMARK    3  A    between atoms: C4_4  and  C5_5 
REMARK    4  A    between atoms: C5_5  and  C6_6 
REMARK    5  A    between atoms: C6_6  and  C7_7 
REMARK    6  A    between atoms: C7_7  and  C8_8 
REMARK    7  A    between atoms: C8_8  and  N1_9 
REMARK    8  A    between atoms: N1_9  and  C9_10 
REMARK    9  A    between atoms: N1_9  and  C11_12 
REMARK   10  A    between atoms: N1_9  and  C13_14 
REMARK   11  A    between atoms: C13_14  and  C14_15 
REMARK   12  A    between atoms: C14_15  and  O1_16 
REMARK   13  A    between atoms: O1_16  and  C15_17 
REMARK   14  A    between atoms: C15_17  and  C16_19 
REMARK   15  A    between atoms: C16_19  and  C17_20 
REMARK   16  A    between atoms: C16_19  and  C22_25 
ROOT
HETATM    1  C14 UNL     1      -2.097   5.925  14.373  1.00  0.00     0.206 C 
ENDROOT
BRANCH   1   2
HETATM    2  C13 UNL     1      -0.599   5.695  14.097  1.00  0.00     0.264 C 
BRANCH   2   3
HETATM    3  N1  UNL     1       0.167   6.840  13.320  1.00  0.00    -0.066 N 
BRANCH   3   4
HETATM    4  C8  UNL     1       1.184   6.189  12.349  1.00  0.00     0.237 C 
BRANCH   4   5
HETATM    5  C7  UNL     1       2.249   7.131  11.792  1.00  0.00     0.028 C 
BRANCH   5   6
HETATM    6  C6  UNL     1       3.387   6.332  11.146  1.00  0.00     0.002 C 
BRANCH   6   7
HETATM    7  C5  UNL     1       3.634   6.697   9.677  1.00  0.00     0.000 C 
BRANCH   7   8
HETATM    8  C4  UNL     1       2.611   6.082   8.718  1.00  0.00     0.000 C 
BRANCH   8   9
HETATM    9  C3  UNL     1       2.145   7.051   7.626  1.00  0.00    -0.000 C 
BRANCH   9  10
HETATM   10  C2  UNL     1       1.668   8.399   8.167  1.00  0.00    -0.005 C 
HETATM   11  C1  UNL     1       0.308   8.278   8.837  1.00  0.00     0.005 C 
ENDBRANCH   9  10
ENDBRANCH   8   9
ENDBRANCH   7   8
ENDBRANCH   6   7
ENDBRANCH   5   6
ENDBRANCH   4   5
ENDBRANCH   3   4
BRANCH   3  12
HETATM   12  C9  UNL     1      -0.971   7.569  12.511  1.00  0.00     0.233 C 
HETATM   13  C10 UNL     1      -0.899   9.090  12.490  1.00  0.00     0.035 C 
ENDBRANCH   3  12
BRANCH   3  14
HETATM   14  C11 UNL     1       0.803   7.834  14.319  1.00  0.00     0.233 C 
HETATM   15  C12 UNL     1       0.618   7.489  15.784  1.00  0.00     0.035 C 
ENDBRANCH   3  14
ENDBRANCH   2   3
ENDBRANCH   1   2
BRANCH   1  16
HETATM   16  O1  UNL     1      -2.886   4.806  13.925  1.00  0.00    -0.319 OA
BRANCH  16  17
HETATM   17  C15 UNL     1      -3.951   5.124  13.138  1.00  0.00     0.263 C 
HETATM   18  O2  UNL     1      -4.113   6.237  12.654  1.00  0.00    -0.265 OA
BRANCH  17  19
HETATM   19  C16 UNL     1      -4.902   3.952  12.932  1.00  0.00     0.093 C 
BRANCH  19  20
HETATM   20  C17 UNL     1      -4.814   3.406  11.477  1.00  0.00    -0.001 C 
HETATM   21  C18 UNL     1      -5.077   1.901  11.347  1.00  0.00     0.005 C 
HETATM   22  C19 UNL     1      -3.763   1.237  11.739  1.00  0.00     0.000 C 
HETATM   23  C20 UNL     1      -2.670   2.252  11.404  1.00  0.00     0.000 C 
HETATM   24  C21 UNL     1      -3.394   3.496  10.895  1.00  0.00     0.005 C 
ENDBRANCH  19  20
BRANCH  19  25
HETATM   25  C22 UNL     1      -6.337   4.292  13.387  1.00  0.00    -0.001 C 
HETATM   26  C23 UNL     1      -6.456   5.457  14.374  1.00  0.00     0.005 C 
HETATM   27  C24 UNL     1      -7.956   5.715  14.428  1.00  0.00     0.000 C 
HETATM   28  C25 UNL     1      -8.484   5.359  13.039  1.00  0.00     0.000 C 
HETATM   29  C26 UNL     1      -7.326   4.695  12.293  1.00  0.00     0.005 C 
ENDBRANCH  19  25
ENDBRANCH  17  19
ENDBRANCH  16  17
ENDBRANCH   1  16
TORSDOF 16
ENDMDL
MODEL 4
REMARK minimizedAffinity -6.4481163
REMARK  16 active torsions:
REMARK  status: ('A' for Active; 'I' for Inactive)
REMARK    1  A    between atoms: C2_2  and  C3_3 
REMARK    2  A    between atoms: C3_3  and  C4_4 
REMARK    3  A    between atoms: C4_4  and  C5_5 
REMARK    4  A    between atoms: C5_5  and  C6_6 
REMARK    5  A    between atoms: C6_6  and  C7_7 
REMARK    6  A    between atoms: C7_7  and  C8_8 
REMARK    7  A    between atoms: C8_8  and  N1_9 
REMARK    8  A    between atoms: N1_9  and  C9_10 
REMARK    9  A    between atoms: N1_9  and  C11_12 
REMARK   10  A    between atoms: N1_9  and  C13_14 
REMARK   11  A    between atoms: C13_14  and  C14_15 
REMARK   12  A    between atoms: C14_15  and  O1_16 
REMARK   13  A    between atoms: O1_16  and  C15_17 
REMARK   14  A    between atoms: C15_17  and  C16_19 
REMARK   15  A    between atoms: C16_19  and  C17_20 
REMARK   16  A    between atoms: C16_19  and  C22_25 
ROOT
HETATM    1  C14 UNL     1      -3.354   5.584  13.055  1.00  0.00     0.206 C 
ENDROOT
BRANCH   1   2
HETATM    2  C13 UNL     1      -2.102   5.629  13.950  1.00  0.00     0.264 C 
BRANCH   2   3
HETATM    3  N1  UNL     1      -1.198   6.923  13.848  1.00  0.00    -0.066 N 
BRANCH   3   4
HETATM    4  C8  UNL     1       0.204   6.513  13.332  1.00  0.00     0.237 C 
BRANCH   4   5
HETATM    5  C7  UNL     1       0.304   6.286  11.826  1.00  0.00     0.028 C 
BRANCH   5   6
HETATM    6  C6  UNL     1       1.477   5.354  11.499  1.00  0.00     0.002 C 
BRANCH   6   7
HETATM    7  C5  UNL     1       2.627   6.053  10.764  1.00  0.00     0.000 C 
BRANCH   7   8
HETATM    8  C4  UNL     1       3.171   5.248   9.581  1.00  0.00     0.000 C 
BRANCH   8   9
HETATM    9  C3  UNL     1       2.886   5.900   8.223  1.00  0.00    -0.000 C 
BRANCH   9  10
HETATM   10  C2  UNL     1       2.004   7.145   8.315  1.00  0.00    -0.005 C 
HETATM   11  C1  UNL     1       2.779   8.402   7.951  1.00  0.00     0.005 C 
ENDBRANCH   9  10
ENDBRANCH   8   9
ENDBRANCH   7   8
ENDBRANCH   6   7
ENDBRANCH   5   6
ENDBRANCH   4   5
ENDBRANCH   3   4
BRANCH   3  12
HETATM   12  C9  UNL     1      -1.936   7.811  12.777  1.00  0.00     0.233 C 
HETATM   13  C10 UNL     1      -1.644   9.305  12.840  1.00  0.00     0.035 C 
ENDBRANCH   3  12
BRANCH   3  14
HETATM   14  C11 UNL     1      -1.172   7.668  15.202  1.00  0.00     0.233 C 
HETATM   15  C12 UNL     1      -2.472   7.640  15.983  1.00  0.00     0.035 C 
ENDBRANCH   3  14
ENDBRANCH   2   3
ENDBRANCH   1   2
BRANCH   1  16
HETATM   16  O1  UNL     1      -4.559   5.595  13.846  1.00  0.00    -0.319 OA
BRANCH  16  17
HETATM   17  C15 UNL     1      -5.556   6.393  13.373  1.00  0.00     0.263 C 
HETATM   18  O2  UNL     1      -5.393   7.578  13.110  1.00  0.00    -0.265 OA
BRANCH  17  19
HETATM   19  C16 UNL     1      -6.877   5.652  13.212  1.00  0.00     0.093 C 
BRANCH  19  20
HETATM   20  C17 UNL     1      -7.887   6.053  14.325  1.00  0.00    -0.001 C 
HETATM   21  C18 UNL     1      -7.708   7.479  14.860  1.00  0.00     0.005 C 
HETATM   22  C19 UNL     1      -6.558   7.383  15.855  1.00  0.00     0.000 C 
HETATM   23  C20 UNL     1      -6.580   5.948  16.378  1.00  0.00     0.000 C 
HETATM   24  C21 UNL     1      -7.698   5.240  15.617  1.00  0.00     0.005 C 
ENDBRANCH  19  20
BRANCH  19  25
HETATM   25  C22 UNL     1      -6.665   4.128  13.078  1.00  0.00    -0.001 C 
HETATM   26  C23 UNL     1      -7.942   3.284  13.065  1.00  0.00     0.005 C 
HETATM   27  C24 UNL     1      -7.440   1.902  12.669  1.00  0.00     0.000 C 
HETATM   28  C25 UNL     1      -6.243   2.146  11.751  1.00  0.00     0.000 C 
HETATM   29  C26 UNL     1      -5.945   3.644  11.819  1.00  0.00     0.005 C 
ENDBRANCH  19  25
ENDBRANCH  17  19
ENDBRANCH  16  17
ENDBRANCH   1  16
TORSDOF 16
ENDMDL
MODEL 5
REMARK minimizedAffinity -6.42719126
REMARK  16 active torsions:
REMARK  status: ('A' for Active; 'I' for Inactive)
REMARK    1  A    between atoms: C2_2  and  C3_3 
REMARK    2  A    between atoms: C3_3  and  C4_4 
REMARK    3  A    between atoms: C4_4  and  C5_5 
REMARK    4  A    between atoms: C5_5  and  C6_6 
REMARK    5  A    between atoms: C6_6  and  C7_7 
REMARK    6  A    between atoms: C7_7  and  C8_8 
REMARK    7  A    between atoms: C8_8  and  N1_9 
REMARK    8  A    between atoms: N1_9  and  C9_10 
REMARK    9  A    between atoms: N1_9  and  C11_12 
REMARK   10  A    between atoms: N1_9  and  C13_14 
REMARK   11  A    between atoms: C13_14  and  C14_15 
REMARK   12  A    between atoms: C14_15  and  O1_16 
REMARK   13  A    between atoms: O1_16  and  C15_17 
REMARK   14  A    between atoms: C15_17  and  C16_19 
REMARK   15  A    between atoms: C16_19  and  C17_20 
REMARK   16  A    between atoms: C16_19  and  C22_25 
ROOT
HETATM    1  C14 UNL     1      -0.410   6.616  12.061  1.00  0.00     0.206 C 
ENDROOT
BRANCH   1   2
HETATM    2  C13 UNL     1      -1.113   6.416  13.416  1.00  0.00     0.264 C 
BRANCH   2   3
HETATM    3  N1  UNL     1      -2.655   6.762  13.479  1.00  0.00    -0.066 N 
BRANCH   3   4
HETATM    4  C8  UNL     1      -3.437   5.704  12.660  1.00  0.00     0.237 C 
BRANCH   4   5
HETATM    5  C7  UNL     1      -2.717   4.374  12.456  1.00  0.00     0.028 C 
BRANCH   5   6
HETATM    6  C6  UNL     1      -3.713   3.209  12.511  1.00  0.00     0.002 C 
BRANCH   6   7
HETATM    7  C5  UNL     1      -4.691   3.185  11.331  1.00  0.00     0.000 C 
BRANCH   7   8
HETATM    8  C4  UNL     1      -5.609   1.959  11.328  1.00  0.00     0.000 C 
BRANCH   8   9
HETATM    9  C3  UNL     1      -6.851   2.129  12.210  1.00  0.00    -0.000 C 
BRANCH   9  10
HETATM   10  C2  UNL     1      -7.157   3.586  12.561  1.00  0.00    -0.005 C 
HETATM   11  C1  UNL     1      -7.421   3.754  14.050  1.00  0.00     0.005 C 
ENDBRANCH   9  10
ENDBRANCH   8   9
ENDBRANCH   7   8
ENDBRANCH   6   7
ENDBRANCH   5   6
ENDBRANCH   4   5
ENDBRANCH   3   4
BRANCH   3  12
HETATM   12  C9  UNL     1      -3.004   6.634  15.010  1.00  0.00     0.233 C 
HETATM   13  C10 UNL     1      -4.445   6.262  15.332  1.00  0.00     0.035 C 
ENDBRANCH   3  12
BRANCH   3  14
HETATM   14  C11 UNL     1      -2.898   8.216  13.017  1.00  0.00     0.233 C 
HETATM   15  C12 UNL     1      -1.789   9.196  13.349  1.00  0.00     0.035 C 
ENDBRANCH   3  14
ENDBRANCH   2   3
ENDBRANCH   1   2
BRANCH   1  16
HETATM   16  O1  UNL     1       1.018   6.475  12.189  1.00  0.00    -0.319 OA
BRANCH  16  17
HETATM   17  C15 UNL     1       1.611   5.686  11.250  1.00  0.00     0.263 C 
HETATM   18  O2  UNL     1       1.170   4.591  10.925  1.00  0.00    -0.265 OA
BRANCH  17  19
HETATM   19  C16 UNL     1       2.865   6.316  10.659  1.00  0.00     0.093 C 
BRANCH  19  20
HETATM   20  C17 UNL     1       3.590   7.213  11.703  1.00  0.00    -0.001 C 
HETATM   21  C18 UNL     1       3.752   8.678  11.280  1.00  0.00     0.005 C 
HETATM   22  C19 UNL     1       4.957   8.686  10.348  1.00  0.00     0.000 C 
HETATM   23  C20 UNL     1       5.826   7.507  10.785  1.00  0.00     0.000 C 
HETATM   24  C21 UNL     1       5.060   6.813  11.909  1.00  0.00     0.005 C 
ENDBRANCH  19  20
BRANCH  19  25
HETATM   25  C22 UNL     1       2.572   7.028   9.320  1.00  0.00    -0.001 C 
HETATM   26  C23 UNL     1       2.677   6.149   8.071  1.00  0.00     0.005 C 
HETATM   27  C24 UNL     1       2.094   7.032   6.975  1.00  0.00     0.000 C 
HETATM   28  C25 UNL     1       1.031   7.890   7.661  1.00  0.00     0.000 C 
HETATM   29  C26 UNL     1       1.182   7.647   9.163  1.00  0.00     0.005 C 
ENDBRANCH  19  25
ENDBRANCH  17  19
ENDBRANCH  16  17
ENDBRANCH   1  16
TORSDOF 16
ENDMDL
MODEL 6
REMARK minimizedAffinity -6.42427588
REMARK  16 active torsions:
REMARK  status: ('A' for Active; 'I' for Inactive)
REMARK    1  A    between atoms: C2_2  and  C3_3 
REMARK    2  A    between atoms: C3_3  and  C4_4 
REMARK    3  A    between atoms: C4_4  and  C5_5 
REMARK    4  A    between atoms: C5_5  and  C6_6 
REMARK    5  A    between atoms: C6_6  and  C7_7 
REMARK    6  A    between atoms: C7_7  and  C8_8 
REMARK    7  A    between atoms: C8_8  and  N1_9 
REMARK    8  A    between atoms: N1_9  and  C9_10 
REMARK    9  A    between atoms: N1_9  and  C11_12 
REMARK   10  A    between atoms: N1_9  and  C13_14 
REMARK   11  A    between atoms: C13_14  and  C14_15 
REMARK   12  A    between atoms: C14_15  and  O1_16 
REMARK   13  A    between atoms: O1_16  and  C15_17 
REMARK   14  A    between atoms: C15_17  and  C16_19 
REMARK   15  A    between atoms: C16_19  and  C17_20 
REMARK   16  A    between atoms: C16_19  and  C22_25 
ROOT
HETATM    1  C14 UNL     1      -2.523   7.316  12.938  1.00  0.00     0.206 C 
ENDROOT
BRANCH   1   2
HETATM    2  C13 UNL     1      -1.364   7.382  13.950  1.00  0.00     0.264 C 
BRANCH   2   3
HETATM    3  N1  UNL     1       0.101   7.265  13.365  1.00  0.00    -0.066 N 
BRANCH   3   4
HETATM    4  C8  UNL     1       0.093   7.760  11.897  1.00  0.00     0.237 C 
BRANCH   4   5
HETATM    5  C7  UNL     1       1.437   8.251  11.367  1.00  0.00     0.028 C 
BRANCH   5   6
HETATM    6  C6  UNL     1       1.954   7.319  10.264  1.00  0.00     0.002 C 
BRANCH   6   7
HETATM    7  C5  UNL     1       3.278   7.779   9.644  1.00  0.00     0.000 C 
BRANCH   7   8
HETATM    8  C4  UNL     1       3.122   8.351   8.232  1.00  0.00     0.000 C 
BRANCH   8   9
HETATM    9  C3  UNL     1       1.739   8.093   7.623  1.00  0.00    -0.000 C 
BRANCH   9  10
HETATM   10  C2  UNL     1       1.768   7.156   6.414  1.00  0.00    -0.005 C 
HETATM   11  C1  UNL     1       2.532   5.877   6.722  1.00  0.00     0.005 C 
ENDBRANCH   9  10
ENDBRANCH   8   9
ENDBRANCH   7   8
ENDBRANCH   6   7
ENDBRANCH   5   6
ENDBRANCH   4   5
ENDBRANCH   3   4
BRANCH   3  12
HETATM   12  C9  UNL     1       0.942   8.246  14.267  1.00  0.00     0.233 C 
HETATM   13  C10 UNL     1       1.231   7.761  15.682  1.00  0.00     0.035 C 
ENDBRANCH   3  12
BRANCH   3  14
HETATM   14  C11 UNL     1       0.634   5.825  13.538  1.00  0.00     0.233 C 
HETATM   15  C12 UNL     1       0.264   4.859  12.429  1.00  0.00     0.035 C 
ENDBRANCH   3  14
ENDBRANCH   2   3
ENDBRANCH   1   2
BRANCH   1  16
HETATM   16  O1  UNL     1      -2.813   5.955  12.566  1.00  0.00    -0.319 OA
BRANCH  16  17
HETATM   17  C15 UNL     1      -3.451   5.216  13.517  1.00  0.00     0.263 C 
HETATM   18  O2  UNL     1      -3.242   5.350  14.716  1.00  0.00    -0.265 OA
BRANCH  17  19
HETATM   19  C16 UNL     1      -4.440   4.222  12.924  1.00  0.00     0.093 C 
BRANCH  19  20
HETATM   20  C17 UNL     1      -3.956   3.704  11.539  1.00  0.00    -0.001 C 
HETATM   21  C18 UNL     1      -5.061   3.101  10.664  1.00  0.00     0.005 C 
HETATM   22  C19 UNL     1      -5.252   1.685  11.194  1.00  0.00     0.000 C 
HETATM   23  C20 UNL     1      -3.906   1.283  11.794  1.00  0.00     0.000 C 
HETATM   24  C21 UNL     1      -3.001   2.505  11.656  1.00  0.00     0.005 C 
ENDBRANCH  19  20
BRANCH  19  25
HETATM   25  C22 UNL     1      -5.879   4.783  12.914  1.00  0.00    -0.001 C 
HETATM   26  C23 UNL     1      -6.919   3.942  13.660  1.00  0.00     0.005 C 
HETATM   27  C24 UNL     1      -8.139   4.853  13.698  1.00  0.00     0.000 C 
HETATM   28  C25 UNL     1      -7.587   6.277  13.763  1.00  0.00     0.000 C 
HETATM   29  C26 UNL     1      -6.079   6.167  13.533  1.00  0.00     0.005 C 
ENDBRANCH  19  25
ENDBRANCH  17  19
ENDBRANCH  16  17
ENDBRANCH   1  16
TORSDOF 16
ENDMDL
MODEL 7
REMARK minimizedAffinity -6.35563517
REMARK  16 active torsions:
REMARK  status: ('A' for Active; 'I' for Inactive)
REMARK    1  A    between atoms: C2_2  and  C3_3 
REMARK    2  A    between atoms: C3_3  and  C4_4 
REMARK    3  A    between atoms: C4_4  and  C5_5 
REMARK    4  A    between atoms: C5_5  and  C6_6 
REMARK    5  A    between atoms: C6_6  and  C7_7 
REMARK    6  A    between atoms: C7_7  and  C8_8 
REMARK    7  A    between atoms: C8_8  and  N1_9 
REMARK    8  A    between atoms: N1_9  and  C9_10 
REMARK    9  A    between atoms: N1_9  and  C11_12 
REMARK   10  A    between atoms: N1_9  and  C13_14 
REMARK   11  A    between atoms: C13_14  and  C14_15 
REMARK   12  A    between atoms: C14_15  and  O1_16 
REMARK   13  A    between atoms: O1_16  and  C15_17 
REMARK   14  A    between atoms: C15_17  and  C16_19 
REMARK   15  A    between atoms: C16_19  and  C17_20 
REMARK   16  A    between atoms: C16_19  and  C22_25 
ROOT
HETATM    1  C14 UNL     1      -0.305   6.430  12.335  1.00  0.00     0.206 C 
ENDROOT
BRANCH   1   2
HETATM    2  C13 UNL     1      -0.812   6.201  13.771  1.00  0.00     0.264 C 
BRANCH   2   3
HETATM    3  N1  UNL     1      -2.303   6.628  14.079  1.00  0.00    -0.066 N 
BRANCH   3   4
HETATM    4  C8  UNL     1      -3.161   5.351  14.257  1.00  0.00     0.237 C 
BRANCH   4   5
HETATM    5  C7  UNL     1      -4.152   5.068  13.131  1.00  0.00     0.028 C 
BRANCH   5   6
HETATM    6  C6  UNL     1      -3.564   4.059  12.138  1.00  0.00     0.002 C 
BRANCH   6   7
HETATM    7  C5  UNL     1      -4.513   2.902  11.805  1.00  0.00     0.000 C 
BRANCH   7   8
HETATM    8  C4  UNL     1      -5.967   3.344  11.616  1.00  0.00     0.000 C 
BRANCH   8   9
HETATM    9  C3  UNL     1      -6.954   2.575  12.500  1.00  0.00    -0.000 C 
BRANCH   9  10
HETATM   10  C2  UNL     1      -7.677   3.456  13.521  1.00  0.00    -0.005 C 
HETATM   11  C1  UNL     1      -7.919   4.855  12.974  1.00  0.00     0.005 C 
ENDBRANCH   9  10
ENDBRANCH   8   9
ENDBRANCH   7   8
ENDBRANCH   6   7
ENDBRANCH   5   6
ENDBRANCH   4   5
ENDBRANCH   3   4
BRANCH   3  12
HETATM   12  C9  UNL     1      -2.194   7.408  15.443  1.00  0.00     0.233 C 
HETATM   13  C10 UNL     1      -0.782   7.639  15.963  1.00  0.00     0.035 C 
ENDBRANCH   3  12
BRANCH   3  14
HETATM   14  C11 UNL     1      -2.825   7.584  12.982  1.00  0.00     0.233 C 
HETATM   15  C12 UNL     1      -2.408   9.034  13.133  1.00  0.00     0.035 C 
ENDBRANCH   3  14
ENDBRANCH   2   3
ENDBRANCH   1   2
BRANCH   1  16
HETATM   16  O1  UNL     1       0.899   7.221  12.329  1.00  0.00    -0.319 OA
BRANCH  16  17
HETATM   17  C15 UNL     1       1.153   7.884  11.166  1.00  0.00     0.263 C 
HETATM   18  O2  UNL     1       0.485   8.835  10.781  1.00  0.00    -0.265 OA
BRANCH  17  19
HETATM   19  C16 UNL     1       2.347   7.313  10.412  1.00  0.00     0.093 C 
BRANCH  19  20
HETATM   20  C17 UNL     1       3.582   8.253  10.521  1.00  0.00    -0.001 C 
HETATM   21  C18 UNL     1       4.934   7.545  10.372  1.00  0.00     0.005 C 
HETATM   22  C19 UNL     1       5.207   6.929  11.739  1.00  0.00     0.000 C 
HETATM   23  C20 UNL     1       4.470   7.810  12.746  1.00  0.00     0.000 C 
HETATM   24  C21 UNL     1       3.737   8.867  11.923  1.00  0.00     0.005 C 
ENDBRANCH  19  20
BRANCH  19  25
HETATM   25  C22 UNL     1       1.979   6.930   8.962  1.00  0.00    -0.001 C 
HETATM   26  C23 UNL     1       2.115   8.052   7.929  1.00  0.00     0.005 C 
HETATM   27  C24 UNL     1       1.944   7.325   6.602  1.00  0.00     0.000 C 
HETATM   28  C25 UNL     1       2.515   5.925   6.824  1.00  0.00     0.000 C 
HETATM   29  C26 UNL     1       2.791   5.803   8.323  1.00  0.00     0.005 C 
ENDBRANCH  19  25
ENDBRANCH  17  19
ENDBRANCH  16  17
ENDBRANCH   1  16
TORSDOF 16
ENDMDL
MODEL 8
REMARK minimizedAffinity -6.33557034
REMARK  16 active torsions:
REMARK  status: ('A' for Active; 'I' for Inactive)
REMARK    1  A    between atoms: C2_2  and  C3_3 
REMARK    2  A    between atoms: C3_3  and  C4_4 
REMARK    3  A    between atoms: C4_4  and  C5_5 
REMARK    4  A    between atoms: C5_5  and  C6_6 
REMARK    5  A    between atoms: C6_6  and  C7_7 
REMARK    6  A    between atoms: C7_7  and  C8_8 
REMARK    7  A    between atoms: C8_8  and  N1_9 
REMARK    8  A    between atoms: N1_9  and  C9_10 
REMARK    9  A    between atoms: N1_9  and  C11_12 
REMARK   10  A    between atoms: N1_9  and  C13_14 
REMARK   11  A    between atoms: C13_14  and  C14_15 
REMARK   12  A    between atoms: C14_15  and  O1_16 
REMARK   13  A    between atoms: O1_16  and  C15_17 
REMARK   14  A    between atoms: C15_17  and  C16_19 
REMARK   15  A    between atoms: C16_19  and  C17_20 
REMARK   16  A    between atoms: C16_19  and  C22_25 
ROOT
HETATM    1  C14 UNL     1      -0.610   5.143  12.677  1.00  0.00     0.206 C 
ENDROOT
BRANCH   1   2
HETATM    2  C13 UNL     1      -0.641   6.633  12.288  1.00  0.00     0.264 C 
BRANCH   2   3
HETATM    3  N1  UNL     1       0.528   7.541  12.846  1.00  0.00    -0.066 N 
BRANCH   3   4
HETATM    4  C8  UNL     1       1.555   7.784  11.712  1.00  0.00     0.237 C 
BRANCH   4   5
HETATM    5  C7  UNL     1       2.768   6.858  11.722  1.00  0.00     0.028 C 
BRANCH   5   6
HETATM    6  C6  UNL     1       2.520   5.638  10.826  1.00  0.00     0.002 C 
BRANCH   6   7
HETATM    7  C5  UNL     1       2.435   5.981   9.334  1.00  0.00     0.000 C 
BRANCH   7   8
HETATM    8  C4  UNL     1       3.356   7.133   8.922  1.00  0.00     0.000 C 
BRANCH   8   9
HETATM    9  C3  UNL     1       2.619   8.274   8.213  1.00  0.00    -0.000 C 
BRANCH   9  10
HETATM   10  C2  UNL     1       1.249   7.870   7.664  1.00  0.00    -0.005 C 
HETATM   11  C1  UNL     1       0.123   8.420   8.526  1.00  0.00     0.005 C 
ENDBRANCH   9  10
ENDBRANCH   8   9
ENDBRANCH   7   8
ENDBRANCH   6   7
ENDBRANCH   5   6
ENDBRANCH   4   5
ENDBRANCH   3   4
BRANCH   3  12
HETATM   12  C9  UNL     1      -0.195   8.888  13.226  1.00  0.00     0.233 C 
HETATM   13  C10 UNL     1      -1.470   9.196  12.452  1.00  0.00     0.035 C 
ENDBRANCH   3  12
BRANCH   3  14
HETATM   14  C11 UNL     1       1.137   6.910  14.118  1.00  0.00     0.233 C 
HETATM   15  C12 UNL     1       0.436   7.260  15.416  1.00  0.00     0.035 C 
ENDBRANCH   3  14
ENDBRANCH   2   3
ENDBRANCH   1   2
BRANCH   1  16
HETATM   16  O1  UNL     1      -1.917   4.680  13.067  1.00  0.00    -0.319 OA
BRANCH  16  17
HETATM   17  C15 UNL     1      -2.811   4.538  12.049  1.00  0.00     0.263 C 
HETATM   18  O2  UNL     1      -2.477   4.267  10.903  1.00  0.00    -0.265 OA
BRANCH  17  19
HETATM   19  C16 UNL     1      -4.251   4.749  12.497  1.00  0.00     0.093 C 
BRANCH  19  20
HETATM   20  C17 UNL     1      -4.314   5.539  13.836  1.00  0.00    -0.001 C 
HETATM   21  C18 UNL     1      -5.717   5.646  14.445  1.00  0.00     0.005 C 
HETATM   22  C19 UNL     1      -6.393   6.775  13.678  1.00  0.00     0.000 C 
HETATM   23  C20 UNL     1      -5.264   7.693  13.211  1.00  0.00     0.000 C 
HETATM   24  C21 UNL     1      -3.967   7.027  13.662  1.00  0.00     0.005 C 
ENDBRANCH  19  20
BRANCH  19  25
HETATM   25  C22 UNL     1      -5.045   3.424  12.514  1.00  0.00    -0.001 C 
HETATM   26  C23 UNL     1      -6.531   3.542  12.163  1.00  0.00     0.005 C 
HETATM   27  C24 UNL     1      -6.967   2.091  12.010  1.00  0.00     0.000 C 
HETATM   28  C25 UNL     1      -5.741   1.347  11.481  1.00  0.00     0.000 C 
HETATM   29  C26 UNL     1      -4.572   2.330  11.557  1.00  0.00     0.005 C 
ENDBRANCH  19  25
ENDBRANCH  17  19
ENDBRANCH  16  17
ENDBRANCH   1  16
TORSDOF 16
ENDMDL
MODEL 9
REMARK minimizedAffinity -6.26661301
REMARK  16 active torsions:
REMARK  status: ('A' for Active; 'I' for Inactive)
REMARK    1  A    between atoms: C2_2  and  C3_3 
REMARK    2  A    between atoms: C3_3  and  C4_4 
REMARK    3  A    between atoms: C4_4  and  C5_5 
REMARK    4  A    between atoms: C5_5  and  C6_6 
REMARK    5  A    between atoms: C6_6  and  C7_7 
REMARK    6  A    between atoms: C7_7  and  C8_8 
REMARK    7  A    between atoms: C8_8  and  N1_9 
REMARK    8  A    between atoms: N1_9  and  C9_10 
REMARK    9  A    between atoms: N1_9  and  C11_12 
REMARK   10  A    between atoms: N1_9  and  C13_14 
REMARK   11  A    between atoms: C13_14  and  C14_15 
REMARK   12  A    between atoms: C14_15  and  O1_16 
REMARK   13  A    between atoms: O1_16  and  C15_17 
REMARK   14  A    between atoms: C15_17  and  C16_19 
REMARK   15  A    between atoms: C16_19  and  C17_20 
REMARK   16  A    between atoms: C16_19  and  C22_25 
ROOT
HETATM    1  C14 UNL     1       0.108   6.085  13.496  1.00  0.00     0.206 C 
ENDROOT
BRANCH   1   2
HETATM    2  C13 UNL     1      -1.086   6.330  12.554  1.00  0.00     0.264 C 
BRANCH   2   3
HETATM    3  N1  UNL     1      -2.462   6.717  13.231  1.00  0.00    -0.066 N 
BRANCH   3   4
HETATM    4  C8  UNL     1      -3.547   5.713  12.765  1.00  0.00     0.237 C 
BRANCH   4   5
HETATM    5  C7  UNL     1      -4.564   5.312  13.829  1.00  0.00     0.028 C 
BRANCH   5   6
HETATM    6  C6  UNL     1      -5.940   5.912  13.510  1.00  0.00     0.002 C 
BRANCH   6   7
HETATM    7  C5  UNL     1      -7.111   5.049  13.995  1.00  0.00     0.000 C 
BRANCH   7   8
HETATM    8  C4  UNL     1      -7.774   4.242  12.876  1.00  0.00     0.000 C 
BRANCH   8   9
HETATM    9  C3  UNL     1      -7.222   2.818  12.746  1.00  0.00    -0.000 C 
BRANCH   9  10
HETATM   10  C2  UNL     1      -6.100   2.688  11.715  1.00  0.00    -0.005 C 
HETATM   11  C1  UNL     1      -5.917   1.243  11.275  1.00  0.00     0.005 C 
ENDBRANCH   9  10
ENDBRANCH   8   9
ENDBRANCH   7   8
ENDBRANCH   6   7
ENDBRANCH   5   6
ENDBRANCH   4   5
ENDBRANCH   3   4
BRANCH   3  12
HETATM   12  C9  UNL     1      -2.183   6.543  14.771  1.00  0.00     0.233 C 
HETATM   13  C10 UNL     1      -2.528   7.741  15.646  1.00  0.00     0.035 C 
ENDBRANCH   3  12
BRANCH   3  14
HETATM   14  C11 UNL     1      -2.808   8.194  12.936  1.00  0.00     0.233 C 
HETATM   15  C12 UNL     1      -1.777   8.952  12.122  1.00  0.00     0.035 C 
ENDBRANCH   3  14
ENDBRANCH   2   3
ENDBRANCH   1   2
BRANCH   1  16
HETATM   16  O1  UNL     1       1.316   5.837  12.752  1.00  0.00    -0.319 OA
BRANCH  16  17
HETATM   17  C15 UNL     1       1.977   6.950  12.329  1.00  0.00     0.263 C 
HETATM   18  O2  UNL     1       1.783   8.062  12.806  1.00  0.00    -0.265 OA
BRANCH  17  19
HETATM   19  C16 UNL     1       2.972   6.656  11.214  1.00  0.00     0.093 C 
BRANCH  19  20
HETATM   20  C17 UNL     1       4.433   6.914  11.682  1.00  0.00    -0.001 C 
HETATM   21  C18 UNL     1       4.584   8.055  12.695  1.00  0.00     0.005 C 
HETATM   22  C19 UNL     1       4.565   9.328  11.857  1.00  0.00     0.000 C 
HETATM   23  C20 UNL     1       5.096   8.927  10.482  1.00  0.00     0.000 C 
HETATM   24  C21 UNL     1       5.338   7.421  10.548  1.00  0.00     0.005 C 
ENDBRANCH  19  20
BRANCH  19  25
HETATM   25  C22 UNL     1       2.597   7.385   9.906  1.00  0.00    -0.001 C 
HETATM   26  C23 UNL     1       2.665   6.534   8.635  1.00  0.00     0.005 C 
HETATM   27  C24 UNL     1       2.008   7.422   7.587  1.00  0.00     0.000 C 
HETATM   28  C25 UNL     1       0.957   8.238   8.340  1.00  0.00     0.000 C 
HETATM   29  C26 UNL     1       1.186   7.970   9.828  1.00  0.00     0.005 C 
ENDBRANCH  19  25
ENDBRANCH  17  19
ENDBRANCH  16  17
ENDBRANCH   1  16
TORSDOF 16
ENDMDL
