MODEL 1
REMARK minimizedAffinity -8.90116024
REMARK CNNscore 0.546528161
REMARK CNNaffinity 7.1486001
REMARK  19 active torsions:
REMARK  status: ('A' for Active; 'I' for Inactive)
REMARK    1  A    between atoms: C19_20  and  O2_21 
REMARK    2  A    between atoms: C19_20  and  C20_22 
REMARK    3  A    between atoms: C20_22  and  C21_24 
REMARK    4  A    between atoms: C21_24  and  O4_25 
REMARK    5  A    between atoms: O4_25  and  C22_26 
REMARK    6  A    between atoms: C22_26  and  C23_28 
REMARK    7  A    between atoms: C23_28  and  C24_29 
REMARK    8  A    between atoms: C24_29  and  C25_30 
REMARK       I    between atoms: C25_30  and  N1_32 
REMARK    9  A    between atoms: N1_32  and  C26_33 
REMARK   10  A    between atoms: C26_33  and  C27_34 
REMARK   11  A    between atoms: C27_34  and  C28_35 
REMARK   12  A    between atoms: C28_35  and  C29_36 
REMARK   13  A    between atoms: C29_36  and  C30_37 
REMARK   14  A    between atoms: C30_37  and  C31_38 
REMARK       I    between atoms: C31_38  and  N2_40 
REMARK   15  A    between atoms: N2_40  and  C32_41 
REMARK   16  A    between atoms: C32_41  and  C33_42 
REMARK   17  A    between atoms: C33_42  and  C34_43 
REMARK   18  A    between atoms: C37_46  and  O8_47 
REMARK   19  A    between atoms: C38_48  and  O9_49 
ROOT
HETATM    1  C22 UNL     1      -1.492  48.458 -15.610  1.00  0.00     0.259 C 
HETATM    2  O5  UNL     1      -0.443  48.824 -16.116  1.00  0.00    -0.265 OA
ENDROOT
BRANCH   1   3
HETATM    3  O4  UNL     1      -2.674  48.331 -16.283  1.00  0.00    -0.314 OA
BRANCH   3   4
HETATM    4  C21 UNL     1      -2.608  47.501 -17.433  1.00  0.00     0.260 C 
BRANCH   4   5
HETATM    5  C20 UNL     1      -3.080  48.046 -18.787  1.00  0.00     0.185 C 
HETATM    6  O3  UNL     1      -3.923  47.415 -19.435  1.00  0.00    -0.292 OA
BRANCH   5   7
HETATM    7  C19 UNL     1      -2.584  49.458 -19.239  1.00  0.00     0.128 C 
HETATM    8  C14 UNL     1      -3.076  49.869 -20.676  1.00  0.00    -0.002 C 
HETATM    9  C13 UNL     1      -2.925  51.397 -20.905  1.00  0.00     0.013 C 
HETATM   10  C15 UNL     1      -4.547  49.469 -20.895  1.00  0.00     0.019 C 
HETATM   11  C16 UNL     1      -2.104  49.100 -21.598  1.00  0.00     0.002 C 
HETATM   12  C12 UNL     1      -3.033  51.807 -22.371  1.00  0.00     0.007 C 
HETATM   13  C11 UNL     1      -2.001  51.101 -23.270  1.00  0.00     0.002 C 
HETATM   14  C2  UNL     1      -2.091  51.538 -24.802  1.00  0.00    -0.016 C 
HETATM   15  C10 UNL     1      -1.996  49.562 -23.069  1.00  0.00    -0.004 C 
HETATM   16  C1  UNL     1      -3.452  52.168 -25.187  1.00  0.00     0.020 C 
HETATM   17  C3  UNL     1      -0.970  52.596 -25.035  1.00  0.00     0.022 C 
HETATM   18  C7  UNL     1      -1.888  50.349 -25.745  1.00  0.00    -0.068 C 
HETATM   19  C4  UNL     1      -0.703  52.900 -26.501  1.00  0.00     0.084 C 
HETATM   20  C5  UNL     1      -0.408  51.629 -27.255  1.00  0.00     0.149 C 
HETATM   21  O1  UNL     1       0.307  51.611 -28.255  1.00  0.00    -0.293 OA
HETATM   22  C6  UNL     1      -1.086  50.384 -26.825  1.00  0.00     0.053 C 
HETATM   23  C8  UNL     1      -2.668  49.085 -25.449  1.00  0.00     0.035 C 
HETATM   24  C9  UNL     1      -3.046  48.916 -23.976  1.00  0.00     0.010 C 
HETATM   25  C17 UNL     1      -0.750  49.217 -20.868  1.00  0.00     0.009 C 
HETATM   26  C18 UNL     1      -1.052  49.391 -19.378  1.00  0.00     0.047 C 
BRANCH   7  27
HETATM   27  O2  UNL     1      -2.890  50.478 -18.297  1.00  0.00    -0.381 OA
HETATM   28  H27 UNL     1      -3.845  50.660 -18.332  1.00  0.00     0.211 HD
ENDBRANCH   7  27
ENDBRANCH   5   7
ENDBRANCH   4   5
ENDBRANCH   3   4
ENDBRANCH   1   3
BRANCH   1  29
HETATM   29  C23 UNL     1      -1.669  48.074 -14.165  1.00  0.00     0.120 C 
BRANCH  29  30
HETATM   30  C24 UNL     1      -2.949  48.674 -13.600  1.00  0.00     0.112 C 
BRANCH  30  31
HETATM   31  C25 UNL     1      -2.710  50.007 -12.915  1.00  0.00     0.217 C 
HETATM   32  O6  UNL     1      -2.050  50.912 -13.409  1.00  0.00    -0.274 OA
HETATM   33  N1  UNL     1      -3.365  50.116 -11.705  1.00  0.00    -0.361 N 
HETATM   34  H34 UNL     1      -3.731  49.273 -11.281  1.00  0.00     0.162 HD
BRANCH  33  35
HETATM   35  C26 UNL     1      -3.160  51.266 -10.847  1.00  0.00     0.122 C 
BRANCH  35  36
HETATM   36  C27 UNL     1      -4.266  52.307 -11.006  1.00  0.00     0.020 C 
BRANCH  36  37
HETATM   37  C28 UNL     1      -3.799  53.762 -10.879  1.00  0.00     0.002 C 
BRANCH  37  38
HETATM   38  C29 UNL     1      -2.736  54.037  -9.807  1.00  0.00     0.009 C 
BRANCH  38  39
HETATM   39  C30 UNL     1      -1.677  55.064 -10.205  1.00  0.00     0.103 C 
BRANCH  39  40
HETATM   40  C31 UNL     1      -0.373  54.441 -10.671  1.00  0.00     0.217 C 
HETATM   41  O7  UNL     1      -0.288  53.322 -11.165  1.00  0.00    -0.274 OA
HETATM   42  N2  UNL     1       0.720  55.255 -10.453  1.00  0.00    -0.361 N 
HETATM   43  H45 UNL     1       0.559  56.230 -10.234  1.00  0.00     0.162 HD
BRANCH  42  44
HETATM   44  C32 UNL     1       2.049  54.874 -10.892  1.00  0.00     0.127 C 
BRANCH  44  45
HETATM   45  C33 UNL     1       3.032  56.048 -10.955  1.00  0.00     0.058 C 
BRANCH  45  46
HETATM   46  C34 UNL     1       4.092  55.986  -9.878  1.00  0.00    -0.054 A 
HETATM   47  C35 UNL     1       3.895  56.659  -8.660  1.00  0.00     0.010 A 
HETATM   48  C36 UNL     1       4.852  56.590  -7.646  1.00  0.00     0.040 A 
HETATM   49  C37 UNL     1       6.003  55.848  -7.854  1.00  0.00     0.098 A 
HETATM   50  C38 UNL     1       6.216  55.182  -9.058  1.00  0.00     0.099 A 
HETATM   51  C39 UNL     1       5.267  55.241 -10.074  1.00  0.00     0.046 A 
BRANCH  49  52
HETATM   52  O8  UNL     1       6.939  55.779  -6.862  1.00  0.00    -0.358 OA
HETATM   53  H52 UNL     1       7.651  55.223  -7.236  1.00  0.00     0.217 HD
ENDBRANCH  49  52
BRANCH  50  54
HETATM   54  O9  UNL     1       7.378  54.475  -9.196  1.00  0.00    -0.358 OA
HETATM   55  H53 UNL     1       7.404  54.105 -10.097  1.00  0.00     0.217 HD
ENDBRANCH  50  54
ENDBRANCH  45  46
ENDBRANCH  44  45
ENDBRANCH  42  44
ENDBRANCH  39  40
ENDBRANCH  38  39
ENDBRANCH  37  38
ENDBRANCH  36  37
ENDBRANCH  35  36
ENDBRANCH  33  35
ENDBRANCH  30  31
ENDBRANCH  29  30
ENDBRANCH   1  29
TORSDOF 19
ENDMDL
MODEL 2
REMARK minimizedAffinity -8.44756222
REMARK CNNscore 0.459374696
REMARK CNNaffinity 6.80461359
REMARK  19 active torsions:
REMARK  status: ('A' for Active; 'I' for Inactive)
REMARK    1  A    between atoms: C19_20  and  O2_21 
REMARK    2  A    between atoms: C19_20  and  C20_22 
REMARK    3  A    between atoms: C20_22  and  C21_24 
REMARK    4  A    between atoms: C21_24  and  O4_25 
REMARK    5  A    between atoms: O4_25  and  C22_26 
REMARK    6  A    between atoms: C22_26  and  C23_28 
REMARK    7  A    between atoms: C23_28  and  C24_29 
REMARK    8  A    between atoms: C24_29  and  C25_30 
REMARK       I    between atoms: C25_30  and  N1_32 
REMARK    9  A    between atoms: N1_32  and  C26_33 
REMARK   10  A    between atoms: C26_33  and  C27_34 
REMARK   11  A    between atoms: C27_34  and  C28_35 
REMARK   12  A    between atoms: C28_35  and  C29_36 
REMARK   13  A    between atoms: C29_36  and  C30_37 
REMARK   14  A    between atoms: C30_37  and  C31_38 
REMARK       I    between atoms: C31_38  and  N2_40 
REMARK   15  A    between atoms: N2_40  and  C32_41 
REMARK   16  A    between atoms: C32_41  and  C33_42 
REMARK   17  A    between atoms: C33_42  and  C34_43 
REMARK   18  A    between atoms: C37_46  and  O8_47 
REMARK   19  A    between atoms: C38_48  and  O9_49 
ROOT
HETATM    1  C22 UNL     1      -2.674  50.734 -17.444  1.00  0.00     0.259 C 
HETATM    2  O5  UNL     1      -2.354  51.763 -18.017  1.00  0.00    -0.265 OA
ENDROOT
BRANCH   1   3
HETATM    3  O4  UNL     1      -3.605  49.847 -17.904  1.00  0.00    -0.314 OA
BRANCH   3   4
HETATM    4  C21 UNL     1      -3.958  50.022 -19.268  1.00  0.00     0.260 C 
BRANCH   4   5
HETATM    5  C20 UNL     1      -4.300  48.795 -20.123  1.00  0.00     0.185 C 
HETATM    6  O3  UNL     1      -4.482  47.704 -19.572  1.00  0.00    -0.292 OA
BRANCH   5   7
HETATM    7  C19 UNL     1      -4.548  48.994 -21.653  1.00  0.00     0.128 C 
HETATM    8  C14 UNL     1      -3.234  49.253 -22.478  1.00  0.00    -0.002 C 
HETATM    9  C13 UNL     1      -3.469  49.025 -23.995  1.00  0.00     0.013 C 
HETATM   10  C15 UNL     1      -2.090  48.338 -22.001  1.00  0.00     0.019 C 
HETATM   11  C16 UNL     1      -2.955  50.748 -22.207  1.00  0.00     0.002 C 
HETATM   12  C12 UNL     1      -2.363  49.601 -24.876  1.00  0.00     0.007 C 
HETATM   13  C11 UNL     1      -2.153  51.112 -24.664  1.00  0.00     0.002 C 
HETATM   14  C2  UNL     1      -1.014  51.729 -25.595  1.00  0.00    -0.016 C 
HETATM   15  C10 UNL     1      -1.989  51.481 -23.165  1.00  0.00    -0.004 C 
HETATM   16  C1  UNL     1      -0.024  50.674 -26.146  1.00  0.00     0.020 C 
HETATM   17  C3  UNL     1      -1.736  52.410 -26.798  1.00  0.00     0.022 C 
HETATM   18  C7  UNL     1      -0.166  52.761 -24.847  1.00  0.00    -0.068 C 
HETATM   19  C4  UNL     1      -0.836  53.314 -27.627  1.00  0.00     0.084 C 
HETATM   20  C5  UNL     1      -0.171  54.341 -26.748  1.00  0.00     0.149 C 
HETATM   21  O1  UNL     1       0.166  55.446 -27.170  1.00  0.00    -0.293 OA
HETATM   22  C6  UNL     1       0.169  53.961 -25.357  1.00  0.00     0.053 C 
HETATM   23  C8  UNL     1       0.344  52.379 -23.473  1.00  0.00     0.035 C 
HETATM   24  C9  UNL     1      -0.522  51.342 -22.753  1.00  0.00     0.010 C 
HETATM   25  C17 UNL     1      -4.361  51.383 -22.228  1.00  0.00     0.009 C 
HETATM   26  C18 UNL     1      -5.358  50.292 -21.830  1.00  0.00     0.047 C 
BRANCH   7  27
HETATM   27  O2  UNL     1      -5.299  47.934 -22.233  1.00  0.00    -0.381 OA
HETATM   28  H27 UNL     1      -4.730  47.147 -22.295  1.00  0.00     0.211 HD
ENDBRANCH   7  27
ENDBRANCH   5   7
ENDBRANCH   4   5
ENDBRANCH   3   4
ENDBRANCH   1   3
BRANCH   1  29
HETATM   29  C23 UNL     1      -2.096  50.255 -16.138  1.00  0.00     0.120 C 
BRANCH  29  30
HETATM   30  C24 UNL     1      -2.964  50.696 -14.969  1.00  0.00     0.112 C 
BRANCH  30  31
HETATM   31  C25 UNL     1      -2.157  51.355 -13.865  1.00  0.00     0.217 C 
HETATM   32  O6  UNL     1      -1.035  51.815 -14.032  1.00  0.00    -0.274 OA
HETATM   33  N1  UNL     1      -2.844  51.436 -12.670  1.00  0.00    -0.361 N 
HETATM   34  H34 UNL     1      -3.678  50.875 -12.559  1.00  0.00     0.162 HD
BRANCH  33  35
HETATM   35  C26 UNL     1      -2.194  51.922 -11.469  1.00  0.00     0.122 C 
BRANCH  35  36
HETATM   36  C27 UNL     1      -2.606  53.353 -11.131  1.00  0.00     0.020 C 
BRANCH  36  37
HETATM   37  C28 UNL     1      -2.265  53.798  -9.704  1.00  0.00     0.002 C 
BRANCH  37  38
HETATM   38  C29 UNL     1      -1.136  54.829  -9.572  1.00  0.00     0.009 C 
BRANCH  38  39
HETATM   39  C30 UNL     1       0.011  54.652 -10.565  1.00  0.00     0.103 C 
BRANCH  39  40
HETATM   40  C31 UNL     1       1.345  55.163 -10.049  1.00  0.00     0.217 C 
HETATM   41  O7  UNL     1       2.243  55.577 -10.773  1.00  0.00    -0.274 OA
HETATM   42  N2  UNL     1       1.455  55.085  -8.676  1.00  0.00    -0.361 N 
HETATM   43  H45 UNL     1       0.615  54.928  -8.133  1.00  0.00     0.162 HD
BRANCH  42  44
HETATM   44  C32 UNL     1       2.624  55.589  -7.980  1.00  0.00     0.127 C 
BRANCH  44  45
HETATM   45  C33 UNL     1       2.530  57.077  -7.626  1.00  0.00     0.058 C 
BRANCH  45  46
HETATM   46  C34 UNL     1       1.991  57.317  -6.234  1.00  0.00    -0.054 A 
HETATM   47  C35 UNL     1       2.852  57.763  -5.216  1.00  0.00     0.010 A 
HETATM   48  C36 UNL     1       2.365  58.016  -3.932  1.00  0.00     0.040 A 
HETATM   49  C37 UNL     1       1.019  57.820  -3.670  1.00  0.00     0.098 A 
HETATM   50  C38 UNL     1       0.155  57.372  -4.666  1.00  0.00     0.099 A 
HETATM   51  C39 UNL     1       0.629  57.121  -5.950  1.00  0.00     0.046 A 
BRANCH  49  52
HETATM   52  O8  UNL     1       0.542  58.068  -2.415  1.00  0.00    -0.358 OA
HETATM   53  H52 UNL     1      -0.410  57.851  -2.468  1.00  0.00     0.217 HD
ENDBRANCH  49  52
BRANCH  50  54
HETATM   54  O9  UNL     1      -1.159  57.195  -4.334  1.00  0.00    -0.358 OA
HETATM   55  H53 UNL     1      -1.625  56.840  -5.113  1.00  0.00     0.217 HD
ENDBRANCH  50  54
ENDBRANCH  45  46
ENDBRANCH  44  45
ENDBRANCH  42  44
ENDBRANCH  39  40
ENDBRANCH  38  39
ENDBRANCH  37  38
ENDBRANCH  36  37
ENDBRANCH  35  36
ENDBRANCH  33  35
ENDBRANCH  30  31
ENDBRANCH  29  30
ENDBRANCH   1  29
TORSDOF 19
ENDMDL
MODEL 3
REMARK minimizedAffinity -8.84174824
REMARK CNNscore 0.459082752
REMARK CNNaffinity 7.36791754
REMARK  19 active torsions:
REMARK  status: ('A' for Active; 'I' for Inactive)
REMARK    1  A    between atoms: C19_20  and  O2_21 
REMARK    2  A    between atoms: C19_20  and  C20_22 
REMARK    3  A    between atoms: C20_22  and  C21_24 
REMARK    4  A    between atoms: C21_24  and  O4_25 
REMARK    5  A    between atoms: O4_25  and  C22_26 
REMARK    6  A    between atoms: C22_26  and  C23_28 
REMARK    7  A    between atoms: C23_28  and  C24_29 
REMARK    8  A    between atoms: C24_29  and  C25_30 
REMARK       I    between atoms: C25_30  and  N1_32 
REMARK    9  A    between atoms: N1_32  and  C26_33 
REMARK   10  A    between atoms: C26_33  and  C27_34 
REMARK   11  A    between atoms: C27_34  and  C28_35 
REMARK   12  A    between atoms: C28_35  and  C29_36 
REMARK   13  A    between atoms: C29_36  and  C30_37 
REMARK   14  A    between atoms: C30_37  and  C31_38 
REMARK       I    between atoms: C31_38  and  N2_40 
REMARK   15  A    between atoms: N2_40  and  C32_41 
REMARK   16  A    between atoms: C32_41  and  C33_42 
REMARK   17  A    between atoms: C33_42  and  C34_43 
REMARK   18  A    between atoms: C37_46  and  O8_47 
REMARK   19  A    between atoms: C38_48  and  O9_49 
ROOT
HETATM    1  C22 UNL     1       0.584  53.291 -21.845  1.00  0.00     0.259 C 
HETATM    2  O5  UNL     1       1.271  53.696 -22.768  1.00  0.00    -0.265 OA
ENDROOT
BRANCH   1   3
HETATM    3  O4  UNL     1      -0.578  52.589 -21.993  1.00  0.00    -0.314 OA
BRANCH   3   4
HETATM    4  C21 UNL     1      -0.703  51.917 -23.238  1.00  0.00     0.260 C 
BRANCH   4   5
HETATM    5  C20 UNL     1      -1.451  52.596 -24.392  1.00  0.00     0.185 C 
HETATM    6  O3  UNL     1      -0.972  53.611 -24.911  1.00  0.00    -0.292 OA
BRANCH   5   7
HETATM    7  C19 UNL     1      -2.727  51.903 -24.969  1.00  0.00     0.128 C 
HETATM    8  C14 UNL     1      -3.659  51.277 -23.867  1.00  0.00    -0.002 C 
HETATM    9  C13 UNL     1      -5.077  50.986 -24.429  1.00  0.00     0.013 C 
HETATM   10  C15 UNL     1      -3.781  52.209 -22.647  1.00  0.00     0.019 C 
HETATM   11  C16 UNL     1      -2.942  49.949 -23.535  1.00  0.00     0.002 C 
HETATM   12  C12 UNL     1      -5.905  50.059 -23.543  1.00  0.00     0.007 C 
HETATM   13  C11 UNL     1      -5.222  48.702 -23.290  1.00  0.00     0.002 C 
HETATM   14  C2  UNL     1      -6.089  47.717 -22.383  1.00  0.00    -0.016 C 
HETATM   15  C10 UNL     1      -3.757  48.860 -22.802  1.00  0.00    -0.004 C 
HETATM   16  C1  UNL     1      -7.167  48.439 -21.539  1.00  0.00     0.020 C 
HETATM   17  C3  UNL     1      -6.798  46.722 -23.350  1.00  0.00     0.022 C 
HETATM   18  C7  UNL     1      -5.216  46.944 -21.391  1.00  0.00    -0.068 C 
HETATM   19  C4  UNL     1      -7.422  45.522 -22.654  1.00  0.00     0.084 C 
HETATM   20  C5  UNL     1      -6.394  44.811 -21.811  1.00  0.00     0.149 C 
HETATM   21  O1  UNL     1      -6.460  43.607 -21.574  1.00  0.00    -0.293 OA
HETATM   22  C6  UNL     1      -5.328  45.620 -21.175  1.00  0.00     0.053 C 
HETATM   23  C8  UNL     1      -4.201  47.735 -20.592  1.00  0.00     0.035 C 
HETATM   24  C9  UNL     1      -3.732  49.019 -21.280  1.00  0.00     0.010 C 
HETATM   25  C17 UNL     1      -2.449  49.455 -24.911  1.00  0.00     0.009 C 
HETATM   26  C18 UNL     1      -2.265  50.689 -25.797  1.00  0.00     0.047 C 
BRANCH   7  27
HETATM   27  O2  UNL     1      -3.476  52.754 -25.829  1.00  0.00    -0.381 OA
HETATM   28  H27 UNL     1      -3.927  53.425 -25.289  1.00  0.00     0.211 HD
ENDBRANCH   7  27
ENDBRANCH   5   7
ENDBRANCH   4   5
ENDBRANCH   3   4
ENDBRANCH   1   3
BRANCH   1  29
HETATM   29  C23 UNL     1       0.896  53.483 -20.384  1.00  0.00     0.120 C 
BRANCH  29  30
HETATM   30  C24 UNL     1      -0.081  52.702 -19.516  1.00  0.00     0.112 C 
BRANCH  30  31
HETATM   31  C25 UNL     1       0.541  52.250 -18.208  1.00  0.00     0.217 C 
HETATM   32  O6  UNL     1       0.105  51.323 -17.538  1.00  0.00    -0.274 OA
HETATM   33  N1  UNL     1       1.685  52.951 -17.884  1.00  0.00    -0.361 N 
HETATM   34  H34 UNL     1       1.874  53.813 -18.379  1.00  0.00     0.162 HD
BRANCH  33  35
HETATM   35  C26 UNL     1       2.349  52.745 -16.612  1.00  0.00     0.122 C 
BRANCH  35  36
HETATM   36  C27 UNL     1       1.705  51.623 -15.802  1.00  0.00     0.020 C 
BRANCH  36  37
HETATM   37  C28 UNL     1       2.537  51.134 -14.610  1.00  0.00     0.002 C 
BRANCH  37  38
HETATM   38  C29 UNL     1       1.751  50.782 -13.340  1.00  0.00     0.009 C 
BRANCH  38  39
HETATM   39  C30 UNL     1       0.608  51.741 -13.008  1.00  0.00     0.103 C 
BRANCH  39  40
HETATM   40  C31 UNL     1       0.968  52.770 -11.952  1.00  0.00     0.217 C 
HETATM   41  O7  UNL     1       2.062  52.831 -11.402  1.00  0.00    -0.274 OA
HETATM   42  N2  UNL     1      -0.078  53.617 -11.649  1.00  0.00    -0.361 N 
HETATM   43  H45 UNL     1      -0.874  53.644 -12.273  1.00  0.00     0.162 HD
BRANCH  42  44
HETATM   44  C32 UNL     1       0.083  54.716 -10.715  1.00  0.00     0.127 C 
BRANCH  44  45
HETATM   45  C33 UNL     1      -1.138  54.937  -9.816  1.00  0.00     0.058 C 
BRANCH  45  46
HETATM   46  C34 UNL     1      -2.206  53.883 -10.004  1.00  0.00    -0.054 A 
HETATM   47  C35 UNL     1      -3.264  54.110 -10.901  1.00  0.00     0.010 A 
HETATM   48  C36 UNL     1      -4.244  53.135 -11.106  1.00  0.00     0.040 A 
HETATM   49  C37 UNL     1      -4.161  51.939 -10.413  1.00  0.00     0.098 A 
HETATM   50  C38 UNL     1      -3.122  51.703  -9.517  1.00  0.00     0.099 A 
HETATM   51  C39 UNL     1      -2.139  52.665  -9.307  1.00  0.00     0.046 A 
BRANCH  49  52
HETATM   52  O8  UNL     1      -5.118  50.985 -10.615  1.00  0.00    -0.358 OA
HETATM   53  H52 UNL     1      -4.860  50.252 -10.021  1.00  0.00     0.217 HD
ENDBRANCH  49  52
BRANCH  50  54
HETATM   54  O9  UNL     1      -3.108  50.502  -8.864  1.00  0.00    -0.358 OA
HETATM   55  H53 UNL     1      -2.356  50.501  -8.245  1.00  0.00     0.217 HD
ENDBRANCH  50  54
ENDBRANCH  45  46
ENDBRANCH  44  45
ENDBRANCH  42  44
ENDBRANCH  39  40
ENDBRANCH  38  39
ENDBRANCH  37  38
ENDBRANCH  36  37
ENDBRANCH  35  36
ENDBRANCH  33  35
ENDBRANCH  30  31
ENDBRANCH  29  30
ENDBRANCH   1  29
TORSDOF 19
ENDMDL
MODEL 4
REMARK minimizedAffinity -8.76777649
REMARK CNNscore 0.398480445
REMARK CNNaffinity 6.81056738
REMARK  19 active torsions:
REMARK  status: ('A' for Active; 'I' for Inactive)
REMARK    1  A    between atoms: C19_20  and  O2_21 
REMARK    2  A    between atoms: C19_20  and  C20_22 
REMARK    3  A    between atoms: C20_22  and  C21_24 
REMARK    4  A    between atoms: C21_24  and  O4_25 
REMARK    5  A    between atoms: O4_25  and  C22_26 
REMARK    6  A    between atoms: C22_26  and  C23_28 
REMARK    7  A    between atoms: C23_28  and  C24_29 
REMARK    8  A    between atoms: C24_29  and  C25_30 
REMARK       I    between atoms: C25_30  and  N1_32 
REMARK    9  A    between atoms: N1_32  and  C26_33 
REMARK   10  A    between atoms: C26_33  and  C27_34 
REMARK   11  A    between atoms: C27_34  and  C28_35 
REMARK   12  A    between atoms: C28_35  and  C29_36 
REMARK   13  A    between atoms: C29_36  and  C30_37 
REMARK   14  A    between atoms: C30_37  and  C31_38 
REMARK       I    between atoms: C31_38  and  N2_40 
REMARK   15  A    between atoms: N2_40  and  C32_41 
REMARK   16  A    between atoms: C32_41  and  C33_42 
REMARK   17  A    between atoms: C33_42  and  C34_43 
REMARK   18  A    between atoms: C37_46  and  O8_47 
REMARK   19  A    between atoms: C38_48  and  O9_49 
ROOT
HETATM    1  C22 UNL     1      -7.669  47.188 -30.015  1.00  0.00     0.259 C 
HETATM    2  O5  UNL     1      -7.427  46.041 -30.353  1.00  0.00    -0.265 OA
ENDROOT
BRANCH   1   3
HETATM    3  O4  UNL     1      -8.908  47.762 -30.053  1.00  0.00    -0.314 OA
BRANCH   3   4
HETATM    4  C21 UNL     1      -9.932  46.989 -29.444  1.00  0.00     0.260 C 
BRANCH   4   5
HETATM    5  C20 UNL     1     -10.264  47.208 -27.963  1.00  0.00     0.185 C 
HETATM    6  O3  UNL     1      -9.360  47.142 -27.123  1.00  0.00    -0.292 OA
BRANCH   5   7
HETATM    7  C19 UNL     1     -11.713  47.649 -27.577  1.00  0.00     0.128 C 
HETATM    8  C14 UNL     1     -12.603  46.476 -27.022  1.00  0.00    -0.002 C 
HETATM    9  C13 UNL     1     -13.850  47.022 -26.275  1.00  0.00     0.013 C 
HETATM   10  C15 UNL     1     -11.799  45.572 -26.068  1.00  0.00     0.019 C 
HETATM   11  C16 UNL     1     -13.040  45.745 -28.311  1.00  0.00     0.002 C 
HETATM   12  C12 UNL     1     -14.926  45.967 -26.034  1.00  0.00     0.007 C 
HETATM   13  C11 UNL     1     -15.420  45.306 -27.335  1.00  0.00     0.002 C 
HETATM   14  C2  UNL     1     -16.562  44.217 -27.097  1.00  0.00    -0.016 C 
HETATM   15  C10 UNL     1     -14.252  44.791 -28.217  1.00  0.00    -0.004 C 
HETATM   16  C1  UNL     1     -16.609  43.675 -25.648  1.00  0.00     0.020 C 
HETATM   17  C3  UNL     1     -17.921  44.913 -27.412  1.00  0.00     0.022 C 
HETATM   18  C7  UNL     1     -16.380  42.997 -28.004  1.00  0.00    -0.068 C 
HETATM   19  C4  UNL     1     -19.092  43.951 -27.538  1.00  0.00     0.084 C 
HETATM   20  C5  UNL     1     -18.787  42.883 -28.557  1.00  0.00     0.149 C 
HETATM   21  O1  UNL     1     -19.669  42.326 -29.207  1.00  0.00    -0.293 OA
HETATM   22  C6  UNL     1     -17.384  42.431 -28.700  1.00  0.00     0.053 C 
HETATM   23  C8  UNL     1     -14.996  42.388 -28.084  1.00  0.00     0.035 C 
HETATM   24  C9  UNL     1     -13.863  43.374 -27.788  1.00  0.00     0.010 C 
HETATM   25  C17 UNL     1     -13.304  46.897 -29.303  1.00  0.00     0.009 C 
HETATM   26  C18 UNL     1     -12.431  48.077 -28.871  1.00  0.00     0.047 C 
BRANCH   7  27
HETATM   27  O2  UNL     1     -11.734  48.755 -26.684  1.00  0.00    -0.381 OA
HETATM   28  H27 UNL     1     -11.453  48.451 -25.803  1.00  0.00     0.211 HD
ENDBRANCH   7  27
ENDBRANCH   5   7
ENDBRANCH   4   5
ENDBRANCH   3   4
ENDBRANCH   1   3
BRANCH   1  29
HETATM   29  C23 UNL     1      -6.655  48.170 -29.491  1.00  0.00     0.120 C 
BRANCH  29  30
HETATM   30  C24 UNL     1      -6.210  47.789 -28.086  1.00  0.00     0.112 C 
BRANCH  30  31
HETATM   31  C25 UNL     1      -4.753  48.124 -27.829  1.00  0.00     0.217 C 
HETATM   32  O6  UNL     1      -3.905  48.171 -28.710  1.00  0.00    -0.274 OA
HETATM   33  N1  UNL     1      -4.495  48.430 -26.507  1.00  0.00    -0.361 N 
HETATM   34  H34 UNL     1      -5.193  48.189 -25.816  1.00  0.00     0.162 HD
BRANCH  33  35
HETATM   35  C26 UNL     1      -3.140  48.656 -26.046  1.00  0.00     0.122 C 
BRANCH  35  36
HETATM   36  C27 UNL     1      -3.101  49.190 -24.616  1.00  0.00     0.020 C 
BRANCH  36  37
HETATM   37  C28 UNL     1      -4.346  48.874 -23.779  1.00  0.00     0.002 C 
BRANCH  37  38
HETATM   38  C29 UNL     1      -4.996  50.065 -23.063  1.00  0.00     0.009 C 
BRANCH  38  39
HETATM   39  C30 UNL     1      -4.118  50.732 -22.004  1.00  0.00     0.103 C 
BRANCH  39  40
HETATM   40  C31 UNL     1      -3.129  51.731 -22.578  1.00  0.00     0.217 C 
HETATM   41  O7  UNL     1      -3.430  52.600 -23.390  1.00  0.00    -0.274 OA
HETATM   42  N2  UNL     1      -1.844  51.542 -22.114  1.00  0.00    -0.361 N 
HETATM   43  H45 UNL     1      -1.705  50.949 -21.305  1.00  0.00     0.162 HD
BRANCH  42  44
HETATM   44  C32 UNL     1      -0.765  52.437 -22.486  1.00  0.00     0.127 C 
BRANCH  44  45
HETATM   45  C33 UNL     1       0.315  51.768 -23.344  1.00  0.00     0.058 C 
BRANCH  45  46
HETATM   46  C34 UNL     1       0.224  52.149 -24.806  1.00  0.00    -0.054 A 
HETATM   47  C35 UNL     1       0.263  51.150 -25.794  1.00  0.00     0.010 A 
HETATM   48  C36 UNL     1       0.153  51.483 -27.146  1.00  0.00     0.040 A 
HETATM   49  C37 UNL     1       0.007  52.813 -27.504  1.00  0.00     0.098 A 
HETATM   50  C38 UNL     1      -0.026  53.814 -26.536  1.00  0.00     0.099 A 
HETATM   51  C39 UNL     1       0.079  53.494 -25.186  1.00  0.00     0.046 A 
BRANCH  49  52
HETATM   52  O8  UNL     1      -0.101  53.138 -28.826  1.00  0.00    -0.358 OA
HETATM   53  H52 UNL     1      -0.181  54.113 -28.831  1.00  0.00     0.217 HD
ENDBRANCH  49  52
BRANCH  50  54
HETATM   54  O9  UNL     1      -0.166  55.105 -26.963  1.00  0.00    -0.358 OA
HETATM   55  H53 UNL     1      -0.127  55.689 -26.185  1.00  0.00     0.217 HD
ENDBRANCH  50  54
ENDBRANCH  45  46
ENDBRANCH  44  45
ENDBRANCH  42  44
ENDBRANCH  39  40
ENDBRANCH  38  39
ENDBRANCH  37  38
ENDBRANCH  36  37
ENDBRANCH  35  36
ENDBRANCH  33  35
ENDBRANCH  30  31
ENDBRANCH  29  30
ENDBRANCH   1  29
TORSDOF 19
ENDMDL
MODEL 5
REMARK minimizedAffinity -8.26655674
REMARK CNNscore 0.395795047
REMARK CNNaffinity 6.87382936
REMARK  19 active torsions:
REMARK  status: ('A' for Active; 'I' for Inactive)
REMARK    1  A    between atoms: C19_20  and  O2_21 
REMARK    2  A    between atoms: C19_20  and  C20_22 
REMARK    3  A    between atoms: C20_22  and  C21_24 
REMARK    4  A    between atoms: C21_24  and  O4_25 
REMARK    5  A    between atoms: O4_25  and  C22_26 
REMARK    6  A    between atoms: C22_26  and  C23_28 
REMARK    7  A    between atoms: C23_28  and  C24_29 
REMARK    8  A    between atoms: C24_29  and  C25_30 
REMARK       I    between atoms: C25_30  and  N1_32 
REMARK    9  A    between atoms: N1_32  and  C26_33 
REMARK   10  A    between atoms: C26_33  and  C27_34 
REMARK   11  A    between atoms: C27_34  and  C28_35 
REMARK   12  A    between atoms: C28_35  and  C29_36 
REMARK   13  A    between atoms: C29_36  and  C30_37 
REMARK   14  A    between atoms: C30_37  and  C31_38 
REMARK       I    between atoms: C31_38  and  N2_40 
REMARK   15  A    between atoms: N2_40  and  C32_41 
REMARK   16  A    between atoms: C32_41  and  C33_42 
REMARK   17  A    between atoms: C33_42  and  C34_43 
REMARK   18  A    between atoms: C37_46  and  O8_47 
REMARK   19  A    between atoms: C38_48  and  O9_49 
ROOT
HETATM    1  C22 UNL     1       0.470  49.575 -15.160  1.00  0.00     0.259 C 
HETATM    2  O5  UNL     1       1.377  48.907 -14.691  1.00  0.00    -0.265 OA
ENDROOT
BRANCH   1   3
HETATM    3  O4  UNL     1       0.045  49.506 -16.456  1.00  0.00    -0.314 OA
BRANCH   3   4
HETATM    4  C21 UNL     1      -1.364  49.586 -16.617  1.00  0.00     0.260 C 
BRANCH   4   5
HETATM    5  C20 UNL     1      -1.980  49.360 -18.003  1.00  0.00     0.185 C 
HETATM    6  O3  UNL     1      -3.084  48.812 -18.094  1.00  0.00    -0.292 OA
BRANCH   5   7
HETATM    7  C19 UNL     1      -1.255  49.957 -19.252  1.00  0.00     0.128 C 
HETATM    8  C14 UNL     1      -2.233  50.364 -20.415  1.00  0.00    -0.002 C 
HETATM    9  C13 UNL     1      -1.537  51.315 -21.426  1.00  0.00     0.013 C 
HETATM   10  C15 UNL     1      -3.496  51.051 -19.864  1.00  0.00     0.019 C 
HETATM   11  C16 UNL     1      -2.536  49.009 -21.091  1.00  0.00     0.002 C 
HETATM   12  C12 UNL     1      -2.288  51.455 -22.748  1.00  0.00     0.007 C 
HETATM   13  C11 UNL     1      -2.509  50.106 -23.458  1.00  0.00     0.002 C 
HETATM   14  C2  UNL     1      -3.274  50.243 -24.851  1.00  0.00    -0.016 C 
HETATM   15  C10 UNL     1      -3.126  49.036 -22.518  1.00  0.00    -0.004 C 
HETATM   16  C1  UNL     1      -4.071  51.563 -24.994  1.00  0.00     0.020 C 
HETATM   17  C3  UNL     1      -2.189  50.194 -25.969  1.00  0.00     0.022 C 
HETATM   18  C7  UNL     1      -4.284  49.110 -25.058  1.00  0.00    -0.068 C 
HETATM   19  C4  UNL     1      -2.752  50.002 -27.368  1.00  0.00     0.084 C 
HETATM   20  C5  UNL     1      -3.629  48.777 -27.418  1.00  0.00     0.149 C 
HETATM   21  O1  UNL     1      -3.781  48.121 -28.446  1.00  0.00    -0.293 OA
HETATM   22  C6  UNL     1      -4.403  48.419 -26.206  1.00  0.00     0.053 C 
HETATM   23  C8  UNL     1      -5.213  48.788 -23.906  1.00  0.00     0.035 C 
HETATM   24  C9  UNL     1      -4.653  49.154 -22.531  1.00  0.00     0.010 C 
HETATM   25  C17 UNL     1      -1.177  48.279 -21.056  1.00  0.00     0.009 C 
HETATM   26  C18 UNL     1      -0.391  48.840 -19.868  1.00  0.00     0.047 C 
BRANCH   7  27
HETATM   27  O2  UNL     1      -0.392  51.039 -18.924  1.00  0.00    -0.381 OA
HETATM   28  H27 UNL     1      -0.936  51.816 -18.707  1.00  0.00     0.211 HD
ENDBRANCH   7  27
ENDBRANCH   5   7
ENDBRANCH   4   5
ENDBRANCH   3   4
ENDBRANCH   1   3
BRANCH   1  29
HETATM   29  C23 UNL     1      -0.346  50.585 -14.396  1.00  0.00     0.120 C 
BRANCH  29  30
HETATM   30  C24 UNL     1       0.437  51.876 -14.201  1.00  0.00     0.112 C 
BRANCH  30  31
HETATM   31  C25 UNL     1       0.959  52.028 -12.785  1.00  0.00     0.217 C 
HETATM   32  O6  UNL     1       1.386  51.095 -12.118  1.00  0.00    -0.274 OA
HETATM   33  N1  UNL     1       0.960  53.338 -12.349  1.00  0.00    -0.361 N 
HETATM   34  H34 UNL     1       0.426  54.018 -12.875  1.00  0.00     0.162 HD
BRANCH  33  35
HETATM   35  C26 UNL     1       1.308  53.667 -10.981  1.00  0.00     0.122 C 
BRANCH  35  36
HETATM   36  C27 UNL     1       0.316  54.645 -10.354  1.00  0.00     0.020 C 
BRANCH  36  37
HETATM   37  C28 UNL     1      -1.046  54.038  -9.999  1.00  0.00     0.002 C 
BRANCH  37  38
HETATM   38  C29 UNL     1      -2.266  54.684 -10.670  1.00  0.00     0.009 C 
BRANCH  38  39
HETATM   39  C30 UNL     1      -3.607  54.042 -10.312  1.00  0.00     0.103 C 
BRANCH  39  40
HETATM   40  C31 UNL     1      -4.000  52.904 -11.238  1.00  0.00     0.217 C 
HETATM   41  O7  UNL     1      -3.941  52.967 -12.461  1.00  0.00    -0.274 OA
HETATM   42  N2  UNL     1      -4.462  51.796 -10.559  1.00  0.00    -0.361 N 
HETATM   43  H45 UNL     1      -4.295  51.735  -9.563  1.00  0.00     0.162 HD
BRANCH  42  44
HETATM   44  C32 UNL     1      -4.821  50.575 -11.257  1.00  0.00     0.127 C 
BRANCH  44  45
HETATM   45  C33 UNL     1      -5.378  49.485 -10.335  1.00  0.00     0.058 C 
BRANCH  45  46
HETATM   46  C34 UNL     1      -6.649  48.859 -10.865  1.00  0.00    -0.054 A 
HETATM   47  C35 UNL     1      -7.892  49.454 -10.588  1.00  0.00     0.010 A 
HETATM   48  C36 UNL     1      -9.072  48.904 -11.092  1.00  0.00     0.040 A 
HETATM   49  C37 UNL     1      -9.004  47.760 -11.871  1.00  0.00     0.098 A 
HETATM   50  C38 UNL     1      -7.780  47.156 -12.148  1.00  0.00     0.099 A 
HETATM   51  C39 UNL     1      -6.598  47.697 -11.654  1.00  0.00     0.046 A 
BRANCH  49  52
HETATM   52  O8  UNL     1     -10.158  47.222 -12.366  1.00  0.00    -0.358 OA
HETATM   53  H52 UNL     1      -9.865  46.432 -12.862  1.00  0.00     0.217 HD
ENDBRANCH  49  52
BRANCH  50  54
HETATM   54  O9  UNL     1      -7.790  46.026 -12.918  1.00  0.00    -0.358 OA
HETATM   55  H53 UNL     1      -6.876  45.697 -12.987  1.00  0.00     0.217 HD
ENDBRANCH  50  54
ENDBRANCH  45  46
ENDBRANCH  44  45
ENDBRANCH  42  44
ENDBRANCH  39  40
ENDBRANCH  38  39
ENDBRANCH  37  38
ENDBRANCH  36  37
ENDBRANCH  35  36
ENDBRANCH  33  35
ENDBRANCH  30  31
ENDBRANCH  29  30
ENDBRANCH   1  29
TORSDOF 19
ENDMDL
MODEL 6
REMARK minimizedAffinity -8.46896744
REMARK CNNscore 0.384987056
REMARK CNNaffinity 7.00138235
REMARK  19 active torsions:
REMARK  status: ('A' for Active; 'I' for Inactive)
REMARK    1  A    between atoms: C19_20  and  O2_21 
REMARK    2  A    between atoms: C19_20  and  C20_22 
REMARK    3  A    between atoms: C20_22  and  C21_24 
REMARK    4  A    between atoms: C21_24  and  O4_25 
REMARK    5  A    between atoms: O4_25  and  C22_26 
REMARK    6  A    between atoms: C22_26  and  C23_28 
REMARK    7  A    between atoms: C23_28  and  C24_29 
REMARK    8  A    between atoms: C24_29  and  C25_30 
REMARK       I    between atoms: C25_30  and  N1_32 
REMARK    9  A    between atoms: N1_32  and  C26_33 
REMARK   10  A    between atoms: C26_33  and  C27_34 
REMARK   11  A    between atoms: C27_34  and  C28_35 
REMARK   12  A    between atoms: C28_35  and  C29_36 
REMARK   13  A    between atoms: C29_36  and  C30_37 
REMARK   14  A    between atoms: C30_37  and  C31_38 
REMARK       I    between atoms: C31_38  and  N2_40 
REMARK   15  A    between atoms: N2_40  and  C32_41 
REMARK   16  A    between atoms: C32_41  and  C33_42 
REMARK   17  A    between atoms: C33_42  and  C34_43 
REMARK   18  A    between atoms: C37_46  and  O8_47 
REMARK   19  A    between atoms: C38_48  and  O9_49 
ROOT
HETATM    1  C22 UNL     1       1.196  53.735 -22.077  1.00  0.00     0.259 C 
HETATM    2  O5  UNL     1       1.435  54.625 -22.876  1.00  0.00    -0.265 OA
ENDROOT
BRANCH   1   3
HETATM    3  O4  UNL     1       0.820  52.467 -22.419  1.00  0.00    -0.314 OA
BRANCH   3   4
HETATM    4  C21 UNL     1      -0.384  52.394 -23.170  1.00  0.00     0.260 C 
BRANCH   4   5
HETATM    5  C20 UNL     1      -1.183  51.086 -23.191  1.00  0.00     0.185 C 
HETATM    6  O3  UNL     1      -0.833  50.150 -22.463  1.00  0.00    -0.292 OA
BRANCH   5   7
HETATM    7  C19 UNL     1      -2.501  51.026 -24.030  1.00  0.00     0.128 C 
HETATM    8  C14 UNL     1      -3.724  50.429 -23.241  1.00  0.00    -0.002 C 
HETATM    9  C13 UNL     1      -5.066  50.774 -23.943  1.00  0.00     0.013 C 
HETATM   10  C15 UNL     1      -3.762  50.955 -21.794  1.00  0.00     0.019 C 
HETATM   11  C16 UNL     1      -3.466  48.908 -23.318  1.00  0.00     0.002 C 
HETATM   12  C12 UNL     1      -6.243  49.936 -23.451  1.00  0.00     0.007 C 
HETATM   13  C11 UNL     1      -6.012  48.422 -23.613  1.00  0.00     0.002 C 
HETATM   14  C2  UNL     1      -7.246  47.537 -23.122  1.00  0.00    -0.016 C 
HETATM   15  C10 UNL     1      -4.652  47.964 -23.022  1.00  0.00    -0.004 C 
HETATM   16  C1  UNL     1      -8.194  48.281 -22.149  1.00  0.00     0.020 C 
HETATM   17  C3  UNL     1      -8.052  47.141 -24.396  1.00  0.00     0.022 C 
HETATM   18  C7  UNL     1      -6.783  46.276 -22.388  1.00  0.00    -0.068 C 
HETATM   19  C4  UNL     1      -9.083  46.048 -24.160  1.00  0.00     0.084 C 
HETATM   20  C5  UNL     1      -8.433  44.839 -23.538  1.00  0.00     0.149 C 
HETATM   21  O1  UNL     1      -8.867  43.701 -23.707  1.00  0.00    -0.293 OA
HETATM   22  C6  UNL     1      -7.291  45.051 -22.618  1.00  0.00     0.053 C 
HETATM   23  C8  UNL     1      -5.719  46.442 -21.323  1.00  0.00     0.035 C 
HETATM   24  C9  UNL     1      -4.812  47.656 -21.531  1.00  0.00     0.010 C 
HETATM   25  C17 UNL     1      -2.929  48.709 -24.751  1.00  0.00     0.009 C 
HETATM   26  C18 UNL     1      -2.277  50.025 -25.179  1.00  0.00     0.047 C 
BRANCH   7  27
HETATM   27  O2  UNL     1      -2.844  52.280 -24.608  1.00  0.00    -0.381 OA
HETATM   28  H27 UNL     1      -3.165  52.870 -23.904  1.00  0.00     0.211 HD
ENDBRANCH   7  27
ENDBRANCH   5   7
ENDBRANCH   4   5
ENDBRANCH   3   4
ENDBRANCH   1   3
BRANCH   1  29
HETATM   29  C23 UNL     1       1.281  53.868 -20.579  1.00  0.00     0.120 C 
BRANCH  29  30
HETATM   30  C24 UNL     1       0.051  53.268 -19.913  1.00  0.00     0.112 C 
BRANCH  30  31
HETATM   31  C25 UNL     1       0.388  52.541 -18.625  1.00  0.00     0.217 C 
HETATM   32  O6  UNL     1      -0.233  51.568 -18.216  1.00  0.00    -0.274 OA
HETATM   33  N1  UNL     1       1.503  53.053 -17.992  1.00  0.00    -0.361 N 
HETATM   34  H34 UNL     1       1.844  53.960 -18.284  1.00  0.00     0.162 HD
BRANCH  33  35
HETATM   35  C26 UNL     1       1.907  52.569 -16.687  1.00  0.00     0.122 C 
BRANCH  35  36
HETATM   36  C27 UNL     1       3.420  52.637 -16.491  1.00  0.00     0.020 C 
BRANCH  36  37
HETATM   37  C28 UNL     1       3.966  51.717 -15.393  1.00  0.00     0.002 C 
BRANCH  37  38
HETATM   38  C29 UNL     1       3.222  51.754 -14.052  1.00  0.00     0.009 C 
BRANCH  38  39
HETATM   39  C30 UNL     1       2.416  50.495 -13.732  1.00  0.00     0.103 C 
BRANCH  39  40
HETATM   40  C31 UNL     1       1.889  50.458 -12.308  1.00  0.00     0.217 C 
HETATM   41  O7  UNL     1       1.420  49.456 -11.780  1.00  0.00    -0.274 OA
HETATM   42  N2  UNL     1       1.962  51.682 -11.676  1.00  0.00    -0.361 N 
HETATM   43  H45 UNL     1       2.538  52.405 -12.090  1.00  0.00     0.162 HD
BRANCH  42  44
HETATM   44  C32 UNL     1       1.575  51.842 -10.287  1.00  0.00     0.127 C 
BRANCH  44  45
HETATM   45  C33 UNL     1       2.639  51.357  -9.296  1.00  0.00     0.058 C 
BRANCH  45  46
HETATM   46  C34 UNL     1       3.894  52.201  -9.321  1.00  0.00    -0.054 A 
HETATM   47  C35 UNL     1       3.796  53.600  -9.409  1.00  0.00     0.010 A 
HETATM   48  C36 UNL     1       4.944  54.395  -9.406  1.00  0.00     0.040 A 
HETATM   49  C37 UNL     1       6.185  53.787  -9.317  1.00  0.00     0.098 A 
HETATM   50  C38 UNL     1       6.299  52.402  -9.236  1.00  0.00     0.099 A 
HETATM   51  C39 UNL     1       5.162  51.600  -9.235  1.00  0.00     0.046 A 
BRANCH  49  52
HETATM   52  O8  UNL     1       7.308  54.565  -9.313  1.00  0.00    -0.358 OA
HETATM   53  H52 UNL     1       8.047  53.926  -9.256  1.00  0.00     0.217 HD
ENDBRANCH  49  52
BRANCH  50  54
HETATM   54  O9  UNL     1       7.556  51.871  -9.157  1.00  0.00    -0.358 OA
HETATM   55  H53 UNL     1       7.477  50.900  -9.153  1.00  0.00     0.217 HD
ENDBRANCH  50  54
ENDBRANCH  45  46
ENDBRANCH  44  45
ENDBRANCH  42  44
ENDBRANCH  39  40
ENDBRANCH  38  39
ENDBRANCH  37  38
ENDBRANCH  36  37
ENDBRANCH  35  36
ENDBRANCH  33  35
ENDBRANCH  30  31
ENDBRANCH  29  30
ENDBRANCH   1  29
TORSDOF 19
ENDMDL
MODEL 7
REMARK minimizedAffinity -8.81643295
REMARK CNNscore 0.36153242
REMARK CNNaffinity 6.37867737
REMARK  19 active torsions:
REMARK  status: ('A' for Active; 'I' for Inactive)
REMARK    1  A    between atoms: C19_20  and  O2_21 
REMARK    2  A    between atoms: C19_20  and  C20_22 
REMARK    3  A    between atoms: C20_22  and  C21_24 
REMARK    4  A    between atoms: C21_24  and  O4_25 
REMARK    5  A    between atoms: O4_25  and  C22_26 
REMARK    6  A    between atoms: C22_26  and  C23_28 
REMARK    7  A    between atoms: C23_28  and  C24_29 
REMARK    8  A    between atoms: C24_29  and  C25_30 
REMARK       I    between atoms: C25_30  and  N1_32 
REMARK    9  A    between atoms: N1_32  and  C26_33 
REMARK   10  A    between atoms: C26_33  and  C27_34 
REMARK   11  A    between atoms: C27_34  and  C28_35 
REMARK   12  A    between atoms: C28_35  and  C29_36 
REMARK   13  A    between atoms: C29_36  and  C30_37 
REMARK   14  A    between atoms: C30_37  and  C31_38 
REMARK       I    between atoms: C31_38  and  N2_40 
REMARK   15  A    between atoms: N2_40  and  C32_41 
REMARK   16  A    between atoms: C32_41  and  C33_42 
REMARK   17  A    between atoms: C33_42  and  C34_43 
REMARK   18  A    between atoms: C37_46  and  O8_47 
REMARK   19  A    between atoms: C38_48  and  O9_49 
ROOT
HETATM    1  C22 UNL     1      -9.805  47.411 -17.847  1.00  0.00     0.259 C 
HETATM    2  O5  UNL     1      -9.833  47.092 -16.670  1.00  0.00    -0.265 OA
ENDROOT
BRANCH   1   3
HETATM    3  O4  UNL     1     -10.857  47.951 -18.530  1.00  0.00    -0.314 OA
BRANCH   3   4
HETATM    4  C21 UNL     1     -11.980  47.089 -18.655  1.00  0.00     0.260 C 
BRANCH   4   5
HETATM    5  C20 UNL     1     -13.184  47.279 -17.725  1.00  0.00     0.185 C 
HETATM    6  O3  UNL     1     -13.071  47.010 -16.523  1.00  0.00    -0.292 OA
BRANCH   5   7
HETATM    7  C19 UNL     1     -14.479  47.940 -18.300  1.00  0.00     0.128 C 
HETATM    8  C14 UNL     1     -15.457  46.918 -18.988  1.00  0.00    -0.002 C 
HETATM    9  C13 UNL     1     -16.876  47.527 -19.158  1.00  0.00     0.013 C 
HETATM   10  C15 UNL     1     -15.562  45.615 -18.175  1.00  0.00     0.019 C 
HETATM   11  C16 UNL     1     -14.806  46.708 -20.373  1.00  0.00     0.002 C 
HETATM   12  C12 UNL     1     -17.760  46.749 -20.129  1.00  0.00     0.007 C 
HETATM   13  C11 UNL     1     -17.141  46.620 -21.534  1.00  0.00     0.002 C 
HETATM   14  C2  UNL     1     -18.067  45.828 -22.563  1.00  0.00    -0.016 C 
HETATM   15  C10 UNL     1     -15.680  46.098 -21.491  1.00  0.00    -0.004 C 
HETATM   16  C1  UNL     1     -19.129  44.932 -21.879  1.00  0.00     0.020 C 
HETATM   17  C3  UNL     1     -18.801  46.899 -23.426  1.00  0.00     0.022 C 
HETATM   18  C7  UNL     1     -17.248  44.904 -23.468  1.00  0.00    -0.068 C 
HETATM   19  C4  UNL     1     -19.489  46.333 -24.659  1.00  0.00     0.084 C 
HETATM   20  C5  UNL     1     -18.509  45.550 -25.494  1.00  0.00     0.149 C 
HETATM   21  O1  UNL     1     -18.632  45.433 -26.711  1.00  0.00    -0.293 OA
HETATM   22  C6  UNL     1     -17.421  44.821 -24.800  1.00  0.00     0.053 C 
HETATM   23  C8  UNL     1     -16.215  44.017 -22.805  1.00  0.00     0.035 C 
HETATM   24  C9  UNL     1     -15.677  44.567 -21.482  1.00  0.00     0.010 C 
HETATM   25  C17 UNL     1     -14.308  48.119 -20.752  1.00  0.00     0.009 C 
HETATM   26  C18 UNL     1     -14.054  48.876 -19.447  1.00  0.00     0.047 C 
BRANCH   7  27
HETATM   27  O2  UNL     1     -15.173  48.723 -17.337  1.00  0.00    -0.381 OA
HETATM   28  H27 UNL     1     -15.605  48.125 -16.702  1.00  0.00     0.211 HD
ENDBRANCH   7  27
ENDBRANCH   5   7
ENDBRANCH   4   5
ENDBRANCH   3   4
ENDBRANCH   1   3
BRANCH   1  29
HETATM   29  C23 UNL     1      -8.609  47.275 -18.753  1.00  0.00     0.120 C 
BRANCH  29  30
HETATM   30  C24 UNL     1      -8.588  48.389 -19.790  1.00  0.00     0.112 C 
BRANCH  30  31
HETATM   31  C25 UNL     1      -7.273  49.146 -19.799  1.00  0.00     0.217 C 
HETATM   32  O6  UNL     1      -7.176  50.329 -20.102  1.00  0.00    -0.274 OA
HETATM   33  N1  UNL     1      -6.207  48.380 -19.372  1.00  0.00    -0.361 N 
HETATM   34  H34 UNL     1      -6.329  47.377 -19.321  1.00  0.00     0.162 HD
BRANCH  33  35
HETATM   35  C26 UNL     1      -4.852  48.892 -19.429  1.00  0.00     0.122 C 
BRANCH  35  36
HETATM   36  C27 UNL     1      -4.104  48.406 -20.668  1.00  0.00     0.020 C 
BRANCH  36  37
HETATM   37  C28 UNL     1      -4.982  48.212 -21.911  1.00  0.00     0.002 C 
BRANCH  37  38
HETATM   38  C29 UNL     1      -4.236  48.073 -23.245  1.00  0.00     0.009 C 
BRANCH  38  39
HETATM   39  C30 UNL     1      -5.053  48.460 -24.477  1.00  0.00     0.103 C 
BRANCH  39  40
HETATM   40  C31 UNL     1      -4.204  48.922 -25.648  1.00  0.00     0.217 C 
HETATM   41  O7  UNL     1      -3.847  48.189 -26.563  1.00  0.00    -0.274 OA
HETATM   42  N2  UNL     1      -3.846  50.251 -25.561  1.00  0.00    -0.361 N 
HETATM   43  H45 UNL     1      -4.335  50.840 -24.898  1.00  0.00     0.162 HD
BRANCH  42  44
HETATM   44  C32 UNL     1      -3.094  50.905 -26.615  1.00  0.00     0.127 C 
BRANCH  44  45
HETATM   45  C33 UNL     1      -1.585  50.647 -26.540  1.00  0.00     0.058 C 
BRANCH  45  46
HETATM   46  C34 UNL     1      -0.829  51.773 -25.869  1.00  0.00    -0.054 A 
HETATM   47  C35 UNL     1      -0.256  51.574 -24.601  1.00  0.00     0.010 A 
HETATM   48  C36 UNL     1       0.468  52.594 -23.980  1.00  0.00     0.040 A 
HETATM   49  C37 UNL     1       0.613  53.809 -24.628  1.00  0.00     0.098 A 
HETATM   50  C38 UNL     1       0.044  54.024 -25.881  1.00  0.00     0.099 A 
HETATM   51  C39 UNL     1      -0.675  53.013 -26.511  1.00  0.00     0.046 A 
BRANCH  49  52
HETATM   52  O8  UNL     1       1.322  54.807 -24.021  1.00  0.00    -0.358 OA
HETATM   53  H52 UNL     1       1.277  55.555 -24.650  1.00  0.00     0.217 HD
ENDBRANCH  49  52
BRANCH  50  54
HETATM   54  O9  UNL     1       0.223  55.250 -26.458  1.00  0.00    -0.358 OA
HETATM   55  H53 UNL     1      -0.265  55.263 -27.301  1.00  0.00     0.217 HD
ENDBRANCH  50  54
ENDBRANCH  45  46
ENDBRANCH  44  45
ENDBRANCH  42  44
ENDBRANCH  39  40
ENDBRANCH  38  39
ENDBRANCH  37  38
ENDBRANCH  36  37
ENDBRANCH  35  36
ENDBRANCH  33  35
ENDBRANCH  30  31
ENDBRANCH  29  30
ENDBRANCH   1  29
TORSDOF 19
ENDMDL
MODEL 8
REMARK minimizedAffinity -8.71914291
REMARK CNNscore 0.357622385
REMARK CNNaffinity 7.42778254
REMARK  19 active torsions:
REMARK  status: ('A' for Active; 'I' for Inactive)
REMARK    1  A    between atoms: C19_20  and  O2_21 
REMARK    2  A    between atoms: C19_20  and  C20_22 
REMARK    3  A    between atoms: C20_22  and  C21_24 
REMARK    4  A    between atoms: C21_24  and  O4_25 
REMARK    5  A    between atoms: O4_25  and  C22_26 
REMARK    6  A    between atoms: C22_26  and  C23_28 
REMARK    7  A    between atoms: C23_28  and  C24_29 
REMARK    8  A    between atoms: C24_29  and  C25_30 
REMARK       I    between atoms: C25_30  and  N1_32 
REMARK    9  A    between atoms: N1_32  and  C26_33 
REMARK   10  A    between atoms: C26_33  and  C27_34 
REMARK   11  A    between atoms: C27_34  and  C28_35 
REMARK   12  A    between atoms: C28_35  and  C29_36 
REMARK   13  A    between atoms: C29_36  and  C30_37 
REMARK   14  A    between atoms: C30_37  and  C31_38 
REMARK       I    between atoms: C31_38  and  N2_40 
REMARK   15  A    between atoms: N2_40  and  C32_41 
REMARK   16  A    between atoms: C32_41  and  C33_42 
REMARK   17  A    between atoms: C33_42  and  C34_43 
REMARK   18  A    between atoms: C37_46  and  O8_47 
REMARK   19  A    between atoms: C38_48  and  O9_49 
ROOT
HETATM    1  C22 UNL     1       1.048  53.446 -23.546  1.00  0.00     0.259 C 
HETATM    2  O5  UNL     1       1.112  54.664 -23.557  1.00  0.00    -0.265 OA
ENDROOT
BRANCH   1   3
HETATM    3  O4  UNL     1       1.022  52.661 -24.663  1.00  0.00    -0.314 OA
BRANCH   3   4
HETATM    4  C21 UNL     1      -0.106  52.869 -25.502  1.00  0.00     0.260 C 
BRANCH   4   5
HETATM    5  C20 UNL     1      -0.897  51.662 -26.018  1.00  0.00     0.185 C 
HETATM    6  O3  UNL     1      -0.294  50.624 -26.315  1.00  0.00    -0.292 OA
BRANCH   5   7
HETATM    7  C19 UNL     1      -2.458  51.734 -26.021  1.00  0.00     0.128 C 
HETATM    8  C14 UNL     1      -3.115  51.234 -24.682  1.00  0.00    -0.002 C 
HETATM    9  C13 UNL     1      -4.589  51.708 -24.569  1.00  0.00     0.013 C 
HETATM   10  C15 UNL     1      -2.329  51.735 -23.456  1.00  0.00     0.019 C 
HETATM   11  C16 UNL     1      -3.067  49.698 -24.836  1.00  0.00     0.002 C 
HETATM   12  C12 UNL     1      -5.386  50.969 -23.497  1.00  0.00     0.007 C 
HETATM   13  C11 UNL     1      -5.407  49.444 -23.708  1.00  0.00     0.002 C 
HETATM   14  C2  UNL     1      -6.256  48.663 -22.606  1.00  0.00    -0.016 C 
HETATM   15  C10 UNL     1      -3.986  48.857 -23.921  1.00  0.00    -0.004 C 
HETATM   16  C1  UNL     1      -6.469  49.471 -21.302  1.00  0.00     0.020 C 
HETATM   17  C3  UNL     1      -7.648  48.363 -23.238  1.00  0.00     0.022 C 
HETATM   18  C7  UNL     1      -5.580  47.353 -22.191  1.00  0.00    -0.068 C 
HETATM   19  C4  UNL     1      -8.480  47.361 -22.452  1.00  0.00     0.084 C 
HETATM   20  C5  UNL     1      -7.703  46.089 -22.236  1.00  0.00     0.149 C 
HETATM   21  O1  UNL     1      -8.255  44.997 -22.109  1.00  0.00    -0.293 OA
HETATM   22  C6  UNL     1      -6.234  46.183 -22.075  1.00  0.00     0.053 C 
HETATM   23  C8  UNL     1      -4.102  47.405 -21.866  1.00  0.00     0.035 C 
HETATM   24  C9  UNL     1      -3.348  48.538 -22.566  1.00  0.00     0.010 C 
HETATM   25  C17 UNL     1      -3.400  49.477 -26.326  1.00  0.00     0.009 C 
HETATM   26  C18 UNL     1      -2.969  50.738 -27.078  1.00  0.00     0.047 C 
BRANCH   7  27
HETATM   27  O2  UNL     1      -2.950  53.023 -26.366  1.00  0.00    -0.381 OA
HETATM   28  H27 UNL     1      -2.794  53.627 -25.619  1.00  0.00     0.211 HD
ENDBRANCH   7  27
ENDBRANCH   5   7
ENDBRANCH   4   5
ENDBRANCH   3   4
ENDBRANCH   1   3
BRANCH   1  29
HETATM   29  C23 UNL     1       0.995  52.592 -22.306  1.00  0.00     0.120 C 
BRANCH  29  30
HETATM   30  C24 UNL     1       0.728  53.445 -21.074  1.00  0.00     0.112 C 
BRANCH  30  31
HETATM   31  C25 UNL     1       0.659  52.620 -19.803  1.00  0.00     0.217 C 
HETATM   32  O6  UNL     1       0.023  51.578 -19.707  1.00  0.00    -0.274 OA
HETATM   33  N1  UNL     1       1.436  53.134 -18.784  1.00  0.00    -0.361 N 
HETATM   34  H34 UNL     1       1.776  54.083 -18.873  1.00  0.00     0.162 HD
BRANCH  33  35
HETATM   35  C26 UNL     1       1.402  52.553 -17.456  1.00  0.00     0.122 C 
BRANCH  35  36
HETATM   36  C27 UNL     1       0.116  51.770 -17.203  1.00  0.00     0.020 C 
BRANCH  36  37
HETATM   37  C28 UNL     1       0.318  50.408 -16.528  1.00  0.00     0.002 C 
BRANCH  37  38
HETATM   38  C29 UNL     1       0.615  50.441 -15.022  1.00  0.00     0.009 C 
BRANCH  38  39
HETATM   39  C30 UNL     1      -0.326  51.325 -14.204  1.00  0.00     0.103 C 
BRANCH  39  40
HETATM   40  C31 UNL     1       0.361  52.039 -13.054  1.00  0.00     0.217 C 
HETATM   41  O7  UNL     1       1.520  51.830 -12.714  1.00  0.00    -0.274 OA
HETATM   42  N2  UNL     1      -0.467  52.932 -12.405  1.00  0.00    -0.361 N 
HETATM   43  H45 UNL     1      -1.333  53.202 -12.855  1.00  0.00     0.162 HD
BRANCH  42  44
HETATM   44  C32 UNL     1       0.019  53.768 -11.323  1.00  0.00     0.127 C 
BRANCH  44  45
HETATM   45  C33 UNL     1       1.525  53.631 -11.074  1.00  0.00     0.058 C 
BRANCH  45  46
HETATM   46  C34 UNL     1       2.077  54.727 -10.189  1.00  0.00    -0.054 A 
HETATM   47  C35 UNL     1       3.238  55.419 -10.572  1.00  0.00     0.010 A 
HETATM   48  C36 UNL     1       3.745  56.452  -9.780  1.00  0.00     0.040 A 
HETATM   49  C37 UNL     1       3.089  56.786  -8.607  1.00  0.00     0.098 A 
HETATM   50  C38 UNL     1       1.941  56.104  -8.211  1.00  0.00     0.099 A 
HETATM   51  C39 UNL     1       1.425  55.077  -8.994  1.00  0.00     0.046 A 
BRANCH  49  52
HETATM   52  O8  UNL     1       3.583  57.796  -7.832  1.00  0.00    -0.358 OA
HETATM   53  H52 UNL     1       2.974  57.839  -7.069  1.00  0.00     0.217 HD
ENDBRANCH  49  52
BRANCH  50  54
HETATM   54  O9  UNL     1       1.350  56.484  -7.038  1.00  0.00    -0.358 OA
HETATM   55  H53 UNL     1       0.593  55.893  -6.874  1.00  0.00     0.217 HD
ENDBRANCH  50  54
ENDBRANCH  45  46
ENDBRANCH  44  45
ENDBRANCH  42  44
ENDBRANCH  39  40
ENDBRANCH  38  39
ENDBRANCH  37  38
ENDBRANCH  36  37
ENDBRANCH  35  36
ENDBRANCH  33  35
ENDBRANCH  30  31
ENDBRANCH  29  30
ENDBRANCH   1  29
TORSDOF 19
ENDMDL
MODEL 9
REMARK minimizedAffinity -8.52491188
REMARK CNNscore 0.353349686
REMARK CNNaffinity 6.79566526
REMARK  19 active torsions:
REMARK  status: ('A' for Active; 'I' for Inactive)
REMARK    1  A    between atoms: C19_20  and  O2_21 
REMARK    2  A    between atoms: C19_20  and  C20_22 
REMARK    3  A    between atoms: C20_22  and  C21_24 
REMARK    4  A    between atoms: C21_24  and  O4_25 
REMARK    5  A    between atoms: O4_25  and  C22_26 
REMARK    6  A    between atoms: C22_26  and  C23_28 
REMARK    7  A    between atoms: C23_28  and  C24_29 
REMARK    8  A    between atoms: C24_29  and  C25_30 
REMARK       I    between atoms: C25_30  and  N1_32 
REMARK    9  A    between atoms: N1_32  and  C26_33 
REMARK   10  A    between atoms: C26_33  and  C27_34 
REMARK   11  A    between atoms: C27_34  and  C28_35 
REMARK   12  A    between atoms: C28_35  and  C29_36 
REMARK   13  A    between atoms: C29_36  and  C30_37 
REMARK   14  A    between atoms: C30_37  and  C31_38 
REMARK       I    between atoms: C31_38  and  N2_40 
REMARK   15  A    between atoms: N2_40  and  C32_41 
REMARK   16  A    between atoms: C32_41  and  C33_42 
REMARK   17  A    between atoms: C33_42  and  C34_43 
REMARK   18  A    between atoms: C37_46  and  O8_47 
REMARK   19  A    between atoms: C38_48  and  O9_49 
ROOT
HETATM    1  C22 UNL     1      -2.124  51.281 -14.417  1.00  0.00     0.259 C 
HETATM    2  O5  UNL     1      -0.914  51.140 -14.351  1.00  0.00    -0.265 OA
ENDROOT
BRANCH   1   3
HETATM    3  O4  UNL     1      -2.896  50.874 -15.467  1.00  0.00    -0.314 OA
BRANCH   3   4
HETATM    4  C21 UNL     1      -2.621  49.557 -15.922  1.00  0.00     0.260 C 
BRANCH   4   5
HETATM    5  C20 UNL     1      -3.068  49.134 -17.327  1.00  0.00     0.185 C 
HETATM    6  O3  UNL     1      -4.275  49.079 -17.588  1.00  0.00    -0.292 OA
BRANCH   5   7
HETATM    7  C19 UNL     1      -1.978  48.922 -18.427  1.00  0.00     0.128 C 
HETATM    8  C14 UNL     1      -1.900  50.095 -19.473  1.00  0.00    -0.002 C 
HETATM    9  C13 UNL     1      -0.566  50.051 -20.266  1.00  0.00     0.013 C 
HETATM   10  C15 UNL     1      -2.032  51.464 -18.782  1.00  0.00     0.019 C 
HETATM   11  C16 UNL     1      -3.084  49.785 -20.416  1.00  0.00     0.002 C 
HETATM   12  C12 UNL     1      -0.577  50.916 -21.524  1.00  0.00     0.007 C 
HETATM   13  C11 UNL     1      -1.708  50.541 -22.500  1.00  0.00     0.002 C 
HETATM   14  C2  UNL     1      -1.715  51.424 -23.829  1.00  0.00    -0.016 C 
HETATM   15  C10 UNL     1      -3.092  50.467 -21.802  1.00  0.00    -0.004 C 
HETATM   16  C1  UNL     1      -0.954  52.765 -23.686  1.00  0.00     0.020 C 
HETATM   17  C3  UNL     1      -1.024  50.575 -24.939  1.00  0.00     0.022 C 
HETATM   18  C7  UNL     1      -3.139  51.786 -24.262  1.00  0.00    -0.068 C 
HETATM   19  C4  UNL     1      -1.212  51.125 -26.344  1.00  0.00     0.084 C 
HETATM   20  C5  UNL     1      -2.677  51.310 -26.644  1.00  0.00     0.149 C 
HETATM   21  O1  UNL     1      -3.127  51.241 -27.786  1.00  0.00    -0.293 OA
HETATM   22  C6  UNL     1      -3.580  51.684 -25.530  1.00  0.00     0.053 C 
HETATM   23  C8  UNL     1      -4.076  52.318 -23.199  1.00  0.00     0.035 C 
HETATM   24  C9  UNL     1      -3.737  51.855 -21.780  1.00  0.00     0.010 C 
HETATM   25  C17 UNL     1      -3.047  48.248 -20.543  1.00  0.00     0.009 C 
HETATM   26  C18 UNL     1      -2.398  47.702 -19.270  1.00  0.00     0.047 C 
BRANCH   7  27
HETATM   27  O2  UNL     1      -0.692  48.651 -17.885  1.00  0.00    -0.381 OA
HETATM   28  H27 UNL     1      -0.334  49.473 -17.506  1.00  0.00     0.211 HD
ENDBRANCH   7  27
ENDBRANCH   5   7
ENDBRANCH   4   5
ENDBRANCH   3   4
ENDBRANCH   1   3
BRANCH   1  29
HETATM   29  C23 UNL     1      -2.981  51.919 -13.355  1.00  0.00     0.120 C 
BRANCH  29  30
HETATM   30  C24 UNL     1      -2.706  51.296 -11.993  1.00  0.00     0.112 C 
BRANCH  30  31
HETATM   31  C25 UNL     1      -2.499  52.339 -10.911  1.00  0.00     0.217 C 
HETATM   32  O6  UNL     1      -2.635  52.108  -9.716  1.00  0.00    -0.274 OA
HETATM   33  N1  UNL     1      -2.084  53.558 -11.408  1.00  0.00    -0.361 N 
HETATM   34  H34 UNL     1      -2.176  53.725 -12.402  1.00  0.00     0.162 HD
BRANCH  33  35
HETATM   35  C26 UNL     1      -1.952  54.711 -10.540  1.00  0.00     0.122 C 
BRANCH  35  36
HETATM   36  C27 UNL     1      -0.498  54.985 -10.164  1.00  0.00     0.020 C 
BRANCH  36  37
HETATM   37  C28 UNL     1      -0.290  55.475  -8.726  1.00  0.00     0.002 C 
BRANCH  37  38
HETATM   38  C29 UNL     1      -0.425  54.413  -7.627  1.00  0.00     0.009 C 
BRANCH  38  39
HETATM   39  C30 UNL     1      -0.177  54.925  -6.209  1.00  0.00     0.103 C 
BRANCH  39  40
HETATM   40  C31 UNL     1       1.226  55.464  -5.995  1.00  0.00     0.217 C 
HETATM   41  O7  UNL     1       2.168  54.782  -5.606  1.00  0.00    -0.274 OA
HETATM   42  N2  UNL     1       1.328  56.814  -6.257  1.00  0.00    -0.361 N 
HETATM   43  H45 UNL     1       0.576  57.266  -6.762  1.00  0.00     0.162 HD
BRANCH  42  44
HETATM   44  C32 UNL     1       2.601  57.507  -6.182  1.00  0.00     0.127 C 
BRANCH  44  45
HETATM   45  C33 UNL     1       3.188  57.857  -7.554  1.00  0.00     0.058 C 
BRANCH  45  46
HETATM   46  C34 UNL     1       4.293  56.914  -7.979  1.00  0.00    -0.054 A 
HETATM   47  C35 UNL     1       4.184  56.207  -9.188  1.00  0.00     0.010 A 
HETATM   48  C36 UNL     1       5.207  55.354  -9.608  1.00  0.00     0.040 A 
HETATM   49  C37 UNL     1       6.334  55.211  -8.815  1.00  0.00     0.098 A 
HETATM   50  C38 UNL     1       6.452  55.900  -7.611  1.00  0.00     0.099 A 
HETATM   51  C39 UNL     1       5.441  56.755  -7.185  1.00  0.00     0.046 A 
BRANCH  49  52
HETATM   52  O8  UNL     1       7.335  54.378  -9.225  1.00  0.00    -0.358 OA
HETATM   53  H52 UNL     1       8.003  54.430  -8.513  1.00  0.00     0.217 HD
ENDBRANCH  49  52
BRANCH  50  54
HETATM   54  O9  UNL     1       7.589  55.705  -6.877  1.00  0.00    -0.358 OA
HETATM   55  H53 UNL     1       7.508  56.213  -6.050  1.00  0.00     0.217 HD
ENDBRANCH  50  54
ENDBRANCH  45  46
ENDBRANCH  44  45
ENDBRANCH  42  44
ENDBRANCH  39  40
ENDBRANCH  38  39
ENDBRANCH  37  38
ENDBRANCH  36  37
ENDBRANCH  35  36
ENDBRANCH  33  35
ENDBRANCH  30  31
ENDBRANCH  29  30
ENDBRANCH   1  29
TORSDOF 19
ENDMDL
