MODEL 1
REMARK minimizedAffinity -7.42085075
REMARK CNNscore 0.746579051
REMARK CNNaffinity 6.88188124
REMARK  4 active torsions:
REMARK  status: ('A' for Active; 'I' for Inactive)
REMARK    1  A    between atoms: C4_4  and  C5_5 
REMARK    2  A    between atoms: C5_5  and  C6_7 
REMARK    3  A    between atoms: C6_7  and  C7_8 
REMARK    4  A    between atoms: C7_8  and  C9_10 
ROOT
HETATM    1  C9  UNL     1       3.585  52.364 -10.862  1.00  0.00    -0.002 C 
HETATM    2  C10 UNL     1       2.248  53.080 -11.229  1.00  0.00     0.006 C 
HETATM    3  C11 UNL     1       2.125  54.322 -10.321  1.00  0.00     0.011 C 
HETATM    4  C12 UNL     1       3.530  54.508  -9.720  1.00  0.00    -0.032 C 
HETATM    5  C13 UNL     1       4.366  55.248 -10.822  1.00  0.00     0.016 C 
HETATM    6  C14 UNL     1       3.561  55.300  -8.364  1.00  0.00     0.004 C 
HETATM    7  C15 UNL     1       3.595  56.833  -8.556  1.00  0.00     0.007 C 
HETATM    8  C16 UNL     1       3.543  57.654  -7.262  1.00  0.00     0.007 C 
HETATM    9  C17 UNL     1       3.931  56.886  -5.986  1.00  0.00     0.010 C 
HETATM   10  C18 UNL     1       4.295  57.797  -4.775  1.00  0.00     0.018 C 
HETATM   11  C19 UNL     1       3.283  58.949  -4.616  1.00  0.00     0.023 C 
HETATM   12  C20 UNL     1       4.285  56.986  -3.463  1.00  0.00     0.023 C 
HETATM   13  C21 UNL     1       5.696  58.391  -4.952  1.00  0.00     0.135 C 
HETATM   14  O2  UNL     1       6.058  59.396  -4.333  1.00  0.00    -0.297 OA
HETATM   15  C22 UNL     1       6.636  57.727  -5.930  1.00  0.00     0.080 C 
HETATM   16  C23 UNL     1       6.436  56.224  -5.930  1.00  0.00     0.018 C 
HETATM   17  C24 UNL     1       5.016  55.838  -6.294  1.00  0.00    -0.026 A 
HETATM   18  C25 UNL     1       4.578  54.416  -6.056  1.00  0.00     0.021 A 
HETATM   19  C26 UNL     1       4.767  54.884  -7.487  1.00  0.00    -0.027 A 
HETATM   20  C27 UNL     1       5.898  54.179  -8.223  1.00  0.00     0.011 C 
HETATM   21  C28 UNL     1       5.441  52.984  -9.089  1.00  0.00     0.011 C 
HETATM   22  C29 UNL     1       3.952  53.004  -9.486  1.00  0.00    -0.032 C 
HETATM   23  C30 UNL     1       3.128  52.300  -8.374  1.00  0.00     0.016 C 
ENDROOT
BRANCH   1  24
HETATM   24  C7  UNL     1       3.564  50.834 -11.159  1.00  0.00    -0.007 C 
HETATM   25  C8  UNL     1       4.775  49.997 -10.736  1.00  0.00     0.011 C 
BRANCH  24  26
HETATM   26  C6  UNL     1       3.013  50.465 -12.556  1.00  0.00     0.087 C 
BRANCH  26  27
HETATM   27  C5  UNL     1       3.989  50.354 -13.717  1.00  0.00     0.149 C 
HETATM   28  O1  UNL     1       4.762  49.408 -13.854  1.00  0.00    -0.293 OA
BRANCH  27  29
HETATM   29  C4  UNL     1       4.042  51.429 -14.753  1.00  0.00     0.052 C 
HETATM   30  C2  UNL     1       3.075  51.923 -15.550  1.00  0.00    -0.084 C 
HETATM   31  C1  UNL     1       3.389  53.066 -16.483  1.00  0.00     0.043 C 
HETATM   32  C3  UNL     1       1.665  51.418 -15.658  1.00  0.00     0.043 C 
ENDBRANCH  27  29
ENDBRANCH  26  27
ENDBRANCH  24  26
ENDBRANCH   1  24
TORSDOF 4
ENDMDL
MODEL 2
REMARK minimizedAffinity -7.82562351
REMARK CNNscore 0.610609531
REMARK CNNaffinity 6.49962664
REMARK  4 active torsions:
REMARK  status: ('A' for Active; 'I' for Inactive)
REMARK    1  A    between atoms: C4_4  and  C5_5 
REMARK    2  A    between atoms: C5_5  and  C6_7 
REMARK    3  A    between atoms: C6_7  and  C7_8 
REMARK    4  A    between atoms: C7_8  and  C9_10 
ROOT
HETATM    1  C9  UNL     1       6.092  55.801  -7.972  1.00  0.00    -0.002 C 
HETATM    2  C10 UNL     1       6.717  54.585  -8.724  1.00  0.00     0.006 C 
HETATM    3  C11 UNL     1       5.558  53.798  -9.372  1.00  0.00     0.011 C 
HETATM    4  C12 UNL     1       4.350  54.751  -9.301  1.00  0.00    -0.032 C 
HETATM    5  C13 UNL     1       4.517  55.736 -10.509  1.00  0.00     0.016 C 
HETATM    6  C14 UNL     1       2.951  54.036  -9.345  1.00  0.00     0.004 C 
HETATM    7  C15 UNL     1       2.460  53.751 -10.782  1.00  0.00     0.007 C 
HETATM    8  C16 UNL     1       1.138  52.981 -10.879  1.00  0.00     0.007 C 
HETATM    9  C17 UNL     1       0.271  53.012  -9.608  1.00  0.00     0.010 C 
HETATM   10  C18 UNL     1      -1.220  52.619  -9.839  1.00  0.00     0.018 C 
HETATM   11  C19 UNL     1      -1.337  51.370 -10.735  1.00  0.00     0.023 C 
HETATM   12  C20 UNL     1      -1.910  52.297  -8.498  1.00  0.00     0.023 C 
HETATM   13  C21 UNL     1      -1.984  53.772 -10.498  1.00  0.00     0.135 C 
HETATM   14  O2  UNL     1      -3.048  53.588 -11.095  1.00  0.00    -0.297 OA
HETATM   15  C22 UNL     1      -1.391  55.159 -10.421  1.00  0.00     0.080 C 
HETATM   16  C23 UNL     1      -0.683  55.367  -9.096  1.00  0.00     0.018 C 
HETATM   17  C24 UNL     1       0.428  54.359  -8.879  1.00  0.00    -0.026 A 
HETATM   18  C25 UNL     1       1.028  54.242  -7.502  1.00  0.00     0.021 A 
HETATM   19  C26 UNL     1       1.867  54.858  -8.606  1.00  0.00    -0.027 A 
HETATM   20  C27 UNL     1       2.198  56.327  -8.384  1.00  0.00     0.011 C 
HETATM   21  C28 UNL     1       3.578  56.574  -7.734  1.00  0.00     0.011 C 
HETATM   22  C29 UNL     1       4.582  55.414  -7.886  1.00  0.00    -0.032 C 
HETATM   23  C30 UNL     1       4.387  54.426  -6.704  1.00  0.00     0.016 C 
ENDROOT
BRANCH   1  24
HETATM   24  C7  UNL     1       6.958  56.292  -6.772  1.00  0.00    -0.007 C 
HETATM   25  C8  UNL     1       7.705  55.247  -5.939  1.00  0.00     0.011 C 
BRANCH  24  26
HETATM   26  C6  UNL     1       6.294  57.402  -5.922  1.00  0.00     0.087 C 
BRANCH  26  27
HETATM   27  C5  UNL     1       7.182  58.297  -5.074  1.00  0.00     0.149 C 
HETATM   28  O1  UNL     1       6.764  59.294  -4.487  1.00  0.00    -0.293 OA
BRANCH  27  29
HETATM   29  C4  UNL     1       8.637  57.986  -4.929  1.00  0.00     0.052 C 
HETATM   30  C2  UNL     1       9.713  58.793  -4.993  1.00  0.00    -0.084 C 
HETATM   31  C1  UNL     1      11.088  58.222  -4.749  1.00  0.00     0.043 C 
HETATM   32  C3  UNL     1       9.713  60.255  -5.337  1.00  0.00     0.043 C 
ENDBRANCH  27  29
ENDBRANCH  26  27
ENDBRANCH  24  26
ENDBRANCH   1  24
TORSDOF 4
ENDMDL
MODEL 3
REMARK minimizedAffinity -7.6473403
REMARK CNNscore 0.599087238
REMARK CNNaffinity 6.83131266
REMARK  4 active torsions:
REMARK  status: ('A' for Active; 'I' for Inactive)
REMARK    1  A    between atoms: C4_4  and  C5_5 
REMARK    2  A    between atoms: C5_5  and  C6_7 
REMARK    3  A    between atoms: C6_7  and  C7_8 
REMARK    4  A    between atoms: C7_8  and  C9_10 
ROOT
HETATM    1  C9  UNL     1       4.595  54.585  -9.267  1.00  0.00    -0.002 C 
HETATM    2  C10 UNL     1       4.266  55.987  -9.868  1.00  0.00     0.006 C 
HETATM    3  C11 UNL     1       2.784  55.968 -10.299  1.00  0.00     0.011 C 
HETATM    4  C12 UNL     1       2.194  54.719  -9.619  1.00  0.00    -0.032 C 
HETATM    5  C13 UNL     1       1.885  55.149  -8.143  1.00  0.00     0.016 C 
HETATM    6  C14 UNL     1       0.912  54.140 -10.317  1.00  0.00     0.004 C 
HETATM    7  C15 UNL     1      -0.393  54.830  -9.861  1.00  0.00     0.007 C 
HETATM    8  C16 UNL     1      -1.665  54.357 -10.574  1.00  0.00     0.007 C 
HETATM    9  C17 UNL     1      -1.552  52.988 -11.270  1.00  0.00     0.010 C 
HETATM   10  C18 UNL     1      -2.922  52.325 -11.606  1.00  0.00     0.018 C 
HETATM   11  C19 UNL     1      -3.902  53.343 -12.221  1.00  0.00     0.023 C 
HETATM   12  C20 UNL     1      -2.736  51.183 -12.625  1.00  0.00     0.023 C 
HETATM   13  C21 UNL     1      -3.555  51.732 -10.343  1.00  0.00     0.135 C 
HETATM   14  O2  UNL     1      -4.762  51.483 -10.277  1.00  0.00    -0.297 OA
HETATM   15  C22 UNL     1      -2.665  51.471  -9.151  1.00  0.00     0.080 C 
HETATM   16  C23 UNL     1      -1.286  51.026  -9.599  1.00  0.00     0.018 C 
HETATM   17  C24 UNL     1      -0.613  52.058 -10.483  1.00  0.00    -0.026 A 
HETATM   18  C25 UNL     1       0.623  51.650 -11.243  1.00  0.00     0.021 A 
HETATM   19  C26 UNL     1       0.774  52.616 -10.083  1.00  0.00    -0.027 A 
HETATM   20  C27 UNL     1       1.577  52.058  -8.916  1.00  0.00     0.011 C 
HETATM   21  C28 UNL     1       3.070  52.455  -8.929  1.00  0.00     0.011 C 
HETATM   22  C29 UNL     1       3.400  53.710  -9.762  1.00  0.00    -0.032 C 
HETATM   23  C30 UNL     1       3.672  53.279 -11.229  1.00  0.00     0.016 C 
ENDROOT
BRANCH   1  24
HETATM   24  C7  UNL     1       6.099  54.198  -9.396  1.00  0.00    -0.007 C 
HETATM   25  C8  UNL     1       6.474  52.714  -9.338  1.00  0.00     0.011 C 
BRANCH  24  26
HETATM   26  C6  UNL     1       7.061  55.111  -8.599  1.00  0.00     0.087 C 
BRANCH  26  27
HETATM   27  C5  UNL     1       6.974  55.111  -7.082  1.00  0.00     0.149 C 
HETATM   28  O1  UNL     1       6.761  54.094  -6.423  1.00  0.00    -0.293 OA
BRANCH  27  29
HETATM   29  C4  UNL     1       7.145  56.387  -6.323  1.00  0.00     0.052 C 
HETATM   30  C2  UNL     1       6.264  57.370  -6.058  1.00  0.00    -0.084 C 
HETATM   31  C1  UNL     1       6.688  58.541  -5.206  1.00  0.00     0.043 C 
HETATM   32  C3  UNL     1       4.856  57.468  -6.571  1.00  0.00     0.043 C 
ENDBRANCH  27  29
ENDBRANCH  26  27
ENDBRANCH  24  26
ENDBRANCH   1  24
TORSDOF 4
ENDMDL
MODEL 4
REMARK minimizedAffinity -7.31807327
REMARK CNNscore 0.439136982
REMARK CNNaffinity 6.51358223
REMARK  4 active torsions:
REMARK  status: ('A' for Active; 'I' for Inactive)
REMARK    1  A    between atoms: C4_4  and  C5_5 
REMARK    2  A    between atoms: C5_5  and  C6_7 
REMARK    3  A    between atoms: C6_7  and  C7_8 
REMARK    4  A    between atoms: C7_8  and  C9_10 
ROOT
HETATM    1  C9  UNL     1       0.410  55.059  -8.537  1.00  0.00    -0.002 C 
HETATM    2  C10 UNL     1      -0.746  56.005  -8.988  1.00  0.00     0.006 C 
HETATM    3  C11 UNL     1      -1.456  55.332 -10.181  1.00  0.00     0.011 C 
HETATM    4  C12 UNL     1      -0.952  53.877 -10.166  1.00  0.00    -0.032 C 
HETATM    5  C13 UNL     1      -1.817  53.143  -9.083  1.00  0.00     0.016 C 
HETATM    6  C14 UNL     1      -1.041  53.141 -11.551  1.00  0.00     0.004 C 
HETATM    7  C15 UNL     1      -2.426  52.510 -11.817  1.00  0.00     0.007 C 
HETATM    8  C16 UNL     1      -2.590  51.850 -13.191  1.00  0.00     0.007 C 
HETATM    9  C17 UNL     1      -1.273  51.495 -13.905  1.00  0.00     0.010 C 
HETATM   10  C18 UNL     1      -1.430  50.460 -15.060  1.00  0.00     0.018 C 
HETATM   11  C19 UNL     1      -2.640  50.797 -15.954  1.00  0.00     0.023 C 
HETATM   12  C20 UNL     1      -0.176  50.456 -15.958  1.00  0.00     0.023 C 
HETATM   13  C21 UNL     1      -1.611  49.047 -14.496  1.00  0.00     0.135 C 
HETATM   14  O2  UNL     1      -2.101  48.137 -15.169  1.00  0.00    -0.297 OA
HETATM   15  C22 UNL     1      -1.190  48.788 -13.068  1.00  0.00     0.080 C 
HETATM   16  C23 UNL     1       0.040  49.603 -12.715  1.00  0.00     0.018 C 
HETATM   17  C24 UNL     1      -0.196  51.092 -12.882  1.00  0.00    -0.026 A 
HETATM   18  C25 UNL     1       0.998  52.011 -12.857  1.00  0.00     0.021 A 
HETATM   19  C26 UNL     1       0.038  52.040 -11.682  1.00  0.00    -0.027 A 
HETATM   20  C27 UNL     1       0.654  51.567 -10.372  1.00  0.00     0.011 C 
HETATM   21  C28 UNL     1       1.174  52.709  -9.470  1.00  0.00     0.011 C 
HETATM   22  C29 UNL     1       0.557  54.092  -9.755  1.00  0.00    -0.032 C 
HETATM   23  C30 UNL     1       1.399  54.799 -10.852  1.00  0.00     0.016 C 
ENDROOT
BRANCH   1  24
HETATM   24  C7  UNL     1       1.588  55.811  -7.847  1.00  0.00    -0.007 C 
HETATM   25  C8  UNL     1       1.258  57.003  -6.944  1.00  0.00     0.011 C 
BRANCH  24  26
HETATM   26  C6  UNL     1       2.814  56.046  -8.760  1.00  0.00     0.087 C 
BRANCH  26  27
HETATM   27  C5  UNL     1       3.927  56.955  -8.263  1.00  0.00     0.149 C 
HETATM   28  O1  UNL     1       3.904  58.177  -8.398  1.00  0.00    -0.293 OA
BRANCH  27  29
HETATM   29  C4  UNL     1       5.120  56.370  -7.580  1.00  0.00     0.052 C 
HETATM   30  C2  UNL     1       6.120  55.611  -8.066  1.00  0.00    -0.084 C 
HETATM   31  C1  UNL     1       7.251  55.196  -7.158  1.00  0.00     0.043 C 
HETATM   32  C3  UNL     1       6.228  55.064  -9.461  1.00  0.00     0.043 C 
ENDBRANCH  27  29
ENDBRANCH  26  27
ENDBRANCH  24  26
ENDBRANCH   1  24
TORSDOF 4
ENDMDL
MODEL 5
REMARK minimizedAffinity -7.47804451
REMARK CNNscore 0.424907863
REMARK CNNaffinity 6.51597738
REMARK  4 active torsions:
REMARK  status: ('A' for Active; 'I' for Inactive)
REMARK    1  A    between atoms: C4_4  and  C5_5 
REMARK    2  A    between atoms: C5_5  and  C6_7 
REMARK    3  A    between atoms: C6_7  and  C7_8 
REMARK    4  A    between atoms: C7_8  and  C9_10 
ROOT
HETATM    1  C9  UNL     1       2.935  55.621  -6.966  1.00  0.00    -0.002 C 
HETATM    2  C10 UNL     1       2.404  54.961  -5.655  1.00  0.00     0.006 C 
HETATM    3  C11 UNL     1       1.252  54.013  -6.050  1.00  0.00     0.011 C 
HETATM    4  C12 UNL     1       1.376  53.860  -7.577  1.00  0.00    -0.032 C 
HETATM    5  C13 UNL     1       2.497  52.787  -7.803  1.00  0.00     0.016 C 
HETATM    6  C14 UNL     1       0.046  53.446  -8.302  1.00  0.00     0.004 C 
HETATM    7  C15 UNL     1      -0.192  51.920  -8.311  1.00  0.00     0.007 C 
HETATM    8  C16 UNL     1      -1.519  51.470  -8.935  1.00  0.00     0.007 C 
HETATM    9  C17 UNL     1      -2.188  52.503  -9.859  1.00  0.00     0.010 C 
HETATM   10  C18 UNL     1      -3.269  51.906 -10.810  1.00  0.00     0.018 C 
HETATM   11  C19 UNL     1      -4.200  50.933 -10.060  1.00  0.00     0.023 C 
HETATM   12  C20 UNL     1      -4.148  53.026 -11.402  1.00  0.00     0.023 C 
HETATM   13  C21 UNL     1      -2.609  51.160 -11.973  1.00  0.00     0.135 C 
HETATM   14  O2  UNL     1      -3.223  50.320 -12.638  1.00  0.00    -0.297 OA
HETATM   15  C22 UNL     1      -1.161  51.458 -12.285  1.00  0.00     0.080 C 
HETATM   16  C23 UNL     1      -0.851  52.922 -12.039  1.00  0.00     0.018 C 
HETATM   17  C24 UNL     1      -1.126  53.330 -10.605  1.00  0.00    -0.026 A 
HETATM   18  C25 UNL     1      -1.150  54.799 -10.272  1.00  0.00     0.021 A 
HETATM   19  C26 UNL     1       0.008  53.961  -9.761  1.00  0.00    -0.027 A 
HETATM   20  C27 UNL     1       1.356  54.345 -10.355  1.00  0.00     0.011 C 
HETATM   21  C28 UNL     1       2.182  55.312  -9.478  1.00  0.00     0.011 C 
HETATM   22  C29 UNL     1       1.791  55.328  -7.987  1.00  0.00    -0.032 C 
HETATM   23  C30 UNL     1       0.658  56.369  -7.778  1.00  0.00     0.016 C 
ENDROOT
BRANCH   1  24
HETATM   24  C7  UNL     1       3.587  57.017  -6.731  1.00  0.00    -0.007 C 
HETATM   25  C8  UNL     1       2.685  58.254  -6.766  1.00  0.00     0.011 C 
BRANCH  24  26
HETATM   26  C6  UNL     1       4.940  57.217  -7.455  1.00  0.00     0.087 C 
BRANCH  26  27
HETATM   27  C5  UNL     1       6.142  56.416  -6.981  1.00  0.00     0.149 C 
HETATM   28  O1  UNL     1       6.953  56.846  -6.162  1.00  0.00    -0.293 OA
BRANCH  27  29
HETATM   29  C4  UNL     1       6.384  55.043  -7.518  1.00  0.00     0.052 C 
HETATM   30  C2  UNL     1       6.294  54.569  -8.776  1.00  0.00    -0.084 C 
HETATM   31  C1  UNL     1       6.655  53.131  -9.058  1.00  0.00     0.043 C 
HETATM   32  C3  UNL     1       5.812  55.323  -9.981  1.00  0.00     0.043 C 
ENDBRANCH  27  29
ENDBRANCH  26  27
ENDBRANCH  24  26
ENDBRANCH   1  24
TORSDOF 4
ENDMDL
MODEL 6
REMARK minimizedAffinity -7.09055662
REMARK CNNscore 0.40375185
REMARK CNNaffinity 5.96737909
REMARK  4 active torsions:
REMARK  status: ('A' for Active; 'I' for Inactive)
REMARK    1  A    between atoms: C4_4  and  C5_5 
REMARK    2  A    between atoms: C5_5  and  C6_7 
REMARK    3  A    between atoms: C6_7  and  C7_8 
REMARK    4  A    between atoms: C7_8  and  C9_10 
ROOT
HETATM    1  C9  UNL     1       2.744  55.349  -8.448  1.00  0.00    -0.002 C 
HETATM    2  C10 UNL     1       3.717  55.143  -9.650  1.00  0.00     0.006 C 
HETATM    3  C11 UNL     1       5.148  55.409  -9.136  1.00  0.00     0.011 C 
HETATM    4  C12 UNL     1       5.021  55.400  -7.602  1.00  0.00    -0.032 C 
HETATM    5  C13 UNL     1       5.024  53.887  -7.188  1.00  0.00     0.016 C 
HETATM    6  C14 UNL     1       6.149  56.192  -6.849  1.00  0.00     0.004 C 
HETATM    7  C15 UNL     1       7.424  55.353  -6.607  1.00  0.00     0.007 C 
HETATM    8  C16 UNL     1       8.585  56.106  -5.948  1.00  0.00     0.007 C 
HETATM    9  C17 UNL     1       8.190  57.399  -5.211  1.00  0.00     0.010 C 
HETATM   10  C18 UNL     1       9.260  57.913  -4.201  1.00  0.00     0.018 C 
HETATM   11  C19 UNL     1      10.676  57.861  -4.809  1.00  0.00     0.023 C 
HETATM   12  C20 UNL     1       8.976  59.377  -3.809  1.00  0.00     0.023 C 
HETATM   13  C21 UNL     1       9.241  57.070  -2.922  1.00  0.00     0.135 C 
HETATM   14  O2  UNL     1      10.201  57.044  -2.147  1.00  0.00    -0.297 OA
HETATM   15  C22 UNL     1       8.013  56.240  -2.630  1.00  0.00     0.080 C 
HETATM   16  C23 UNL     1       6.759  56.956  -3.096  1.00  0.00     0.018 C 
HETATM   17  C24 UNL     1       6.793  57.256  -4.581  1.00  0.00    -0.026 A 
HETATM   18  C25 UNL     1       5.770  58.211  -5.140  1.00  0.00     0.021 A 
HETATM   19  C26 UNL     1       5.651  56.739  -5.489  1.00  0.00    -0.027 A 
HETATM   20  C27 UNL     1       4.400  56.073  -4.934  1.00  0.00     0.011 C 
HETATM   21  C28 UNL     1       3.224  56.002  -5.934  1.00  0.00     0.011 C 
HETATM   22  C29 UNL     1       3.628  56.120  -7.418  1.00  0.00    -0.032 C 
HETATM   23  C30 UNL     1       3.655  57.622  -7.811  1.00  0.00     0.016 C 
ENDROOT
BRANCH   1  24
HETATM   24  C7  UNL     1       1.308  55.770  -8.884  1.00  0.00    -0.007 C 
HETATM   25  C8  UNL     1       0.285  56.100  -7.793  1.00  0.00     0.011 C 
BRANCH  24  26
HETATM   26  C6  UNL     1       0.725  54.930 -10.046  1.00  0.00     0.087 C 
BRANCH  26  27
HETATM   27  C5  UNL     1      -0.783  54.765 -10.138  1.00  0.00     0.149 C 
HETATM   28  O1  UNL     1      -1.536  55.668 -10.498  1.00  0.00    -0.293 OA
BRANCH  27  29
HETATM   29  C4  UNL     1      -1.415  53.459  -9.778  1.00  0.00     0.052 C 
HETATM   30  C2  UNL     1      -2.665  53.007  -9.989  1.00  0.00    -0.084 C 
HETATM   31  C1  UNL     1      -3.032  51.604  -9.569  1.00  0.00     0.043 C 
HETATM   32  C3  UNL     1      -3.807  53.782 -10.581  1.00  0.00     0.043 C 
ENDBRANCH  27  29
ENDBRANCH  26  27
ENDBRANCH  24  26
ENDBRANCH   1  24
TORSDOF 4
ENDMDL
MODEL 7
REMARK minimizedAffinity -8.37776756
REMARK CNNscore 0.340741932
REMARK CNNaffinity 6.72508001
REMARK  4 active torsions:
REMARK  status: ('A' for Active; 'I' for Inactive)
REMARK    1  A    between atoms: C4_4  and  C5_5 
REMARK    2  A    between atoms: C5_5  and  C6_7 
REMARK    3  A    between atoms: C6_7  and  C7_8 
REMARK    4  A    between atoms: C7_8  and  C9_10 
ROOT
HETATM    1  C9  UNL     1      -3.500  50.507 -24.890  1.00  0.00    -0.002 C 
HETATM    2  C10 UNL     1      -4.553  51.620 -24.597  1.00  0.00     0.006 C 
HETATM    3  C11 UNL     1      -5.220  51.281 -23.247  1.00  0.00     0.011 C 
HETATM    4  C12 UNL     1      -4.308  50.212 -22.617  1.00  0.00    -0.032 C 
HETATM    5  C13 UNL     1      -3.119  51.001 -21.968  1.00  0.00     0.016 C 
HETATM    6  C14 UNL     1      -5.016  49.290 -21.560  1.00  0.00     0.004 C 
HETATM    7  C15 UNL     1      -5.041  49.901 -20.141  1.00  0.00     0.007 C 
HETATM    8  C16 UNL     1      -5.794  49.078 -19.089  1.00  0.00     0.007 C 
HETATM    9  C17 UNL     1      -6.001  47.595 -19.448  1.00  0.00     0.010 C 
HETATM   10  C18 UNL     1      -6.360  46.686 -18.234  1.00  0.00     0.018 C 
HETATM   11  C19 UNL     1      -7.428  47.344 -17.338  1.00  0.00     0.023 C 
HETATM   12  C20 UNL     1      -6.927  45.335 -18.717  1.00  0.00     0.023 C 
HETATM   13  C21 UNL     1      -5.114  46.400 -17.390  1.00  0.00     0.135 C 
HETATM   14  O2  UNL     1      -5.197  46.021 -16.218  1.00  0.00    -0.297 OA
HETATM   15  C22 UNL     1      -3.759  46.615 -18.020  1.00  0.00     0.080 C 
HETATM   16  C23 UNL     1      -3.787  46.248 -19.492  1.00  0.00     0.018 C 
HETATM   17  C24 UNL     1      -4.808  47.064 -20.262  1.00  0.00    -0.026 A 
HETATM   18  C25 UNL     1      -5.166  46.624 -21.658  1.00  0.00     0.021 A 
HETATM   19  C26 UNL     1      -4.353  47.894 -21.486  1.00  0.00    -0.027 A 
HETATM   20  C27 UNL     1      -2.945  47.807 -22.059  1.00  0.00     0.011 C 
HETATM   21  C28 UNL     1      -2.806  48.379 -23.487  1.00  0.00     0.011 C 
HETATM   22  C29 UNL     1      -3.910  49.374 -23.896  1.00  0.00    -0.032 C 
HETATM   23  C30 UNL     1      -5.098  48.582 -24.507  1.00  0.00     0.016 C 
ENDROOT
BRANCH   1  24
HETATM   24  C7  UNL     1      -3.226  50.304 -26.411  1.00  0.00    -0.007 C 
HETATM   25  C8  UNL     1      -2.789  48.917 -26.891  1.00  0.00     0.011 C 
BRANCH  24  26
HETATM   26  C6  UNL     1      -2.447  51.463 -27.076  1.00  0.00     0.087 C 
BRANCH  26  27
HETATM   27  C5  UNL     1      -1.428  52.226 -26.245  1.00  0.00     0.149 C 
HETATM   28  O1  UNL     1      -1.652  53.334 -25.762  1.00  0.00    -0.293 OA
BRANCH  27  29
HETATM   29  C4  UNL     1      -0.080  51.634 -25.988  1.00  0.00     0.052 C 
HETATM   30  C2  UNL     1       0.989  51.513 -26.798  1.00  0.00    -0.084 C 
HETATM   31  C1  UNL     1       2.268  50.918 -26.260  1.00  0.00     0.043 C 
HETATM   32  C3  UNL     1       1.051  51.874 -28.254  1.00  0.00     0.043 C 
ENDBRANCH  27  29
ENDBRANCH  26  27
ENDBRANCH  24  26
ENDBRANCH   1  24
TORSDOF 4
ENDMDL
MODEL 8
REMARK minimizedAffinity -9.4713459
REMARK CNNscore 0.302441061
REMARK CNNaffinity 6.79453421
REMARK  4 active torsions:
REMARK  status: ('A' for Active; 'I' for Inactive)
REMARK    1  A    between atoms: C4_4  and  C5_5 
REMARK    2  A    between atoms: C5_5  and  C6_7 
REMARK    3  A    between atoms: C6_7  and  C7_8 
REMARK    4  A    between atoms: C7_8  and  C9_10 
ROOT
HETATM    1  C9  UNL     1      -0.145  51.426 -21.077  1.00  0.00    -0.002 C 
HETATM    2  C10 UNL     1      -0.367  52.177 -19.728  1.00  0.00     0.006 C 
HETATM    3  C11 UNL     1      -1.653  51.610 -19.090  1.00  0.00     0.011 C 
HETATM    4  C12 UNL     1      -1.943  50.317 -19.875  1.00  0.00    -0.032 C 
HETATM    5  C13 UNL     1      -1.007  49.225 -19.249  1.00  0.00     0.016 C 
HETATM    6  C14 UNL     1      -3.445  49.857 -19.844  1.00  0.00     0.004 C 
HETATM    7  C15 UNL     1      -3.796  49.012 -18.600  1.00  0.00     0.007 C 
HETATM    8  C16 UNL     1      -5.270  48.607 -18.481  1.00  0.00     0.007 C 
HETATM    9  C17 UNL     1      -6.074  48.678 -19.792  1.00  0.00     0.010 C 
HETATM   10  C18 UNL     1      -7.408  47.874 -19.770  1.00  0.00     0.018 C 
HETATM   11  C19 UNL     1      -8.185  48.113 -18.460  1.00  0.00     0.023 C 
HETATM   12  C20 UNL     1      -8.321  48.304 -20.936  1.00  0.00     0.023 C 
HETATM   13  C21 UNL     1      -7.134  46.373 -19.914  1.00  0.00     0.135 C 
HETATM   14  O2  UNL     1      -7.964  45.526 -19.572  1.00  0.00    -0.297 OA
HETATM   15  C22 UNL     1      -5.799  45.941 -20.472  1.00  0.00     0.080 C 
HETATM   16  C23 UNL     1      -5.321  46.913 -21.534  1.00  0.00     0.018 C 
HETATM   17  C24 UNL     1      -5.180  48.323 -20.993  1.00  0.00    -0.026 A 
HETATM   18  C25 UNL     1      -5.002  49.450 -21.977  1.00  0.00     0.021 A 
HETATM   19  C26 UNL     1      -3.821  49.052 -21.112  1.00  0.00    -0.027 A 
HETATM   20  C27 UNL     1      -2.647  48.478 -21.895  1.00  0.00     0.011 C 
HETATM   21  C28 UNL     1      -1.549  49.510 -22.234  1.00  0.00     0.011 C 
HETATM   22  C29 UNL     1      -1.535  50.762 -21.335  1.00  0.00    -0.032 C 
HETATM   23  C30 UNL     1      -2.490  51.825 -21.943  1.00  0.00     0.016 C 
ENDROOT
BRANCH   1  24
HETATM   24  C7  UNL     1       0.652  52.262 -22.123  1.00  0.00    -0.007 C 
HETATM   25  C8  UNL     1       1.194  53.629 -21.698  1.00  0.00     0.011 C 
BRANCH  24  26
HETATM   26  C6  UNL     1       0.040  52.253 -23.544  1.00  0.00     0.087 C 
BRANCH  26  27
HETATM   27  C5  UNL     1       0.628  53.180 -24.595  1.00  0.00     0.149 C 
HETATM   28  O1  UNL     1       1.207  54.228 -24.315  1.00  0.00    -0.293 OA
BRANCH  27  29
HETATM   29  C4  UNL     1       0.512  52.836 -26.045  1.00  0.00     0.052 C 
HETATM   30  C2  UNL     1       1.246  52.004 -26.807  1.00  0.00    -0.084 C 
HETATM   31  C1  UNL     1       0.872  51.792 -28.253  1.00  0.00     0.043 C 
HETATM   32  C3  UNL     1       2.480  51.260 -26.381  1.00  0.00     0.043 C 
ENDBRANCH  27  29
ENDBRANCH  26  27
ENDBRANCH  24  26
ENDBRANCH   1  24
TORSDOF 4
ENDMDL
MODEL 9
REMARK minimizedAffinity -8.18087482
REMARK CNNscore 0.290076822
REMARK CNNaffinity 6.45630789
REMARK  4 active torsions:
REMARK  status: ('A' for Active; 'I' for Inactive)
REMARK    1  A    between atoms: C4_4  and  C5_5 
REMARK    2  A    between atoms: C5_5  and  C6_7 
REMARK    3  A    between atoms: C6_7  and  C7_8 
REMARK    4  A    between atoms: C7_8  and  C9_10 
ROOT
HETATM    1  C9  UNL     1      -2.247  49.777 -23.105  1.00  0.00    -0.002 C 
HETATM    2  C10 UNL     1      -1.513  50.065 -21.758  1.00  0.00     0.006 C 
HETATM    3  C11 UNL     1      -2.430  49.572 -20.619  1.00  0.00     0.011 C 
HETATM    4  C12 UNL     1      -3.483  48.692 -21.316  1.00  0.00    -0.032 C 
HETATM    5  C13 UNL     1      -2.796  47.299 -21.529  1.00  0.00     0.016 C 
HETATM    6  C14 UNL     1      -4.833  48.540 -20.527  1.00  0.00     0.004 C 
HETATM    7  C15 UNL     1      -4.796  47.411 -19.472  1.00  0.00     0.007 C 
HETATM    8  C16 UNL     1      -6.061  47.275 -18.617  1.00  0.00     0.007 C 
HETATM    9  C17 UNL     1      -7.323  47.928 -19.211  1.00  0.00     0.010 C 
HETATM   10  C18 UNL     1      -8.659  47.429 -18.583  1.00  0.00     0.018 C 
HETATM   11  C19 UNL     1      -8.565  47.361 -17.045  1.00  0.00     0.023 C 
HETATM   12  C20 UNL     1      -9.815  48.386 -18.936  1.00  0.00     0.023 C 
HETATM   13  C21 UNL     1      -9.017  46.038 -19.117  1.00  0.00     0.135 C 
HETATM   14  O2  UNL     1      -9.806  45.298 -18.523  1.00  0.00    -0.297 OA
HETATM   15  C22 UNL     1      -8.361  45.572 -20.395  1.00  0.00     0.080 C 
HETATM   16  C23 UNL     1      -8.164  46.734 -21.351  1.00  0.00     0.018 C 
HETATM   17  C24 UNL     1      -7.310  47.830 -20.747  1.00  0.00    -0.026 A 
HETATM   18  C25 UNL     1      -7.263  49.165 -21.444  1.00  0.00     0.021 A 
HETATM   19  C26 UNL     1      -6.026  48.287 -21.480  1.00  0.00    -0.027 A 
HETATM   20  C27 UNL     1      -5.658  47.796 -22.873  1.00  0.00     0.011 C 
HETATM   21  C28 UNL     1      -4.589  48.655 -23.585  1.00  0.00     0.011 C 
HETATM   22  C29 UNL     1      -3.716  49.511 -22.647  1.00  0.00    -0.032 C 
HETATM   23  C30 UNL     1      -4.420  50.876 -22.414  1.00  0.00     0.016 C 
ENDROOT
BRANCH   1  24
HETATM   24  C7  UNL     1      -1.831  50.747 -24.252  1.00  0.00    -0.007 C 
HETATM   25  C8  UNL     1      -1.845  50.220 -25.689  1.00  0.00     0.011 C 
BRANCH  24  26
HETATM   26  C6  UNL     1      -0.600  51.626 -23.926  1.00  0.00     0.087 C 
BRANCH  26  27
HETATM   27  C5  UNL     1      -0.072  52.564 -24.999  1.00  0.00     0.149 C 
HETATM   28  O1  UNL     1      -0.640  53.609 -25.314  1.00  0.00    -0.293 OA
BRANCH  27  29
HETATM   29  C4  UNL     1       1.189  52.231 -25.728  1.00  0.00     0.052 C 
HETATM   30  C2  UNL     1       1.400  51.966 -27.032  1.00  0.00    -0.084 C 
HETATM   31  C1  UNL     1       2.804  51.714 -27.523  1.00  0.00     0.043 C 
HETATM   32  C3  UNL     1       0.350  51.842 -28.098  1.00  0.00     0.043 C 
ENDBRANCH  27  29
ENDBRANCH  26  27
ENDBRANCH  24  26
ENDBRANCH   1  24
TORSDOF 4
ENDMDL
