MODEL 1
REMARK minimizedAffinity -9.5015955
REMARK  0 active torsions:
REMARK  status: ('A' for Active; 'I' for Inactive)
ROOT
HETATM    1  C1  UNL     1       3.056  10.753  16.042  1.00  0.00     0.023 C 
HETATM    2  C2  UNL     1       2.813  10.161  14.644  1.00  0.00     0.017 C 
HETATM    3  C3  UNL     1       3.077  11.293  13.616  1.00  0.00     0.023 C 
HETATM    4  C4  UNL     1       3.870   9.069  14.403  1.00  0.00     0.135 C 
HETATM    5  O1  UNL     1       4.951   9.310  13.859  1.00  0.00    -0.297 OA
HETATM    6  C5  UNL     1       3.613   7.694  14.968  1.00  0.00     0.080 C 
HETATM    7  C6  UNL     1       2.203   7.218  14.646  1.00  0.00     0.017 C 
HETATM    8  C7  UNL     1       1.067   8.191  15.089  1.00  0.00    -0.035 C 
HETATM    9  C8  UNL     1       1.100   8.247  16.643  1.00  0.00     0.016 C 
HETATM   10  C9  UNL     1       1.374   9.572  14.412  1.00  0.00     0.009 C 
HETATM   11  C10 UNL     1       0.242  10.580  14.687  1.00  0.00     0.007 C 
HETATM   12  C11 UNL     1      -1.067  10.090  14.078  1.00  0.00     0.011 C 
HETATM   13  C12 UNL     1      -1.578   8.727  14.613  1.00  0.00    -0.032 C 
HETATM   14  C13 UNL     1      -2.021   8.948  16.089  1.00  0.00     0.016 C 
HETATM   15  C14 UNL     1      -0.389   7.648  14.632  1.00  0.00     0.003 C 
HETATM   16  C15 UNL     1      -0.362   6.849  13.316  1.00  0.00     0.006 C 
HETATM   17  C16 UNL     1      -1.662   6.093  13.028  1.00  0.00     0.006 C 
HETATM   18  C17 UNL     1      -2.898   6.641  13.748  1.00  0.00    -0.000 C 
HETATM   19  C18 UNL     1      -4.218   6.050  13.184  1.00  0.00     0.009 C 
HETATM   20  C19 UNL     1      -4.457   4.524  13.191  1.00  0.00     0.067 A 
HETATM   21  C20 UNL     1      -6.014   4.399  13.219  1.00  0.00     0.140 A 
HETATM   22  C21 UNL     1      -6.574   5.823  13.300  1.00  0.00     0.042 C 
HETATM   23  C22 UNL     1      -5.437   6.607  13.959  1.00  0.00    -0.037 C 
HETATM   24  C23 UNL     1      -5.441   6.290  15.478  1.00  0.00     0.015 C 
HETATM   25  C24 UNL     1      -5.507   8.120  13.731  1.00  0.00     0.010 C 
HETATM   26  C25 UNL     1      -4.238   8.807  14.263  1.00  0.00     0.011 C 
HETATM   27  C26 UNL     1      -2.878   8.218  13.728  1.00  0.00    -0.032 C 
HETATM   28  C27 UNL     1      -2.807   8.715  12.243  1.00  0.00     0.016 C 
HETATM   29  O2  UNL     1      -6.476   3.773  12.014  1.00  0.00    -0.313 OA
HETATM   30  C28 UNL     1      -5.416   3.382  11.255  1.00  0.00     0.297 A 
HETATM   31  O3  UNL     1      -5.484   2.780  10.197  1.00  0.00    -0.262 OA
HETATM   32  C29 UNL     1      -4.173   3.757  11.946  1.00  0.00     0.175 A 
HETATM   33  C30 UNL     1      -2.928   2.916  11.801  1.00  0.00     0.218 A 
HETATM   34  O4  UNL     1      -3.074   4.180  11.138  1.00  0.00    -0.364 OA
ENDROOT
TORSDOF 0
ENDMDL
MODEL 2
REMARK minimizedAffinity -9.33364296
REMARK  0 active torsions:
REMARK  status: ('A' for Active; 'I' for Inactive)
ROOT
HETATM    1  C1  UNL     1      -7.958   4.207  14.148  1.00  0.00     0.023 C 
HETATM    2  C2  UNL     1      -7.809   5.565  13.443  1.00  0.00     0.017 C 
HETATM    3  C3  UNL     1      -8.130   5.340  11.942  1.00  0.00     0.023 C 
HETATM    4  C4  UNL     1      -8.886   6.511  14.004  1.00  0.00     0.135 C 
HETATM    5  O1  UNL     1      -9.997   6.624  13.481  1.00  0.00    -0.297 OA
HETATM    6  C5  UNL     1      -8.602   7.218  15.306  1.00  0.00     0.080 C 
HETATM    7  C6  UNL     1      -7.217   7.854  15.300  1.00  0.00     0.017 C 
HETATM    8  C7  UNL     1      -6.050   6.875  14.966  1.00  0.00    -0.035 C 
HETATM    9  C8  UNL     1      -5.984   5.839  16.125  1.00  0.00     0.016 C 
HETATM   10  C9  UNL     1      -6.390   6.231  13.577  1.00  0.00     0.009 C 
HETATM   11  C10 UNL     1      -5.238   5.333  13.093  1.00  0.00     0.007 C 
HETATM   12  C11 UNL     1      -3.973   6.157  12.880  1.00  0.00     0.011 C 
HETATM   13  C12 UNL     1      -3.437   6.887  14.141  1.00  0.00    -0.032 C 
HETATM   14  C13 UNL     1      -2.900   5.795  15.111  1.00  0.00     0.016 C 
HETATM   15  C14 UNL     1      -4.629   7.650  14.898  1.00  0.00     0.003 C 
HETATM   16  C15 UNL     1      -4.745   9.102  14.401  1.00  0.00     0.006 C 
HETATM   17  C16 UNL     1      -3.471   9.926  14.604  1.00  0.00     0.006 C 
HETATM   18  C17 UNL     1      -2.188   9.102  14.752  1.00  0.00    -0.000 C 
HETATM   19  C18 UNL     1      -0.910   9.975  14.638  1.00  0.00     0.009 C 
HETATM   20  C19 UNL     1      -0.680  11.155  15.609  1.00  0.00     0.067 A 
HETATM   21  C20 UNL     1       0.874  11.304  15.640  1.00  0.00     0.140 A 
HETATM   22  C21 UNL     1       1.447  10.182  14.766  1.00  0.00     0.042 C 
HETATM   23  C22 UNL     1       0.360   9.108  14.821  1.00  0.00    -0.037 C 
HETATM   24  C23 UNL     1       0.458   8.383  16.190  1.00  0.00     0.015 C 
HETATM   25  C24 UNL     1       0.424   8.094  13.675  1.00  0.00     0.010 C 
HETATM   26  C25 UNL     1      -0.804   7.169  13.701  1.00  0.00     0.011 C 
HETATM   27  C26 UNL     1      -2.199   7.902  13.728  1.00  0.00    -0.032 C 
HETATM   28  C27 UNL     1      -2.361   8.464  12.274  1.00  0.00     0.016 C 
HETATM   29  O2  UNL     1       1.256  12.575  15.096  1.00  0.00    -0.313 OA
HETATM   30  C28 UNL     1       0.147  13.312  14.811  1.00  0.00     0.297 A 
HETATM   31  O3  UNL     1       0.144  14.453  14.381  1.00  0.00    -0.262 OA
HETATM   32  C29 UNL     1      -1.047  12.526  15.156  1.00  0.00     0.175 A 
HETATM   33  C30 UNL     1      -2.305  13.209  15.638  1.00  0.00     0.218 A 
HETATM   34  O4  UNL     1      -2.192  12.667  14.315  1.00  0.00    -0.364 OA
ENDROOT
TORSDOF 0
ENDMDL
MODEL 3
REMARK minimizedAffinity -8.99409485
REMARK  0 active torsions:
REMARK  status: ('A' for Active; 'I' for Inactive)
ROOT
HETATM    1  C1  UNL     1      -0.552  12.018  16.610  1.00  0.00     0.023 C 
HETATM    2  C2  UNL     1      -1.605  11.084  17.227  1.00  0.00     0.017 C 
HETATM    3  C3  UNL     1      -1.111  10.712  18.651  1.00  0.00     0.023 C 
HETATM    4  C4  UNL     1      -2.910  11.883  17.390  1.00  0.00     0.135 C 
HETATM    5  O1  UNL     1      -3.181  12.494  18.428  1.00  0.00    -0.297 OA
HETATM    6  C5  UNL     1      -3.814  12.020  16.191  1.00  0.00     0.080 C 
HETATM    7  C6  UNL     1      -4.039  10.675  15.511  1.00  0.00     0.017 C 
HETATM    8  C7  UNL     1      -2.735   9.921  15.106  1.00  0.00    -0.035 C 
HETATM    9  C8  UNL     1      -2.037  10.781  14.015  1.00  0.00     0.016 C 
HETATM   10  C9  UNL     1      -1.884   9.766  16.414  1.00  0.00     0.009 C 
HETATM   11  C10 UNL     1      -0.623   8.925  16.149  1.00  0.00     0.007 C 
HETATM   12  C11 UNL     1      -1.004   7.512  15.723  1.00  0.00     0.011 C 
HETATM   13  C12 UNL     1      -1.853   7.418  14.427  1.00  0.00    -0.032 C 
HETATM   14  C13 UNL     1      -0.931   7.829  13.242  1.00  0.00     0.016 C 
HETATM   15  C14 UNL     1      -3.066   8.468  14.470  1.00  0.00     0.003 C 
HETATM   16  C15 UNL     1      -4.328   7.813  15.059  1.00  0.00     0.006 C 
HETATM   17  C16 UNL     1      -4.810   6.589  14.274  1.00  0.00     0.006 C 
HETATM   18  C17 UNL     1      -3.738   5.915  13.412  1.00  0.00    -0.000 C 
HETATM   19  C18 UNL     1      -4.186   4.521  12.898  1.00  0.00     0.009 C 
HETATM   20  C19 UNL     1      -5.464   4.377  12.042  1.00  0.00     0.067 A 
HETATM   21  C20 UNL     1      -5.200   3.085  11.206  1.00  0.00     0.140 A 
HETATM   22  C21 UNL     1      -3.787   2.606  11.561  1.00  0.00     0.042 C 
HETATM   23  C22 UNL     1      -3.087   3.889  12.009  1.00  0.00    -0.037 C 
HETATM   24  C23 UNL     1      -2.721   4.713  10.746  1.00  0.00     0.015 C 
HETATM   25  C24 UNL     1      -1.843   3.654  12.871  1.00  0.00     0.010 C 
HETATM   26  C25 UNL     1      -1.311   4.985  13.430  1.00  0.00     0.011 C 
HETATM   27  C26 UNL     1      -2.370   5.865  14.197  1.00  0.00    -0.032 C 
HETATM   28  C27 UNL     1      -2.580   5.109  15.554  1.00  0.00     0.016 C 
HETATM   29  O2  UNL     1      -6.150   2.070  11.559  1.00  0.00    -0.313 OA
HETATM   30  C28 UNL     1      -7.060   2.570  12.439  1.00  0.00     0.297 A 
HETATM   31  O3  UNL     1      -8.020   1.965  12.887  1.00  0.00    -0.262 OA
HETATM   32  C29 UNL     1      -6.729   3.975  12.719  1.00  0.00     0.175 A 
HETATM   33  C30 UNL     1      -7.816   4.977  13.024  1.00  0.00     0.218 A 
HETATM   34  O4  UNL     1      -6.956   4.452  14.045  1.00  0.00    -0.364 OA
ENDROOT
TORSDOF 0
ENDMDL
MODEL 4
REMARK minimizedAffinity -8.74918747
REMARK  0 active torsions:
REMARK  status: ('A' for Active; 'I' for Inactive)
ROOT
HETATM    1  C1  UNL     1     -14.025   9.839  15.276  1.00  0.00     0.023 C 
HETATM    2  C2  UNL     1     -13.633   8.357  15.381  1.00  0.00     0.017 C 
HETATM    3  C3  UNL     1     -14.168   7.836  16.742  1.00  0.00     0.023 C 
HETATM    4  C4  UNL     1     -14.378   7.590  14.274  1.00  0.00     0.135 C 
HETATM    5  O1  UNL     1     -15.481   7.071  14.462  1.00  0.00    -0.297 OA
HETATM    6  C5  UNL     1     -13.784   7.591  12.887  1.00  0.00     0.080 C 
HETATM    7  C6  UNL     1     -12.297   7.263  12.920  1.00  0.00     0.017 C 
HETATM    8  C7  UNL     1     -11.447   8.175  13.858  1.00  0.00    -0.035 C 
HETATM    9  C8  UNL     1     -11.502   9.611  13.264  1.00  0.00     0.016 C 
HETATM   10  C9  UNL     1     -12.089   8.069  15.285  1.00  0.00     0.009 C 
HETATM   11  C10 UNL     1     -11.252   8.841  16.321  1.00  0.00     0.007 C 
HETATM   12  C11 UNL     1      -9.858   8.235  16.437  1.00  0.00     0.011 C 
HETATM   13  C12 UNL     1      -9.021   8.240  15.131  1.00  0.00    -0.032 C 
HETATM   14  C13 UNL     1      -8.657   9.722  14.823  1.00  0.00     0.016 C 
HETATM   15  C14 UNL     1      -9.898   7.702  13.898  1.00  0.00     0.003 C 
HETATM   16  C15 UNL     1      -9.715   6.183  13.725  1.00  0.00     0.006 C 
HETATM   17  C16 UNL     1      -8.264   5.763  13.473  1.00  0.00     0.006 C 
HETATM   18  C17 UNL     1      -7.211   6.771  13.944  1.00  0.00    -0.000 C 
HETATM   19  C18 UNL     1      -5.781   6.167  13.956  1.00  0.00     0.009 C 
HETATM   20  C19 UNL     1      -5.163   5.597  12.659  1.00  0.00     0.067 A 
HETATM   21  C20 UNL     1      -3.626   5.742  12.893  1.00  0.00     0.140 A 
HETATM   22  C21 UNL     1      -3.446   6.440  14.246  1.00  0.00     0.042 C 
HETATM   23  C22 UNL     1      -4.747   7.227  14.409  1.00  0.00    -0.037 C 
HETATM   24  C23 UNL     1      -4.672   8.488  13.508  1.00  0.00     0.015 C 
HETATM   25  C24 UNL     1      -5.062   7.623  15.855  1.00  0.00     0.010 C 
HETATM   26  C25 UNL     1      -6.466   8.242  15.953  1.00  0.00     0.011 C 
HETATM   27  C26 UNL     1      -7.630   7.373  15.341  1.00  0.00    -0.032 C 
HETATM   28  C27 UNL     1      -7.816   6.207  16.372  1.00  0.00     0.016 C 
HETATM   29  O2  UNL     1      -3.013   4.446  12.940  1.00  0.00    -0.313 OA
HETATM   30  C28 UNL     1      -3.936   3.484  12.663  1.00  0.00     0.297 A 
HETATM   31  O3  UNL     1      -3.711   2.288  12.580  1.00  0.00    -0.262 OA
HETATM   32  C29 UNL     1      -5.237   4.127  12.427  1.00  0.00     0.175 A 
HETATM   33  C30 UNL     1      -6.228   3.527  11.459  1.00  0.00     0.218 A 
HETATM   34  O4  UNL     1      -6.402   3.438  12.880  1.00  0.00    -0.364 OA
ENDROOT
TORSDOF 0
ENDMDL
MODEL 5
REMARK minimizedAffinity -8.64961052
REMARK  0 active torsions:
REMARK  status: ('A' for Active; 'I' for Inactive)
ROOT
HETATM    1  C1  UNL     1      -1.511  12.841  18.084  1.00  0.00     0.023 C 
HETATM    2  C2  UNL     1      -1.818  11.417  17.593  1.00  0.00     0.017 C 
HETATM    3  C3  UNL     1      -2.175  10.568  18.842  1.00  0.00     0.023 C 
HETATM    4  C4  UNL     1      -3.076  11.481  16.709  1.00  0.00     0.135 C 
HETATM    5  O1  UNL     1      -4.209  11.317  17.167  1.00  0.00    -0.297 OA
HETATM    6  C5  UNL     1      -2.909  11.884  15.265  1.00  0.00     0.080 C 
HETATM    7  C6  UNL     1      -1.773  11.115  14.603  1.00  0.00     0.017 C 
HETATM    8  C7  UNL     1      -0.402  11.211  15.339  1.00  0.00    -0.035 C 
HETATM    9  C8  UNL     1       0.052  12.697  15.256  1.00  0.00     0.016 C 
HETATM   10  C9  UNL     1      -0.648  10.719  16.807  1.00  0.00     0.009 C 
HETATM   11  C10 UNL     1       0.675  10.659  17.593  1.00  0.00     0.007 C 
HETATM   12  C11 UNL     1       1.626   9.649  16.961  1.00  0.00     0.011 C 
HETATM   13  C12 UNL     1       2.023   9.944  15.490  1.00  0.00    -0.032 C 
HETATM   14  C13 UNL     1       2.927  11.210  15.502  1.00  0.00     0.016 C 
HETATM   15  C14 UNL     1       0.723  10.297  14.616  1.00  0.00     0.003 C 
HETATM   16  C15 UNL     1       0.153   9.029  13.956  1.00  0.00     0.006 C 
HETATM   17  C16 UNL     1       1.145   8.315  13.034  1.00  0.00     0.006 C 
HETATM   18  C17 UNL     1       2.619   8.627  13.310  1.00  0.00    -0.000 C 
HETATM   19  C18 UNL     1       3.576   7.652  12.572  1.00  0.00     0.009 C 
HETATM   20  C19 UNL     1       3.529   7.526  11.033  1.00  0.00     0.067 A 
HETATM   21  C20 UNL     1       4.970   7.054  10.661  1.00  0.00     0.140 A 
HETATM   22  C21 UNL     1       5.774   7.008  11.966  1.00  0.00     0.042 C 
HETATM   23  C22 UNL     1       5.053   8.022  12.855  1.00  0.00    -0.037 C 
HETATM   24  C23 UNL     1       5.463   9.448  12.403  1.00  0.00     0.015 C 
HETATM   25  C24 UNL     1       5.319   7.840  14.353  1.00  0.00     0.010 C 
HETATM   26  C25 UNL     1       4.418   8.773  15.180  1.00  0.00     0.011 C 
HETATM   27  C26 UNL     1       2.877   8.673  14.865  1.00  0.00    -0.032 C 
HETATM   28  C27 UNL     1       2.447   7.308  15.502  1.00  0.00     0.016 C 
HETATM   29  O2  UNL     1       4.923   5.742  10.083  1.00  0.00    -0.313 OA
HETATM   30  C28 UNL     1       3.630   5.344   9.937  1.00  0.00     0.297 A 
HETATM   31  O3  UNL     1       3.263   4.297   9.431  1.00  0.00    -0.262 OA
HETATM   32  C29 UNL     1       2.745   6.406  10.439  1.00  0.00     0.175 A 
HETATM   33  C30 UNL     1       1.385   6.631   9.823  1.00  0.00     0.218 A 
HETATM   34  O4  UNL     1       1.547   6.005  11.103  1.00  0.00    -0.364 OA
ENDROOT
TORSDOF 0
ENDMDL
MODEL 6
REMARK minimizedAffinity -8.58435249
REMARK  0 active torsions:
REMARK  status: ('A' for Active; 'I' for Inactive)
ROOT
HETATM    1  C1  UNL     1      -2.069  12.116  17.600  1.00  0.00     0.023 C 
HETATM    2  C2  UNL     1      -0.920  11.151  17.266  1.00  0.00     0.017 C 
HETATM    3  C3  UNL     1      -1.484   9.710  17.381  1.00  0.00     0.023 C 
HETATM    4  C4  UNL     1      -0.527  11.373  15.795  1.00  0.00     0.135 C 
HETATM    5  O1  UNL     1      -1.030  10.723  14.876  1.00  0.00    -0.297 OA
HETATM    6  C5  UNL     1       0.410  12.511  15.474  1.00  0.00     0.080 C 
HETATM    7  C6  UNL     1       1.617  12.514  16.403  1.00  0.00     0.017 C 
HETATM    8  C7  UNL     1       1.271  12.529  17.924  1.00  0.00    -0.035 C 
HETATM    9  C8  UNL     1       0.569  13.887  18.214  1.00  0.00     0.016 C 
HETATM   10  C9  UNL     1       0.350  11.287  18.185  1.00  0.00     0.009 C 
HETATM   11  C10 UNL     1       0.045  11.137  19.686  1.00  0.00     0.007 C 
HETATM   12  C11 UNL     1       1.329  10.885  20.468  1.00  0.00     0.011 C 
HETATM   13  C12 UNL     1       2.399  12.004  20.365  1.00  0.00    -0.032 C 
HETATM   14  C13 UNL     1       1.845  13.242  21.129  1.00  0.00     0.016 C 
HETATM   15  C14 UNL     1       2.607  12.445  18.836  1.00  0.00     0.003 C 
HETATM   16  C15 UNL     1       3.742  11.632  18.187  1.00  0.00     0.006 C 
HETATM   17  C16 UNL     1       5.091  11.785  18.896  1.00  0.00     0.006 C 
HETATM   18  C17 UNL     1       5.003  12.246  20.355  1.00  0.00    -0.000 C 
HETATM   19  C18 UNL     1       6.351  12.080  21.107  1.00  0.00     0.009 C 
HETATM   20  C19 UNL     1       7.625  12.788  20.594  1.00  0.00     0.067 A 
HETATM   21  C20 UNL     1       8.495  12.951  21.880  1.00  0.00     0.140 A 
HETATM   22  C21 UNL     1       7.665  12.411  23.050  1.00  0.00     0.042 C 
HETATM   23  C22 UNL     1       6.225  12.583  22.565  1.00  0.00    -0.037 C 
HETATM   24  C23 UNL     1       5.838  14.080  22.705  1.00  0.00     0.015 C 
HETATM   25  C24 UNL     1       5.209  11.700  23.297  1.00  0.00     0.010 C 
HETATM   26  C25 UNL     1       3.827  11.797  22.628  1.00  0.00     0.011 C 
HETATM   27  C26 UNL     1       3.808  11.514  21.078  1.00  0.00    -0.032 C 
HETATM   28  C27 UNL     1       4.010   9.964  20.972  1.00  0.00     0.016 C 
HETATM   29  O2  UNL     1       9.701  12.186  21.756  1.00  0.00    -0.313 OA
HETATM   30  C28 UNL     1       9.775  11.630  20.516  1.00  0.00     0.297 A 
HETATM   31  O3  UNL     1      10.704  10.963  20.092  1.00  0.00    -0.262 OA
HETATM   32  C29 UNL     1       8.577  12.010  19.753  1.00  0.00     0.175 A 
HETATM   33  C30 UNL     1       8.644  12.194  18.256  1.00  0.00     0.218 A 
HETATM   34  O4  UNL     1       8.036  11.041  18.854  1.00  0.00    -0.364 OA
ENDROOT
TORSDOF 0
ENDMDL
MODEL 7
REMARK minimizedAffinity -8.40303612
REMARK  0 active torsions:
REMARK  status: ('A' for Active; 'I' for Inactive)
ROOT
HETATM    1  C1  UNL     1       2.688   5.838   8.638  1.00  0.00     0.023 C 
HETATM    2  C2  UNL     1       3.090   5.499  10.083  1.00  0.00     0.017 C 
HETATM    3  C3  UNL     1       2.952   3.962  10.248  1.00  0.00     0.023 C 
HETATM    4  C4  UNL     1       4.580   5.844  10.253  1.00  0.00     0.135 C 
HETATM    5  O1  UNL     1       5.473   5.016  10.056  1.00  0.00    -0.297 OA
HETATM    6  C5  UNL     1       4.948   7.278  10.546  1.00  0.00     0.080 C 
HETATM    7  C6  UNL     1       4.088   7.852  11.664  1.00  0.00     0.017 C 
HETATM    8  C7  UNL     1       2.550   7.740  11.429  1.00  0.00    -0.035 C 
HETATM    9  C8  UNL     1       2.214   8.631  10.200  1.00  0.00     0.016 C 
HETATM   10  C9  UNL     1       2.244   6.220  11.195  1.00  0.00     0.009 C 
HETATM   11  C10 UNL     1       0.728   5.979  11.072  1.00  0.00     0.007 C 
HETATM   12  C11 UNL     1       0.021   6.359  12.367  1.00  0.00     0.011 C 
HETATM   13  C12 UNL     1       0.178   7.841  12.798  1.00  0.00    -0.032 C 
HETATM   14  C13 UNL     1      -0.621   8.704  11.779  1.00  0.00     0.016 C 
HETATM   15  C14 UNL     1       1.715   8.296  12.701  1.00  0.00     0.003 C 
HETATM   16  C15 UNL     1       2.430   8.079  14.047  1.00  0.00     0.006 C 
HETATM   17  C16 UNL     1       1.797   8.847  15.211  1.00  0.00     0.006 C 
HETATM   18  C17 UNL     1       0.334   9.247  14.998  1.00  0.00    -0.000 C 
HETATM   19  C18 UNL     1      -0.341   9.733  16.309  1.00  0.00     0.009 C 
HETATM   20  C19 UNL     1       0.239  10.934  17.089  1.00  0.00     0.067 A 
HETATM   21  C20 UNL     1      -0.997  11.505  17.853  1.00  0.00     0.140 A 
HETATM   22  C21 UNL     1      -2.209  10.670  17.425  1.00  0.00     0.042 C 
HETATM   23  C22 UNL     1      -1.807  10.154  16.043  1.00  0.00    -0.037 C 
HETATM   24  C23 UNL     1      -1.975  11.310  15.022  1.00  0.00     0.015 C 
HETATM   25  C24 UNL     1      -2.590   8.920  15.584  1.00  0.00     0.010 C 
HETATM   26  C25 UNL     1      -2.000   8.359  14.278  1.00  0.00     0.011 C 
HETATM   27  C26 UNL     1      -0.452   8.065  14.310  1.00  0.00    -0.032 C 
HETATM   28  C27 UNL     1      -0.328   6.778  15.194  1.00  0.00     0.016 C 
HETATM   29  O2  UNL     1      -0.802  11.374  19.268  1.00  0.00    -0.313 OA
HETATM   30  C28 UNL     1       0.443  10.887  19.523  1.00  0.00     0.297 A 
HETATM   31  O3  UNL     1       0.922  10.710  20.631  1.00  0.00    -0.262 OA
HETATM   32  C29 UNL     1       1.136  10.660  18.246  1.00  0.00     0.175 A 
HETATM   33  C30 UNL     1       2.634  10.823  18.143  1.00  0.00     0.218 A 
HETATM   34  O4  UNL     1       2.008   9.533  18.163  1.00  0.00    -0.364 OA
ENDROOT
TORSDOF 0
ENDMDL
MODEL 8
REMARK minimizedAffinity -8.30379009
REMARK  0 active torsions:
REMARK  status: ('A' for Active; 'I' for Inactive)
ROOT
HETATM    1  C1  UNL     1      -3.539   2.188  11.775  1.00  0.00     0.023 C 
HETATM    2  C2  UNL     1      -3.925   3.596  11.291  1.00  0.00     0.017 C 
HETATM    3  C3  UNL     1      -4.003   3.542   9.742  1.00  0.00     0.023 C 
HETATM    4  C4  UNL     1      -5.341   3.904  11.810  1.00  0.00     0.135 C 
HETATM    5  O1  UNL     1      -6.351   3.652  11.149  1.00  0.00    -0.297 OA
HETATM    6  C5  UNL     1      -5.484   4.411  13.223  1.00  0.00     0.080 C 
HETATM    7  C6  UNL     1      -4.503   5.540  13.509  1.00  0.00     0.017 C 
HETATM    8  C7  UNL     1      -3.009   5.197  13.221  1.00  0.00    -0.035 C 
HETATM    9  C8  UNL     1      -2.600   4.081  14.224  1.00  0.00     0.016 C 
HETATM   10  C9  UNL     1      -2.936   4.741  11.722  1.00  0.00     0.009 C 
HETATM   11  C10 UNL     1      -1.478   4.491  11.296  1.00  0.00     0.007 C 
HETATM   12  C11 UNL     1      -0.669   5.779  11.386  1.00  0.00     0.011 C 
HETATM   13  C12 UNL     1      -0.591   6.416  12.799  1.00  0.00    -0.032 C 
HETATM   14  C13 UNL     1       0.281   5.476  13.680  1.00  0.00     0.016 C 
HETATM   15  C14 UNL     1      -2.049   6.478  13.469  1.00  0.00     0.003 C 
HETATM   16  C15 UNL     1      -2.729   7.824  13.162  1.00  0.00     0.006 C 
HETATM   17  C16 UNL     1      -1.943   9.040  13.662  1.00  0.00     0.006 C 
HETATM   18  C17 UNL     1      -0.448   8.792  13.883  1.00  0.00    -0.000 C 
HETATM   19  C18 UNL     1       0.345  10.112  14.079  1.00  0.00     0.009 C 
HETATM   20  C19 UNL     1      -0.021  11.082  15.225  1.00  0.00     0.067 A 
HETATM   21  C20 UNL     1       1.316  11.838  15.505  1.00  0.00     0.140 A 
HETATM   22  C21 UNL     1       2.376  11.226  14.581  1.00  0.00     0.042 C 
HETATM   23  C22 UNL     1       1.844   9.814  14.328  1.00  0.00    -0.037 C 
HETATM   24  C23 UNL     1       2.134   8.951  15.585  1.00  0.00     0.015 C 
HETATM   25  C24 UNL     1       2.420   9.144  13.077  1.00  0.00     0.010 C 
HETATM   26  C25 UNL     1       1.700   7.814  12.795  1.00  0.00     0.011 C 
HETATM   27  C26 UNL     1       0.129   7.902  12.716  1.00  0.00    -0.032 C 
HETATM   28  C27 UNL     1      -0.143   8.609  11.344  1.00  0.00     0.016 C 
HETATM   29  O2  UNL     1       1.165  13.231  15.201  1.00  0.00    -0.313 OA
HETATM   30  C28 UNL     1      -0.126  13.495  14.858  1.00  0.00     0.297 A 
HETATM   31  O3  UNL     1      -0.578  14.597  14.592  1.00  0.00    -0.262 OA
HETATM   32  C29 UNL     1      -0.898  12.245  14.914  1.00  0.00     0.175 A 
HETATM   33  C30 UNL     1      -2.359  12.259  15.294  1.00  0.00     0.218 A 
HETATM   34  O4  UNL     1      -1.927  12.064  13.940  1.00  0.00    -0.364 OA
ENDROOT
TORSDOF 0
ENDMDL
MODEL 9
REMARK minimizedAffinity -7.96956873
REMARK  0 active torsions:
REMARK  status: ('A' for Active; 'I' for Inactive)
ROOT
HETATM    1  C1  UNL     1      -4.635   8.992  15.748  1.00  0.00     0.023 C 
HETATM    2  C2  UNL     1      -3.825   7.867  15.085  1.00  0.00     0.017 C 
HETATM    3  C3  UNL     1      -4.055   6.581  15.922  1.00  0.00     0.023 C 
HETATM    4  C4  UNL     1      -4.420   7.615  13.687  1.00  0.00     0.135 C 
HETATM    5  O1  UNL     1      -5.304   6.778  13.492  1.00  0.00    -0.297 OA
HETATM    6  C5  UNL     1      -3.987   8.517  12.558  1.00  0.00     0.080 C 
HETATM    7  C6  UNL     1      -2.473   8.674  12.524  1.00  0.00     0.017 C 
HETATM    8  C7  UNL     1      -1.835   9.161  13.862  1.00  0.00    -0.035 C 
HETATM    9  C8  UNL     1      -2.357  10.605  14.112  1.00  0.00     0.016 C 
HETATM   10  C9  UNL     1      -2.280   8.140  14.966  1.00  0.00     0.009 C 
HETATM   11  C10 UNL     1      -1.605   8.461  16.312  1.00  0.00     0.007 C 
HETATM   12  C11 UNL     1      -0.091   8.325  16.194  1.00  0.00     0.011 C 
HETATM   13  C12 UNL     1       0.580   9.260  15.153  1.00  0.00    -0.032 C 
HETATM   14  C13 UNL     1       0.471  10.712  15.701  1.00  0.00     0.016 C 
HETATM   15  C14 UNL     1      -0.219   9.218  13.761  1.00  0.00     0.003 C 
HETATM   16  C15 UNL     1       0.375   8.148  12.827  1.00  0.00     0.006 C 
HETATM   17  C16 UNL     1       1.855   8.370  12.500  1.00  0.00     0.006 C 
HETATM   18  C17 UNL     1       2.613   9.239  13.509  1.00  0.00    -0.000 C 
HETATM   19  C18 UNL     1       4.151   9.170  13.305  1.00  0.00     0.009 C 
HETATM   20  C19 UNL     1       4.780   9.575  11.953  1.00  0.00     0.067 A 
HETATM   21  C20 UNL     1       6.225  10.020  12.342  1.00  0.00     0.140 A 
HETATM   22  C21 UNL     1       6.326   9.922  13.869  1.00  0.00     0.042 C 
HETATM   23  C22 UNL     1       4.875  10.083  14.324  1.00  0.00    -0.037 C 
HETATM   24  C23 UNL     1       4.498  11.586  14.232  1.00  0.00     0.015 C 
HETATM   25  C24 UNL     1       4.600   9.550  15.734  1.00  0.00     0.010 C 
HETATM   26  C25 UNL     1       3.093   9.581  16.040  1.00  0.00     0.011 C 
HETATM   27  C26 UNL     1       2.175   8.865  14.977  1.00  0.00    -0.032 C 
HETATM   28  C27 UNL     1       2.432   7.338  15.221  1.00  0.00     0.016 C 
HETATM   29  O2  UNL     1       7.187   9.140  11.743  1.00  0.00    -0.313 OA
HETATM   30  C28 UNL     1       6.557   8.245  10.933  1.00  0.00     0.297 A 
HETATM   31  O3  UNL     1       7.108   7.398  10.249  1.00  0.00    -0.262 OA
HETATM   32  C29 UNL     1       5.110   8.500  10.976  1.00  0.00     0.175 A 
HETATM   33  C30 UNL     1       4.245   8.236   9.767  1.00  0.00     0.218 A 
HETATM   34  O4  UNL     1       4.241   7.369  10.910  1.00  0.00    -0.364 OA
ENDROOT
TORSDOF 0
ENDMDL
