MODEL 1
REMARK minimizedAffinity -8.62190914
REMARK  5 active torsions:
REMARK  status: ('A' for Active; 'I' for Inactive)
REMARK    1  A    between atoms: N2_12  and  C9_13 
REMARK    2  A    between atoms: C9_13  and  C10_14 
REMARK    3  A    between atoms: C10_14  and  C11_15 
REMARK    4  A    between atoms: C11_15  and  N3_16 
REMARK    5  A    between atoms: N4_19  and  C14_20 
ROOT
HETATM    1  C9  UNL     1      -2.968   6.637  13.391  1.00  0.00     0.139 C 
ENDROOT
BRANCH   1   2
HETATM    2  N2  UNL     1      -4.110   5.729  13.393  1.00  0.00    -0.266 N 
HETATM    3  C1  UNL     1      -5.182   6.035  14.218  1.00  0.00     0.329 A 
HETATM    4  O1  UNL     1      -5.223   7.012  14.964  1.00  0.00    -0.246 OA
HETATM    5  N1  UNL     1      -6.248   5.182  14.183  1.00  0.00    -0.307 N 
HETATM    6  C2  UNL     1      -6.318   4.060  13.363  1.00  0.00     0.052 A 
HETATM    7  H1  UNL     1      -7.014   5.422  14.799  1.00  0.00     0.170 HD
HETATM    8  C3  UNL     1      -7.447   3.241  13.396  1.00  0.00     0.030 A 
HETATM    9  C7  UNL     1      -5.262   3.764  12.509  1.00  0.00     0.059 A 
HETATM   10  C4  UNL     1      -7.510   2.119  12.566  1.00  0.00     0.002 A 
HETATM   11  C5  UNL     1      -6.451   1.820  11.707  1.00  0.00     0.001 A 
HETATM   12  C6  UNL     1      -5.325   2.642  11.676  1.00  0.00     0.019 A 
HETATM   13  C8  UNL     1      -4.089   4.658  12.501  1.00  0.00     0.264 A 
HETATM   14  O2  UNL     1      -3.165   4.430  11.722  1.00  0.00    -0.267 OA
ENDBRANCH   1   2
BRANCH   1  15
HETATM   15  C10 UNL     1      -1.813   6.092  14.237  1.00  0.00     0.050 C 
BRANCH  15  16
HETATM   16  C11 UNL     1      -0.988   7.239  14.832  1.00  0.00     0.274 C 
BRANCH  16  17
HETATM   17  N3  UNL     1       0.294   7.439  14.141  1.00  0.00     0.091 N 
HETATM   18  C12 UNL     1       0.244   8.576  13.191  1.00  0.00     0.292 C 
HETATM   19  C13 UNL     1       1.238   8.476  12.010  1.00  0.00     0.153 C 
HETATM   20  N4  UNL     1       0.975   7.266  11.215  1.00  0.00    -0.378 N 
HETATM   21  C20 UNL     1       0.424   6.114  11.947  1.00  0.00     0.153 C 
HETATM   22  C21 UNL     1       0.744   6.205  13.458  1.00  0.00     0.292 C 
BRANCH  20  23
HETATM   23  C14 UNL     1       1.359   7.161   9.888  1.00  0.00     0.030 A 
HETATM   24  C15 UNL     1       2.303   6.209   9.467  1.00  0.00     0.029 A 
HETATM   25  C16 UNL     1       2.696   6.090   8.128  1.00  0.00     0.002 A 
HETATM   26  C17 UNL     1       2.148   6.929   7.165  1.00  0.00     0.000 A 
HETATM   27  C18 UNL     1       1.209   7.879   7.546  1.00  0.00     0.002 A 
HETATM   28  C19 UNL     1       0.823   7.989   8.888  1.00  0.00     0.029 A 
ENDBRANCH  20  23
ENDBRANCH  16  17
ENDBRANCH  15  16
ENDBRANCH   1  15
TORSDOF 5
ENDMDL
MODEL 2
REMARK minimizedAffinity -8.61452293
REMARK  5 active torsions:
REMARK  status: ('A' for Active; 'I' for Inactive)
REMARK    1  A    between atoms: N2_12  and  C9_13 
REMARK    2  A    between atoms: C9_13  and  C10_14 
REMARK    3  A    between atoms: C10_14  and  C11_15 
REMARK    4  A    between atoms: C11_15  and  N3_16 
REMARK    5  A    between atoms: N4_19  and  C14_20 
ROOT
HETATM    1  C9  UNL     1      -2.160   5.886  12.621  1.00  0.00     0.139 C 
ENDROOT
BRANCH   1   2
HETATM    2  N2  UNL     1      -3.077   4.810  12.263  1.00  0.00    -0.266 N 
HETATM    3  C1  UNL     1      -2.627   3.838  11.383  1.00  0.00     0.329 A 
HETATM    4  O1  UNL     1      -1.510   3.835  10.868  1.00  0.00    -0.246 OA
HETATM    5  N1  UNL     1      -3.497   2.829  11.084  1.00  0.00    -0.307 N 
HETATM    6  C2  UNL     1      -4.775   2.720  11.622  1.00  0.00     0.052 A 
HETATM    7  H1  UNL     1      -3.148   2.136  10.433  1.00  0.00     0.170 HD
HETATM    8  C3  UNL     1      -5.599   1.655  11.255  1.00  0.00     0.030 A 
HETATM    9  C7  UNL     1      -5.224   3.672  12.530  1.00  0.00     0.059 A 
HETATM   10  C4  UNL     1      -6.879   1.552  11.805  1.00  0.00     0.002 A 
HETATM   11  C5  UNL     1      -7.331   2.507  12.717  1.00  0.00     0.001 A 
HETATM   12  C6  UNL     1      -6.504   3.569  13.082  1.00  0.00     0.019 A 
HETATM   13  C8  UNL     1      -4.320   4.779  12.895  1.00  0.00     0.264 A 
HETATM   14  O2  UNL     1      -4.688   5.606  13.727  1.00  0.00    -0.267 OA
ENDBRANCH   1   2
BRANCH   1  15
HETATM   15  C10 UNL     1      -1.202   5.463  13.739  1.00  0.00     0.050 C 
BRANCH  15  16
HETATM   16  C11 UNL     1      -0.604   6.692  14.434  1.00  0.00     0.274 C 
BRANCH  16  17
HETATM   17  N3  UNL     1       0.440   7.349  13.634  1.00  0.00     0.091 N 
HETATM   18  C12 UNL     1      -0.132   8.200  12.563  1.00  0.00     0.292 C 
HETATM   19  C13 UNL     1       0.787   8.395  11.334  1.00  0.00     0.153 C 
HETATM   20  N4  UNL     1       1.093   7.100  10.708  1.00  0.00    -0.378 N 
HETATM   21  C20 UNL     1       1.134   5.935  11.607  1.00  0.00     0.153 C 
HETATM   22  C21 UNL     1       1.394   6.367  13.070  1.00  0.00     0.292 C 
BRANCH  20  23
HETATM   23  C14 UNL     1       1.469   6.997   9.378  1.00  0.00     0.030 A 
HETATM   24  C15 UNL     1       0.965   7.869   8.399  1.00  0.00     0.029 A 
HETATM   25  C16 UNL     1       1.341   7.777   7.053  1.00  0.00     0.002 A 
HETATM   26  C17 UNL     1       2.243   6.800   6.648  1.00  0.00     0.000 A 
HETATM   27  C18 UNL     1       2.764   5.923   7.590  1.00  0.00     0.002 A 
HETATM   28  C19 UNL     1       2.381   6.025   8.934  1.00  0.00     0.029 A 
ENDBRANCH  20  23
ENDBRANCH  16  17
ENDBRANCH  15  16
ENDBRANCH   1  15
TORSDOF 5
ENDMDL
MODEL 3
REMARK minimizedAffinity -8.57821941
REMARK  5 active torsions:
REMARK  status: ('A' for Active; 'I' for Inactive)
REMARK    1  A    between atoms: N2_12  and  C9_13 
REMARK    2  A    between atoms: C9_13  and  C10_14 
REMARK    3  A    between atoms: C10_14  and  C11_15 
REMARK    4  A    between atoms: C11_15  and  N3_16 
REMARK    5  A    between atoms: N4_19  and  C14_20 
ROOT
HETATM    1  C9  UNL     1      -0.661   9.102  11.983  1.00  0.00     0.139 C 
ENDROOT
BRANCH   1   2
HETATM    2  N2  UNL     1       0.221   8.304  11.139  1.00  0.00    -0.266 N 
HETATM    3  C1  UNL     1       1.041   7.371  11.755  1.00  0.00     0.329 A 
HETATM    4  O1  UNL     1       1.088   7.186  12.970  1.00  0.00    -0.246 OA
HETATM    5  N1  UNL     1       1.840   6.621  10.939  1.00  0.00    -0.307 N 
HETATM    6  C2  UNL     1       1.855   6.729   9.553  1.00  0.00     0.052 A 
HETATM    7  H1  UNL     1       2.435   5.952  11.413  1.00  0.00     0.170 HD
HETATM    8  C3  UNL     1       2.707   5.923   8.798  1.00  0.00     0.030 A 
HETATM    9  C7  UNL     1       1.012   7.639   8.924  1.00  0.00     0.059 A 
HETATM   10  C4  UNL     1       2.711   6.037   7.406  1.00  0.00     0.002 A 
HETATM   11  C5  UNL     1       1.866   6.950   6.773  1.00  0.00     0.001 A 
HETATM   12  C6  UNL     1       1.014   7.753   7.530  1.00  0.00     0.019 A 
HETATM   13  C8  UNL     1       0.122   8.469   9.758  1.00  0.00     0.264 A 
HETATM   14  O2  UNL     1      -0.656   9.250   9.214  1.00  0.00    -0.267 OA
ENDBRANCH   1   2
BRANCH   1  15
HETATM   15  C10 UNL     1      -2.052   8.472  12.100  1.00  0.00     0.050 C 
BRANCH  15  16
HETATM   16  C11 UNL     1      -2.479   8.366  13.568  1.00  0.00     0.274 C 
BRANCH  16  17
HETATM   17  N3  UNL     1      -2.621   6.975  14.023  1.00  0.00     0.091 N 
HETATM   18  C12 UNL     1      -2.300   6.003  12.950  1.00  0.00     0.292 C 
HETATM   19  C13 UNL     1      -3.002   4.631  13.090  1.00  0.00     0.153 C 
HETATM   20  N4  UNL     1      -4.464   4.796  13.069  1.00  0.00    -0.378 N 
HETATM   21  C20 UNL     1      -4.984   6.062  13.610  1.00  0.00     0.153 C 
HETATM   22  C21 UNL     1      -3.969   6.717  14.577  1.00  0.00     0.292 C 
BRANCH  20  23
HETATM   23  C14 UNL     1      -5.314   3.765  12.704  1.00  0.00     0.030 A 
HETATM   24  C15 UNL     1      -6.604   3.645  13.247  1.00  0.00     0.029 A 
HETATM   25  C16 UNL     1      -7.474   2.610  12.882  1.00  0.00     0.002 A 
HETATM   26  C17 UNL     1      -7.071   1.658  11.953  1.00  0.00     0.000 A 
HETATM   27  C18 UNL     1      -5.804   1.748  11.392  1.00  0.00     0.002 A 
HETATM   28  C19 UNL     1      -4.942   2.788  11.765  1.00  0.00     0.029 A 
ENDBRANCH  20  23
ENDBRANCH  16  17
ENDBRANCH  15  16
ENDBRANCH   1  15
TORSDOF 5
ENDMDL
MODEL 4
REMARK minimizedAffinity -8.40792465
REMARK  5 active torsions:
REMARK  status: ('A' for Active; 'I' for Inactive)
REMARK    1  A    between atoms: N2_12  and  C9_13 
REMARK    2  A    between atoms: C9_13  and  C10_14 
REMARK    3  A    between atoms: C10_14  and  C11_15 
REMARK    4  A    between atoms: C11_15  and  N3_16 
REMARK    5  A    between atoms: N4_19  and  C14_20 
ROOT
HETATM    1  C9  UNL     1      -2.907   7.366  13.398  1.00  0.00     0.139 C 
ENDROOT
BRANCH   1   2
HETATM    2  N2  UNL     1      -4.217   6.725  13.374  1.00  0.00    -0.266 N 
HETATM    3  C1  UNL     1      -5.332   7.516  13.606  1.00  0.00     0.329 A 
HETATM    4  O1  UNL     1      -5.287   8.720  13.851  1.00  0.00    -0.246 OA
HETATM    5  N1  UNL     1      -6.548   6.895  13.554  1.00  0.00    -0.307 N 
HETATM    6  C2  UNL     1      -6.719   5.545  13.266  1.00  0.00     0.052 A 
HETATM    7  H1  UNL     1      -7.346   7.491  13.735  1.00  0.00     0.170 HD
HETATM    8  C3  UNL     1      -8.000   4.994  13.238  1.00  0.00     0.030 A 
HETATM    9  C7  UNL     1      -5.609   4.752  12.999  1.00  0.00     0.059 A 
HETATM   10  C4  UNL     1      -8.162   3.639  12.942  1.00  0.00     0.002 A 
HETATM   11  C5  UNL     1      -7.049   2.840  12.675  1.00  0.00     0.001 A 
HETATM   12  C6  UNL     1      -5.770   3.394  12.702  1.00  0.00     0.019 A 
HETATM   13  C8  UNL     1      -4.272   5.374  13.033  1.00  0.00     0.264 A 
HETATM   14  O2  UNL     1      -3.285   4.693  12.761  1.00  0.00    -0.267 OA
ENDBRANCH   1   2
BRANCH   1  15
HETATM   15  C10 UNL     1      -2.250   7.257  14.777  1.00  0.00     0.050 C 
BRANCH  15  16
HETATM   16  C11 UNL     1      -1.100   6.244  14.752  1.00  0.00     0.274 C 
BRANCH  16  17
HETATM   17  N3  UNL     1       0.120   6.781  14.129  1.00  0.00     0.091 N 
HETATM   18  C12 UNL     1      -0.164   7.955  13.269  1.00  0.00     0.292 C 
HETATM   19  C13 UNL     1       0.853   8.177  12.124  1.00  0.00     0.153 C 
HETATM   20  N4  UNL     1       0.884   7.011  11.228  1.00  0.00    -0.378 N 
HETATM   21  C20 UNL     1       0.590   5.707  11.846  1.00  0.00     0.153 C 
HETATM   22  C21 UNL     1       0.849   5.739  13.371  1.00  0.00     0.292 C 
BRANCH  20  23
HETATM   23  C14 UNL     1       1.311   7.105   9.913  1.00  0.00     0.030 A 
HETATM   24  C15 UNL     1       0.973   8.204   9.106  1.00  0.00     0.029 A 
HETATM   25  C16 UNL     1       1.403   8.313   7.777  1.00  0.00     0.002 A 
HETATM   26  C17 UNL     1       2.190   7.315   7.216  1.00  0.00     0.000 A 
HETATM   27  C18 UNL     1       2.546   6.216   7.988  1.00  0.00     0.002 A 
HETATM   28  C19 UNL     1       2.111   6.118   9.316  1.00  0.00     0.029 A 
ENDBRANCH  20  23
ENDBRANCH  16  17
ENDBRANCH  15  16
ENDBRANCH   1  15
TORSDOF 5
ENDMDL
MODEL 5
REMARK minimizedAffinity -8.39349651
REMARK  5 active torsions:
REMARK  status: ('A' for Active; 'I' for Inactive)
REMARK    1  A    between atoms: N2_12  and  C9_13 
REMARK    2  A    between atoms: C9_13  and  C10_14 
REMARK    3  A    between atoms: C10_14  and  C11_15 
REMARK    4  A    between atoms: C11_15  and  N3_16 
REMARK    5  A    between atoms: N4_19  and  C14_20 
ROOT
HETATM    1  C9  UNL     1      -1.433   8.806  11.921  1.00  0.00     0.139 C 
ENDROOT
BRANCH   1   2
HETATM    2  N2  UNL     1      -0.408   8.075  11.186  1.00  0.00    -0.266 N 
HETATM    3  C1  UNL     1       0.237   7.031  11.832  1.00  0.00     0.329 A 
HETATM    4  O1  UNL     1       0.014   6.694  12.993  1.00  0.00    -0.246 OA
HETATM    5  N1  UNL     1       1.175   6.347  11.112  1.00  0.00    -0.307 N 
HETATM    6  C2  UNL     1       1.493   6.627   9.787  1.00  0.00     0.052 A 
HETATM    7  H1  UNL     1       1.636   5.595  11.608  1.00  0.00     0.170 HD
HETATM    8  C3  UNL     1       2.469   5.878   9.130  1.00  0.00     0.030 A 
HETATM    9  C7  UNL     1       0.830   7.651   9.121  1.00  0.00     0.059 A 
HETATM   10  C4  UNL     1       2.779   6.164   7.798  1.00  0.00     0.002 A 
HETATM   11  C5  UNL     1       2.114   7.192   7.127  1.00  0.00     0.001 A 
HETATM   12  C6  UNL     1       1.137   7.937   7.787  1.00  0.00     0.019 A 
HETATM   13  C8  UNL     1      -0.200   8.415   9.850  1.00  0.00     0.264 A 
HETATM   14  O2  UNL     1      -0.823   9.297   9.261  1.00  0.00    -0.267 OA
ENDBRANCH   1   2
BRANCH   1  15
HETATM   15  C10 UNL     1      -0.918   9.283  13.283  1.00  0.00     0.050 C 
BRANCH  15  16
HETATM   16  C11 UNL     1      -1.995  10.091  14.017  1.00  0.00     0.274 C 
BRANCH  16  17
HETATM   17  N3  UNL     1      -2.881   9.249  14.835  1.00  0.00     0.091 N 
HETATM   18  C12 UNL     1      -2.399   7.850  14.920  1.00  0.00     0.292 C 
HETATM   19  C13 UNL     1      -3.506   6.799  15.172  1.00  0.00     0.153 C 
HETATM   20  N4  UNL     1      -4.498   6.825  14.087  1.00  0.00    -0.378 N 
HETATM   21  C20 UNL     1      -4.711   8.125  13.430  1.00  0.00     0.153 C 
HETATM   22  C21 UNL     1      -4.279   9.293  14.348  1.00  0.00     0.292 C 
BRANCH  20  23
HETATM   23  C14 UNL     1      -5.297   5.730  13.795  1.00  0.00     0.030 A 
HETATM   24  C15 UNL     1      -4.874   4.724  12.911  1.00  0.00     0.029 A 
HETATM   25  C16 UNL     1      -5.670   3.611  12.611  1.00  0.00     0.002 A 
HETATM   26  C17 UNL     1      -6.924   3.475  13.196  1.00  0.00     0.000 A 
HETATM   27  C18 UNL     1      -7.372   4.450  14.078  1.00  0.00     0.002 A 
HETATM   28  C19 UNL     1      -6.567   5.558  14.371  1.00  0.00     0.029 A 
ENDBRANCH  20  23
ENDBRANCH  16  17
ENDBRANCH  15  16
ENDBRANCH   1  15
TORSDOF 5
ENDMDL
MODEL 6
REMARK minimizedAffinity -8.27885437
REMARK  5 active torsions:
REMARK  status: ('A' for Active; 'I' for Inactive)
REMARK    1  A    between atoms: N2_12  and  C9_13 
REMARK    2  A    between atoms: C9_13  and  C10_14 
REMARK    3  A    between atoms: C10_14  and  C11_15 
REMARK    4  A    between atoms: C11_15  and  N3_16 
REMARK    5  A    between atoms: N4_19  and  C14_20 
ROOT
HETATM    1  C9  UNL     1       1.466   8.256  11.036  1.00  0.00     0.139 C 
ENDROOT
BRANCH   1   2
HETATM    2  N2  UNL     1       1.841   7.436   9.889  1.00  0.00    -0.266 N 
HETATM    3  C1  UNL     1       1.455   7.866   8.628  1.00  0.00     0.329 A 
HETATM    4  O1  UNL     1       0.799   8.884   8.416  1.00  0.00    -0.246 OA
HETATM    5  N1  UNL     1       1.840   7.093   7.570  1.00  0.00    -0.307 N 
HETATM    6  C2  UNL     1       2.601   5.934   7.691  1.00  0.00     0.052 A 
HETATM    7  H1  UNL     1       1.540   7.423   6.662  1.00  0.00     0.170 HD
HETATM    8  C3  UNL     1       2.945   5.203   6.554  1.00  0.00     0.030 A 
HETATM    9  C7  UNL     1       3.020   5.513   8.948  1.00  0.00     0.059 A 
HETATM   10  C4  UNL     1       3.713   4.044   6.685  1.00  0.00     0.002 A 
HETATM   11  C5  UNL     1       4.135   3.619   7.946  1.00  0.00     0.001 A 
HETATM   12  C6  UNL     1       3.790   4.353   9.081  1.00  0.00     0.019 A 
HETATM   13  C8  UNL     1       2.639   6.317  10.124  1.00  0.00     0.264 A 
HETATM   14  O2  UNL     1       3.036   5.978  11.238  1.00  0.00    -0.267 OA
ENDBRANCH   1   2
BRANCH   1  15
HETATM   15  C10 UNL     1       0.141   7.794  11.650  1.00  0.00     0.050 C 
BRANCH  15  16
HETATM   16  C11 UNL     1       0.361   7.251  13.067  1.00  0.00     0.274 C 
BRANCH  16  17
HETATM   17  N3  UNL     1      -0.238   5.923  13.269  1.00  0.00     0.091 N 
HETATM   18  C12 UNL     1      -0.788   5.363  12.012  1.00  0.00     0.292 C 
HETATM   19  C13 UNL     1      -1.945   4.354  12.206  1.00  0.00     0.153 C 
HETATM   20  N4  UNL     1      -3.075   4.991  12.899  1.00  0.00    -0.378 N 
HETATM   21  C20 UNL     1      -2.735   6.068  13.843  1.00  0.00     0.153 C 
HETATM   22  C21 UNL     1      -1.271   5.946  14.329  1.00  0.00     0.292 C 
BRANCH  20  23
HETATM   23  C14 UNL     1      -4.370   4.512  12.787  1.00  0.00     0.030 A 
HETATM   24  C15 UNL     1      -5.442   5.121  13.460  1.00  0.00     0.029 A 
HETATM   25  C16 UNL     1      -6.757   4.648  13.352  1.00  0.00     0.002 A 
HETATM   26  C17 UNL     1      -7.034   3.542  12.558  1.00  0.00     0.000 A 
HETATM   27  C18 UNL     1      -5.998   2.918  11.874  1.00  0.00     0.002 A 
HETATM   28  C19 UNL     1      -4.688   3.400  11.990  1.00  0.00     0.029 A 
ENDBRANCH  20  23
ENDBRANCH  16  17
ENDBRANCH  15  16
ENDBRANCH   1  15
TORSDOF 5
ENDMDL
MODEL 7
REMARK minimizedAffinity -8.22464943
REMARK  5 active torsions:
REMARK  status: ('A' for Active; 'I' for Inactive)
REMARK    1  A    between atoms: N2_12  and  C9_13 
REMARK    2  A    between atoms: C9_13  and  C10_14 
REMARK    3  A    between atoms: C10_14  and  C11_15 
REMARK    4  A    between atoms: C11_15  and  N3_16 
REMARK    5  A    between atoms: N4_19  and  C14_20 
ROOT
HETATM    1  C9  UNL     1       0.987   7.594  10.125  1.00  0.00     0.139 C 
ENDROOT
BRANCH   1   2
HETATM    2  N2  UNL     1       2.376   7.243  10.399  1.00  0.00    -0.266 N 
HETATM    3  C1  UNL     1       2.963   6.257   9.621  1.00  0.00     0.329 A 
HETATM    4  O1  UNL     1       2.382   5.644   8.727  1.00  0.00    -0.246 OA
HETATM    5  N1  UNL     1       4.271   5.965   9.882  1.00  0.00    -0.307 N 
HETATM    6  C2  UNL     1       5.032   6.608  10.854  1.00  0.00     0.052 A 
HETATM    7  H1  UNL     1       4.675   5.237   9.307  1.00  0.00     0.170 HD
HETATM    8  C3  UNL     1       6.363   6.241  11.055  1.00  0.00     0.030 A 
HETATM    9  C7  UNL     1       4.461   7.620  11.617  1.00  0.00     0.059 A 
HETATM   10  C4  UNL     1       7.119   6.895  12.029  1.00  0.00     0.002 A 
HETATM   11  C5  UNL     1       6.548   7.912  12.797  1.00  0.00     0.001 A 
HETATM   12  C6  UNL     1       5.218   8.278  12.592  1.00  0.00     0.019 A 
HETATM   13  C8  UNL     1       3.053   7.981  11.369  1.00  0.00     0.264 A 
HETATM   14  O2  UNL     1       2.547   8.902  12.009  1.00  0.00    -0.267 OA
ENDBRANCH   1   2
BRANCH   1  15
HETATM   15  C10 UNL     1       0.021   6.529  10.653  1.00  0.00     0.050 C 
BRANCH  15  16
HETATM   16  C11 UNL     1      -0.208   6.704  12.159  1.00  0.00     0.274 C 
BRANCH  16  17
HETATM   17  N3  UNL     1      -0.895   5.555  12.769  1.00  0.00     0.091 N 
HETATM   18  C12 UNL     1      -1.561   4.702  11.755  1.00  0.00     0.292 C 
HETATM   19  C13 UNL     1      -2.779   3.906  12.282  1.00  0.00     0.153 C 
HETATM   20  N4  UNL     1      -3.813   4.821  12.790  1.00  0.00    -0.378 N 
HETATM   21  C20 UNL     1      -3.335   6.092  13.358  1.00  0.00     0.153 C 
HETATM   22  C21 UNL     1      -1.858   5.984  13.808  1.00  0.00     0.292 C 
BRANCH  20  23
HETATM   23  C14 UNL     1      -5.146   4.451  12.872  1.00  0.00     0.030 A 
HETATM   24  C15 UNL     1      -5.608   3.236  12.340  1.00  0.00     0.029 A 
HETATM   25  C16 UNL     1      -6.952   2.850  12.420  1.00  0.00     0.002 A 
HETATM   26  C17 UNL     1      -7.878   3.678  13.042  1.00  0.00     0.000 A 
HETATM   27  C18 UNL     1      -7.455   4.886  13.582  1.00  0.00     0.002 A 
HETATM   28  C19 UNL     1      -6.108   5.262  13.497  1.00  0.00     0.029 A 
ENDBRANCH  20  23
ENDBRANCH  16  17
ENDBRANCH  15  16
ENDBRANCH   1  15
TORSDOF 5
ENDMDL
MODEL 8
REMARK minimizedAffinity -8.11644268
REMARK  5 active torsions:
REMARK  status: ('A' for Active; 'I' for Inactive)
REMARK    1  A    between atoms: N2_12  and  C9_13 
REMARK    2  A    between atoms: C9_13  and  C10_14 
REMARK    3  A    between atoms: C10_14  and  C11_15 
REMARK    4  A    between atoms: C11_15  and  N3_16 
REMARK    5  A    between atoms: N4_19  and  C14_20 
ROOT
HETATM    1  C9  UNL     1      -3.521   7.058  14.119  1.00  0.00     0.139 C 
ENDROOT
BRANCH   1   2
HETATM    2  N2  UNL     1      -4.555   6.041  13.970  1.00  0.00    -0.266 N 
HETATM    3  C1  UNL     1      -5.681   6.136  14.773  1.00  0.00     0.329 A 
HETATM    4  O1  UNL     1      -5.856   7.013  15.619  1.00  0.00    -0.246 OA
HETATM    5  N1  UNL     1      -6.645   5.185  14.596  1.00  0.00    -0.307 N 
HETATM    6  C2  UNL     1      -6.564   4.162  13.657  1.00  0.00     0.052 A 
HETATM    7  H1  UNL     1      -7.454   5.271  15.199  1.00  0.00     0.170 HD
HETATM    8  C3  UNL     1      -7.597   3.230  13.549  1.00  0.00     0.030 A 
HETATM    9  C7  UNL     1      -5.454   4.077  12.825  1.00  0.00     0.059 A 
HETATM   10  C4  UNL     1      -7.508   2.209  12.599  1.00  0.00     0.002 A 
HETATM   11  C5  UNL     1      -6.394   2.123  11.763  1.00  0.00     0.001 A 
HETATM   12  C6  UNL     1      -5.364   3.057  11.873  1.00  0.00     0.019 A 
HETATM   13  C8  UNL     1      -4.387   5.086  12.969  1.00  0.00     0.264 A 
HETATM   14  O2  UNL     1      -3.418   5.047  12.213  1.00  0.00    -0.267 OA
ENDBRANCH   1   2
BRANCH   1  15
HETATM   15  C10 UNL     1      -2.305   6.519  14.879  1.00  0.00     0.050 C 
BRANCH  15  16
HETATM   16  C11 UNL     1      -1.293   7.639  15.148  1.00  0.00     0.274 C 
BRANCH  16  17
HETATM   17  N3  UNL     1      -1.125   8.545  14.001  1.00  0.00     0.091 N 
HETATM   18  C12 UNL     1      -1.559   7.919  12.729  1.00  0.00     0.292 C 
HETATM   19  C13 UNL     1      -0.864   8.477  11.464  1.00  0.00     0.153 C 
HETATM   20  N4  UNL     1       0.591   8.275  11.544  1.00  0.00    -0.378 N 
HETATM   21  C20 UNL     1       1.176   8.284  12.895  1.00  0.00     0.153 C 
HETATM   22  C21 UNL     1       0.267   9.038  13.894  1.00  0.00     0.292 C 
BRANCH  20  23
HETATM   23  C14 UNL     1       1.390   8.228  10.413  1.00  0.00     0.030 A 
HETATM   24  C15 UNL     1       2.784   8.083  10.500  1.00  0.00     0.029 A 
HETATM   25  C16 UNL     1       3.601   8.031   9.363  1.00  0.00     0.002 A 
HETATM   26  C17 UNL     1       3.037   8.122   8.097  1.00  0.00     0.000 A 
HETATM   27  C18 UNL     1       1.661   8.261   7.973  1.00  0.00     0.002 A 
HETATM   28  C19 UNL     1       0.853   8.312   9.117  1.00  0.00     0.029 A 
ENDBRANCH  20  23
ENDBRANCH  16  17
ENDBRANCH  15  16
ENDBRANCH   1  15
TORSDOF 5
ENDMDL
MODEL 9
REMARK minimizedAffinity -7.80933523
REMARK  5 active torsions:
REMARK  status: ('A' for Active; 'I' for Inactive)
REMARK    1  A    between atoms: N2_12  and  C9_13 
REMARK    2  A    between atoms: C9_13  and  C10_14 
REMARK    3  A    between atoms: C10_14  and  C11_15 
REMARK    4  A    between atoms: C11_15  and  N3_16 
REMARK    5  A    between atoms: N4_19  and  C14_20 
ROOT
HETATM    1  C9  UNL     1      -5.729   7.052  15.114  1.00  0.00     0.139 C 
ENDROOT
BRANCH   1   2
HETATM    2  N2  UNL     1      -6.113   5.806  14.459  1.00  0.00    -0.266 N 
HETATM    3  C1  UNL     1      -7.380   5.302  14.712  1.00  0.00     0.329 A 
HETATM    4  O1  UNL     1      -8.194   5.827  15.470  1.00  0.00    -0.246 OA
HETATM    5  N1  UNL     1      -7.722   4.148  14.067  1.00  0.00    -0.307 N 
HETATM    6  C2  UNL     1      -6.890   3.481  13.174  1.00  0.00     0.052 A 
HETATM    7  H1  UNL     1      -8.648   3.796  14.274  1.00  0.00     0.170 HD
HETATM    8  C3  UNL     1      -7.322   2.304  12.563  1.00  0.00     0.030 A 
HETATM    9  C7  UNL     1      -5.631   3.996  12.889  1.00  0.00     0.059 A 
HETATM   10  C4  UNL     1      -6.482   1.643  11.664  1.00  0.00     0.002 A 
HETATM   11  C5  UNL     1      -5.216   2.160  11.376  1.00  0.00     0.001 A 
HETATM   12  C6  UNL     1      -4.788   3.338  11.987  1.00  0.00     0.019 A 
HETATM   13  C8  UNL     1      -5.214   5.246  13.552  1.00  0.00     0.264 A 
HETATM   14  O2  UNL     1      -4.119   5.735  13.279  1.00  0.00    -0.267 OA
ENDBRANCH   1   2
BRANCH   1  15
HETATM   15  C10 UNL     1      -5.347   8.131  14.096  1.00  0.00     0.050 C 
BRANCH  15  16
HETATM   16  C11 UNL     1      -4.693   9.329  14.795  1.00  0.00     0.274 C 
BRANCH  16  17
HETATM   17  N3  UNL     1      -3.224   9.265  14.781  1.00  0.00     0.091 N 
HETATM   18  C12 UNL     1      -2.696   8.363  15.833  1.00  0.00     0.292 C 
HETATM   19  C13 UNL     1      -1.266   8.703  16.317  1.00  0.00     0.153 C 
HETATM   20  N4  UNL     1      -1.223  10.061  16.882  1.00  0.00    -0.378 N 
HETATM   21  C20 UNL     1      -2.168  11.034  16.311  1.00  0.00     0.153 C 
HETATM   22  C21 UNL     1      -2.619  10.611  14.893  1.00  0.00     0.292 C 
BRANCH  20  23
HETATM   23  C14 UNL     1      -0.252  10.448  17.792  1.00  0.00     0.030 A 
HETATM   24  C15 UNL     1      -0.588  10.943  19.063  1.00  0.00     0.029 A 
HETATM   25  C16 UNL     1       0.385  11.332  19.993  1.00  0.00     0.002 A 
HETATM   26  C17 UNL     1       1.733  11.234  19.671  1.00  0.00     0.000 A 
HETATM   27  C18 UNL     1       2.101  10.745  18.425  1.00  0.00     0.002 A 
HETATM   28  C19 UNL     1       1.120  10.358  17.503  1.00  0.00     0.029 A 
ENDBRANCH  20  23
ENDBRANCH  16  17
ENDBRANCH  15  16
ENDBRANCH   1  15
TORSDOF 5
ENDMDL
