MODEL 1
REMARK minimizedAffinity -8.07888699
REMARK CNNscore 0.341472179
REMARK CNNaffinity 6.247715
REMARK  14 active torsions:
REMARK  status: ('A' for Active; 'I' for Inactive)
REMARK    1  A    between atoms: C2_2  and  O2_4 
REMARK    2  A    between atoms: O2_4  and  C3_5 
REMARK    3  A    between atoms: C3_5  and  C4_6 
REMARK    4  A    between atoms: C4_6  and  C5_8 
REMARK    5  A    between atoms: C5_8  and  O4_9 
REMARK    6  A    between atoms: O4_9  and  C6_10 
REMARK    7  A    between atoms: C6_10  and  C7_12 
REMARK    8  A    between atoms: C7_12  and  C8_13 
REMARK    9  A    between atoms: C8_13  and  C9_14 
REMARK       I    between atoms: C9_14  and  N1_16 
REMARK   10  A    between atoms: N1_16  and  C10_17 
REMARK   11  A    between atoms: C10_17  and  C11_18 
REMARK   12  A    between atoms: C10_17  and  C18_25 
REMARK   13  A    between atoms: C11_18  and  C12_19 
REMARK   14  A    between atoms: C18_25  and  O8_27 
ROOT
HETATM    1  C3  UNL     1      -7.235  47.265 -22.754  1.00  0.00     0.140 C 
HETATM    2  C19 UNL     1      -7.564  46.641 -24.164  1.00  0.00     0.048 C 
HETATM    3  C20 UNL     1      -6.654  47.342 -25.204  1.00  0.00     0.009 C 
HETATM    4  C21 UNL     1      -5.712  48.155 -24.337  1.00  0.00     0.002 C 
HETATM    5  C22 UNL     1      -4.830  49.284 -24.862  1.00  0.00    -0.004 C 
HETATM    6  C23 UNL     1      -4.276  49.115 -26.283  1.00  0.00     0.010 C 
HETATM    7  C24 UNL     1      -2.752  49.101 -26.373  1.00  0.00     0.035 C 
HETATM    8  C25 UNL     1      -2.048  50.145 -25.532  1.00  0.00    -0.068 C 
HETATM    9  C26 UNL     1      -0.825  50.562 -25.905  1.00  0.00     0.053 C 
HETATM   10  C27 UNL     1       0.003  51.424 -25.030  1.00  0.00     0.149 C 
HETATM   11  O9  UNL     1       1.030  51.925 -25.483  1.00  0.00    -0.293 OA
HETATM   12  C28 UNL     1      -0.441  51.660 -23.606  1.00  0.00     0.084 C 
HETATM   13  C29 UNL     1      -1.554  50.710 -23.162  1.00  0.00     0.022 C 
HETATM   14  C30 UNL     1      -2.693  50.572 -24.207  1.00  0.00    -0.016 C 
HETATM   15  C31 UNL     1      -3.403  51.933 -24.390  1.00  0.00     0.020 C 
HETATM   16  C32 UNL     1      -3.714  49.463 -23.790  1.00  0.00     0.002 C 
HETATM   17  C33 UNL     1      -4.282  49.523 -22.341  1.00  0.00     0.007 C 
HETATM   18  C34 UNL     1      -5.812  49.486 -22.171  1.00  0.00     0.013 C 
HETATM   19  C35 UNL     1      -6.633  48.656 -23.186  1.00  0.00    -0.001 C 
HETATM   20  C36 UNL     1      -7.766  49.603 -23.713  1.00  0.00     0.019 C 
ENDROOT
BRANCH   1  21
HETATM   21  O2  UNL     1      -6.198  46.396 -22.221  1.00  0.00    -0.301 OA
BRANCH  21  22
HETATM   22  C2  UNL     1      -5.756  46.539 -20.946  1.00  0.00     0.256 C 
HETATM   23  C1  UNL     1      -4.279  46.298 -20.890  1.00  0.00     0.126 C 
HETATM   24  O1  UNL     1      -6.451  46.801 -19.979  1.00  0.00    -0.266 OA
ENDBRANCH  21  22
ENDBRANCH   1  21
BRANCH   1  25
HETATM   25  C4  UNL     1      -8.535  47.276 -21.895  1.00  0.00     0.186 C 
HETATM   26  O3  UNL     1      -8.722  48.083 -20.985  1.00  0.00    -0.292 OA
BRANCH  25  27
HETATM   27  C5  UNL     1      -9.584  46.221 -22.254  1.00  0.00     0.260 C 
BRANCH  27  28
HETATM   28  O4  UNL     1     -10.875  46.613 -21.789  1.00  0.00    -0.314 OA
BRANCH  28  29
HETATM   29  C6  UNL     1     -11.826  46.639 -22.755  1.00  0.00     0.259 C 
HETATM   30  O5  UNL     1     -11.608  46.452 -23.946  1.00  0.00    -0.265 OA
BRANCH  29  31
HETATM   31  C7  UNL     1     -13.200  46.862 -22.178  1.00  0.00     0.120 C 
BRANCH  31  32
HETATM   32  C8  UNL     1     -14.245  45.921 -22.766  1.00  0.00     0.112 C 
BRANCH  32  33
HETATM   33  C9  UNL     1     -15.207  46.650 -23.676  1.00  0.00     0.218 C 
HETATM   34  O6  UNL     1     -15.119  47.843 -23.946  1.00  0.00    -0.274 OA
HETATM   35  N1  UNL     1     -16.207  45.846 -24.161  1.00  0.00    -0.346 N 
HETATM   36  H10 UNL     1     -16.225  44.854 -23.938  1.00  0.00     0.163 HD
BRANCH  35  37
HETATM   37  C10 UNL     1     -17.257  46.351 -25.049  1.00  0.00     0.186 C 
BRANCH  37  38
HETATM   38  C11 UNL     1     -18.485  46.883 -24.291  1.00  0.00     0.074 C 
BRANCH  38  39
HETATM   39  C12 UNL     1     -18.868  46.081 -23.065  1.00  0.00    -0.056 A 
HETATM   40  C13 UNL     1     -18.483  46.509 -21.787  1.00  0.00     0.007 A 
HETATM   41  C14 UNL     1     -18.815  45.757 -20.659  1.00  0.00     0.001 A 
HETATM   42  C15 UNL     1     -19.534  44.572 -20.799  1.00  0.00     0.000 A 
HETATM   43  C16 UNL     1     -19.929  44.140 -22.064  1.00  0.00     0.001 A 
HETATM   44  C17 UNL     1     -19.600  44.892 -23.192  1.00  0.00     0.007 A 
ENDBRANCH  38  39
ENDBRANCH  37  38
BRANCH  37  45
HETATM   45  C18 UNL     1     -17.629  45.248 -26.037  1.00  0.00     0.163 C 
HETATM   46  O7  UNL     1     -17.166  44.114 -26.065  1.00  0.00    -0.648 OA
BRANCH  45  47
HETATM   47  O8  UNL     1     -18.533  45.631 -26.963  1.00  0.00    -0.775 OA
HETATM   48  H19 UNL     1     -18.637  44.836 -27.526  1.00  0.00     0.167 HD
ENDBRANCH  45  47
ENDBRANCH  37  45
ENDBRANCH  35  37
ENDBRANCH  32  33
ENDBRANCH  31  32
ENDBRANCH  29  31
ENDBRANCH  28  29
ENDBRANCH  27  28
ENDBRANCH  25  27
ENDBRANCH   1  25
TORSDOF 14
ENDMDL
MODEL 2
REMARK minimizedAffinity -7.43651819
REMARK CNNscore 0.28544122
REMARK CNNaffinity 6.83289003
REMARK  14 active torsions:
REMARK  status: ('A' for Active; 'I' for Inactive)
REMARK    1  A    between atoms: C2_2  and  O2_4 
REMARK    2  A    between atoms: O2_4  and  C3_5 
REMARK    3  A    between atoms: C3_5  and  C4_6 
REMARK    4  A    between atoms: C4_6  and  C5_8 
REMARK    5  A    between atoms: C5_8  and  O4_9 
REMARK    6  A    between atoms: O4_9  and  C6_10 
REMARK    7  A    between atoms: C6_10  and  C7_12 
REMARK    8  A    between atoms: C7_12  and  C8_13 
REMARK    9  A    between atoms: C8_13  and  C9_14 
REMARK       I    between atoms: C9_14  and  N1_16 
REMARK   10  A    between atoms: N1_16  and  C10_17 
REMARK   11  A    between atoms: C10_17  and  C11_18 
REMARK   12  A    between atoms: C10_17  and  C18_25 
REMARK   13  A    between atoms: C11_18  and  C12_19 
REMARK   14  A    between atoms: C18_25  and  O8_27 
ROOT
HETATM    1  C3  UNL     1       2.667  52.772 -10.348  1.00  0.00     0.140 C 
HETATM    2  C19 UNL     1       3.822  53.547 -11.092  1.00  0.00     0.048 C 
HETATM    3  C20 UNL     1       3.914  54.958 -10.457  1.00  0.00     0.009 C 
HETATM    4  C21 UNL     1       2.987  54.854  -9.262  1.00  0.00     0.002 C 
HETATM    5  C22 UNL     1       2.459  56.057  -8.485  1.00  0.00    -0.004 C 
HETATM    6  C23 UNL     1       3.407  57.256  -8.354  1.00  0.00     0.010 C 
HETATM    7  C24 UNL     1       3.764  57.629  -6.917  1.00  0.00     0.035 C 
HETATM    8  C25 UNL     1       2.607  57.620  -5.943  1.00  0.00    -0.068 C 
HETATM    9  C26 UNL     1       2.677  58.392  -4.844  1.00  0.00     0.053 C 
HETATM   10  C27 UNL     1       1.681  58.284  -3.751  1.00  0.00     0.149 C 
HETATM   11  O9  UNL     1       1.681  59.127  -2.857  1.00  0.00    -0.293 OA
HETATM   12  C28 UNL     1       0.697  57.139  -3.771  1.00  0.00     0.084 C 
HETATM   13  C29 UNL     1       1.067  56.051  -4.781  1.00  0.00     0.022 C 
HETATM   14  C30 UNL     1       1.468  56.616  -6.170  1.00  0.00    -0.016 C 
HETATM   15  C31 UNL     1       0.260  57.337  -6.810  1.00  0.00     0.020 C 
HETATM   16  C32 UNL     1       2.004  55.486  -7.108  1.00  0.00     0.002 C 
HETATM   17  C33 UNL     1       1.133  54.203  -7.252  1.00  0.00     0.007 C 
HETATM   18  C34 UNL     1       0.778  53.737  -8.676  1.00  0.00     0.013 C 
HETATM   19  C35 UNL     1       1.817  53.978  -9.797  1.00  0.00    -0.001 C 
HETATM   20  C36 UNL     1       1.043  54.683 -10.966  1.00  0.00     0.019 C 
ENDROOT
BRANCH   1  21
HETATM   21  O2  UNL     1       3.351  52.084  -9.265  1.00  0.00    -0.301 OA
BRANCH  21  22
HETATM   22  C2  UNL     1       4.539  51.462  -9.472  1.00  0.00     0.256 C 
HETATM   23  C1  UNL     1       4.312  50.009  -9.747  1.00  0.00     0.126 C 
HETATM   24  O1  UNL     1       5.636  51.993  -9.423  1.00  0.00    -0.266 OA
ENDBRANCH  21  22
ENDBRANCH   1  21
BRANCH   1  25
HETATM   25  C4  UNL     1       1.980  51.806 -11.359  1.00  0.00     0.186 C 
HETATM   26  O3  UNL     1       0.924  51.226 -11.110  1.00  0.00    -0.292 OA
BRANCH  25  27
HETATM   27  C5  UNL     1       2.696  51.620 -12.699  1.00  0.00     0.260 C 
BRANCH  27  28
HETATM   28  O4  UNL     1       1.776  51.210 -13.711  1.00  0.00    -0.314 OA
BRANCH  28  29
HETATM   29  C6  UNL     1       2.064  51.688 -14.947  1.00  0.00     0.259 C 
HETATM   30  O5  UNL     1       3.193  51.964 -15.336  1.00  0.00    -0.265 OA
BRANCH  29  31
HETATM   31  C7  UNL     1       0.833  51.778 -15.811  1.00  0.00     0.120 C 
BRANCH  31  32
HETATM   32  C8  UNL     1       0.269  50.409 -16.176  1.00  0.00     0.112 C 
BRANCH  32  33
HETATM   33  C9  UNL     1      -0.715  50.496 -17.319  1.00  0.00     0.218 C 
HETATM   34  O6  UNL     1      -1.812  51.037 -17.236  1.00  0.00    -0.274 OA
HETATM   35  N1  UNL     1      -0.266  49.891 -18.466  1.00  0.00    -0.346 N 
HETATM   36  H10 UNL     1       0.664  49.483 -18.503  1.00  0.00     0.163 HD
BRANCH  35  37
HETATM   37  C10 UNL     1      -1.066  49.844 -19.692  1.00  0.00     0.186 C 
BRANCH  37  38
HETATM   38  C11 UNL     1      -1.621  51.219 -20.104  1.00  0.00     0.074 C 
BRANCH  38  39
HETATM   39  C12 UNL     1      -0.591  52.178 -20.660  1.00  0.00    -0.056 A 
HETATM   40  C13 UNL     1      -0.233  52.130 -22.014  1.00  0.00     0.007 A 
HETATM   41  C14 UNL     1       0.736  52.997 -22.522  1.00  0.00     0.001 A 
HETATM   42  C15 UNL     1       1.355  53.919 -21.680  1.00  0.00     0.000 A 
HETATM   43  C16 UNL     1       1.002  53.981 -20.333  1.00  0.00     0.001 A 
HETATM   44  C17 UNL     1       0.032  53.116 -19.825  1.00  0.00     0.007 A 
ENDBRANCH  38  39
ENDBRANCH  37  38
BRANCH  37  45
HETATM   45  C18 UNL     1      -2.175  48.812 -19.509  1.00  0.00     0.163 C 
HETATM   46  O7  UNL     1      -3.368  48.982 -19.729  1.00  0.00    -0.648 OA
BRANCH  45  47
HETATM   47  O8  UNL     1      -1.742  47.630 -19.022  1.00  0.00    -0.775 OA
HETATM   48  H19 UNL     1      -2.562  47.101 -18.935  1.00  0.00     0.167 HD
ENDBRANCH  45  47
ENDBRANCH  37  45
ENDBRANCH  35  37
ENDBRANCH  32  33
ENDBRANCH  31  32
ENDBRANCH  29  31
ENDBRANCH  28  29
ENDBRANCH  27  28
ENDBRANCH  25  27
ENDBRANCH   1  25
TORSDOF 14
ENDMDL
MODEL 3
REMARK minimizedAffinity -7.71405554
REMARK CNNscore 0.271659911
REMARK CNNaffinity 6.68138933
REMARK  14 active torsions:
REMARK  status: ('A' for Active; 'I' for Inactive)
REMARK    1  A    between atoms: C2_2  and  O2_4 
REMARK    2  A    between atoms: O2_4  and  C3_5 
REMARK    3  A    between atoms: C3_5  and  C4_6 
REMARK    4  A    between atoms: C4_6  and  C5_8 
REMARK    5  A    between atoms: C5_8  and  O4_9 
REMARK    6  A    between atoms: O4_9  and  C6_10 
REMARK    7  A    between atoms: C6_10  and  C7_12 
REMARK    8  A    between atoms: C7_12  and  C8_13 
REMARK    9  A    between atoms: C8_13  and  C9_14 
REMARK       I    between atoms: C9_14  and  N1_16 
REMARK   10  A    between atoms: N1_16  and  C10_17 
REMARK   11  A    between atoms: C10_17  and  C11_18 
REMARK   12  A    between atoms: C10_17  and  C18_25 
REMARK   13  A    between atoms: C11_18  and  C12_19 
REMARK   14  A    between atoms: C18_25  and  O8_27 
ROOT
HETATM    1  C3  UNL     1       0.856  49.524 -14.109  1.00  0.00     0.140 C 
HETATM    2  C19 UNL     1       0.155  48.154 -14.452  1.00  0.00     0.048 C 
HETATM    3  C20 UNL     1      -0.461  48.292 -15.867  1.00  0.00     0.009 C 
HETATM    4  C21 UNL     1       0.092  49.619 -16.350  1.00  0.00     0.002 C 
HETATM    5  C22 UNL     1      -0.459  50.387 -17.548  1.00  0.00    -0.004 C 
HETATM    6  C23 UNL     1      -0.989  49.545 -18.716  1.00  0.00     0.010 C 
HETATM    7  C24 UNL     1      -0.272  49.779 -20.044  1.00  0.00     0.035 C 
HETATM    8  C25 UNL     1       0.009  51.228 -20.377  1.00  0.00    -0.068 C 
HETATM    9  C26 UNL     1       0.142  51.584 -21.667  1.00  0.00     0.053 C 
HETATM   10  C27 UNL     1       0.615  52.932 -22.058  1.00  0.00     0.149 C 
HETATM   11  O9  UNL     1       0.549  53.270 -23.238  1.00  0.00    -0.293 OA
HETATM   12  C28 UNL     1       1.163  53.851 -20.993  1.00  0.00     0.084 C 
HETATM   13  C29 UNL     1       1.440  53.134 -19.670  1.00  0.00     0.022 C 
HETATM   14  C30 UNL     1       0.282  52.203 -19.224  1.00  0.00    -0.016 C 
HETATM   15  C31 UNL     1      -0.985  53.043 -18.944  1.00  0.00     0.020 C 
HETATM   16  C32 UNL     1       0.682  51.362 -17.968  1.00  0.00     0.002 C 
HETATM   17  C33 UNL     1       1.287  52.131 -16.756  1.00  0.00     0.007 C 
HETATM   18  C34 UNL     1       0.648  51.902 -15.374  1.00  0.00     0.013 C 
HETATM   19  C35 UNL     1       0.071  50.499 -15.066  1.00  0.00    -0.001 C 
HETATM   20  C36 UNL     1      -1.387  50.731 -14.537  1.00  0.00     0.019 C 
ENDROOT
BRANCH   1  21
HETATM   21  O2  UNL     1       2.224  49.340 -14.566  1.00  0.00    -0.301 OA
BRANCH  21  22
HETATM   22  C2  UNL     1       3.181  48.863 -13.731  1.00  0.00     0.256 C 
HETATM   23  C1  UNL     1       4.270  49.877 -13.571  1.00  0.00     0.126 C 
HETATM   24  O1  UNL     1       3.177  47.763 -13.202  1.00  0.00    -0.266 OA
ENDBRANCH  21  22
ENDBRANCH   1  21
BRANCH   1  25
HETATM   25  C4  UNL     1       0.745  49.773 -12.575  1.00  0.00     0.186 C 
HETATM   26  O3  UNL     1       0.309  48.927 -11.794  1.00  0.00    -0.292 OA
BRANCH  25  27
HETATM   27  C5  UNL     1       1.219  51.143 -12.083  1.00  0.00     0.260 C 
BRANCH  27  28
HETATM   28  O4  UNL     1       1.776  51.045 -10.773  1.00  0.00    -0.314 OA
BRANCH  28  29
HETATM   29  C6  UNL     1       2.130  52.237 -10.232  1.00  0.00     0.259 C 
HETATM   30  O5  UNL     1       3.246  52.735 -10.329  1.00  0.00    -0.265 OA
BRANCH  29  31
HETATM   31  C7  UNL     1       0.966  52.909  -9.552  1.00  0.00     0.120 C 
BRANCH  31  32
HETATM   32  C8  UNL     1       1.323  53.450  -8.172  1.00  0.00     0.112 C 
BRANCH  32  33
HETATM   33  C9  UNL     1       1.349  54.962  -8.153  1.00  0.00     0.218 C 
HETATM   34  O6  UNL     1       0.642  55.665  -8.866  1.00  0.00    -0.274 OA
HETATM   35  N1  UNL     1       2.259  55.475  -7.264  1.00  0.00    -0.346 N 
HETATM   36  H10 UNL     1       2.803  54.857  -6.668  1.00  0.00     0.163 HD
BRANCH  35  37
HETATM   37  C10 UNL     1       2.461  56.916  -7.094  1.00  0.00     0.186 C 
BRANCH  37  38
HETATM   38  C11 UNL     1       3.570  57.481  -7.998  1.00  0.00     0.074 C 
BRANCH  38  39
HETATM   39  C12 UNL     1       4.731  56.540  -8.241  1.00  0.00    -0.056 A 
HETATM   40  C13 UNL     1       5.769  56.435  -7.305  1.00  0.00     0.007 A 
HETATM   41  C14 UNL     1       6.852  55.586  -7.541  1.00  0.00     0.001 A 
HETATM   42  C15 UNL     1       6.905  54.834  -8.713  1.00  0.00     0.000 A 
HETATM   43  C16 UNL     1       5.873  54.924  -9.647  1.00  0.00     0.001 A 
HETATM   44  C17 UNL     1       4.790  55.771  -9.412  1.00  0.00     0.007 A 
ENDBRANCH  38  39
ENDBRANCH  37  38
BRANCH  37  45
HETATM   45  C18 UNL     1       2.728  57.198  -5.618  1.00  0.00     0.163 C 
HETATM   46  O7  UNL     1       2.569  56.414  -4.690  1.00  0.00    -0.648 OA
BRANCH  45  47
HETATM   47  O8  UNL     1       3.144  58.458  -5.372  1.00  0.00    -0.775 OA
HETATM   48  H19 UNL     1       3.238  58.484  -4.397  1.00  0.00     0.167 HD
ENDBRANCH  45  47
ENDBRANCH  37  45
ENDBRANCH  35  37
ENDBRANCH  32  33
ENDBRANCH  31  32
ENDBRANCH  29  31
ENDBRANCH  28  29
ENDBRANCH  27  28
ENDBRANCH  25  27
ENDBRANCH   1  25
TORSDOF 14
ENDMDL
MODEL 4
REMARK minimizedAffinity -8.58837891
REMARK CNNscore 0.229941517
REMARK CNNaffinity 6.05149841
REMARK  14 active torsions:
REMARK  status: ('A' for Active; 'I' for Inactive)
REMARK    1  A    between atoms: C2_2  and  O2_4 
REMARK    2  A    between atoms: O2_4  and  C3_5 
REMARK    3  A    between atoms: C3_5  and  C4_6 
REMARK    4  A    between atoms: C4_6  and  C5_8 
REMARK    5  A    between atoms: C5_8  and  O4_9 
REMARK    6  A    between atoms: O4_9  and  C6_10 
REMARK    7  A    between atoms: C6_10  and  C7_12 
REMARK    8  A    between atoms: C7_12  and  C8_13 
REMARK    9  A    between atoms: C8_13  and  C9_14 
REMARK       I    between atoms: C9_14  and  N1_16 
REMARK   10  A    between atoms: N1_16  and  C10_17 
REMARK   11  A    between atoms: C10_17  and  C11_18 
REMARK   12  A    between atoms: C10_17  and  C18_25 
REMARK   13  A    between atoms: C11_18  and  C12_19 
REMARK   14  A    between atoms: C18_25  and  O8_27 
ROOT
HETATM    1  C3  UNL     1      -5.585  48.380 -21.426  1.00  0.00     0.140 C 
HETATM    2  C19 UNL     1      -6.175  47.486 -22.583  1.00  0.00     0.048 C 
HETATM    3  C20 UNL     1      -5.535  47.966 -23.910  1.00  0.00     0.009 C 
HETATM    4  C21 UNL     1      -4.468  48.937 -23.441  1.00  0.00     0.002 C 
HETATM    5  C22 UNL     1      -3.766  49.939 -24.353  1.00  0.00    -0.004 C 
HETATM    6  C23 UNL     1      -3.515  49.489 -25.798  1.00  0.00     0.010 C 
HETATM    7  C24 UNL     1      -2.045  49.460 -26.208  1.00  0.00     0.035 C 
HETATM    8  C25 UNL     1      -1.227  50.651 -25.758  1.00  0.00    -0.068 C 
HETATM    9  C26 UNL     1      -0.129  50.987 -26.458  1.00  0.00     0.053 C 
HETATM   10  C27 UNL     1       0.827  52.007 -25.966  1.00  0.00     0.149 C 
HETATM   11  O9  UNL     1       1.713  52.408 -26.717  1.00  0.00    -0.293 OA
HETATM   12  C28 UNL     1       0.681  52.523 -24.554  1.00  0.00     0.084 C 
HETATM   13  C29 UNL     1      -0.272  51.679 -23.706  1.00  0.00     0.022 C 
HETATM   14  C30 UNL     1      -1.598  51.334 -24.435  1.00  0.00    -0.016 C 
HETATM   15  C31 UNL     1      -2.389  52.631 -24.723  1.00  0.00     0.020 C 
HETATM   16  C32 UNL     1      -2.459  50.330 -23.601  1.00  0.00     0.002 C 
HETATM   17  C33 UNL     1      -2.713  50.678 -22.104  1.00  0.00     0.007 C 
HETATM   18  C34 UNL     1      -4.170  50.674 -21.607  1.00  0.00     0.013 C 
HETATM   19  C35 UNL     1      -5.149  49.657 -22.240  1.00  0.00    -0.001 C 
HETATM   20  C36 UNL     1      -6.407  50.479 -22.687  1.00  0.00     0.019 C 
ENDROOT
BRANCH   1  21
HETATM   21  O2  UNL     1      -4.423  47.637 -20.968  1.00  0.00    -0.301 OA
BRANCH  21  22
HETATM   22  C2  UNL     1      -3.618  48.131 -19.994  1.00  0.00     0.256 C 
HETATM   23  C1  UNL     1      -2.195  47.760 -20.272  1.00  0.00     0.126 C 
HETATM   24  O1  UNL     1      -3.989  48.764 -19.019  1.00  0.00    -0.266 OA
ENDBRANCH  21  22
ENDBRANCH   1  21
BRANCH   1  25
HETATM   25  C4  UNL     1      -6.675  48.562 -20.328  1.00  0.00     0.186 C 
HETATM   26  O3  UNL     1      -6.476  49.197 -19.293  1.00  0.00    -0.292 OA
BRANCH  25  27
HETATM   27  C5  UNL     1      -8.029  47.906 -20.613  1.00  0.00     0.260 C 
BRANCH  27  28
HETATM   28  O4  UNL     1      -8.323  46.908 -19.636  1.00  0.00    -0.314 OA
BRANCH  28  29
HETATM   29  C6  UNL     1      -9.646  46.756 -19.382  1.00  0.00     0.259 C 
HETATM   30  O5  UNL     1     -10.130  46.682 -18.258  1.00  0.00    -0.265 OA
BRANCH  29  31
HETATM   31  C7  UNL     1     -10.461  46.755 -20.649  1.00  0.00     0.120 C 
BRANCH  31  32
HETATM   32  C8  UNL     1     -11.747  45.947 -20.522  1.00  0.00     0.112 C 
BRANCH  32  33
HETATM   33  C9  UNL     1     -12.821  46.716 -19.786  1.00  0.00     0.218 C 
HETATM   34  O6  UNL     1     -13.037  47.911 -19.950  1.00  0.00    -0.274 OA
HETATM   35  N1  UNL     1     -13.525  45.944 -18.898  1.00  0.00    -0.346 N 
HETATM   36  H10 UNL     1     -13.335  44.949 -18.816  1.00  0.00     0.163 HD
BRANCH  35  37
HETATM   37  C10 UNL     1     -14.602  46.489 -18.067  1.00  0.00     0.186 C 
BRANCH  37  38
HETATM   38  C11 UNL     1     -15.350  47.654 -18.739  1.00  0.00     0.074 C 
BRANCH  38  39
HETATM   39  C12 UNL     1     -16.495  47.237 -19.637  1.00  0.00    -0.056 A 
HETATM   40  C13 UNL     1     -17.822  47.373 -19.207  1.00  0.00     0.007 A 
HETATM   41  C14 UNL     1     -18.877  46.966 -20.025  1.00  0.00     0.001 A 
HETATM   42  C15 UNL     1     -18.615  46.418 -21.279  1.00  0.00     0.000 A 
HETATM   43  C16 UNL     1     -17.299  46.285 -21.721  1.00  0.00     0.001 A 
HETATM   44  C17 UNL     1     -16.244  46.694 -20.905  1.00  0.00     0.007 A 
ENDBRANCH  38  39
ENDBRANCH  37  38
BRANCH  37  45
HETATM   45  C18 UNL     1     -14.017  46.890 -16.716  1.00  0.00     0.163 C 
HETATM   46  O7  UNL     1     -14.339  46.437 -15.624  1.00  0.00    -0.648 OA
BRANCH  45  47
HETATM   47  O8  UNL     1     -13.087  47.864 -16.794  1.00  0.00    -0.775 OA
HETATM   48  H19 UNL     1     -12.840  48.023 -15.859  1.00  0.00     0.167 HD
ENDBRANCH  45  47
ENDBRANCH  37  45
ENDBRANCH  35  37
ENDBRANCH  32  33
ENDBRANCH  31  32
ENDBRANCH  29  31
ENDBRANCH  28  29
ENDBRANCH  27  28
ENDBRANCH  25  27
ENDBRANCH   1  25
TORSDOF 14
ENDMDL
MODEL 5
REMARK minimizedAffinity -9.13434219
REMARK CNNscore 0.224861309
REMARK CNNaffinity 6.95642233
REMARK  14 active torsions:
REMARK  status: ('A' for Active; 'I' for Inactive)
REMARK    1  A    between atoms: C2_2  and  O2_4 
REMARK    2  A    between atoms: O2_4  and  C3_5 
REMARK    3  A    between atoms: C3_5  and  C4_6 
REMARK    4  A    between atoms: C4_6  and  C5_8 
REMARK    5  A    between atoms: C5_8  and  O4_9 
REMARK    6  A    between atoms: O4_9  and  C6_10 
REMARK    7  A    between atoms: C6_10  and  C7_12 
REMARK    8  A    between atoms: C7_12  and  C8_13 
REMARK    9  A    between atoms: C8_13  and  C9_14 
REMARK       I    between atoms: C9_14  and  N1_16 
REMARK   10  A    between atoms: N1_16  and  C10_17 
REMARK   11  A    between atoms: C10_17  and  C11_18 
REMARK   12  A    between atoms: C10_17  and  C18_25 
REMARK   13  A    between atoms: C11_18  and  C12_19 
REMARK   14  A    between atoms: C18_25  and  O8_27 
ROOT
HETATM    1  C3  UNL     1      -0.785  51.902 -25.618  1.00  0.00     0.140 C 
HETATM    2  C19 UNL     1       0.032  53.240 -25.450  1.00  0.00     0.048 C 
HETATM    3  C20 UNL     1       0.144  53.526 -23.931  1.00  0.00     0.009 C 
HETATM    4  C21 UNL     1      -0.404  52.258 -23.306  1.00  0.00     0.002 C 
HETATM    5  C22 UNL     1      -0.824  52.141 -21.843  1.00  0.00    -0.004 C 
HETATM    6  C23 UNL     1      -0.010  52.956 -20.831  1.00  0.00     0.010 C 
HETATM    7  C24 UNL     1       0.685  52.123 -19.757  1.00  0.00     0.035 C 
HETATM    8  C25 UNL     1      -0.154  51.015 -19.158  1.00  0.00    -0.068 C 
HETATM    9  C26 UNL     1       0.131  50.582 -17.917  1.00  0.00     0.053 C 
HETATM   10  C27 UNL     1      -0.510  49.374 -17.347  1.00  0.00     0.149 C 
HETATM   11  O9  UNL     1      -0.355  49.121 -16.155  1.00  0.00    -0.293 OA
HETATM   12  C28 UNL     1      -1.334  48.489 -18.252  1.00  0.00     0.084 C 
HETATM   13  C29 UNL     1      -1.141  48.807 -19.736  1.00  0.00     0.022 C 
HETATM   14  C30 UNL     1      -1.197  50.326 -20.048  1.00  0.00    -0.016 C 
HETATM   15  C31 UNL     1      -2.604  50.876 -19.720  1.00  0.00     0.020 C 
HETATM   16  C32 UNL     1      -0.821  50.613 -21.539  1.00  0.00     0.002 C 
HETATM   17  C33 UNL     1      -1.557  49.784 -22.634  1.00  0.00     0.007 C 
HETATM   18  C34 UNL     1      -2.236  50.557 -23.779  1.00  0.00     0.013 C 
HETATM   19  C35 UNL     1      -1.576  51.873 -24.256  1.00  0.00    -0.001 C 
HETATM   20  C36 UNL     1      -2.710  52.957 -24.257  1.00  0.00     0.019 C 
ENDROOT
BRANCH   1  21
HETATM   21  O2  UNL     1       0.238  50.869 -25.644  1.00  0.00    -0.301 OA
BRANCH  21  22
HETATM   22  C2  UNL     1       1.389  51.045 -26.340  1.00  0.00     0.256 C 
HETATM   23  C1  UNL     1       1.087  51.621 -27.688  1.00  0.00     0.126 C 
HETATM   24  O1  UNL     1       2.508  50.758 -25.946  1.00  0.00    -0.266 OA
ENDBRANCH  21  22
ENDBRANCH   1  21
BRANCH   1  25
HETATM   25  C4  UNL     1      -1.615  51.984 -26.933  1.00  0.00     0.186 C 
HETATM   26  O3  UNL     1      -1.933  53.053 -27.453  1.00  0.00    -0.292 OA
BRANCH  25  27
HETATM   27  C5  UNL     1      -2.014  50.644 -27.558  1.00  0.00     0.260 C 
BRANCH  27  28
HETATM   28  O4  UNL     1      -3.358  50.307 -27.216  1.00  0.00    -0.314 OA
BRANCH  28  29
HETATM   29  C6  UNL     1      -3.512  49.039 -26.760  1.00  0.00     0.259 C 
HETATM   30  O5  UNL     1      -2.590  48.321 -26.390  1.00  0.00    -0.265 OA
BRANCH  29  31
HETATM   31  C7  UNL     1      -4.964  48.641 -26.700  1.00  0.00     0.120 C 
BRANCH  31  32
HETATM   32  C8  UNL     1      -5.365  48.083 -25.339  1.00  0.00     0.112 C 
BRANCH  32  33
HETATM   33  C9  UNL     1      -6.830  47.711 -25.296  1.00  0.00     0.218 C 
HETATM   34  O6  UNL     1      -7.445  47.484 -24.261  1.00  0.00    -0.274 OA
HETATM   35  N1  UNL     1      -7.404  47.636 -26.539  1.00  0.00    -0.346 N 
HETATM   36  H10 UNL     1      -6.866  47.864 -27.371  1.00  0.00     0.163 HD
BRANCH  35  37
HETATM   37  C10 UNL     1      -8.812  47.276 -26.732  1.00  0.00     0.186 C 
BRANCH  37  38
HETATM   38  C11 UNL     1      -9.117  46.774 -28.153  1.00  0.00     0.074 C 
BRANCH  38  39
HETATM   39  C12 UNL     1     -10.591  46.648 -28.477  1.00  0.00    -0.056 A 
HETATM   40  C13 UNL     1     -11.220  47.587 -29.306  1.00  0.00     0.007 A 
HETATM   41  C14 UNL     1     -12.583  47.485 -29.584  1.00  0.00     0.001 A 
HETATM   42  C15 UNL     1     -13.330  46.443 -29.036  1.00  0.00     0.000 A 
HETATM   43  C16 UNL     1     -12.714  45.499 -28.216  1.00  0.00     0.001 A 
HETATM   44  C17 UNL     1     -11.350  45.599 -27.939  1.00  0.00     0.007 A 
ENDBRANCH  38  39
ENDBRANCH  37  38
BRANCH  37  45
HETATM   45  C18 UNL     1      -9.675  48.476 -26.351  1.00  0.00     0.163 C 
HETATM   46  O7  UNL     1     -10.606  48.475 -25.555  1.00  0.00    -0.648 OA
BRANCH  45  47
HETATM   47  O8  UNL     1      -9.356  49.607 -27.014  1.00  0.00    -0.775 OA
HETATM   48  H19 UNL     1     -10.009  50.260 -26.686  1.00  0.00     0.167 HD
ENDBRANCH  45  47
ENDBRANCH  37  45
ENDBRANCH  35  37
ENDBRANCH  32  33
ENDBRANCH  31  32
ENDBRANCH  29  31
ENDBRANCH  28  29
ENDBRANCH  27  28
ENDBRANCH  25  27
ENDBRANCH   1  25
TORSDOF 14
ENDMDL
MODEL 6
REMARK minimizedAffinity -9.59104729
REMARK CNNscore 0.212829426
REMARK CNNaffinity 6.63060236
REMARK  14 active torsions:
REMARK  status: ('A' for Active; 'I' for Inactive)
REMARK    1  A    between atoms: C2_2  and  O2_4 
REMARK    2  A    between atoms: O2_4  and  C3_5 
REMARK    3  A    between atoms: C3_5  and  C4_6 
REMARK    4  A    between atoms: C4_6  and  C5_8 
REMARK    5  A    between atoms: C5_8  and  O4_9 
REMARK    6  A    between atoms: O4_9  and  C6_10 
REMARK    7  A    between atoms: C6_10  and  C7_12 
REMARK    8  A    between atoms: C7_12  and  C8_13 
REMARK    9  A    between atoms: C8_13  and  C9_14 
REMARK       I    between atoms: C9_14  and  N1_16 
REMARK   10  A    between atoms: N1_16  and  C10_17 
REMARK   11  A    between atoms: C10_17  and  C11_18 
REMARK   12  A    between atoms: C10_17  and  C18_25 
REMARK   13  A    between atoms: C11_18  and  C12_19 
REMARK   14  A    between atoms: C18_25  and  O8_27 
ROOT
HETATM    1  C3  UNL     1      -0.630  52.098 -25.703  1.00  0.00     0.140 C 
HETATM    2  C19 UNL     1       0.164  53.456 -25.596  1.00  0.00     0.048 C 
HETATM    3  C20 UNL     1       0.299  53.795 -24.090  1.00  0.00     0.009 C 
HETATM    4  C21 UNL     1      -0.213  52.538 -23.413  1.00  0.00     0.002 C 
HETATM    5  C22 UNL     1      -0.603  52.463 -21.939  1.00  0.00    -0.004 C 
HETATM    6  C23 UNL     1       0.215  53.327 -20.970  1.00  0.00     0.010 C 
HETATM    7  C24 UNL     1       0.946  52.544 -19.883  1.00  0.00     0.035 C 
HETATM    8  C25 UNL     1       0.140  51.441 -19.231  1.00  0.00    -0.068 C 
HETATM    9  C26 UNL     1       0.457  51.056 -17.982  1.00  0.00     0.053 C 
HETATM   10  C27 UNL     1      -0.150  49.856 -17.360  1.00  0.00     0.149 C 
HETATM   11  O9  UNL     1       0.031  49.647 -16.163  1.00  0.00    -0.293 OA
HETATM   12  C28 UNL     1      -0.975  48.926 -18.218  1.00  0.00     0.084 C 
HETATM   13  C29 UNL     1      -0.816  49.198 -19.715  1.00  0.00     0.022 C 
HETATM   14  C30 UNL     1      -0.907  50.704 -20.077  1.00  0.00    -0.016 C 
HETATM   15  C31 UNL     1      -2.318  51.238 -19.740  1.00  0.00     0.020 C 
HETATM   16  C32 UNL     1      -0.565  50.947 -21.584  1.00  0.00     0.002 C 
HETATM   17  C33 UNL     1      -1.305  50.068 -22.635  1.00  0.00     0.007 C 
HETATM   18  C34 UNL     1      -2.020  50.789 -23.792  1.00  0.00     0.013 C 
HETATM   19  C35 UNL     1      -1.394  52.100 -24.326  1.00  0.00    -0.001 C 
HETATM   20  C36 UNL     1      -2.549  53.162 -24.341  1.00  0.00     0.019 C 
ENDROOT
BRANCH   1  21
HETATM   21  O2  UNL     1       0.412  51.084 -25.715  1.00  0.00    -0.301 OA
BRANCH  21  22
HETATM   22  C2  UNL     1       1.586  51.296 -26.361  1.00  0.00     0.256 C 
HETATM   23  C1  UNL     1       1.332  51.511 -27.820  1.00  0.00     0.126 C 
HETATM   24  O1  UNL     1       2.691  51.292 -25.845  1.00  0.00    -0.266 OA
ENDBRANCH  21  22
ENDBRANCH   1  21
BRANCH   1  25
HETATM   25  C4  UNL     1      -1.486  52.120 -27.004  1.00  0.00     0.186 C 
HETATM   26  O3  UNL     1      -1.792  53.163 -27.581  1.00  0.00    -0.292 OA
BRANCH  25  27
HETATM   27  C5  UNL     1      -1.928  50.755 -27.538  1.00  0.00     0.260 C 
BRANCH  27  28
HETATM   28  O4  UNL     1      -3.265  50.462 -27.134  1.00  0.00    -0.314 OA
BRANCH  28  29
HETATM   29  C6  UNL     1      -3.619  49.162 -27.292  1.00  0.00     0.259 C 
HETATM   30  O5  UNL     1      -3.716  48.600 -28.377  1.00  0.00    -0.265 OA
BRANCH  29  31
HETATM   31  C7  UNL     1      -3.813  48.472 -25.967  1.00  0.00     0.120 C 
BRANCH  31  32
HETATM   32  C8  UNL     1      -4.646  49.295 -24.991  1.00  0.00     0.112 C 
BRANCH  32  33
HETATM   33  C9  UNL     1      -5.966  48.626 -24.679  1.00  0.00     0.218 C 
HETATM   34  O6  UNL     1      -6.148  47.415 -24.741  1.00  0.00    -0.274 OA
HETATM   35  N1  UNL     1      -6.953  49.514 -24.334  1.00  0.00    -0.346 N 
HETATM   36  H10 UNL     1      -6.751  50.507 -24.264  1.00  0.00     0.163 HD
BRANCH  35  37
HETATM   37  C10 UNL     1      -8.315  49.083 -24.007  1.00  0.00     0.186 C 
BRANCH  37  38
HETATM   38  C11 UNL     1      -8.353  47.827 -23.119  1.00  0.00     0.074 C 
BRANCH  38  39
HETATM   39  C12 UNL     1      -8.443  48.104 -21.634  1.00  0.00    -0.056 A 
HETATM   40  C13 UNL     1      -7.402  48.769 -20.970  1.00  0.00     0.007 A 
HETATM   41  C14 UNL     1      -7.473  49.002 -19.596  1.00  0.00     0.001 A 
HETATM   42  C15 UNL     1      -8.585  48.573 -18.873  1.00  0.00     0.000 A 
HETATM   43  C16 UNL     1      -9.630  47.917 -19.524  1.00  0.00     0.001 A 
HETATM   44  C17 UNL     1      -9.561  47.686 -20.898  1.00  0.00     0.007 A 
ENDBRANCH  38  39
ENDBRANCH  37  38
BRANCH  37  45
HETATM   45  C18 UNL     1      -9.087  48.886 -25.308  1.00  0.00     0.163 C 
HETATM   46  O7  UNL     1      -9.360  47.815 -25.835  1.00  0.00    -0.648 OA
BRANCH  45  47
HETATM   47  O8  UNL     1      -9.446  50.042 -25.906  1.00  0.00    -0.775 OA
HETATM   48  H19 UNL     1      -9.896  49.748 -26.726  1.00  0.00     0.167 HD
ENDBRANCH  45  47
ENDBRANCH  37  45
ENDBRANCH  35  37
ENDBRANCH  32  33
ENDBRANCH  31  32
ENDBRANCH  29  31
ENDBRANCH  28  29
ENDBRANCH  27  28
ENDBRANCH  25  27
ENDBRANCH   1  25
TORSDOF 14
ENDMDL
MODEL 7
REMARK minimizedAffinity -8.25667477
REMARK CNNscore 0.20644486
REMARK CNNaffinity 5.96909571
REMARK  14 active torsions:
REMARK  status: ('A' for Active; 'I' for Inactive)
REMARK    1  A    between atoms: C2_2  and  O2_4 
REMARK    2  A    between atoms: O2_4  and  C3_5 
REMARK    3  A    between atoms: C3_5  and  C4_6 
REMARK    4  A    between atoms: C4_6  and  C5_8 
REMARK    5  A    between atoms: C5_8  and  O4_9 
REMARK    6  A    between atoms: O4_9  and  C6_10 
REMARK    7  A    between atoms: C6_10  and  C7_12 
REMARK    8  A    between atoms: C7_12  and  C8_13 
REMARK    9  A    between atoms: C8_13  and  C9_14 
REMARK       I    between atoms: C9_14  and  N1_16 
REMARK   10  A    between atoms: N1_16  and  C10_17 
REMARK   11  A    between atoms: C10_17  and  C11_18 
REMARK   12  A    between atoms: C10_17  and  C18_25 
REMARK   13  A    between atoms: C11_18  and  C12_19 
REMARK   14  A    between atoms: C18_25  and  O8_27 
ROOT
HETATM    1  C3  UNL     1      -4.667  48.207 -21.005  1.00  0.00     0.140 C 
HETATM    2  C19 UNL     1      -5.469  47.373 -22.076  1.00  0.00     0.048 C 
HETATM    3  C20 UNL     1      -5.095  47.932 -23.472  1.00  0.00     0.009 C 
HETATM    4  C21 UNL     1      -3.957  48.885 -23.162  1.00  0.00     0.002 C 
HETATM    5  C22 UNL     1      -3.441  49.942 -24.135  1.00  0.00    -0.004 C 
HETATM    6  C23 UNL     1      -3.474  49.575 -25.624  1.00  0.00     0.010 C 
HETATM    7  C24 UNL     1      -2.110  49.582 -26.309  1.00  0.00     0.035 C 
HETATM    8  C25 UNL     1      -1.219  50.754 -25.959  1.00  0.00    -0.068 C 
HETATM    9  C26 UNL     1      -0.275  51.138 -26.837  1.00  0.00     0.053 C 
HETATM   10  C27 UNL     1       0.759  52.137 -26.481  1.00  0.00     0.149 C 
HETATM   11  O9  UNL     1       1.485  52.587 -27.365  1.00  0.00    -0.293 OA
HETATM   12  C28 UNL     1       0.889  52.573 -25.041  1.00  0.00     0.084 C 
HETATM   13  C29 UNL     1       0.115  51.675 -24.074  1.00  0.00     0.022 C 
HETATM   14  C30 UNL     1      -1.327  51.359 -24.553  1.00  0.00    -0.016 C 
HETATM   15  C31 UNL     1      -2.156  52.662 -24.611  1.00  0.00     0.020 C 
HETATM   16  C32 UNL     1      -2.014  50.303 -23.627  1.00  0.00     0.002 C 
HETATM   17  C33 UNL     1      -1.974  50.565 -22.092  1.00  0.00     0.007 C 
HETATM   18  C34 UNL     1      -3.309  50.521 -21.326  1.00  0.00     0.013 C 
HETATM   19  C35 UNL     1      -4.393  49.531 -21.815  1.00  0.00    -0.001 C 
HETATM   20  C36 UNL     1      -5.712  50.365 -21.965  1.00  0.00     0.019 C 
ENDROOT
BRANCH   1  21
HETATM   21  O2  UNL     1      -3.439  47.450 -20.821  1.00  0.00    -0.301 OA
BRANCH  21  22
HETATM   22  C2  UNL     1      -3.026  47.081 -19.583  1.00  0.00     0.256 C 
HETATM   23  C1  UNL     1      -1.939  47.997 -19.114  1.00  0.00     0.126 C 
HETATM   24  O1  UNL     1      -3.452  46.131 -18.947  1.00  0.00    -0.266 OA
ENDBRANCH  21  22
ENDBRANCH   1  21
BRANCH   1  25
HETATM   25  C4  UNL     1      -5.525  48.318 -19.710  1.00  0.00     0.186 C 
HETATM   26  O3  UNL     1      -5.229  49.067 -18.779  1.00  0.00    -0.292 OA
BRANCH  25  27
HETATM   27  C5  UNL     1      -6.777  47.439 -19.659  1.00  0.00     0.260 C 
BRANCH  27  28
HETATM   28  O4  UNL     1      -7.955  48.225 -19.844  1.00  0.00    -0.314 OA
BRANCH  28  29
HETATM   29  C6  UNL     1      -8.828  48.165 -18.809  1.00  0.00     0.259 C 
HETATM   30  O5  UNL     1      -8.508  47.938 -17.648  1.00  0.00    -0.265 OA
BRANCH  29  31
HETATM   31  C7  UNL     1     -10.235  48.480 -19.247  1.00  0.00     0.120 C 
BRANCH  31  32
HETATM   32  C8  UNL     1     -11.246  47.444 -18.770  1.00  0.00     0.112 C 
BRANCH  32  33
HETATM   33  C9  UNL     1     -12.610  47.671 -19.380  1.00  0.00     0.218 C 
HETATM   34  O6  UNL     1     -13.456  48.417 -18.901  1.00  0.00    -0.274 OA
HETATM   35  N1  UNL     1     -12.818  46.941 -20.523  1.00  0.00    -0.346 N 
HETATM   36  H10 UNL     1     -12.078  46.358 -20.905  1.00  0.00     0.163 HD
BRANCH  35  37
HETATM   37  C10 UNL     1     -14.078  46.997 -21.270  1.00  0.00     0.186 C 
BRANCH  37  38
HETATM   38  C11 UNL     1     -15.064  45.886 -20.874  1.00  0.00     0.074 C 
BRANCH  38  39
HETATM   39  C12 UNL     1     -16.471  46.362 -20.583  1.00  0.00    -0.056 A 
HETATM   40  C13 UNL     1     -17.505  46.127 -21.499  1.00  0.00     0.007 A 
HETATM   41  C14 UNL     1     -18.797  46.587 -21.242  1.00  0.00     0.001 A 
HETATM   42  C15 UNL     1     -19.067  47.287 -20.067  1.00  0.00     0.000 A 
HETATM   43  C16 UNL     1     -18.048  47.520 -19.144  1.00  0.00     0.001 A 
HETATM   44  C17 UNL     1     -16.756  47.058 -19.399  1.00  0.00     0.007 A 
ENDBRANCH  38  39
ENDBRANCH  37  38
BRANCH  37  45
HETATM   45  C18 UNL     1     -13.758  46.973 -22.762  1.00  0.00     0.163 C 
HETATM   46  O7  UNL     1     -12.825  46.384 -23.294  1.00  0.00    -0.648 OA
BRANCH  45  47
HETATM   47  O8  UNL     1     -14.600  47.717 -23.510  1.00  0.00    -0.775 OA
HETATM   48  H19 UNL     1     -14.247  47.622 -24.419  1.00  0.00     0.167 HD
ENDBRANCH  45  47
ENDBRANCH  37  45
ENDBRANCH  35  37
ENDBRANCH  32  33
ENDBRANCH  31  32
ENDBRANCH  29  31
ENDBRANCH  28  29
ENDBRANCH  27  28
ENDBRANCH  25  27
ENDBRANCH   1  25
TORSDOF 14
ENDMDL
MODEL 8
REMARK minimizedAffinity -7.54549599
REMARK CNNscore 0.201089248
REMARK CNNaffinity 5.79166174
REMARK  14 active torsions:
REMARK  status: ('A' for Active; 'I' for Inactive)
REMARK    1  A    between atoms: C2_2  and  O2_4 
REMARK    2  A    between atoms: O2_4  and  C3_5 
REMARK    3  A    between atoms: C3_5  and  C4_6 
REMARK    4  A    between atoms: C4_6  and  C5_8 
REMARK    5  A    between atoms: C5_8  and  O4_9 
REMARK    6  A    between atoms: O4_9  and  C6_10 
REMARK    7  A    between atoms: C6_10  and  C7_12 
REMARK    8  A    between atoms: C7_12  and  C8_13 
REMARK    9  A    between atoms: C8_13  and  C9_14 
REMARK       I    between atoms: C9_14  and  N1_16 
REMARK   10  A    between atoms: N1_16  and  C10_17 
REMARK   11  A    between atoms: C10_17  and  C11_18 
REMARK   12  A    between atoms: C10_17  and  C18_25 
REMARK   13  A    between atoms: C11_18  and  C12_19 
REMARK   14  A    between atoms: C18_25  and  O8_27 
ROOT
HETATM    1  C3  UNL     1     -11.126  46.798 -27.642  1.00  0.00     0.140 C 
HETATM    2  C19 UNL     1     -11.381  45.244 -27.717  1.00  0.00     0.048 C 
HETATM    3  C20 UNL     1     -10.545  44.694 -28.900  1.00  0.00     0.009 C 
HETATM    4  C21 UNL     1      -9.698  45.887 -29.299  1.00  0.00     0.002 C 
HETATM    5  C22 UNL     1      -8.936  45.989 -30.619  1.00  0.00    -0.004 C 
HETATM    6  C23 UNL     1      -8.361  44.682 -31.179  1.00  0.00     0.010 C 
HETATM    7  C24 UNL     1      -6.844  44.677 -31.347  1.00  0.00     0.035 C 
HETATM    8  C25 UNL     1      -6.257  45.939 -31.941  1.00  0.00    -0.068 C 
HETATM    9  C26 UNL     1      -5.083  45.866 -32.593  1.00  0.00     0.053 C 
HETATM   10  C27 UNL     1      -4.354  47.083 -33.021  1.00  0.00     0.149 C 
HETATM   11  O9  UNL     1      -3.383  46.967 -33.766  1.00  0.00    -0.293 OA
HETATM   12  C28 UNL     1      -4.827  48.429 -32.528  1.00  0.00     0.084 C 
HETATM   13  C29 UNL     1      -5.837  48.325 -31.384  1.00  0.00     0.022 C 
HETATM   14  C30 UNL     1      -6.950  47.276 -31.643  1.00  0.00    -0.016 C 
HETATM   15  C31 UNL     1      -7.798  47.704 -32.863  1.00  0.00     0.020 C 
HETATM   16  C32 UNL     1      -7.851  47.080 -30.380  1.00  0.00     0.002 C 
HETATM   17  C33 UNL     1      -8.428  48.361 -29.708  1.00  0.00     0.007 C 
HETATM   18  C34 UNL     1      -9.947  48.413 -29.458  1.00  0.00     0.013 C 
HETATM   19  C35 UNL     1     -10.672  47.088 -29.123  1.00  0.00    -0.001 C 
HETATM   20  C36 UNL     1     -11.896  46.999 -30.100  1.00  0.00     0.019 C 
ENDROOT
BRANCH   1  21
HETATM   21  O2  UNL     1     -10.006  46.924 -26.724  1.00  0.00    -0.301 OA
BRANCH  21  22
HETATM   22  C2  UNL     1     -10.089  47.720 -25.628  1.00  0.00     0.256 C 
HETATM   23  C1  UNL     1      -9.476  49.054 -25.920  1.00  0.00     0.126 C 
HETATM   24  O1  UNL     1     -10.568  47.400 -24.553  1.00  0.00    -0.266 OA
ENDBRANCH  21  22
ENDBRANCH   1  21
BRANCH   1  25
HETATM   25  C4  UNL     1     -12.423  47.495 -27.136  1.00  0.00     0.186 C 
HETATM   26  O3  UNL     1     -12.692  48.668 -27.394  1.00  0.00    -0.292 OA
BRANCH  25  27
HETATM   27  C5  UNL     1     -13.364  46.629 -26.294  1.00  0.00     0.260 C 
BRANCH  27  28
HETATM   28  O4  UNL     1     -13.816  47.344 -25.144  1.00  0.00    -0.314 OA
BRANCH  28  29
HETATM   29  C6  UNL     1     -14.511  46.586 -24.259  1.00  0.00     0.259 C 
HETATM   30  O5  UNL     1     -14.121  45.514 -23.813  1.00  0.00    -0.265 OA
BRANCH  29  31
HETATM   31  C7  UNL     1     -15.793  47.256 -23.838  1.00  0.00     0.120 C 
BRANCH  31  32
HETATM   32  C8  UNL     1     -16.977  46.866 -24.716  1.00  0.00     0.112 C 
BRANCH  32  33
HETATM   33  C9  UNL     1     -18.235  46.665 -23.901  1.00  0.00     0.218 C 
HETATM   34  O6  UNL     1     -19.362  46.906 -24.317  1.00  0.00    -0.274 OA
HETATM   35  N1  UNL     1     -17.989  46.198 -22.635  1.00  0.00    -0.346 N 
HETATM   36  H10 UNL     1     -17.041  45.979 -22.341  1.00  0.00     0.163 HD
BRANCH  35  37
HETATM   37  C10 UNL     1     -19.063  45.946 -21.671  1.00  0.00     0.186 C 
BRANCH  37  38
HETATM   38  C11 UNL     1     -18.814  46.605 -20.304  1.00  0.00     0.074 C 
BRANCH  38  39
HETATM   39  C12 UNL     1     -17.447  46.337 -19.711  1.00  0.00    -0.056 A 
HETATM   40  C13 UNL     1     -17.133  45.073 -19.192  1.00  0.00     0.007 A 
HETATM   41  C14 UNL     1     -15.881  44.832 -18.623  1.00  0.00     0.001 A 
HETATM   42  C15 UNL     1     -14.934  45.853 -18.568  1.00  0.00     0.000 A 
HETATM   43  C16 UNL     1     -15.232  47.112 -19.088  1.00  0.00     0.001 A 
HETATM   44  C17 UNL     1     -16.482  47.352 -19.659  1.00  0.00     0.007 A 
ENDBRANCH  38  39
ENDBRANCH  37  38
BRANCH  37  45
HETATM   45  C18 UNL     1     -19.263  44.438 -21.550  1.00  0.00     0.163 C 
HETATM   46  O7  UNL     1     -18.595  43.571 -22.100  1.00  0.00    -0.648 OA
BRANCH  45  47
HETATM   47  O8  UNL     1     -20.314  44.089 -20.778  1.00  0.00    -0.775 OA
HETATM   48  H19 UNL     1     -20.323  43.111 -20.828  1.00  0.00     0.167 HD
ENDBRANCH  45  47
ENDBRANCH  37  45
ENDBRANCH  35  37
ENDBRANCH  32  33
ENDBRANCH  31  32
ENDBRANCH  29  31
ENDBRANCH  28  29
ENDBRANCH  27  28
ENDBRANCH  25  27
ENDBRANCH   1  25
TORSDOF 14
ENDMDL
MODEL 9
REMARK minimizedAffinity -9.43511868
REMARK CNNscore 0.199643284
REMARK CNNaffinity 6.89396048
REMARK  14 active torsions:
REMARK  status: ('A' for Active; 'I' for Inactive)
REMARK    1  A    between atoms: C2_2  and  O2_4 
REMARK    2  A    between atoms: O2_4  and  C3_5 
REMARK    3  A    between atoms: C3_5  and  C4_6 
REMARK    4  A    between atoms: C4_6  and  C5_8 
REMARK    5  A    between atoms: C5_8  and  O4_9 
REMARK    6  A    between atoms: O4_9  and  C6_10 
REMARK    7  A    between atoms: C6_10  and  C7_12 
REMARK    8  A    between atoms: C7_12  and  C8_13 
REMARK    9  A    between atoms: C8_13  and  C9_14 
REMARK       I    between atoms: C9_14  and  N1_16 
REMARK   10  A    between atoms: N1_16  and  C10_17 
REMARK   11  A    between atoms: C10_17  and  C11_18 
REMARK   12  A    between atoms: C10_17  and  C18_25 
REMARK   13  A    between atoms: C11_18  and  C12_19 
REMARK   14  A    between atoms: C18_25  and  O8_27 
ROOT
HETATM    1  C3  UNL     1      -3.823  48.074 -19.142  1.00  0.00     0.140 C 
HETATM    2  C19 UNL     1      -5.323  47.679 -18.859  1.00  0.00     0.048 C 
HETATM    3  C20 UNL     1      -6.113  47.891 -20.175  1.00  0.00     0.009 C 
HETATM    4  C21 UNL     1      -5.019  48.176 -21.185  1.00  0.00     0.002 C 
HETATM    5  C22 UNL     1      -5.268  48.778 -22.566  1.00  0.00    -0.004 C 
HETATM    6  C23 UNL     1      -6.579  48.381 -23.258  1.00  0.00     0.010 C 
HETATM    7  C24 UNL     1      -6.400  47.671 -24.597  1.00  0.00     0.035 C 
HETATM    8  C25 UNL     1      -5.352  48.270 -25.509  1.00  0.00    -0.068 C 
HETATM    9  C26 UNL     1      -5.461  48.082 -26.837  1.00  0.00     0.053 C 
HETATM   10  C27 UNL     1      -4.374  48.462 -27.769  1.00  0.00     0.149 C 
HETATM   11  O9  UNL     1      -4.588  48.438 -28.978  1.00  0.00    -0.293 OA
HETATM   12  C28 UNL     1      -3.034  48.866 -27.202  1.00  0.00     0.084 C 
HETATM   13  C29 UNL     1      -2.888  48.531 -25.717  1.00  0.00     0.022 C 
HETATM   14  C30 UNL     1      -4.125  48.937 -24.873  1.00  0.00    -0.016 C 
HETATM   15  C31 UNL     1      -4.296  50.473 -24.902  1.00  0.00     0.020 C 
HETATM   16  C32 UNL     1      -4.004  48.418 -23.403  1.00  0.00     0.002 C 
HETATM   17  C33 UNL     1      -2.679  48.722 -22.643  1.00  0.00     0.007 C 
HETATM   18  C34 UNL     1      -2.785  49.391 -21.261  1.00  0.00     0.013 C 
HETATM   19  C35 UNL     1      -4.005  49.036 -20.377  1.00  0.00    -0.001 C 
HETATM   20  C36 UNL     1      -4.627  50.402 -19.921  1.00  0.00     0.019 C 
ENDROOT
BRANCH   1  21
HETATM   21  O2  UNL     1      -3.203  46.823 -19.548  1.00  0.00    -0.301 OA
BRANCH  21  22
HETATM   22  C2  UNL     1      -3.817  45.635 -19.323  1.00  0.00     0.256 C 
HETATM   23  C1  UNL     1      -3.770  45.307 -17.863  1.00  0.00     0.126 C 
HETATM   24  O1  UNL     1      -4.316  44.920 -20.176  1.00  0.00    -0.266 OA
ENDBRANCH  21  22
ENDBRANCH   1  21
BRANCH   1  25
HETATM   25  C4  UNL     1      -3.209  48.676 -17.843  1.00  0.00     0.186 C 
HETATM   26  O3  UNL     1      -3.284  48.113 -16.751  1.00  0.00    -0.292 OA
BRANCH  25  27
HETATM   27  C5  UNL     1      -2.492  50.019 -18.000  1.00  0.00     0.260 C 
BRANCH  27  28
HETATM   28  O4  UNL     1      -1.173  49.955 -17.459  1.00  0.00    -0.314 OA
BRANCH  28  29
HETATM   29  C6  UNL     1      -0.350  50.944 -17.889  1.00  0.00     0.259 C 
HETATM   30  O5  UNL     1       0.783  51.134 -17.463  1.00  0.00    -0.265 OA
BRANCH  29  31
HETATM   31  C7  UNL     1      -0.974  51.743 -19.004  1.00  0.00     0.120 C 
BRANCH  31  32
HETATM   32  C8  UNL     1      -0.047  51.902 -20.203  1.00  0.00     0.112 C 
BRANCH  32  33
HETATM   33  C9  UNL     1      -0.819  52.156 -21.478  1.00  0.00     0.218 C 
HETATM   34  O6  UNL     1      -2.043  52.172 -21.542  1.00  0.00    -0.274 OA
HETATM   35  N1  UNL     1      -0.011  52.351 -22.569  1.00  0.00    -0.346 N 
HETATM   36  H10 UNL     1       1.000  52.361 -22.466  1.00  0.00     0.163 HD
BRANCH  35  37
HETATM   37  C10 UNL     1      -0.549  52.598 -23.909  1.00  0.00     0.186 C 
BRANCH  37  38
HETATM   38  C11 UNL     1      -0.524  51.352 -24.810  1.00  0.00     0.074 C 
BRANCH  38  39
HETATM   39  C12 UNL     1       0.390  51.457 -26.012  1.00  0.00    -0.056 A 
HETATM   40  C13 UNL     1       1.781  51.386 -25.856  1.00  0.00     0.007 A 
HETATM   41  C14 UNL     1       2.625  51.509 -26.961  1.00  0.00     0.001 A 
HETATM   42  C15 UNL     1       2.085  51.704 -28.231  1.00  0.00     0.000 A 
HETATM   43  C16 UNL     1       0.703  51.769 -28.399  1.00  0.00     0.001 A 
HETATM   44  C17 UNL     1      -0.142  51.645 -27.296  1.00  0.00     0.007 A 
ENDBRANCH  38  39
ENDBRANCH  37  38
BRANCH  37  45
HETATM   45  C18 UNL     1       0.211  53.767 -24.530  1.00  0.00     0.163 C 
HETATM   46  O7  UNL     1       1.315  54.175 -24.192  1.00  0.00    -0.648 OA
BRANCH  45  47
HETATM   47  O8  UNL     1      -0.466  54.392 -25.516  1.00  0.00    -0.775 OA
HETATM   48  H19 UNL     1       0.133  55.121 -25.781  1.00  0.00     0.167 HD
ENDBRANCH  45  47
ENDBRANCH  37  45
ENDBRANCH  35  37
ENDBRANCH  32  33
ENDBRANCH  31  32
ENDBRANCH  29  31
ENDBRANCH  28  29
ENDBRANCH  27  28
ENDBRANCH  25  27
ENDBRANCH   1  25
TORSDOF 14
ENDMDL
