MODEL 1
REMARK minimizedAffinity -8.29467201
REMARK CNNscore 0.349807411
REMARK CNNaffinity 6.64630318
REMARK  9 active torsions:
REMARK  status: ('A' for Active; 'I' for Inactive)
REMARK       I    between atoms: N1_1  and  C1_2 
REMARK       I    between atoms: C1_2  and  N2_3 
REMARK    1  A    between atoms: N3_4  and  C2_6 
REMARK    2  A    between atoms: C11_16  and  S1_17 
REMARK    3  A    between atoms: S1_17  and  O4_20 
REMARK    4  A    between atoms: C18_27  and  C19_28 
REMARK    5  A    between atoms: C19_28  and  C20_29 
REMARK    6  A    between atoms: C20_29  and  C21_30 
REMARK    7  A    between atoms: C21_30  and  O5_31 
REMARK    8  A    between atoms: C22_33  and  C23_34 
REMARK    9  A    between atoms: C26_37  and  O7_38 
ROOT
HETATM    1  C2  UNL     1       0.231  55.474  -8.691  1.00  0.00     0.263 C 
HETATM    2  O1  UNL     1       0.827  55.660 -10.018  1.00  0.00    -0.322 OA
HETATM    3  C3  UNL     1       2.082  55.128 -10.177  1.00  0.00     0.071 C 
HETATM    4  C4  UNL     1       3.077  56.006 -10.615  1.00  0.00     0.037 C 
HETATM    5  C5  UNL     1       4.419  55.642 -10.511  1.00  0.00     0.010 C 
HETATM    6  C6  UNL     1       4.769  54.381 -10.008  1.00  0.00    -0.058 C 
HETATM    7  C7  UNL     1       3.751  53.448  -9.749  1.00  0.00     0.010 C 
HETATM    8  C8  UNL     1       2.409  53.821  -9.827  1.00  0.00     0.037 C 
HETATM    9  C9  UNL     1       6.199  54.079  -9.626  1.00  0.00     0.040 C 
HETATM   10  C10 UNL     1       6.649  54.828  -8.347  1.00  0.00     0.027 C 
HETATM   11  C11 UNL     1       5.753  54.659  -7.091  1.00  0.00     0.130 C 
HETATM   12  C12 UNL     1       6.054  55.623  -5.879  1.00  0.00     0.037 C 
HETATM   13  C13 UNL     1       7.004  56.802  -6.053  1.00  0.00    -0.014 C 
HETATM   14  C14 UNL     1       7.262  57.559  -4.961  1.00  0.00    -0.050 C 
HETATM   15  C15 UNL     1       6.558  57.189  -3.673  1.00  0.00     0.042 C 
HETATM   16  C16 UNL     1       5.082  57.338  -4.069  1.00  0.00     0.001 C 
HETATM   17  C17 UNL     1       4.844  58.756  -4.698  1.00  0.00     0.037 C 
HETATM   18  C18 UNL     1       5.672  59.960  -4.166  1.00  0.00     0.123 C 
HETATM   19  O6  UNL     1       7.092  59.759  -4.023  1.00  0.00    -0.371 OA
HETATM   20  C22 UNL     1       7.778  58.981  -5.019  1.00  0.00     0.183 C 
HETATM   21  C29 UNL     1       4.767  56.093  -5.020  1.00  0.00     0.032 C 
HETATM   22  C30 UNL     1       3.450  56.113  -5.790  1.00  0.00    -0.053 C 
HETATM   23  C31 UNL     1       3.136  57.066  -6.766  1.00  0.00     0.008 C 
HETATM   24  C32 UNL     1       2.015  56.919  -7.593  1.00  0.00     0.012 C 
HETATM   25  C33 UNL     1       1.237  55.753  -7.551  1.00  0.00    -0.010 C 
HETATM   26  C34 UNL     1       1.504  54.828  -6.534  1.00  0.00     0.012 C 
HETATM   27  C35 UNL     1       2.574  55.019  -5.652  1.00  0.00     0.008 C 
ENDROOT
BRANCH   1  28
HETATM   28  N3  UNL     1      -0.519  54.217  -8.556  1.00  0.00    -0.341 N 
HETATM   29  C1  UNL     1      -1.400  53.902  -9.426  1.00  0.00     0.124 C 
HETATM   30  N1  UNL     1      -2.038  52.715  -9.321  1.00  0.00    -0.279 NA
HETATM   31  N2  UNL     1      -1.852  54.567 -10.513  1.00  0.00    -0.279 NA
HETATM   32  H1  UNL     1      -2.006  52.192 -10.187  1.00  0.00     0.126 HD
HETATM   33  H2  UNL     1      -1.603  52.165  -8.582  1.00  0.00     0.126 HD
HETATM   34  H3  UNL     1      -2.814  54.327 -10.724  1.00  0.00     0.126 HD
HETATM   35  H4  UNL     1      -1.749  55.572 -10.458  1.00  0.00     0.126 HD
ATOM     36  H3  UNL     1      -0.337  53.597  -7.768  1.00  0.00     0.164 HD
ENDBRANCH   1  28
BRANCH  11  37
HETATM   37  S1  UNL     1       5.806  52.931  -6.454  1.00  0.00     0.099 S 
HETATM   38  O2  UNL     1       6.738  52.136  -7.221  1.00  0.00    -0.601 OA
HETATM   39  O3  UNL     1       5.805  52.885  -5.010  1.00  0.00    -0.601 OA
BRANCH  37  40
HETATM   40  O4  UNL     1       4.319  52.467  -6.879  1.00  0.00    -0.295 OA
HETATM   41  H15 UNL     1       3.886  52.079  -6.086  1.00  0.00     0.232 HD
ENDBRANCH  37  40
ENDBRANCH  11  37
BRANCH  18  42
HETATM   42  C19 UNL     1       5.185  60.456  -2.791  1.00  0.00     0.034 C 
BRANCH  42  43
HETATM   43  C20 UNL     1       4.445  61.796  -2.846  1.00  0.00     0.028 C 
BRANCH  43  44
HETATM   44  C21 UNL     1       4.983  62.697  -3.952  1.00  0.00     0.164 C 
BRANCH  44  45
HETATM   45  O5  UNL     1       3.923  63.184  -4.762  1.00  0.00    -0.401 OA
HETATM   46  H30 UNL     1       3.474  62.415  -5.151  1.00  0.00     0.209 HD
ENDBRANCH  44  45
ENDBRANCH  43  44
ENDBRANCH  42  43
ENDBRANCH  18  42
BRANCH  20  47
HETATM   47  C23 UNL     1       9.275  59.030  -4.763  1.00  0.00    -0.025 A 
HETATM   48  C24 UNL     1      10.063  57.867  -4.772  1.00  0.00     0.013 A 
HETATM   49  C25 UNL     1      11.446  57.937  -4.587  1.00  0.00     0.037 A 
HETATM   50  C26 UNL     1      12.046  59.179  -4.396  1.00  0.00     0.065 A 
HETATM   51  C27 UNL     1      11.290  60.343  -4.386  1.00  0.00     0.037 A 
HETATM   52  C28 UNL     1       9.908  60.271  -4.572  1.00  0.00     0.013 A 
BRANCH  50  53
HETATM   53  O7  UNL     1      13.396  59.294  -4.225  1.00  0.00    -0.361 OA
HETATM   54  H34 UNL     1      13.785  58.405  -4.265  1.00  0.00     0.217 HD
ENDBRANCH  50  53
ENDBRANCH  20  47
TORSDOF 9
ENDMDL
MODEL 2
REMARK minimizedAffinity -8.27323818
REMARK CNNscore 0.327420354
REMARK CNNaffinity 6.54211617
REMARK  9 active torsions:
REMARK  status: ('A' for Active; 'I' for Inactive)
REMARK       I    between atoms: N1_1  and  C1_2 
REMARK       I    between atoms: C1_2  and  N2_3 
REMARK    1  A    between atoms: N3_4  and  C2_6 
REMARK    2  A    between atoms: C11_16  and  S1_17 
REMARK    3  A    between atoms: S1_17  and  O4_20 
REMARK    4  A    between atoms: C18_27  and  C19_28 
REMARK    5  A    between atoms: C19_28  and  C20_29 
REMARK    6  A    between atoms: C20_29  and  C21_30 
REMARK    7  A    between atoms: C21_30  and  O5_31 
REMARK    8  A    between atoms: C22_33  and  C23_34 
REMARK    9  A    between atoms: C26_37  and  O7_38 
ROOT
HETATM    1  C2  UNL     1     -14.392  45.652 -26.376  1.00  0.00     0.263 C 
HETATM    2  O1  UNL     1     -14.437  46.526 -27.553  1.00  0.00    -0.322 OA
HETATM    3  C3  UNL     1     -13.338  46.463 -28.372  1.00  0.00     0.071 C 
HETATM    4  C4  UNL     1     -12.691  47.674 -28.636  1.00  0.00     0.037 C 
HETATM    5  C5  UNL     1     -11.412  47.671 -29.192  1.00  0.00     0.010 C 
HETATM    6  C6  UNL     1     -10.794  46.458 -29.527  1.00  0.00    -0.058 C 
HETATM    7  C7  UNL     1     -11.534  45.268 -29.426  1.00  0.00     0.010 C 
HETATM    8  C8  UNL     1     -12.803  45.269 -28.845  1.00  0.00     0.037 C 
HETATM    9  C9  UNL     1      -9.321  46.416 -29.860  1.00  0.00     0.040 C 
HETATM   10  C10 UNL     1      -8.419  46.653 -28.623  1.00  0.00     0.027 C 
HETATM   11  C11 UNL     1      -8.676  45.744 -27.391  1.00  0.00     0.130 C 
HETATM   12  C12 UNL     1      -7.952  46.156 -26.052  1.00  0.00     0.037 C 
HETATM   13  C13 UNL     1      -7.252  47.507 -25.941  1.00  0.00    -0.014 C 
HETATM   14  C14 UNL     1      -6.604  47.777 -24.783  1.00  0.00    -0.050 C 
HETATM   15  C15 UNL     1      -6.660  46.731 -23.691  1.00  0.00     0.042 C 
HETATM   16  C16 UNL     1      -8.170  46.634 -23.428  1.00  0.00     0.001 C 
HETATM   17  C17 UNL     1      -8.753  48.065 -23.155  1.00  0.00     0.037 C 
HETATM   18  C18 UNL     1      -7.862  49.109 -22.424  1.00  0.00     0.123 C 
HETATM   19  O6  UNL     1      -6.509  49.253 -22.896  1.00  0.00    -0.371 OA
HETATM   20  C22 UNL     1      -6.263  49.174 -24.311  1.00  0.00     0.183 C 
HETATM   21  C29 UNL     1      -8.775  45.864 -24.690  1.00  0.00     0.032 C 
HETATM   22  C30 UNL     1     -10.293  45.853 -24.845  1.00  0.00    -0.053 C 
HETATM   23  C31 UNL     1     -11.060  47.005 -25.052  1.00  0.00     0.008 C 
HETATM   24  C32 UNL     1     -12.414  46.924 -25.402  1.00  0.00     0.012 C 
HETATM   25  C33 UNL     1     -13.016  45.687 -25.672  1.00  0.00    -0.010 C 
HETATM   26  C34 UNL     1     -12.275  44.529 -25.402  1.00  0.00     0.012 C 
HETATM   27  C35 UNL     1     -10.946  44.612 -24.970  1.00  0.00     0.008 C 
ENDROOT
BRANCH   1  28
HETATM   28  N3  UNL     1     -14.922  44.304 -26.625  1.00  0.00    -0.341 N 
HETATM   29  C1  UNL     1     -16.067  44.159 -27.174  1.00  0.00     0.124 C 
HETATM   30  N1  UNL     1     -16.514  42.915 -27.452  1.00  0.00    -0.279 NA
HETATM   31  N2  UNL     1     -16.987  45.071 -27.563  1.00  0.00    -0.279 NA
HETATM   32  H1  UNL     1     -16.821  42.829 -28.412  1.00  0.00     0.126 HD
HETATM   33  H2  UNL     1     -15.767  42.243 -27.279  1.00  0.00     0.126 HD
HETATM   34  H3  UNL     1     -17.928  44.694 -27.519  1.00  0.00     0.126 HD
HETATM   35  H4  UNL     1     -16.940  45.948 -27.061  1.00  0.00     0.126 HD
ATOM     36  H3  UNL     1     -14.377  43.484 -26.361  1.00  0.00     0.164 HD
ENDBRANCH   1  28
BRANCH  11  37
HETATM   37  S1  UNL     1      -8.235  43.991 -27.746  1.00  0.00     0.099 S 
HETATM   38  O2  UNL     1      -7.662  43.365 -26.575  1.00  0.00    -0.601 OA
HETATM   39  O3  UNL     1      -9.253  43.321 -28.521  1.00  0.00    -0.601 OA
BRANCH  37  40
HETATM   40  O4  UNL     1      -7.029  44.246 -28.789  1.00  0.00    -0.295 OA
HETATM   41  H15 UNL     1      -7.206  43.706 -29.591  1.00  0.00     0.232 HD
ENDBRANCH  37  40
ENDBRANCH  11  37
BRANCH  18  42
HETATM   42  C19 UNL     1      -7.746  48.838 -20.912  1.00  0.00     0.034 C 
BRANCH  42  43
HETATM   43  C20 UNL     1      -6.679  49.685 -20.213  1.00  0.00     0.028 C 
BRANCH  43  44
HETATM   44  C21 UNL     1      -5.665  48.823 -19.470  1.00  0.00     0.164 C 
BRANCH  44  45
HETATM   45  O5  UNL     1      -4.474  49.554 -19.219  1.00  0.00    -0.401 OA
HETATM   46  H30 UNL     1      -4.111  49.827 -20.078  1.00  0.00     0.209 HD
ENDBRANCH  44  45
ENDBRANCH  43  44
ENDBRANCH  42  43
ENDBRANCH  18  42
BRANCH  20  47
HETATM   47  C23 UNL     1      -4.809  49.508 -24.597  1.00  0.00    -0.025 A 
HETATM   48  C24 UNL     1      -3.974  48.624 -25.300  1.00  0.00     0.013 A 
HETATM   49  C25 UNL     1      -2.654  48.970 -25.599  1.00  0.00     0.037 A 
HETATM   50  C26 UNL     1      -2.166  50.210 -25.197  1.00  0.00     0.065 A 
HETATM   51  C27 UNL     1      -2.972  51.103 -24.503  1.00  0.00     0.037 A 
HETATM   52  C28 UNL     1      -4.291  50.755 -24.205  1.00  0.00     0.013 A 
BRANCH  50  53
HETATM   53  O7  UNL     1      -0.887  50.594 -25.480  1.00  0.00    -0.361 OA
HETATM   54  H34 UNL     1      -0.455  49.876 -25.971  1.00  0.00     0.217 HD
ENDBRANCH  50  53
ENDBRANCH  20  47
TORSDOF 9
ENDMDL
MODEL 3
REMARK minimizedAffinity -6.65240383
REMARK CNNscore 0.294819474
REMARK CNNaffinity 6.29256821
REMARK  9 active torsions:
REMARK  status: ('A' for Active; 'I' for Inactive)
REMARK       I    between atoms: N1_1  and  C1_2 
REMARK       I    between atoms: C1_2  and  N2_3 
REMARK    1  A    between atoms: N3_4  and  C2_6 
REMARK    2  A    between atoms: C11_16  and  S1_17 
REMARK    3  A    between atoms: S1_17  and  O4_20 
REMARK    4  A    between atoms: C18_27  and  C19_28 
REMARK    5  A    between atoms: C19_28  and  C20_29 
REMARK    6  A    between atoms: C20_29  and  C21_30 
REMARK    7  A    between atoms: C21_30  and  O5_31 
REMARK    8  A    between atoms: C22_33  and  C23_34 
REMARK    9  A    between atoms: C26_37  and  O7_38 
ROOT
HETATM    1  C2  UNL     1     -12.809  45.754 -25.683  1.00  0.00     0.263 C 
HETATM    2  O1  UNL     1     -12.922  44.591 -26.569  1.00  0.00    -0.322 OA
HETATM    3  C3  UNL     1     -14.203  44.243 -26.919  1.00  0.00     0.071 C 
HETATM    4  C4  UNL     1     -14.582  42.925 -26.651  1.00  0.00     0.037 C 
HETATM    5  C5  UNL     1     -15.930  42.570 -26.684  1.00  0.00     0.010 C 
HETATM    6  C6  UNL     1     -16.900  43.523 -27.029  1.00  0.00    -0.058 C 
HETATM    7  C7  UNL     1     -16.480  44.788 -27.473  1.00  0.00     0.010 C 
HETATM    8  C8  UNL     1     -15.134  45.151 -27.414  1.00  0.00     0.037 C 
HETATM    9  C9  UNL     1     -18.366  43.242 -26.797  1.00  0.00     0.040 C 
HETATM   10  C10 UNL     1     -18.748  43.244 -25.296  1.00  0.00     0.027 C 
HETATM   11  C11 UNL     1     -18.349  44.502 -24.479  1.00  0.00     0.130 C 
HETATM   12  C12 UNL     1     -18.493  44.396 -22.912  1.00  0.00     0.037 C 
HETATM   13  C13 UNL     1     -18.769  43.048 -22.255  1.00  0.00    -0.014 C 
HETATM   14  C14 UNL     1     -18.935  43.033 -20.912  1.00  0.00    -0.050 C 
HETATM   15  C15 UNL     1     -18.798  44.350 -20.177  1.00  0.00     0.042 C 
HETATM   16  C16 UNL     1     -17.354  44.748 -20.516  1.00  0.00     0.001 C 
HETATM   17  C17 UNL     1     -16.383  43.566 -20.167  1.00  0.00     0.037 C 
HETATM   18  C18 UNL     1     -16.716  42.659 -18.948  1.00  0.00     0.123 C 
HETATM   19  O6  UNL     1     -18.070  42.180 -18.845  1.00  0.00    -0.371 OA
HETATM   20  C22 UNL     1     -18.758  41.802 -20.050  1.00  0.00     0.183 C 
HETATM   21  C29 UNL     1     -17.383  45.196 -22.049  1.00  0.00     0.032 C 
HETATM   22  C30 UNL     1     -16.041  45.392 -22.750  1.00  0.00    -0.053 C 
HETATM   23  C31 UNL     1     -15.120  44.360 -22.963  1.00  0.00     0.008 C 
HETATM   24  C32 UNL     1     -14.007  44.539 -23.795  1.00  0.00     0.012 C 
HETATM   25  C33 UNL     1     -13.842  45.720 -24.534  1.00  0.00    -0.010 C 
HETATM   26  C34 UNL     1     -14.721  46.778 -24.275  1.00  0.00     0.012 C 
HETATM   27  C35 UNL     1     -15.784  46.625 -23.377  1.00  0.00     0.008 C 
ENDROOT
BRANCH   1  28
HETATM   28  N3  UNL     1     -12.730  47.034 -26.402  1.00  0.00    -0.341 N 
HETATM   29  C1  UNL     1     -11.741  47.818 -26.205  1.00  0.00     0.124 C 
HETATM   30  N1  UNL     1     -11.652  48.962 -26.918  1.00  0.00    -0.279 NA
HETATM   31  N2  UNL     1     -10.686  47.722 -25.365  1.00  0.00    -0.279 NA
HETATM   32  H1  UNL     1     -10.746  49.064 -27.357  1.00  0.00     0.126 HD
HETATM   33  H2  UNL     1     -12.374  48.966 -27.638  1.00  0.00     0.126 HD
HETATM   34  H3  UNL     1     -10.347  48.636 -25.086  1.00  0.00     0.126 HD
HETATM   35  H4  UNL     1     -10.856  47.150 -24.548  1.00  0.00     0.126 HD
ATOM     36  H3  UNL     1     -13.466  47.296 -27.058  1.00  0.00     0.164 HD
ENDBRANCH   1  28
BRANCH  11  37
HETATM   37  S1  UNL     1     -19.294  45.986 -25.026  1.00  0.00     0.099 S 
HETATM   38  O2  UNL     1     -20.634  45.963 -24.482  1.00  0.00    -0.601 OA
HETATM   39  O3  UNL     1     -18.494  47.188 -24.975  1.00  0.00    -0.601 OA
BRANCH  37  40
HETATM   40  O4  UNL     1     -19.410  45.639 -26.598  1.00  0.00    -0.295 OA
HETATM   41  H15 UNL     1     -19.104  46.424 -27.104  1.00  0.00     0.232 HD
ENDBRANCH  37  40
ENDBRANCH  11  37
BRANCH  18  42
HETATM   42  C19 UNL     1     -16.415  43.341 -17.600  1.00  0.00     0.034 C 
BRANCH  42  43
HETATM   43  C20 UNL     1     -16.880  42.536 -16.383  1.00  0.00     0.028 C 
BRANCH  43  44
HETATM   44  C21 UNL     1     -15.707  42.057 -15.536  1.00  0.00     0.164 C 
BRANCH  44  45
HETATM   45  O5  UNL     1     -15.566  42.862 -14.375  1.00  0.00    -0.401 OA
HETATM   46  H30 UNL     1     -15.411  43.776 -14.669  1.00  0.00     0.209 HD
ENDBRANCH  44  45
ENDBRANCH  43  44
ENDBRANCH  42  43
ENDBRANCH  18  42
BRANCH  20  47
HETATM   47  C23 UNL     1     -20.100  41.182 -19.700  1.00  0.00    -0.025 A 
HETATM   48  C24 UNL     1     -20.803  40.381 -20.615  1.00  0.00     0.013 A 
HETATM   49  C25 UNL     1     -22.011  39.776 -20.257  1.00  0.00     0.037 A 
HETATM   50  C26 UNL     1     -22.517  39.969 -18.974  1.00  0.00     0.065 A 
HETATM   51  C27 UNL     1     -21.839  40.754 -18.051  1.00  0.00     0.037 A 
HETATM   52  C28 UNL     1     -20.632  41.357 -18.410  1.00  0.00     0.013 A 
BRANCH  50  53
HETATM   53  O7  UNL     1     -23.686  39.386 -18.578  1.00  0.00    -0.361 OA
HETATM   54  H34 UNL     1     -24.034  38.867 -19.322  1.00  0.00     0.217 HD
ENDBRANCH  50  53
ENDBRANCH  20  47
TORSDOF 9
ENDMDL
MODEL 4
REMARK minimizedAffinity -6.78160238
REMARK CNNscore 0.226211429
REMARK CNNaffinity 5.68339348
REMARK  9 active torsions:
REMARK  status: ('A' for Active; 'I' for Inactive)
REMARK       I    between atoms: N1_1  and  C1_2 
REMARK       I    between atoms: C1_2  and  N2_3 
REMARK    1  A    between atoms: N3_4  and  C2_6 
REMARK    2  A    between atoms: C11_16  and  S1_17 
REMARK    3  A    between atoms: S1_17  and  O4_20 
REMARK    4  A    between atoms: C18_27  and  C19_28 
REMARK    5  A    between atoms: C19_28  and  C20_29 
REMARK    6  A    between atoms: C20_29  and  C21_30 
REMARK    7  A    between atoms: C21_30  and  O5_31 
REMARK    8  A    between atoms: C22_33  and  C23_34 
REMARK    9  A    between atoms: C26_37  and  O7_38 
ROOT
HETATM    1  C2  UNL     1     -16.785  42.019 -27.825  1.00  0.00     0.263 C 
HETATM    2  O1  UNL     1     -16.506  41.064 -26.747  1.00  0.00    -0.322 OA
HETATM    3  C3  UNL     1     -16.284  41.622 -25.513  1.00  0.00     0.071 C 
HETATM    4  C4  UNL     1     -15.084  41.280 -24.886  1.00  0.00     0.037 C 
HETATM    5  C5  UNL     1     -14.636  42.022 -23.793  1.00  0.00     0.010 C 
HETATM    6  C6  UNL     1     -15.410  43.081 -23.297  1.00  0.00    -0.058 C 
HETATM    7  C7  UNL     1     -16.695  43.287 -23.826  1.00  0.00     0.010 C 
HETATM    8  C8  UNL     1     -17.131  42.563 -24.936  1.00  0.00     0.037 C 
HETATM    9  C9  UNL     1     -14.821  44.064 -22.312  1.00  0.00     0.040 C 
HETATM   10  C10 UNL     1     -13.766  44.998 -22.954  1.00  0.00     0.027 C 
HETATM   11  C11 UNL     1     -14.205  45.773 -24.225  1.00  0.00     0.130 C 
HETATM   12  C12 UNL     1     -13.064  46.509 -25.027  1.00  0.00     0.037 C 
HETATM   13  C13 UNL     1     -11.599  46.249 -24.693  1.00  0.00    -0.014 C 
HETATM   14  C14 UNL     1     -10.670  46.952 -25.382  1.00  0.00    -0.050 C 
HETATM   15  C15 UNL     1     -11.165  47.908 -26.446  1.00  0.00     0.042 C 
HETATM   16  C16 UNL     1     -11.907  46.958 -27.399  1.00  0.00     0.001 C 
HETATM   17  C17 UNL     1     -10.963  45.773 -27.806  1.00  0.00     0.037 C 
HETATM   18  C18 UNL     1      -9.438  46.046 -27.948  1.00  0.00     0.123 C 
HETATM   19  O6  UNL     1      -8.808  46.783 -26.883  1.00  0.00    -0.371 OA
HETATM   20  C22 UNL     1      -9.225  46.527 -25.530  1.00  0.00     0.183 C 
HETATM   21  C29 UNL     1     -13.248  46.548 -26.634  1.00  0.00     0.032 C 
HETATM   22  C30 UNL     1     -14.066  45.399 -27.216  1.00  0.00    -0.053 C 
HETATM   23  C31 UNL     1     -13.598  44.083 -27.311  1.00  0.00     0.008 C 
HETATM   24  C32 UNL     1     -14.455  43.028 -27.650  1.00  0.00     0.012 C 
HETATM   25  C33 UNL     1     -15.835  43.238 -27.791  1.00  0.00    -0.010 C 
HETATM   26  C34 UNL     1     -16.299  44.559 -27.764  1.00  0.00     0.012 C 
HETATM   27  C35 UNL     1     -15.425  45.622 -27.510  1.00  0.00     0.008 C 
ENDROOT
BRANCH   1  28
HETATM   28  N3  UNL     1     -18.210  42.353 -27.959  1.00  0.00    -0.341 N 
HETATM   29  C1  UNL     1     -19.080  41.421 -28.048  1.00  0.00     0.124 C 
HETATM   30  N1  UNL     1     -20.390  41.744 -28.109  1.00  0.00    -0.279 NA
HETATM   31  N2  UNL     1     -18.939  40.077 -28.095  1.00  0.00    -0.279 NA
HETATM   32  H1  UNL     1     -20.936  41.233 -27.428  1.00  0.00     0.126 HD
HETATM   33  H2  UNL     1     -20.498  42.743 -27.942  1.00  0.00     0.126 HD
HETATM   34  H3  UNL     1     -19.691  39.641 -28.617  1.00  0.00     0.126 HD
HETATM   35  H4  UNL     1     -18.044  39.765 -28.449  1.00  0.00     0.126 HD
ATOM     36  H3  UNL     1     -18.505  43.329 -27.980  1.00  0.00     0.164 HD
ENDBRANCH   1  28
BRANCH  11  37
HETATM   37  S1  UNL     1     -15.505  47.019 -23.837  1.00  0.00     0.099 S 
HETATM   38  O2  UNL     1     -15.528  48.058 -24.842  1.00  0.00    -0.601 OA
HETATM   39  O3  UNL     1     -16.729  46.403 -23.381  1.00  0.00    -0.601 OA
BRANCH  37  40
HETATM   40  O4  UNL     1     -14.848  47.655 -22.507  1.00  0.00    -0.295 OA
HETATM   41  H15 UNL     1     -15.531  47.648 -21.800  1.00  0.00     0.232 HD
ENDBRANCH  37  40
ENDBRANCH  11  37
BRANCH  18  42
HETATM   42  C19 UNL     1      -9.087  46.806 -29.241  1.00  0.00     0.034 C 
BRANCH  42  43
HETATM   43  C20 UNL     1      -8.948  48.319 -29.048  1.00  0.00     0.028 C 
BRANCH  43  44
HETATM   44  C21 UNL     1      -9.346  49.091 -30.301  1.00  0.00     0.164 C 
BRANCH  44  45
HETATM   45  O5  UNL     1      -8.648  50.325 -30.374  1.00  0.00    -0.401 OA
HETATM   46  H30 UNL     1      -8.878  50.838 -29.581  1.00  0.00     0.209 HD
ENDBRANCH  44  45
ENDBRANCH  43  44
ENDBRANCH  42  43
ENDBRANCH  18  42
BRANCH  20  47
HETATM   47  C23 UNL     1      -8.330  47.288 -24.567  1.00  0.00    -0.025 A 
HETATM   48  C24 UNL     1      -8.408  48.684 -24.435  1.00  0.00     0.013 A 
HETATM   49  C25 UNL     1      -7.613  49.361 -23.506  1.00  0.00     0.037 A 
HETATM   50  C26 UNL     1      -6.738  48.637 -22.700  1.00  0.00     0.065 A 
HETATM   51  C27 UNL     1      -6.645  47.256 -22.810  1.00  0.00     0.037 A 
HETATM   52  C28 UNL     1      -7.440  46.582 -23.738  1.00  0.00     0.013 A 
BRANCH  50  53
HETATM   53  O7  UNL     1      -5.954  49.257 -21.771  1.00  0.00    -0.361 OA
HETATM   54  H34 UNL     1      -6.135  50.211 -21.806  1.00  0.00     0.217 HD
ENDBRANCH  50  53
ENDBRANCH  20  47
TORSDOF 9
ENDMDL
MODEL 5
REMARK minimizedAffinity -7.95786715
REMARK CNNscore 0.20553413
REMARK CNNaffinity 6.78378534
REMARK  9 active torsions:
REMARK  status: ('A' for Active; 'I' for Inactive)
REMARK       I    between atoms: N1_1  and  C1_2 
REMARK       I    between atoms: C1_2  and  N2_3 
REMARK    1  A    between atoms: N3_4  and  C2_6 
REMARK    2  A    between atoms: C11_16  and  S1_17 
REMARK    3  A    between atoms: S1_17  and  O4_20 
REMARK    4  A    between atoms: C18_27  and  C19_28 
REMARK    5  A    between atoms: C19_28  and  C20_29 
REMARK    6  A    between atoms: C20_29  and  C21_30 
REMARK    7  A    between atoms: C21_30  and  O5_31 
REMARK    8  A    between atoms: C22_33  and  C23_34 
REMARK    9  A    between atoms: C26_37  and  O7_38 
ROOT
HETATM    1  C2  UNL     1       6.228  52.485  -6.218  1.00  0.00     0.263 C 
HETATM    2  O1  UNL     1       7.013  53.548  -6.854  1.00  0.00    -0.322 OA
HETATM    3  C3  UNL     1       6.287  54.459  -7.579  1.00  0.00     0.071 C 
HETATM    4  C4  UNL     1       6.671  54.638  -8.911  1.00  0.00     0.037 C 
HETATM    5  C5  UNL     1       5.818  55.297  -9.796  1.00  0.00     0.010 C 
HETATM    6  C6  UNL     1       4.598  55.818  -9.341  1.00  0.00    -0.058 C 
HETATM    7  C7  UNL     1       4.319  55.789  -7.965  1.00  0.00     0.010 C 
HETATM    8  C8  UNL     1       5.159  55.107  -7.085  1.00  0.00     0.037 C 
HETATM    9  C9  UNL     1       3.547  56.277 -10.325  1.00  0.00     0.040 C 
HETATM   10  C10 UNL     1       2.881  55.101 -11.083  1.00  0.00     0.027 C 
HETATM   11  C11 UNL     1       2.284  53.963 -10.214  1.00  0.00     0.130 C 
HETATM   12  C12 UNL     1       1.851  52.652 -10.976  1.00  0.00     0.037 C 
HETATM   13  C13 UNL     1       2.238  52.448 -12.437  1.00  0.00    -0.014 C 
HETATM   14  C14 UNL     1       1.790  51.326 -13.048  1.00  0.00    -0.050 C 
HETATM   15  C15 UNL     1       0.973  50.358 -12.219  1.00  0.00     0.042 C 
HETATM   16  C16 UNL     1       1.967  49.981 -11.110  1.00  0.00     0.001 C 
HETATM   17  C17 UNL     1       3.317  49.501 -11.750  1.00  0.00     0.037 C 
HETATM   18  C18 UNL     1       3.273  48.734 -13.103  1.00  0.00     0.123 C 
HETATM   19  O6  UNL     1       2.454  49.300 -14.143  1.00  0.00    -0.371 OA
HETATM   20  C22 UNL     1       2.419  50.730 -14.289  1.00  0.00     0.183 C 
HETATM   21  C29 UNL     1       2.063  51.267 -10.167  1.00  0.00     0.032 C 
HETATM   22  C30 UNL     1       3.178  51.293  -9.126  1.00  0.00    -0.053 C 
HETATM   23  C31 UNL     1       4.540  51.303  -9.448  1.00  0.00     0.008 C 
HETATM   24  C32 UNL     1       5.516  51.545  -8.472  1.00  0.00     0.012 C 
HETATM   25  C33 UNL     1       5.156  51.900  -7.165  1.00  0.00    -0.010 C 
HETATM   26  C34 UNL     1       3.801  51.827  -6.819  1.00  0.00     0.012 C 
HETATM   27  C35 UNL     1       2.833  51.501  -7.776  1.00  0.00     0.008 C 
ENDROOT
BRANCH   1  28
HETATM   28  N3  UNL     1       5.739  52.839  -4.877  1.00  0.00    -0.341 N 
HETATM   29  C1  UNL     1       6.542  53.330  -4.012  1.00  0.00     0.124 C 
HETATM   30  N1  UNL     1       6.064  53.706  -2.806  1.00  0.00    -0.279 NA
HETATM   31  N2  UNL     1       7.872  53.566  -4.070  1.00  0.00    -0.279 NA
HETATM   32  H1  UNL     1       6.341  54.650  -2.569  1.00  0.00     0.126 HD
HETATM   33  H2  UNL     1       5.047  53.649  -2.815  1.00  0.00     0.126 HD
HETATM   34  H3  UNL     1       8.302  53.505  -3.154  1.00  0.00     0.126 HD
HETATM   35  H4  UNL     1       8.370  52.981  -4.728  1.00  0.00     0.126 HD
ATOM     36  H3  UNL     1       4.759  52.694  -4.637  1.00  0.00     0.164 HD
ENDBRANCH   1  28
BRANCH  11  37
HETATM   37  S1  UNL     1       0.831  54.548  -9.244  1.00  0.00     0.099 S 
HETATM   38  O2  UNL     1       0.157  53.434  -8.616  1.00  0.00    -0.601 OA
HETATM   39  O3  UNL     1       1.125  55.751  -8.500  1.00  0.00    -0.601 OA
BRANCH  37  40
HETATM   40  O4  UNL     1      -0.099  55.042 -10.468  1.00  0.00    -0.295 OA
HETATM   41  H15 UNL     1      -0.392  55.960 -10.273  1.00  0.00     0.232 HD
ENDBRANCH  37  40
ENDBRANCH  11  37
BRANCH  18  42
HETATM   42  C19 UNL     1       2.796  47.278 -12.946  1.00  0.00     0.034 C 
BRANCH  42  43
HETATM   43  C20 UNL     1       2.873  46.461 -14.239  1.00  0.00     0.028 C 
BRANCH  43  44
HETATM   44  C21 UNL     1       1.591  45.678 -14.493  1.00  0.00     0.164 C 
BRANCH  44  45
HETATM   45  O5  UNL     1       1.829  44.602 -15.389  1.00  0.00    -0.401 OA
HETATM   46  H30 UNL     1       2.156  44.981 -16.222  1.00  0.00     0.209 HD
ENDBRANCH  44  45
ENDBRANCH  43  44
ENDBRANCH  42  43
ENDBRANCH  18  42
BRANCH  20  47
HETATM   47  C23 UNL     1       1.628  51.098 -15.533  1.00  0.00    -0.025 A 
HETATM   48  C24 UNL     1       1.935  52.241 -16.290  1.00  0.00     0.013 A 
HETATM   49  C25 UNL     1       1.231  52.535 -17.460  1.00  0.00     0.037 A 
HETATM   50  C26 UNL     1       0.217  51.678 -17.880  1.00  0.00     0.065 A 
HETATM   51  C27 UNL     1      -0.103  50.541 -17.152  1.00  0.00     0.037 A 
HETATM   52  C28 UNL     1       0.602  50.248 -15.983  1.00  0.00     0.013 A 
BRANCH  50  53
HETATM   53  O7  UNL     1      -0.486  51.920 -19.025  1.00  0.00    -0.361 OA
HETATM   54  H34 UNL     1      -0.146  52.738 -19.424  1.00  0.00     0.217 HD
ENDBRANCH  50  53
ENDBRANCH  20  47
TORSDOF 9
ENDMDL
MODEL 6
REMARK minimizedAffinity -6.55106115
REMARK CNNscore 0.163190037
REMARK CNNaffinity 5.23550034
REMARK  9 active torsions:
REMARK  status: ('A' for Active; 'I' for Inactive)
REMARK       I    between atoms: N1_1  and  C1_2 
REMARK       I    between atoms: C1_2  and  N2_3 
REMARK    1  A    between atoms: N3_4  and  C2_6 
REMARK    2  A    between atoms: C11_16  and  S1_17 
REMARK    3  A    between atoms: S1_17  and  O4_20 
REMARK    4  A    between atoms: C18_27  and  C19_28 
REMARK    5  A    between atoms: C19_28  and  C20_29 
REMARK    6  A    between atoms: C20_29  and  C21_30 
REMARK    7  A    between atoms: C21_30  and  O5_31 
REMARK    8  A    between atoms: C22_33  and  C23_34 
REMARK    9  A    between atoms: C26_37  and  O7_38 
ROOT
HETATM    1  C2  UNL     1     -15.817  42.851 -26.970  1.00  0.00     0.263 C 
HETATM    2  O1  UNL     1     -16.351  44.127 -26.482  1.00  0.00    -0.322 OA
HETATM    3  C3  UNL     1     -15.569  45.225 -26.734  1.00  0.00     0.071 C 
HETATM    4  C4  UNL     1     -15.213  46.000 -25.628  1.00  0.00     0.037 C 
HETATM    5  C5  UNL     1     -14.187  46.939 -25.738  1.00  0.00     0.010 C 
HETATM    6  C6  UNL     1     -13.543  47.136 -26.968  1.00  0.00    -0.058 C 
HETATM    7  C7  UNL     1     -14.042  46.480 -28.107  1.00  0.00     0.010 C 
HETATM    8  C8  UNL     1     -15.049  45.522 -27.990  1.00  0.00     0.037 C 
HETATM    9  C9  UNL     1     -12.260  47.928 -27.042  1.00  0.00     0.040 C 
HETATM   10  C10 UNL     1     -11.056  47.182 -26.415  1.00  0.00     0.027 C 
HETATM   11  C11 UNL     1     -10.783  45.744 -26.933  1.00  0.00     0.130 C 
HETATM   12  C12 UNL     1      -9.739  44.891 -26.116  1.00  0.00     0.037 C 
HETATM   13  C13 UNL     1      -9.235  45.382 -24.763  1.00  0.00    -0.014 C 
HETATM   14  C14 UNL     1      -8.299  44.630 -24.138  1.00  0.00    -0.050 C 
HETATM   15  C15 UNL     1      -7.861  43.351 -24.820  1.00  0.00     0.042 C 
HETATM   16  C16 UNL     1      -9.183  42.572 -24.900  1.00  0.00     0.001 C 
HETATM   17  C17 UNL     1      -9.843  42.501 -23.479  1.00  0.00     0.037 C 
HETATM   18  C18 UNL     1      -8.921  42.418 -22.228  1.00  0.00     0.123 C 
HETATM   19  O6  UNL     1      -7.820  43.344 -22.171  1.00  0.00    -0.371 OA
HETATM   20  C22 UNL     1      -8.024  44.685 -22.651  1.00  0.00     0.183 C 
HETATM   21  C29 UNL     1     -10.042  43.304 -26.031  1.00  0.00     0.032 C 
HETATM   22  C30 UNL     1     -11.514  42.922 -26.153  1.00  0.00    -0.053 C 
HETATM   23  C31 UNL     1     -12.460  43.148 -25.146  1.00  0.00     0.008 C 
HETATM   24  C32 UNL     1     -13.830  42.980 -25.384  1.00  0.00     0.012 C 
HETATM   25  C33 UNL     1     -14.308  42.694 -26.671  1.00  0.00    -0.010 C 
HETATM   26  C34 UNL     1     -13.366  42.402 -27.666  1.00  0.00     0.012 C 
HETATM   27  C35 UNL     1     -11.994  42.487 -27.402  1.00  0.00     0.008 C 
ENDROOT
BRANCH   1  28
HETATM   28  N3  UNL     1     -16.206  42.543 -28.353  1.00  0.00    -0.341 N 
HETATM   29  C1  UNL     1     -17.410  42.732 -28.736  1.00  0.00     0.124 C 
HETATM   30  N1  UNL     1     -17.738  42.501 -30.026  1.00  0.00    -0.279 NA
HETATM   31  N2  UNL     1     -18.502  43.150 -28.056  1.00  0.00    -0.279 NA
HETATM   32  H1  UNL     1     -18.222  43.287 -30.439  1.00  0.00     0.126 HD
HETATM   33  H2  UNL     1     -16.890  42.313 -30.559  1.00  0.00     0.126 HD
HETATM   34  H3  UNL     1     -19.356  42.771 -28.451  1.00  0.00     0.126 HD
HETATM   35  H4  UNL     1     -18.468  42.968 -27.062  1.00  0.00     0.126 HD
ATOM     36  H3  UNL     1     -15.515  42.177 -29.008  1.00  0.00     0.164 HD
ENDBRANCH   1  28
BRANCH  11  37
HETATM   37  S1  UNL     1     -10.237  45.756 -28.692  1.00  0.00     0.099 S 
HETATM   38  O2  UNL     1      -9.176  44.796 -28.901  1.00  0.00    -0.601 OA
HETATM   39  O3  UNL     1     -11.352  45.838 -29.606  1.00  0.00    -0.601 OA
BRANCH  37  40
HETATM   40  O4  UNL     1      -9.567  47.225 -28.732  1.00  0.00    -0.295 OA
HETATM   41  H15 UNL     1      -9.944  47.707 -29.501  1.00  0.00     0.232 HD
ENDBRANCH  37  40
ENDBRANCH  11  37
BRANCH  18  42
HETATM   42  C19 UNL     1      -8.299  41.022 -22.040  1.00  0.00     0.034 C 
BRANCH  42  43
HETATM   43  C20 UNL     1      -9.154  39.884 -22.604  1.00  0.00     0.028 C 
BRANCH  43  44
HETATM   44  C21 UNL     1      -8.330  38.918 -23.448  1.00  0.00     0.164 C 
BRANCH  44  45
HETATM   45  O5  UNL     1      -7.571  39.624 -24.418  1.00  0.00    -0.401 OA
HETATM   46  H30 UNL     1      -8.196  40.107 -24.984  1.00  0.00     0.209 HD
ENDBRANCH  44  45
ENDBRANCH  43  44
ENDBRANCH  42  43
ENDBRANCH  18  42
BRANCH  20  47
HETATM   47  C23 UNL     1      -6.795  45.527 -22.353  1.00  0.00    -0.025 A 
HETATM   48  C24 UNL     1      -6.615  46.797 -22.925  1.00  0.00     0.013 A 
HETATM   49  C25 UNL     1      -5.504  47.579 -22.599  1.00  0.00     0.037 A 
HETATM   50  C26 UNL     1      -4.569  47.091 -21.690  1.00  0.00     0.065 A 
HETATM   51  C27 UNL     1      -4.726  45.840 -21.108  1.00  0.00     0.037 A 
HETATM   52  C28 UNL     1      -5.837  45.060 -21.435  1.00  0.00     0.013 A 
BRANCH  50  53
HETATM   53  O7  UNL     1      -3.477  47.827 -21.333  1.00  0.00    -0.361 OA
HETATM   54  H34 UNL     1      -3.510  48.672 -21.811  1.00  0.00     0.217 HD
ENDBRANCH  50  53
ENDBRANCH  20  47
TORSDOF 9
ENDMDL
MODEL 7
REMARK minimizedAffinity -7.46567535
REMARK CNNscore 0.148335665
REMARK CNNaffinity 5.587708
REMARK  9 active torsions:
REMARK  status: ('A' for Active; 'I' for Inactive)
REMARK       I    between atoms: N1_1  and  C1_2 
REMARK       I    between atoms: C1_2  and  N2_3 
REMARK    1  A    between atoms: N3_4  and  C2_6 
REMARK    2  A    between atoms: C11_16  and  S1_17 
REMARK    3  A    between atoms: S1_17  and  O4_20 
REMARK    4  A    between atoms: C18_27  and  C19_28 
REMARK    5  A    between atoms: C19_28  and  C20_29 
REMARK    6  A    between atoms: C20_29  and  C21_30 
REMARK    7  A    between atoms: C21_30  and  O5_31 
REMARK    8  A    between atoms: C22_33  and  C23_34 
REMARK    9  A    between atoms: C26_37  and  O7_38 
ROOT
HETATM    1  C2  UNL     1     -14.698  42.140 -25.293  1.00  0.00     0.263 C 
HETATM    2  O1  UNL     1     -13.758  42.194 -24.167  1.00  0.00    -0.322 OA
HETATM    3  C3  UNL     1     -13.057  43.368 -24.045  1.00  0.00     0.071 C 
HETATM    4  C4  UNL     1     -11.665  43.257 -24.012  1.00  0.00     0.037 C 
HETATM    5  C5  UNL     1     -10.874  44.391 -24.199  1.00  0.00     0.010 C 
HETATM    6  C6  UNL     1     -11.474  45.646 -24.374  1.00  0.00    -0.058 C 
HETATM    7  C7  UNL     1     -12.866  45.760 -24.218  1.00  0.00     0.010 C 
HETATM    8  C8  UNL     1     -13.658  44.623 -24.059  1.00  0.00     0.037 C 
HETATM    9  C9  UNL     1     -10.659  46.824 -24.855  1.00  0.00     0.040 C 
HETATM   10  C10 UNL     1     -10.244  46.699 -26.342  1.00  0.00     0.027 C 
HETATM   11  C11 UNL     1     -11.383  46.435 -27.362  1.00  0.00     0.130 C 
HETATM   12  C12 UNL     1     -10.939  46.043 -28.824  1.00  0.00     0.037 C 
HETATM   13  C13 UNL     1      -9.481  45.709 -29.120  1.00  0.00    -0.014 C 
HETATM   14  C14 UNL     1      -9.155  45.433 -30.406  1.00  0.00    -0.050 C 
HETATM   15  C15 UNL     1     -10.273  45.448 -31.427  1.00  0.00     0.042 C 
HETATM   16  C16 UNL     1     -11.207  44.357 -30.885  1.00  0.00     0.001 C 
HETATM   17  C17 UNL     1     -10.396  43.035 -30.649  1.00  0.00     0.037 C 
HETATM   18  C18 UNL     1      -9.217  42.699 -31.606  1.00  0.00     0.123 C 
HETATM   19  O6  UNL     1      -8.284  43.760 -31.885  1.00  0.00    -0.371 OA
HETATM   20  C22 UNL     1      -7.925  44.656 -30.819  1.00  0.00     0.183 C 
HETATM   21  C29 UNL     1     -11.898  44.990 -29.591  1.00  0.00     0.032 C 
HETATM   22  C30 UNL     1     -12.679  44.049 -28.679  1.00  0.00    -0.053 C 
HETATM   23  C31 UNL     1     -12.095  42.990 -27.974  1.00  0.00     0.008 C 
HETATM   24  C32 UNL     1     -12.806  42.292 -26.989  1.00  0.00     0.012 C 
HETATM   25  C33 UNL     1     -14.087  42.707 -26.595  1.00  0.00    -0.010 C 
HETATM   26  C34 UNL     1     -14.702  43.720 -27.341  1.00  0.00     0.012 C 
HETATM   27  C35 UNL     1     -14.020  44.359 -28.382  1.00  0.00     0.008 C 
ENDROOT
BRANCH   1  28
HETATM   28  N3  UNL     1     -16.035  42.654 -24.966  1.00  0.00    -0.341 N 
HETATM   29  C1  UNL     1     -17.068  41.935 -25.188  1.00  0.00     0.124 C 
HETATM   30  N1  UNL     1     -18.285  42.397 -24.825  1.00  0.00    -0.279 NA
HETATM   31  N2  UNL     1     -17.194  40.713 -25.752  1.00  0.00    -0.279 NA
HETATM   32  H1  UNL     1     -18.796  41.722 -24.272  1.00  0.00     0.126 HD
HETATM   33  H2  UNL     1     -18.172  43.254 -24.286  1.00  0.00     0.126 HD
HETATM   34  H3  UNL     1     -18.092  40.604 -26.210  1.00  0.00     0.126 HD
HETATM   35  H4  UNL     1     -16.447  40.471 -26.389  1.00  0.00     0.126 HD
ATOM     36  H3  UNL     1     -16.139  43.585 -24.561  1.00  0.00     0.164 HD
ENDBRANCH   1  28
BRANCH  11  37
HETATM   37  S1  UNL     1     -12.518  47.880 -27.493  1.00  0.00     0.099 S 
HETATM   38  O2  UNL     1     -12.598  48.340 -28.862  1.00  0.00    -0.601 OA
HETATM   39  O3  UNL     1     -13.712  47.707 -26.699  1.00  0.00    -0.601 OA
BRANCH  37  40
HETATM   40  O4  UNL     1     -11.637  48.959 -26.677  1.00  0.00    -0.295 OA
HETATM   41  H15 UNL     1     -12.215  49.365 -25.993  1.00  0.00     0.232 HD
ENDBRANCH  37  40
ENDBRANCH  11  37
BRANCH  18  42
HETATM   42  C19 UNL     1      -9.693  42.194 -32.982  1.00  0.00     0.034 C 
BRANCH  42  43
HETATM   43  C20 UNL     1      -9.950  43.314 -33.994  1.00  0.00     0.028 C 
BRANCH  43  44
HETATM   44  C21 UNL     1      -9.012  43.222 -35.193  1.00  0.00     0.164 C 
BRANCH  44  45
HETATM   45  O5  UNL     1      -7.657  43.193 -34.768  1.00  0.00    -0.401 OA
HETATM   46  H30 UNL     1      -7.487  44.014 -34.276  1.00  0.00     0.209 HD
ENDBRANCH  44  45
ENDBRANCH  43  44
ENDBRANCH  42  43
ENDBRANCH  18  42
BRANCH  20  47
HETATM   47  C23 UNL     1      -6.820  45.589 -31.286  1.00  0.00    -0.025 A 
HETATM   48  C24 UNL     1      -5.653  45.101 -31.896  1.00  0.00     0.013 A 
HETATM   49  C25 UNL     1      -4.671  45.977 -32.366  1.00  0.00     0.037 A 
HETATM   50  C26 UNL     1      -4.860  47.350 -32.231  1.00  0.00     0.065 A 
HETATM   51  C27 UNL     1      -6.006  47.857 -31.635  1.00  0.00     0.037 A 
HETATM   52  C28 UNL     1      -6.986  46.980 -31.166  1.00  0.00     0.013 A 
BRANCH  50  53
HETATM   53  O7  UNL     1      -3.933  48.241 -32.690  1.00  0.00    -0.361 OA
HETATM   54  H34 UNL     1      -3.199  47.741 -33.085  1.00  0.00     0.217 HD
ENDBRANCH  50  53
ENDBRANCH  20  47
TORSDOF 9
ENDMDL
MODEL 8
REMARK minimizedAffinity -6.76865196
REMARK CNNscore 0.146403834
REMARK CNNaffinity 5.69056559
REMARK  9 active torsions:
REMARK  status: ('A' for Active; 'I' for Inactive)
REMARK       I    between atoms: N1_1  and  C1_2 
REMARK       I    between atoms: C1_2  and  N2_3 
REMARK    1  A    between atoms: N3_4  and  C2_6 
REMARK    2  A    between atoms: C11_16  and  S1_17 
REMARK    3  A    between atoms: S1_17  and  O4_20 
REMARK    4  A    between atoms: C18_27  and  C19_28 
REMARK    5  A    between atoms: C19_28  and  C20_29 
REMARK    6  A    between atoms: C20_29  and  C21_30 
REMARK    7  A    between atoms: C21_30  and  O5_31 
REMARK    8  A    between atoms: C22_33  and  C23_34 
REMARK    9  A    between atoms: C26_37  and  O7_38 
ROOT
HETATM    1  C2  UNL     1      -5.519  47.689 -19.913  1.00  0.00     0.263 C 
HETATM    2  O1  UNL     1      -5.987  48.829 -19.118  1.00  0.00    -0.322 OA
HETATM    3  C3  UNL     1      -7.121  48.603 -18.380  1.00  0.00     0.071 C 
HETATM    4  C4  UNL     1      -8.183  49.486 -18.589  1.00  0.00     0.037 C 
HETATM    5  C5  UNL     1      -9.458  49.161 -18.125  1.00  0.00     0.010 C 
HETATM    6  C6  UNL     1      -9.665  47.971 -17.412  1.00  0.00    -0.058 C 
HETATM    7  C7  UNL     1      -8.551  47.193 -17.054  1.00  0.00     0.010 C 
HETATM    8  C8  UNL     1      -7.281  47.504 -17.541  1.00  0.00     0.037 C 
HETATM    9  C9  UNL     1     -11.065  47.468 -17.152  1.00  0.00     0.040 C 
HETATM   10  C10 UNL     1     -11.762  46.943 -18.432  1.00  0.00     0.027 C 
HETATM   11  C11 UNL     1     -10.994  45.872 -19.251  1.00  0.00     0.130 C 
HETATM   12  C12 UNL     1     -11.569  45.536 -20.681  1.00  0.00     0.037 C 
HETATM   13  C13 UNL     1     -12.663  46.405 -21.292  1.00  0.00    -0.014 C 
HETATM   14  C14 UNL     1     -13.152  46.032 -22.498  1.00  0.00    -0.050 C 
HETATM   15  C15 UNL     1     -12.546  44.806 -23.148  1.00  0.00     0.042 C 
HETATM   16  C16 UNL     1     -11.075  45.224 -23.293  1.00  0.00     0.001 C 
HETATM   17  C17 UNL     1     -10.988  46.609 -24.025  1.00  0.00     0.037 C 
HETATM   18  C18 UNL     1     -12.044  46.946 -25.117  1.00  0.00     0.123 C 
HETATM   19  O6  UNL     1     -13.423  46.693 -24.787  1.00  0.00    -0.371 OA
HETATM   20  C22 UNL     1     -13.869  46.967 -23.447  1.00  0.00     0.183 C 
HETATM   21  C29 UNL     1     -10.471  45.180 -21.814  1.00  0.00     0.032 C 
HETATM   22  C30 UNL     1      -9.096  45.805 -21.597  1.00  0.00    -0.053 C 
HETATM   23  C31 UNL     1      -8.826  47.167 -21.776  1.00  0.00     0.008 C 
HETATM   24  C32 UNL     1      -7.612  47.728 -21.360  1.00  0.00     0.012 C 
HETATM   25  C33 UNL     1      -6.675  46.969 -20.645  1.00  0.00    -0.010 C 
HETATM   26  C34 UNL     1      -6.908  45.594 -20.522  1.00  0.00     0.012 C 
HETATM   27  C35 UNL     1      -8.084  45.018 -21.015  1.00  0.00     0.008 C 
ENDROOT
BRANCH   1  28
HETATM   28  N3  UNL     1      -4.605  46.800 -19.181  1.00  0.00    -0.341 N 
HETATM   29  C1  UNL     1      -3.490  47.247 -18.745  1.00  0.00     0.124 C 
HETATM   30  N1  UNL     1      -2.689  46.434 -18.022  1.00  0.00    -0.279 NA
HETATM   31  N2  UNL     1      -2.911  48.463 -18.871  1.00  0.00    -0.279 NA
HETATM   32  H1  UNL     1      -2.403  46.863 -17.152  1.00  0.00     0.126 HD
HETATM   33  H2  UNL     1      -3.185  45.567 -17.820  1.00  0.00     0.126 HD
HETATM   34  H3  UNL     1      -1.900  48.398 -18.852  1.00  0.00     0.126 HD
HETATM   35  H4  UNL     1      -3.211  48.983 -19.685  1.00  0.00     0.126 HD
ATOM     36  H3  UNL     1      -4.861  45.825 -19.021  1.00  0.00     0.164 HD
ENDBRANCH   1  28
BRANCH  11  37
HETATM   37  S1  UNL     1     -10.852  44.288 -18.322  1.00  0.00     0.099 S 
HETATM   38  O2  UNL     1      -9.464  43.963 -18.080  1.00  0.00    -0.601 OA
HETATM   39  O3  UNL     1     -11.831  44.189 -17.264  1.00  0.00    -0.601 OA
BRANCH  37  40
HETATM   40  O4  UNL     1     -11.386  43.282 -19.467  1.00  0.00    -0.295 OA
HETATM   41  H15 UNL     1     -12.092  42.723 -19.073  1.00  0.00     0.232 HD
ENDBRANCH  37  40
ENDBRANCH  11  37
BRANCH  18  42
HETATM   42  C19 UNL     1     -11.791  46.198 -26.440  1.00  0.00     0.034 C 
BRANCH  42  43
HETATM   43  C20 UNL     1     -11.296  47.100 -27.574  1.00  0.00     0.028 C 
BRANCH  43  44
HETATM   44  C21 UNL     1     -12.370  48.081 -28.029  1.00  0.00     0.164 C 
BRANCH  44  45
HETATM   45  O5  UNL     1     -12.100  48.547 -29.343  1.00  0.00    -0.401 OA
HETATM   46  H30 UNL     1     -11.234  48.989 -29.325  1.00  0.00     0.209 HD
ENDBRANCH  44  45
ENDBRANCH  43  44
ENDBRANCH  42  43
ENDBRANCH  18  42
BRANCH  20  47
HETATM   47  C23 UNL     1     -15.374  46.783 -23.363  1.00  0.00    -0.025 A 
HETATM   48  C24 UNL     1     -16.194  46.884 -24.500  1.00  0.00     0.013 A 
HETATM   49  C25 UNL     1     -17.570  46.660 -24.413  1.00  0.00     0.037 A 
HETATM   50  C26 UNL     1     -18.131  46.328 -23.182  1.00  0.00     0.065 A 
HETATM   51  C27 UNL     1     -17.342  46.219 -22.045  1.00  0.00     0.037 A 
HETATM   52  C28 UNL     1     -15.967  46.443 -22.134  1.00  0.00     0.013 A 
BRANCH  50  53
HETATM   53  O7  UNL     1     -19.469  46.088 -23.055  1.00  0.00    -0.361 OA
HETATM   54  H34 UNL     1     -19.881  46.193 -23.928  1.00  0.00     0.217 HD
ENDBRANCH  50  53
ENDBRANCH  20  47
TORSDOF 9
ENDMDL
MODEL 9
REMARK minimizedAffinity -6.9410243
REMARK CNNscore 0.145096987
REMARK CNNaffinity 5.95614195
REMARK  9 active torsions:
REMARK  status: ('A' for Active; 'I' for Inactive)
REMARK       I    between atoms: N1_1  and  C1_2 
REMARK       I    between atoms: C1_2  and  N2_3 
REMARK    1  A    between atoms: N3_4  and  C2_6 
REMARK    2  A    between atoms: C11_16  and  S1_17 
REMARK    3  A    between atoms: S1_17  and  O4_20 
REMARK    4  A    between atoms: C18_27  and  C19_28 
REMARK    5  A    between atoms: C19_28  and  C20_29 
REMARK    6  A    between atoms: C20_29  and  C21_30 
REMARK    7  A    between atoms: C21_30  and  O5_31 
REMARK    8  A    between atoms: C22_33  and  C23_34 
REMARK    9  A    between atoms: C26_37  and  O7_38 
ROOT
HETATM    1  C2  UNL     1      -4.359  48.377 -22.062  1.00  0.00     0.263 C 
HETATM    2  O1  UNL     1      -4.674  49.581 -21.286  1.00  0.00    -0.322 OA
HETATM    3  C3  UNL     1      -5.543  49.394 -20.240  1.00  0.00     0.071 C 
HETATM    4  C4  UNL     1      -6.684  50.201 -20.231  1.00  0.00     0.037 C 
HETATM    5  C5  UNL     1      -7.755  49.878 -19.398  1.00  0.00     0.010 C 
HETATM    6  C6  UNL     1      -7.671  48.772 -18.540  1.00  0.00    -0.058 C 
HETATM    7  C7  UNL     1      -6.448  48.089 -18.433  1.00  0.00     0.010 C 
HETATM    8  C8  UNL     1      -5.386  48.395 -19.285  1.00  0.00     0.037 C 
HETATM    9  C9  UNL     1      -8.905  48.243 -17.849  1.00  0.00     0.040 C 
HETATM   10  C10 UNL     1      -9.885  47.544 -18.823  1.00  0.00     0.027 C 
HETATM   11  C11 UNL     1      -9.295  46.418 -19.714  1.00  0.00     0.130 C 
HETATM   12  C12 UNL     1     -10.214  45.894 -20.883  1.00  0.00     0.037 C 
HETATM   13  C13 UNL     1     -11.494  46.638 -21.247  1.00  0.00    -0.014 C 
HETATM   14  C14 UNL     1     -12.266  46.106 -22.224  1.00  0.00    -0.050 C 
HETATM   15  C15 UNL     1     -11.773  44.840 -22.892  1.00  0.00     0.042 C 
HETATM   16  C16 UNL     1     -10.433  45.301 -23.484  1.00  0.00     0.001 C 
HETATM   17  C17 UNL     1     -10.651  46.593 -24.346  1.00  0.00     0.037 C 
HETATM   18  C18 UNL     1     -11.988  46.756 -25.126  1.00  0.00     0.123 C 
HETATM   19  O6  UNL     1     -13.201  46.485 -24.399  1.00  0.00    -0.371 OA
HETATM   20  C22 UNL     1     -13.282  46.893 -23.022  1.00  0.00     0.183 C 
HETATM   21  C29 UNL     1      -9.445  45.455 -22.238  1.00  0.00     0.032 C 
HETATM   22  C30 UNL     1      -8.113  46.159 -22.479  1.00  0.00    -0.053 C 
HETATM   23  C31 UNL     1      -8.003  47.501 -22.861  1.00  0.00     0.008 C 
HETATM   24  C32 UNL     1      -6.766  48.159 -22.860  1.00  0.00     0.012 C 
HETATM   25  C33 UNL     1      -5.616  47.528 -22.365  1.00  0.00    -0.010 C 
HETATM   26  C34 UNL     1      -5.705  46.168 -22.044  1.00  0.00     0.012 C 
HETATM   27  C35 UNL     1      -6.926  45.489 -22.128  1.00  0.00     0.008 C 
ENDROOT
BRANCH   1  28
HETATM   28  N3  UNL     1      -3.218  47.619 -21.531  1.00  0.00    -0.341 N 
HETATM   29  C1  UNL     1      -2.049  48.136 -21.536  1.00  0.00     0.124 C 
HETATM   30  N1  UNL     1      -1.021  47.451 -20.989  1.00  0.00    -0.279 NA
HETATM   31  N2  UNL     1      -1.604  49.321 -22.013  1.00  0.00    -0.279 NA
HETATM   32  H1  UNL     1      -0.505  48.012 -20.324  1.00  0.00     0.126 HD
HETATM   33  H2  UNL     1      -1.382  46.623 -20.517  1.00  0.00     0.126 HD
HETATM   34  H3  UNL     1      -0.634  49.266 -22.303  1.00  0.00     0.126 HD
HETATM   35  H4  UNL     1      -2.168  49.706 -22.759  1.00  0.00     0.126 HD
ATOM     36  H3  UNL     1      -3.358  46.680 -21.158  1.00  0.00     0.164 HD
ENDBRANCH   1  28
BRANCH  11  37
HETATM   37  S1  UNL     1      -8.789  44.960 -18.708  1.00  0.00     0.099 S 
HETATM   38  O2  UNL     1      -9.108  45.169 -17.313  1.00  0.00    -0.601 OA
HETATM   39  O3  UNL     1      -9.108  43.712 -19.361  1.00  0.00    -0.601 OA
BRANCH  37  40
HETATM   40  O4  UNL     1      -7.187  45.102 -18.857  1.00  0.00    -0.295 OA
HETATM   41  H15 UNL     1      -6.834  44.232 -19.150  1.00  0.00     0.232 HD
ENDBRANCH  37  40
ENDBRANCH  11  37
BRANCH  18  42
HETATM   42  C19 UNL     1     -12.053  45.870 -26.385  1.00  0.00     0.034 C 
BRANCH  42  43
HETATM   43  C20 UNL     1     -13.475  45.456 -26.775  1.00  0.00     0.028 C 
BRANCH  43  44
HETATM   44  C21 UNL     1     -14.093  46.423 -27.779  1.00  0.00     0.164 C 
BRANCH  44  45
HETATM   45  O5  UNL     1     -14.483  45.737 -28.959  1.00  0.00    -0.401 OA
HETATM   46  H30 UNL     1     -13.686  45.331 -29.339  1.00  0.00     0.209 HD
ENDBRANCH  44  45
ENDBRANCH  43  44
ENDBRANCH  42  43
ENDBRANCH  18  42
BRANCH  20  47
HETATM   47  C23 UNL     1     -14.689  46.657 -22.501  1.00  0.00    -0.025 A 
HETATM   48  C24 UNL     1     -14.971  46.627 -21.125  1.00  0.00     0.013 A 
HETATM   49  C25 UNL     1     -16.279  46.460 -20.665  1.00  0.00     0.037 A 
HETATM   50  C26 UNL     1     -17.315  46.327 -21.586  1.00  0.00     0.065 A 
HETATM   51  C27 UNL     1     -17.063  46.356 -22.951  1.00  0.00     0.037 A 
HETATM   52  C28 UNL     1     -15.755  46.523 -23.409  1.00  0.00     0.013 A 
BRANCH  50  53
HETATM   53  O7  UNL     1     -18.609  46.176 -21.180  1.00  0.00    -0.361 OA
HETATM   54  H34 UNL     1     -18.626  46.183 -20.208  1.00  0.00     0.217 HD
ENDBRANCH  50  53
ENDBRANCH  20  47
TORSDOF 9
ENDMDL
