MODEL 1
REMARK minimizedAffinity -9.72847652
REMARK  7 active torsions:
REMARK  status: ('A' for Active; 'I' for Inactive)
REMARK    1  A    between atoms: C2_2  and  C30_33 
REMARK    2  A    between atoms: C3_3  and  C4_4 
REMARK    3  A    between atoms: C4_4  and  C5_5 
REMARK    4  A    between atoms: C5_5  and  C6_6 
REMARK    5  A    between atoms: C6_6  and  C8_8 
REMARK    6  A    between atoms: C19_20  and  O2_21 
REMARK    7  A    between atoms: C30_33  and  O5_35 
ROOT
HETATM    1  C8  UNL     1      -3.781   7.019  14.322  1.00  0.00    -0.002 C 
HETATM    2  C9  UNL     1      -3.566   5.863  15.337  1.00  0.00     0.007 C 
HETATM    3  C10 UNL     1      -2.100   5.395  15.165  1.00  0.00     0.018 C 
HETATM    4  C11 UNL     1      -1.619   6.080  13.873  1.00  0.00     0.025 C 
HETATM    5  C12 UNL     1      -2.055   5.153  12.715  1.00  0.00     0.024 C 
HETATM    6  C13 UNL     1      -0.115   6.328  13.737  1.00  0.00     0.147 C 
HETATM    7  O1  UNL     1       0.670   5.734  14.483  1.00  0.00    -0.296 OA
HETATM    8  C14 UNL     1       0.401   7.330  12.631  1.00  0.00     0.055 C 
HETATM    9  C15 UNL     1      -0.648   8.493  12.412  1.00  0.00     0.021 C 
HETATM   10  C16 UNL     1      -2.137   8.203  12.670  1.00  0.00     0.012 C 
HETATM   11  C17 UNL     1      -2.327   7.460  13.994  1.00  0.00    -0.026 C 
HETATM   12  C18 UNL     1      -1.763   8.339  15.151  1.00  0.00     0.016 C 
HETATM   13  C19 UNL     1       1.700   8.037  13.173  1.00  0.00     0.135 C 
HETATM   14  C20 UNL     1       2.376   8.553  11.906  1.00  0.00     0.039 C 
HETATM   15  C21 UNL     1       2.384   7.304  11.011  1.00  0.00     0.012 C 
HETATM   16  C22 UNL     1       2.849   7.526   9.543  1.00  0.00     0.018 C 
HETATM   17  C23 UNL     1       4.107   8.421   9.507  1.00  0.00     0.023 C 
HETATM   18  C24 UNL     1       3.210   6.195   8.855  1.00  0.00     0.023 C 
HETATM   19  C25 UNL     1       1.763   8.170   8.692  1.00  0.00     0.135 C 
HETATM   20  O3  UNL     1       2.028   8.807   7.670  1.00  0.00    -0.297 OA
HETATM   21  C26 UNL     1       0.328   8.026   9.124  1.00  0.00     0.080 C 
HETATM   22  C27 UNL     1       0.066   6.807  10.006  1.00  0.00     0.018 C 
HETATM   23  C28 UNL     1       0.969   6.645  11.261  1.00  0.00    -0.022 C 
HETATM   24  C29 UNL     1       1.215   5.126  11.464  1.00  0.00     0.017 C 
ENDROOT
BRANCH  13  25
HETATM   25  O2  UNL     1       2.647   7.170  13.795  1.00  0.00    -0.394 OA
HETATM   26  H29 UNL     1       2.163   6.561  14.395  1.00  0.00     0.210 HD
ENDBRANCH  13  25
BRANCH   1  27
HETATM   27  C6  UNL     1      -4.829   8.108  14.699  1.00  0.00    -0.014 C 
HETATM   28  C7  UNL     1      -4.199   9.498  14.474  1.00  0.00     0.010 C 
BRANCH  27  29
HETATM   29  C5  UNL     1      -6.177   8.031  13.947  1.00  0.00     0.008 C 
BRANCH  29  30
HETATM   30  C4  UNL     1      -6.843   6.651  14.031  1.00  0.00     0.028 C 
BRANCH  30  31
HETATM   31  C3  UNL     1      -6.138   5.652  13.152  1.00  0.00    -0.013 C 
HETATM   32  C2  UNL     1      -6.476   4.370  12.907  1.00  0.00     0.008 C 
HETATM   33  C1  UNL     1      -5.635   3.503  12.015  1.00  0.00     0.055 C 
BRANCH  32  34
HETATM   34  C30 UNL     1      -7.713   3.762  13.461  1.00  0.00     0.171 C 
HETATM   35  O4  UNL     1      -8.637   3.266  12.846  1.00  0.00    -0.646 OA
BRANCH  34  36
HETATM   36  O5  UNL     1      -7.722   3.791  14.806  1.00  0.00    -0.773 OA
HETATM   37  H46 UNL     1      -8.574   3.364  15.035  1.00  0.00     0.167 HD
ENDBRANCH  34  36
ENDBRANCH  32  34
ENDBRANCH  30  31
ENDBRANCH  29  30
ENDBRANCH  27  29
ENDBRANCH   1  27
TORSDOF 7
ENDMDL
MODEL 2
REMARK minimizedAffinity -9.37342167
REMARK  7 active torsions:
REMARK  status: ('A' for Active; 'I' for Inactive)
REMARK    1  A    between atoms: C2_2  and  C30_33 
REMARK    2  A    between atoms: C3_3  and  C4_4 
REMARK    3  A    between atoms: C4_4  and  C5_5 
REMARK    4  A    between atoms: C5_5  and  C6_6 
REMARK    5  A    between atoms: C6_6  and  C8_8 
REMARK    6  A    between atoms: C19_20  and  O2_21 
REMARK    7  A    between atoms: C30_33  and  O5_35 
ROOT
HETATM    1  C8  UNL     1       1.121   7.313  11.826  1.00  0.00    -0.002 C 
HETATM    2  C9  UNL     1       1.650   8.724  12.197  1.00  0.00     0.007 C 
HETATM    3  C10 UNL     1       0.637   9.322  13.206  1.00  0.00     0.018 C 
HETATM    4  C11 UNL     1      -0.575   8.374  13.152  1.00  0.00     0.025 C 
HETATM    5  C12 UNL     1      -1.447   8.870  11.976  1.00  0.00     0.024 C 
HETATM    6  C13 UNL     1      -1.459   8.306  14.399  1.00  0.00     0.147 C 
HETATM    7  O1  UNL     1      -1.367   9.187  15.259  1.00  0.00    -0.296 OA
HETATM    8  C14 UNL     1      -2.484   7.115  14.550  1.00  0.00     0.055 C 
HETATM    9  C15 UNL     1      -1.904   5.805  13.880  1.00  0.00     0.021 C 
HETATM   10  C16 UNL     1      -0.935   5.949  12.693  1.00  0.00     0.012 C 
HETATM   11  C17 UNL     1       0.137   7.001  12.989  1.00  0.00    -0.026 C 
HETATM   12  C18 UNL     1       0.932   6.568  14.258  1.00  0.00     0.016 C 
HETATM   13  C19 UNL     1      -2.622   6.773  16.081  1.00  0.00     0.135 C 
HETATM   14  C20 UNL     1      -3.947   6.020  16.157  1.00  0.00     0.039 C 
HETATM   15  C21 UNL     1      -4.897   6.956  15.393  1.00  0.00     0.012 C 
HETATM   16  C22 UNL     1      -6.322   6.397  15.117  1.00  0.00     0.018 C 
HETATM   17  C23 UNL     1      -6.883   5.709  16.381  1.00  0.00     0.023 C 
HETATM   18  C24 UNL     1      -7.304   7.518  14.727  1.00  0.00     0.023 C 
HETATM   19  C25 UNL     1      -6.329   5.397  13.969  1.00  0.00     0.135 C 
HETATM   20  O3  UNL     1      -7.211   4.542  13.856  1.00  0.00    -0.297 OA
HETATM   21  C26 UNL     1      -5.222   5.459  12.952  1.00  0.00     0.080 C 
HETATM   22  C27 UNL     1      -4.554   6.828  12.845  1.00  0.00     0.018 C 
HETATM   23  C28 UNL     1      -4.034   7.458  14.167  1.00  0.00    -0.022 C 
HETATM   24  C29 UNL     1      -4.251   8.993  14.069  1.00  0.00     0.017 C 
ENDROOT
BRANCH  13  25
HETATM   25  O2  UNL     1      -2.765   7.901  16.943  1.00  0.00    -0.394 OA
HETATM   26  H29 UNL     1      -2.109   8.582  16.674  1.00  0.00     0.210 HD
ENDBRANCH  13  25
BRANCH   1  27
HETATM   27  C6  UNL     1       2.179   6.240  11.431  1.00  0.00    -0.014 C 
HETATM   28  C7  UNL     1       1.443   4.954  11.004  1.00  0.00     0.010 C 
BRANCH  27  29
HETATM   29  C5  UNL     1       3.169   6.654  10.318  1.00  0.00     0.008 C 
BRANCH  29  30
HETATM   30  C4  UNL     1       3.441   5.538   9.299  1.00  0.00     0.028 C 
BRANCH  30  31
HETATM   31  C3  UNL     1       2.734   5.807   7.997  1.00  0.00    -0.013 C 
HETATM   32  C2  UNL     1       2.329   6.992   7.497  1.00  0.00     0.008 C 
HETATM   33  C1  UNL     1       1.607   7.072   6.181  1.00  0.00     0.055 C 
BRANCH  32  34
HETATM   34  C30 UNL     1       2.610   8.276   8.187  1.00  0.00     0.171 C 
HETATM   35  O4  UNL     1       3.686   8.828   8.321  1.00  0.00    -0.646 OA
BRANCH  34  36
HETATM   36  O5  UNL     1       1.488   8.834   8.679  1.00  0.00    -0.773 OA
HETATM   37  H46 UNL     1       1.811   9.659   9.096  1.00  0.00     0.167 HD
ENDBRANCH  34  36
ENDBRANCH  32  34
ENDBRANCH  30  31
ENDBRANCH  29  30
ENDBRANCH  27  29
ENDBRANCH   1  27
TORSDOF 7
ENDMDL
MODEL 3
REMARK minimizedAffinity -9.298913
REMARK  7 active torsions:
REMARK  status: ('A' for Active; 'I' for Inactive)
REMARK    1  A    between atoms: C2_2  and  C30_33 
REMARK    2  A    between atoms: C3_3  and  C4_4 
REMARK    3  A    between atoms: C4_4  and  C5_5 
REMARK    4  A    between atoms: C5_5  and  C6_6 
REMARK    5  A    between atoms: C6_6  and  C8_8 
REMARK    6  A    between atoms: C19_20  and  O2_21 
REMARK    7  A    between atoms: C30_33  and  O5_35 
ROOT
HETATM    1  C8  UNL     1      -3.957   7.639  14.081  1.00  0.00    -0.002 C 
HETATM    2  C9  UNL     1      -3.942   6.431  15.056  1.00  0.00     0.007 C 
HETATM    3  C10 UNL     1      -2.548   5.770  14.915  1.00  0.00     0.018 C 
HETATM    4  C11 UNL     1      -1.928   6.427  13.668  1.00  0.00     0.025 C 
HETATM    5  C12 UNL     1      -2.441   5.609  12.461  1.00  0.00     0.024 C 
HETATM    6  C13 UNL     1      -0.400   6.469  13.593  1.00  0.00     0.147 C 
HETATM    7  O1  UNL     1       0.266   5.747  14.341  1.00  0.00    -0.296 OA
HETATM    8  C14 UNL     1       0.291   7.427  12.545  1.00  0.00     0.055 C 
HETATM    9  C15 UNL     1      -0.579   8.731  12.337  1.00  0.00     0.021 C 
HETATM   10  C16 UNL     1      -2.104   8.640  12.533  1.00  0.00     0.012 C 
HETATM   11  C17 UNL     1      -2.445   7.886  13.819  1.00  0.00    -0.026 C 
HETATM   12  C18 UNL     1      -1.812   8.638  15.029  1.00  0.00     0.016 C 
HETATM   13  C19 UNL     1       1.652   7.929  13.159  1.00  0.00     0.135 C 
HETATM   14  C20 UNL     1       2.441   8.389  11.937  1.00  0.00     0.039 C 
HETATM   15  C21 UNL     1       2.313   7.183  10.994  1.00  0.00     0.012 C 
HETATM   16  C22 UNL     1       2.861   7.389   9.552  1.00  0.00     0.018 C 
HETATM   17  C23 UNL     1       4.230   8.102   9.594  1.00  0.00     0.023 C 
HETATM   18  C24 UNL     1       3.062   6.045   8.826  1.00  0.00     0.023 C 
HETATM   19  C25 UNL     1       1.907   8.206   8.691  1.00  0.00     0.135 C 
HETATM   20  O3  UNL     1       2.297   8.834   7.704  1.00  0.00    -0.297 OA
HETATM   21  C26 UNL     1       0.451   8.246   9.068  1.00  0.00     0.080 C 
HETATM   22  C27 UNL     1      -0.010   7.046   9.892  1.00  0.00     0.018 C 
HETATM   23  C28 UNL     1       0.812   6.718  11.170  1.00  0.00    -0.022 C 
HETATM   24  C29 UNL     1       0.840   5.173  11.321  1.00  0.00     0.017 C 
ENDROOT
BRANCH  13  25
HETATM   25  O2  UNL     1       2.447   6.919  13.778  1.00  0.00    -0.394 OA
HETATM   26  H29 UNL     1       1.861   6.362  14.337  1.00  0.00     0.210 HD
ENDBRANCH  13  25
BRANCH   1  27
HETATM   27  C6  UNL     1      -4.860   8.849  14.465  1.00  0.00    -0.014 C 
HETATM   28  C7  UNL     1      -6.329   8.381  14.491  1.00  0.00     0.010 C 
BRANCH  27  29
HETATM   29  C5  UNL     1      -4.520   9.539  15.806  1.00  0.00     0.008 C 
BRANCH  29  30
HETATM   30  C4  UNL     1      -4.006  10.975  15.639  1.00  0.00     0.028 C 
BRANCH  30  31
HETATM   31  C3  UNL     1      -4.281  11.797  16.871  1.00  0.00    -0.013 C 
HETATM   32  C2  UNL     1      -3.707  11.697  18.087  1.00  0.00     0.008 C 
HETATM   33  C1  UNL     1      -4.126  12.591  19.219  1.00  0.00     0.055 C 
BRANCH  32  34
HETATM   34  C30 UNL     1      -2.606  10.738  18.361  1.00  0.00     0.171 C 
HETATM   35  O4  UNL     1      -1.432  10.848  18.060  1.00  0.00    -0.646 OA
BRANCH  34  36
HETATM   36  O5  UNL     1      -3.042   9.660  19.037  1.00  0.00    -0.773 OA
HETATM   37  H46 UNL     1      -2.230   9.123  19.153  1.00  0.00     0.167 HD
ENDBRANCH  34  36
ENDBRANCH  32  34
ENDBRANCH  30  31
ENDBRANCH  29  30
ENDBRANCH  27  29
ENDBRANCH   1  27
TORSDOF 7
ENDMDL
MODEL 4
REMARK minimizedAffinity -9.1758976
REMARK  7 active torsions:
REMARK  status: ('A' for Active; 'I' for Inactive)
REMARK    1  A    between atoms: C2_2  and  C30_33 
REMARK    2  A    between atoms: C3_3  and  C4_4 
REMARK    3  A    between atoms: C4_4  and  C5_5 
REMARK    4  A    between atoms: C5_5  and  C6_6 
REMARK    5  A    between atoms: C6_6  and  C8_8 
REMARK    6  A    between atoms: C19_20  and  O2_21 
REMARK    7  A    between atoms: C30_33  and  O5_35 
ROOT
HETATM    1  C8  UNL     1      -6.026   6.463  15.005  1.00  0.00    -0.002 C 
HETATM    2  C9  UNL     1      -6.212   7.565  16.083  1.00  0.00     0.007 C 
HETATM    3  C10 UNL     1      -4.948   8.458  16.020  1.00  0.00     0.018 C 
HETATM    4  C11 UNL     1      -3.960   7.678  15.133  1.00  0.00     0.025 C 
HETATM    5  C12 UNL     1      -3.227   6.699  16.077  1.00  0.00     0.024 C 
HETATM    6  C13 UNL     1      -2.903   8.495  14.386  1.00  0.00     0.147 C 
HETATM    7  O1  UNL     1      -2.681   9.660  14.729  1.00  0.00    -0.296 OA
HETATM    8  C14 UNL     1      -2.107   7.820  13.202  1.00  0.00     0.055 C 
HETATM    9  C15 UNL     1      -3.026   6.778  12.447  1.00  0.00     0.021 C 
HETATM   10  C16 UNL     1      -4.142   6.069  13.236  1.00  0.00     0.012 C 
HETATM   11  C17 UNL     1      -4.932   7.070  14.082  1.00  0.00    -0.026 C 
HETATM   12  C18 UNL     1      -5.564   8.139  13.140  1.00  0.00     0.016 C 
HETATM   13  C19 UNL     1      -1.774   8.930  12.136  1.00  0.00     0.135 C 
HETATM   14  C20 UNL     1      -0.619   8.324  11.344  1.00  0.00     0.039 C 
HETATM   15  C21 UNL     1       0.342   7.883  12.459  1.00  0.00     0.012 C 
HETATM   16  C22 UNL     1       1.570   7.043  12.001  1.00  0.00     0.018 C 
HETATM   17  C23 UNL     1       2.202   7.662  10.736  1.00  0.00     0.023 C 
HETATM   18  C24 UNL     1       2.662   6.998  13.088  1.00  0.00     0.023 C 
HETATM   19  C25 UNL     1       1.194   5.597  11.706  1.00  0.00     0.135 C 
HETATM   20  O3  UNL     1       1.868   4.890  10.954  1.00  0.00    -0.297 OA
HETATM   21  C26 UNL     1      -0.041   5.028  12.350  1.00  0.00     0.080 C 
HETATM   22  C27 UNL     1      -0.451   5.737  13.639  1.00  0.00     0.018 C 
HETATM   23  C28 UNL     1      -0.610   7.281  13.568  1.00  0.00    -0.022 C 
HETATM   24  C29 UNL     1      -0.131   7.862  14.927  1.00  0.00     0.017 C 
ENDROOT
BRANCH  13  25
HETATM   25  O2  UNL     1      -1.278  10.156  12.672  1.00  0.00    -0.394 OA
HETATM   26  H29 UNL     1      -1.832  10.403  13.445  1.00  0.00     0.210 HD
ENDBRANCH  13  25
BRANCH   1  27
HETATM   27  C6  UNL     1      -7.317   5.880  14.356  1.00  0.00    -0.014 C 
HETATM   28  C7  UNL     1      -8.423   6.954  14.407  1.00  0.00     0.010 C 
BRANCH  27  29
HETATM   29  C5  UNL     1      -7.166   5.372  12.904  1.00  0.00     0.008 C 
BRANCH  29  30
HETATM   30  C4  UNL     1      -6.957   3.855  12.808  1.00  0.00     0.028 C 
BRANCH  30  31
HETATM   31  C3  UNL     1      -5.493   3.513  12.717  1.00  0.00    -0.013 C 
HETATM   32  C2  UNL     1      -4.883   2.679  11.850  1.00  0.00     0.008 C 
HETATM   33  C1  UNL     1      -3.403   2.434  11.921  1.00  0.00     0.055 C 
BRANCH  32  34
HETATM   34  C30 UNL     1      -5.624   1.998  10.758  1.00  0.00     0.171 C 
HETATM   35  O4  UNL     1      -6.284   0.978  10.831  1.00  0.00    -0.646 OA
BRANCH  34  36
HETATM   36  O5  UNL     1      -5.514   2.660   9.592  1.00  0.00    -0.773 OA
HETATM   37  H46 UNL     1      -6.041   2.115   8.972  1.00  0.00     0.167 HD
ENDBRANCH  34  36
ENDBRANCH  32  34
ENDBRANCH  30  31
ENDBRANCH  29  30
ENDBRANCH  27  29
ENDBRANCH   1  27
TORSDOF 7
ENDMDL
MODEL 5
REMARK minimizedAffinity -9.07042885
REMARK  7 active torsions:
REMARK  status: ('A' for Active; 'I' for Inactive)
REMARK    1  A    between atoms: C2_2  and  C30_33 
REMARK    2  A    between atoms: C3_3  and  C4_4 
REMARK    3  A    between atoms: C4_4  and  C5_5 
REMARK    4  A    between atoms: C5_5  and  C6_6 
REMARK    5  A    between atoms: C6_6  and  C8_8 
REMARK    6  A    between atoms: C19_20  and  O2_21 
REMARK    7  A    between atoms: C30_33  and  O5_35 
ROOT
HETATM    1  C8  UNL     1       0.584   7.420  11.396  1.00  0.00    -0.002 C 
HETATM    2  C9  UNL     1       1.462   8.526  12.041  1.00  0.00     0.007 C 
HETATM    3  C10 UNL     1       0.699   9.015  13.297  1.00  0.00     0.018 C 
HETATM    4  C11 UNL     1      -0.706   8.398  13.168  1.00  0.00     0.025 C 
HETATM    5  C12 UNL     1      -1.517   9.377  12.289  1.00  0.00     0.024 C 
HETATM    6  C13 UNL     1      -1.486   8.170  14.464  1.00  0.00     0.147 C 
HETATM    7  O1  UNL     1      -1.122   8.734  15.500  1.00  0.00    -0.296 OA
HETATM    8  C14 UNL     1      -2.753   7.229  14.441  1.00  0.00     0.055 C 
HETATM    9  C15 UNL     1      -2.555   6.068  13.386  1.00  0.00     0.021 C 
HETATM   10  C16 UNL     1      -1.669   6.333  12.155  1.00  0.00     0.012 C 
HETATM   11  C17 UNL     1      -0.358   7.008  12.562  1.00  0.00    -0.026 C 
HETATM   12  C18 UNL     1       0.401   6.079  13.556  1.00  0.00     0.016 C 
HETATM   13  C19 UNL     1      -2.856   6.507  15.838  1.00  0.00     0.135 C 
HETATM   14  C20 UNL     1      -4.314   6.060  15.898  1.00  0.00     0.039 C 
HETATM   15  C21 UNL     1      -5.064   7.352  15.537  1.00  0.00     0.012 C 
HETATM   16  C22 UNL     1      -6.599   7.206  15.323  1.00  0.00     0.018 C 
HETATM   17  C23 UNL     1      -7.214   6.325  16.432  1.00  0.00     0.023 C 
HETATM   18  C24 UNL     1      -7.310   8.572  15.371  1.00  0.00     0.023 C 
HETATM   19  C25 UNL     1      -6.930   6.594  13.968  1.00  0.00     0.135 C 
HETATM   20  O3  UNL     1      -7.997   6.011  13.761  1.00  0.00    -0.297 OA
HETATM   21  C26 UNL     1      -5.918   6.705  12.861  1.00  0.00     0.080 C 
HETATM   22  C27 UNL     1      -4.951   7.876  13.019  1.00  0.00     0.018 C 
HETATM   23  C28 UNL     1      -4.199   7.984  14.375  1.00  0.00    -0.022 C 
HETATM   24  C29 UNL     1      -4.049   9.494  14.704  1.00  0.00     0.017 C 
ENDROOT
BRANCH  13  25
HETATM   25  O2  UNL     1      -2.660   7.351  16.972  1.00  0.00    -0.394 OA
HETATM   26  H29 UNL     1      -1.882   7.925  16.800  1.00  0.00     0.210 HD
ENDBRANCH  13  25
BRANCH   1  27
HETATM   27  C6  UNL     1       1.322   6.304  10.598  1.00  0.00    -0.014 C 
HETATM   28  C7  UNL     1       1.327   6.686   9.104  1.00  0.00     0.010 C 
BRANCH  27  29
HETATM   29  C5  UNL     1       2.768   6.000  11.051  1.00  0.00     0.008 C 
BRANCH  29  30
HETATM   30  C4  UNL     1       3.819   6.293   9.972  1.00  0.00     0.028 C 
BRANCH  30  31
HETATM   31  C3  UNL     1       4.477   7.628  10.203  1.00  0.00    -0.013 C 
HETATM   32  C2  UNL     1       5.617   7.892  10.872  1.00  0.00     0.008 C 
HETATM   33  C1  UNL     1       6.118   9.300  11.027  1.00  0.00     0.055 C 
BRANCH  32  34
HETATM   34  C30 UNL     1       6.460   6.813  11.449  1.00  0.00     0.171 C 
HETATM   35  O4  UNL     1       7.538   6.417  11.047  1.00  0.00    -0.646 OA
BRANCH  34  36
HETATM   36  O5  UNL     1       5.899   6.277  12.548  1.00  0.00    -0.773 OA
HETATM   37  H46 UNL     1       6.547   5.595  12.822  1.00  0.00     0.167 HD
ENDBRANCH  34  36
ENDBRANCH  32  34
ENDBRANCH  30  31
ENDBRANCH  29  30
ENDBRANCH  27  29
ENDBRANCH   1  27
TORSDOF 7
ENDMDL
MODEL 6
REMARK minimizedAffinity -8.97349167
REMARK  7 active torsions:
REMARK  status: ('A' for Active; 'I' for Inactive)
REMARK    1  A    between atoms: C2_2  and  C30_33 
REMARK    2  A    between atoms: C3_3  and  C4_4 
REMARK    3  A    between atoms: C4_4  and  C5_5 
REMARK    4  A    between atoms: C5_5  and  C6_6 
REMARK    5  A    between atoms: C6_6  and  C8_8 
REMARK    6  A    between atoms: C19_20  and  O2_21 
REMARK    7  A    between atoms: C30_33  and  O5_35 
ROOT
HETATM    1  C8  UNL     1      -2.077   7.292  14.094  1.00  0.00    -0.002 C 
HETATM    2  C9  UNL     1      -2.835   8.230  13.116  1.00  0.00     0.007 C 
HETATM    3  C10 UNL     1      -1.761   8.869  12.200  1.00  0.00     0.018 C 
HETATM    4  C11 UNL     1      -0.418   8.514  12.865  1.00  0.00     0.025 C 
HETATM    5  C12 UNL     1      -0.170   9.610  13.926  1.00  0.00     0.024 C 
HETATM    6  C13 UNL     1       0.812   8.452  11.956  1.00  0.00     0.147 C 
HETATM    7  O1  UNL     1       0.762   8.956  10.830  1.00  0.00    -0.296 OA
HETATM    8  C14 UNL     1       2.124   7.755  12.487  1.00  0.00     0.055 C 
HETATM    9  C15 UNL     1       1.757   6.562  13.458  1.00  0.00     0.021 C 
HETATM   10  C16 UNL     1       0.449   6.642  14.265  1.00  0.00     0.012 C 
HETATM   11  C17 UNL     1      -0.716   7.076  13.374  1.00  0.00    -0.026 C 
HETATM   12  C18 UNL     1      -0.883   6.039  12.221  1.00  0.00     0.016 C 
HETATM   13  C19 UNL     1       2.857   7.086  11.264  1.00  0.00     0.135 C 
HETATM   14  C20 UNL     1       4.288   6.910  11.763  1.00  0.00     0.039 C 
HETATM   15  C21 UNL     1       4.617   8.311  12.305  1.00  0.00     0.012 C 
HETATM   16  C22 UNL     1       5.966   8.442  13.069  1.00  0.00     0.018 C 
HETATM   17  C23 UNL     1       7.089   7.704  12.309  1.00  0.00     0.023 C 
HETATM   18  C24 UNL     1       6.395   9.915  13.212  1.00  0.00     0.023 C 
HETATM   19  C25 UNL     1       5.877   7.879  14.482  1.00  0.00     0.135 C 
HETATM   20  O3  UNL     1       6.876   7.496  15.094  1.00  0.00    -0.297 OA
HETATM   21  C26 UNL     1       4.525   7.788  15.137  1.00  0.00     0.080 C 
HETATM   22  C27 UNL     1       3.496   8.767  14.577  1.00  0.00     0.018 C 
HETATM   23  C28 UNL     1       3.290   8.759  13.037  1.00  0.00    -0.022 C 
HETATM   24  C29 UNL     1       3.010  10.221  12.596  1.00  0.00     0.017 C 
ENDROOT
BRANCH  13  25
HETATM   25  O2  UNL     1       2.949   7.897  10.094  1.00  0.00    -0.394 OA
HETATM   26  H29 UNL     1       2.075   8.319   9.940  1.00  0.00     0.210 HD
ENDBRANCH  13  25
BRANCH   1  27
HETATM   27  C6  UNL     1      -2.851   6.048  14.626  1.00  0.00    -0.014 C 
HETATM   28  C7  UNL     1      -4.128   6.530  15.342  1.00  0.00     0.010 C 
BRANCH  27  29
HETATM   29  C5  UNL     1      -3.230   4.991  13.564  1.00  0.00     0.008 C 
BRANCH  29  30
HETATM   30  C4  UNL     1      -4.722   4.996  13.204  1.00  0.00     0.028 C 
BRANCH  30  31
HETATM   31  C3  UNL     1      -5.115   3.726  12.496  1.00  0.00    -0.013 C 
HETATM   32  C2  UNL     1      -6.337   3.166  12.405  1.00  0.00     0.008 C 
HETATM   33  C1  UNL     1      -6.544   1.870  11.673  1.00  0.00     0.055 C 
BRANCH  32  34
HETATM   34  C30 UNL     1      -7.546   3.814  12.975  1.00  0.00     0.171 C 
HETATM   35  O4  UNL     1      -7.672   4.971  13.328  1.00  0.00    -0.646 OA
BRANCH  34  36
HETATM   36  O5  UNL     1      -8.578   2.955  13.062  1.00  0.00    -0.773 OA
HETATM   37  H46 UNL     1      -9.295   3.502  13.443  1.00  0.00     0.167 HD
ENDBRANCH  34  36
ENDBRANCH  32  34
ENDBRANCH  30  31
ENDBRANCH  29  30
ENDBRANCH  27  29
ENDBRANCH   1  27
TORSDOF 7
ENDMDL
MODEL 7
REMARK minimizedAffinity -8.91359997
REMARK  7 active torsions:
REMARK  status: ('A' for Active; 'I' for Inactive)
REMARK    1  A    between atoms: C2_2  and  C30_33 
REMARK    2  A    between atoms: C3_3  and  C4_4 
REMARK    3  A    between atoms: C4_4  and  C5_5 
REMARK    4  A    between atoms: C5_5  and  C6_6 
REMARK    5  A    between atoms: C6_6  and  C8_8 
REMARK    6  A    between atoms: C19_20  and  O2_21 
REMARK    7  A    between atoms: C30_33  and  O5_35 
ROOT
HETATM    1  C8  UNL     1      -3.867   5.519  14.110  1.00  0.00    -0.002 C 
HETATM    2  C9  UNL     1      -3.904   6.166  15.522  1.00  0.00     0.007 C 
HETATM    3  C10 UNL     1      -2.616   7.016  15.649  1.00  0.00     0.018 C 
HETATM    4  C11 UNL     1      -1.749   6.598  14.446  1.00  0.00     0.025 C 
HETATM    5  C12 UNL     1      -0.971   5.343  14.902  1.00  0.00     0.024 C 
HETATM    6  C13 UNL     1      -0.734   7.622  13.932  1.00  0.00     0.147 C 
HETATM    7  O1  UNL     1      -0.433   8.587  14.640  1.00  0.00    -0.296 OA
HETATM    8  C14 UNL     1      -0.083   7.408  12.510  1.00  0.00     0.055 C 
HETATM    9  C15 UNL     1      -1.112   6.709  11.534  1.00  0.00     0.021 C 
HETATM   10  C16 UNL     1      -2.176   5.771  12.132  1.00  0.00     0.012 C 
HETATM   11  C17 UNL     1      -2.841   6.409  13.354  1.00  0.00    -0.026 C 
HETATM   12  C18 UNL     1      -3.514   7.747  12.922  1.00  0.00     0.016 C 
HETATM   13  C19 UNL     1       0.194   8.824  11.878  1.00  0.00     0.135 C 
HETATM   14  C20 UNL     1       1.243   8.534  10.808  1.00  0.00     0.039 C 
HETATM   15  C21 UNL     1       2.286   7.719  11.589  1.00  0.00     0.012 C 
HETATM   16  C22 UNL     1       3.429   7.091  10.740  1.00  0.00     0.018 C 
HETATM   17  C23 UNL     1       3.964   8.117   9.717  1.00  0.00     0.023 C 
HETATM   18  C24 UNL     1       4.615   6.656  11.621  1.00  0.00     0.023 C 
HETATM   19  C25 UNL     1       2.967   5.847   9.992  1.00  0.00     0.135 C 
HETATM   20  O3  UNL     1       3.537   5.450   8.974  1.00  0.00    -0.297 OA
HETATM   21  C26 UNL     1       1.776   5.092  10.518  1.00  0.00     0.080 C 
HETATM   22  C27 UNL     1       1.519   5.297  12.009  1.00  0.00     0.018 C 
HETATM   23  C28 UNL     1       1.419   6.767  12.505  1.00  0.00    -0.022 C 
HETATM   24  C29 UNL     1       2.047   6.823  13.924  1.00  0.00     0.017 C 
ENDROOT
BRANCH  13  25
HETATM   25  O2  UNL     1       0.789   9.776  12.758  1.00  0.00    -0.394 OA
HETATM   26  H29 UNL     1       0.321   9.734  13.621  1.00  0.00     0.210 HD
ENDBRANCH  13  25
BRANCH   1  27
HETATM   27  C6  UNL     1      -5.236   5.213  13.434  1.00  0.00    -0.014 C 
HETATM   28  C7  UNL     1      -5.134   3.860  12.701  1.00  0.00     0.010 C 
BRANCH  27  29
HETATM   29  C5  UNL     1      -6.460   5.189  14.379  1.00  0.00     0.008 C 
BRANCH  29  30
HETATM   30  C4  UNL     1      -7.653   4.409  13.811  1.00  0.00     0.028 C 
BRANCH  30  31
HETATM   31  C3  UNL     1      -8.154   5.035  12.536  1.00  0.00    -0.013 C 
HETATM   32  C2  UNL     1      -9.124   5.959  12.385  1.00  0.00     0.008 C 
HETATM   33  C1  UNL     1      -9.515   6.457  11.022  1.00  0.00     0.055 C 
BRANCH  32  34
HETATM   34  C30 UNL     1      -9.824   6.564  13.546  1.00  0.00     0.171 C 
HETATM   35  O4  UNL     1     -10.982   6.403  13.883  1.00  0.00    -0.646 OA
BRANCH  34  36
HETATM   36  O5  UNL     1      -9.006   7.355  14.264  1.00  0.00    -0.773 OA
HETATM   37  H46 UNL     1      -9.582   7.679  14.987  1.00  0.00     0.167 HD
ENDBRANCH  34  36
ENDBRANCH  32  34
ENDBRANCH  30  31
ENDBRANCH  29  30
ENDBRANCH  27  29
ENDBRANCH   1  27
TORSDOF 7
ENDMDL
MODEL 8
REMARK minimizedAffinity -8.85674477
REMARK  7 active torsions:
REMARK  status: ('A' for Active; 'I' for Inactive)
REMARK    1  A    between atoms: C2_2  and  C30_33 
REMARK    2  A    between atoms: C3_3  and  C4_4 
REMARK    3  A    between atoms: C4_4  and  C5_5 
REMARK    4  A    between atoms: C5_5  and  C6_6 
REMARK    5  A    between atoms: C6_6  and  C8_8 
REMARK    6  A    between atoms: C19_20  and  O2_21 
REMARK    7  A    between atoms: C30_33  and  O5_35 
ROOT
HETATM    1  C8  UNL     1       4.446   7.099  11.941  1.00  0.00    -0.002 C 
HETATM    2  C9  UNL     1       4.619   7.077  10.398  1.00  0.00     0.007 C 
HETATM    3  C10 UNL     1       3.196   7.166   9.795  1.00  0.00     0.018 C 
HETATM    4  C11 UNL     1       2.249   6.937  10.988  1.00  0.00     0.025 C 
HETATM    5  C12 UNL     1       2.101   5.404  11.122  1.00  0.00     0.024 C 
HETATM    6  C13 UNL     1       0.846   7.539  10.887  1.00  0.00     0.147 C 
HETATM    7  O1  UNL     1       0.422   7.911   9.789  1.00  0.00    -0.296 OA
HETATM    8  C14 UNL     1      -0.035   7.655  12.191  1.00  0.00     0.055 C 
HETATM    9  C15 UNL     1       0.883   7.916  13.452  1.00  0.00     0.021 C 
HETATM   10  C16 UNL     1       2.323   7.371  13.443  1.00  0.00     0.012 C 
HETATM   11  C17 UNL     1       3.016   7.685  12.115  1.00  0.00    -0.026 C 
HETATM   12  C18 UNL     1       3.047   9.230  11.915  1.00  0.00     0.016 C 
HETATM   13  C19 UNL     1      -0.940   8.938  12.062  1.00  0.00     0.135 C 
HETATM   14  C20 UNL     1      -2.061   8.682  13.065  1.00  0.00     0.039 C 
HETATM   15  C21 UNL     1      -2.517   7.264  12.687  1.00  0.00     0.012 C 
HETATM   16  C22 UNL     1      -3.548   6.605  13.648  1.00  0.00     0.018 C 
HETATM   17  C23 UNL     1      -4.651   7.617  14.027  1.00  0.00     0.023 C 
HETATM   18  C24 UNL     1      -4.239   5.393  12.993  1.00  0.00     0.023 C 
HETATM   19  C25 UNL     1      -2.893   6.091  14.923  1.00  0.00     0.135 C 
HETATM   20  O3  UNL     1      -3.533   5.932  15.965  1.00  0.00    -0.297 OA
HETATM   21  C26 UNL     1      -1.421   5.778  14.901  1.00  0.00     0.080 C 
HETATM   22  C27 UNL     1      -0.876   5.458  13.511  1.00  0.00     0.018 C 
HETATM   23  C28 UNL     1      -1.167   6.495  12.390  1.00  0.00    -0.022 C 
HETATM   24  C29 UNL     1      -1.386   5.706  11.071  1.00  0.00     0.017 C 
ENDROOT
BRANCH  13  25
HETATM   25  O2  UNL     1      -1.579   9.105  10.798  1.00  0.00    -0.394 OA
HETATM   26  H29 UNL     1      -0.919   8.926  10.092  1.00  0.00     0.210 HD
ENDBRANCH  13  25
BRANCH   1  27
HETATM   27  C6  UNL     1       5.612   7.705  12.778  1.00  0.00    -0.014 C 
HETATM   28  C7  UNL     1       6.263   8.842  11.966  1.00  0.00     0.010 C 
BRANCH  27  29
HETATM   29  C5  UNL     1       5.227   8.235  14.178  1.00  0.00     0.008 C 
BRANCH  29  30
HETATM   30  C4  UNL     1       6.403   8.260  15.164  1.00  0.00     0.028 C 
BRANCH  30  31
HETATM   31  C3  UNL     1       7.710   8.021  14.456  1.00  0.00    -0.013 C 
HETATM   32  C2  UNL     1       8.959   8.109  14.957  1.00  0.00     0.008 C 
HETATM   33  C1  UNL     1      10.161   7.858  14.092  1.00  0.00     0.055 C 
BRANCH  32  34
HETATM   34  C30 UNL     1       9.214   8.408  16.390  1.00  0.00     0.171 C 
HETATM   35  O4  UNL     1       9.503   9.482  16.884  1.00  0.00    -0.646 OA
BRANCH  34  36
HETATM   36  O5  UNL     1       9.073   7.315  17.160  1.00  0.00    -0.773 OA
HETATM   37  H46 UNL     1       9.262   7.648  18.062  1.00  0.00     0.167 HD
ENDBRANCH  34  36
ENDBRANCH  32  34
ENDBRANCH  30  31
ENDBRANCH  29  30
ENDBRANCH  27  29
ENDBRANCH   1  27
TORSDOF 7
ENDMDL
MODEL 9
REMARK minimizedAffinity -8.71448803
REMARK  7 active torsions:
REMARK  status: ('A' for Active; 'I' for Inactive)
REMARK    1  A    between atoms: C2_2  and  C30_33 
REMARK    2  A    between atoms: C3_3  and  C4_4 
REMARK    3  A    between atoms: C4_4  and  C5_5 
REMARK    4  A    between atoms: C5_5  and  C6_6 
REMARK    5  A    between atoms: C6_6  and  C8_8 
REMARK    6  A    between atoms: C19_20  and  O2_21 
REMARK    7  A    between atoms: C30_33  and  O5_35 
ROOT
HETATM    1  C8  UNL     1      -2.822   4.734  11.665  1.00  0.00    -0.002 C 
HETATM    2  C9  UNL     1      -1.633   3.835  11.232  1.00  0.00     0.007 C 
HETATM    3  C10 UNL     1      -0.370   4.420  11.911  1.00  0.00     0.018 C 
HETATM    4  C11 UNL     1      -0.817   5.787  12.460  1.00  0.00     0.025 C 
HETATM    5  C12 UNL     1      -0.655   6.785  11.290  1.00  0.00     0.024 C 
HETATM    6  C13 UNL     1      -0.047   6.340  13.661  1.00  0.00     0.147 C 
HETATM    7  O1  UNL     1       1.048   5.852  13.957  1.00  0.00    -0.296 OA
HETATM    8  C14 UNL     1      -0.666   7.534  14.486  1.00  0.00     0.055 C 
HETATM    9  C15 UNL     1      -2.244   7.435  14.496  1.00  0.00     0.021 C 
HETATM   10  C16 UNL     1      -2.950   6.770  13.301  1.00  0.00     0.012 C 
HETATM   11  C17 UNL     1      -2.264   5.455  12.924  1.00  0.00    -0.026 C 
HETATM   12  C18 UNL     1      -2.308   4.494  14.151  1.00  0.00     0.016 C 
HETATM   13  C19 UNL     1      -0.229   7.373  15.991  1.00  0.00     0.135 C 
HETATM   14  C20 UNL     1      -0.420   8.773  16.566  1.00  0.00     0.039 C 
HETATM   15  C21 UNL     1       0.320   9.649  15.542  1.00  0.00     0.012 C 
HETATM   16  C22 UNL     1       0.166  11.186  15.729  1.00  0.00     0.018 C 
HETATM   17  C23 UNL     1       0.323  11.565  17.217  1.00  0.00     0.023 C 
HETATM   18  C24 UNL     1       1.237  11.962  14.939  1.00  0.00     0.023 C 
HETATM   19  C25 UNL     1      -1.184  11.688  15.233  1.00  0.00     0.135 C 
HETATM   20  O3  UNL     1      -1.682  12.736  15.650  1.00  0.00    -0.297 OA
HETATM   21  C26 UNL     1      -1.926  10.870  14.210  1.00  0.00     0.080 C 
HETATM   22  C27 UNL     1      -1.028   9.964  13.371  1.00  0.00     0.018 C 
HETATM   23  C28 UNL     1      -0.070   9.017  14.147  1.00  0.00    -0.022 C 
HETATM   24  C29 UNL     1       1.244   8.908  13.325  1.00  0.00     0.017 C 
ENDROOT
BRANCH  13  25
HETATM   25  O2  UNL     1       1.147   7.054  16.191  1.00  0.00    -0.394 OA
HETATM   26  H29 UNL     1       1.398   6.349  15.555  1.00  0.00     0.210 HD
ENDBRANCH  13  25
BRANCH   1  27
HETATM   27  C6  UNL     1      -4.226   4.064  11.745  1.00  0.00    -0.014 C 
HETATM   28  C7  UNL     1      -4.047   2.534  11.693  1.00  0.00     0.010 C 
BRANCH  27  29
HETATM   29  C5  UNL     1      -5.077   4.436  12.982  1.00  0.00     0.008 C 
BRANCH  29  30
HETATM   30  C4  UNL     1      -6.494   3.847  12.946  1.00  0.00     0.028 C 
BRANCH  30  31
HETATM   31  C3  UNL     1      -7.535   4.931  13.037  1.00  0.00    -0.013 C 
HETATM   32  C2  UNL     1      -7.997   5.553  14.140  1.00  0.00     0.008 C 
HETATM   33  C1  UNL     1      -9.067   6.604  14.047  1.00  0.00     0.055 C 
BRANCH  32  34
HETATM   34  C30 UNL     1      -7.449   5.272  15.492  1.00  0.00     0.171 C 
HETATM   35  O4  UNL     1      -6.617   5.915  16.105  1.00  0.00    -0.646 OA
BRANCH  34  36
HETATM   36  O5  UNL     1      -8.000   4.172  16.034  1.00  0.00    -0.773 OA
HETATM   37  H46 UNL     1      -7.560   4.106  16.907  1.00  0.00     0.167 HD
ENDBRANCH  34  36
ENDBRANCH  32  34
ENDBRANCH  30  31
ENDBRANCH  29  30
ENDBRANCH  27  29
ENDBRANCH   1  27
TORSDOF 7
ENDMDL
