MODEL 1
REMARK minimizedAffinity -6.81241608
REMARK CNNscore 0.681726635
REMARK CNNaffinity 6.08270264
REMARK  13 active torsions:
REMARK  status: ('A' for Active; 'I' for Inactive)
REMARK    1  A    between atoms: N1_2  and  C2_3 
REMARK    2  A    between atoms: C2_3  and  C3_4 
REMARK    3  A    between atoms: C3_4  and  C4_5 
REMARK    4  A    between atoms: C19_22  and  C23_27 
REMARK    5  A    between atoms: C20_23  and  O3_24 
REMARK    6  A    between atoms: C25_29  and  O4_30 
REMARK    7  A    between atoms: C27_32  and  C28_33 
REMARK    8  A    between atoms: C28_33  and  C30_35 
REMARK    9  A    between atoms: C30_35  and  C31_36 
REMARK   10  A    between atoms: C31_36  and  O5_37 
REMARK   11  A    between atoms: C31_36  and  C32_38 
REMARK   12  A    between atoms: C33_39  and  C35_41 
REMARK   13  A    between atoms: C35_41  and  O7_43 
ROOT
HETATM    1  C4  UNL     1     -15.108  -6.131  13.594  1.00  0.00     0.023 C 
HETATM    2  C5  UNL     1     -15.825  -6.994  12.524  1.00  0.00     0.024 C 
HETATM    3  C6  UNL     1     -13.780  -5.630  12.999  1.00  0.00     0.135 C 
HETATM    4  O1  UNL     1     -12.696  -6.153  13.274  1.00  0.00    -0.297 OA
HETATM    5  C7  UNL     1     -13.812  -4.450  12.053  1.00  0.00     0.080 C 
HETATM    6  C8  UNL     1     -15.227  -4.035  11.691  1.00  0.00     0.022 C 
HETATM    7  C9  UNL     1     -16.069  -3.670  12.938  1.00  0.00    -0.004 C 
HETATM    8  C10 UNL     1     -17.587  -3.625  12.502  1.00  0.00     0.015 C 
HETATM    9  C11 UNL     1     -17.979  -2.643  11.381  1.00  0.00     0.001 C 
HETATM   10  C12 UNL     1     -19.145  -1.701  11.727  1.00  0.00     0.000 C 
HETATM   11  C13 UNL     1     -18.721  -0.324  12.264  1.00  0.00     0.001 C 
HETATM   12  C14 UNL     1     -18.237  -0.334  13.723  1.00  0.00     0.011 C 
HETATM   13  C15 UNL     1     -16.823   0.310  14.100  1.00  0.00    -0.016 C 
HETATM   14  C16 UNL     1     -15.818   0.294  12.952  1.00  0.00     0.094 C 
HETATM   15  C17 UNL     1     -15.338  -1.115  12.649  1.00  0.00     0.157 C 
HETATM   16  O2  UNL     1     -14.552  -1.291  11.721  1.00  0.00    -0.293 OA
HETATM   17  C18 UNL     1     -15.776  -2.264  13.535  1.00  0.00     0.003 C 
HETATM   18  C19 UNL     1     -16.002  -1.957  14.840  1.00  0.00    -0.029 C 
HETATM   19  C20 UNL     1     -16.223  -3.057  15.833  1.00  0.00     0.149 C 
HETATM   20  C21 UNL     1     -15.491  -4.321  15.398  1.00  0.00     0.043 C 
HETATM   21  C22 UNL     1     -15.953  -4.856  14.027  1.00  0.00     0.017 C 
HETATM   22  C23 UNL     1     -16.134  -0.495  15.297  1.00  0.00     0.017 C 
HETATM   23  C24 UNL     1     -14.703  -0.026  15.698  1.00  0.00     0.023 C 
HETATM   24  C25 UNL     1     -17.131  -0.146  16.442  1.00  0.00     0.132 C 
HETATM   25  C26 UNL     1     -17.507   1.331  16.206  1.00  0.00     0.038 C 
HETATM   26  C27 UNL     1     -17.026   1.706  14.776  1.00  0.00     0.002 C 
ENDROOT
BRANCH  26  27
HETATM   27  C28 UNL     1     -17.925   2.774  14.093  1.00  0.00    -0.011 C 
HETATM   28  C29 UNL     1     -17.627   2.937  12.598  1.00  0.00     0.010 C 
BRANCH  27  29
HETATM   29  C30 UNL     1     -17.890   4.151  14.809  1.00  0.00     0.040 C 
BRANCH  29  30
HETATM   30  C31 UNL     1     -16.547   4.898  14.903  1.00  0.00     0.142 C 
BRANCH  30  31
HETATM   31  O5  UNL     1     -16.499   5.568  16.159  1.00  0.00    -0.392 OA
HETATM   32  H48 UNL     1     -15.647   6.036  16.198  1.00  0.00     0.210 HD
ENDBRANCH  30  31
BRANCH  30  33
HETATM   33  C32 UNL     1     -16.267   5.879  13.802  1.00  0.00     0.018 C 
HETATM   34  C33 UNL     1     -15.088   6.394  13.402  1.00  0.00     0.010 C 
HETATM   35  C34 UNL     1     -13.753   6.154  14.036  1.00  0.00     0.055 C 
BRANCH  34  36
HETATM   36  C35 UNL     1     -15.141   7.333  12.253  1.00  0.00     0.171 C 
HETATM   37  O6  UNL     1     -15.849   7.234  11.264  1.00  0.00    -0.646 OA
BRANCH  36  38
HETATM   38  O7  UNL     1     -14.277   8.353  12.392  1.00  0.00    -0.773 OA
HETATM   39  H53 UNL     1     -14.412   8.883  11.578  1.00  0.00     0.167 HD
ENDBRANCH  36  38
ENDBRANCH  34  36
ENDBRANCH  30  33
ENDBRANCH  29  30
ENDBRANCH  27  29
ENDBRANCH  26  27
BRANCH  24  40
HETATM   40  O4  UNL     1     -16.601  -0.293  17.750  1.00  0.00    -0.394 OA
HETATM   41  H37 UNL     1     -16.265  -1.216  17.801  1.00  0.00     0.210 HD
ENDBRANCH  24  40
BRANCH  19  42
HETATM   42  O3  UNL     1     -15.717  -2.673  17.108  1.00  0.00    -0.391 OA
HETATM   43  H29 UNL     1     -14.769  -2.898  17.134  1.00  0.00     0.210 HD
ENDBRANCH  19  42
BRANCH   1  44
HETATM   44  C3  UNL     1     -14.776  -7.090  14.791  1.00  0.00     0.047 C 
BRANCH  44  45
HETATM   45  C2  UNL     1     -13.277  -7.340  15.032  1.00  0.00     0.270 C 
BRANCH  45  46
HETATM   46  N1  UNL     1     -13.022  -8.490  15.905  1.00  0.00     0.079 N 
HETATM   47  C1  UNL     1     -12.372  -8.119  17.158  1.00  0.00     0.306 C 
HETATM   48  H4  UNL     1     -12.419  -9.150  15.411  1.00  0.00     0.315 HD
ENDBRANCH  45  46
ENDBRANCH  44  45
ENDBRANCH   1  44
TORSDOF 13
ENDMDL
MODEL 2
REMARK minimizedAffinity -8.39709568
REMARK CNNscore 0.615246236
REMARK CNNaffinity 7.00875425
REMARK  13 active torsions:
REMARK  status: ('A' for Active; 'I' for Inactive)
REMARK    1  A    between atoms: N1_2  and  C2_3 
REMARK    2  A    between atoms: C2_3  and  C3_4 
REMARK    3  A    between atoms: C3_4  and  C4_5 
REMARK    4  A    between atoms: C19_22  and  C23_27 
REMARK    5  A    between atoms: C20_23  and  O3_24 
REMARK    6  A    between atoms: C25_29  and  O4_30 
REMARK    7  A    between atoms: C27_32  and  C28_33 
REMARK    8  A    between atoms: C28_33  and  C30_35 
REMARK    9  A    between atoms: C30_35  and  C31_36 
REMARK   10  A    between atoms: C31_36  and  O5_37 
REMARK   11  A    between atoms: C31_36  and  C32_38 
REMARK   12  A    between atoms: C33_39  and  C35_41 
REMARK   13  A    between atoms: C35_41  and  O7_43 
ROOT
HETATM    1  C4  UNL     1       2.944   6.486  10.853  1.00  0.00     0.023 C 
HETATM    2  C5  UNL     1       2.554   5.106  10.264  1.00  0.00     0.024 C 
HETATM    3  C6  UNL     1       2.500   7.577   9.861  1.00  0.00     0.135 C 
HETATM    4  O1  UNL     1       3.292   8.131   9.093  1.00  0.00    -0.297 OA
HETATM    5  C7  UNL     1       1.043   7.984   9.841  1.00  0.00     0.080 C 
HETATM    6  C8  UNL     1       0.180   7.098  10.720  1.00  0.00     0.022 C 
HETATM    7  C9  UNL     1       0.654   7.092  12.194  1.00  0.00    -0.004 C 
HETATM    8  C10 UNL     1      -0.049   5.881  12.925  1.00  0.00     0.015 C 
HETATM    9  C11 UNL     1      -1.590   5.851  12.939  1.00  0.00     0.001 C 
HETATM   10  C12 UNL     1      -2.219   5.686  14.333  1.00  0.00     0.000 C 
HETATM   11  C13 UNL     1      -2.618   7.004  15.018  1.00  0.00     0.001 C 
HETATM   12  C14 UNL     1      -1.437   7.800  15.597  1.00  0.00     0.011 C 
HETATM   13  C15 UNL     1      -1.246   9.339  15.212  1.00  0.00    -0.016 C 
HETATM   14  C16 UNL     1      -1.835   9.707  13.853  1.00  0.00     0.094 C 
HETATM   15  C17 UNL     1      -1.033   9.101  12.714  1.00  0.00     0.157 C 
HETATM   16  O2  UNL     1      -1.410   9.279  11.558  1.00  0.00    -0.293 OA
HETATM   17  C18 UNL     1       0.250   8.351  13.014  1.00  0.00     0.003 C 
HETATM   18  C19 UNL     1       0.948   8.776  14.100  1.00  0.00    -0.029 C 
HETATM   19  C20 UNL     1       2.328   8.248  14.349  1.00  0.00     0.149 C 
HETATM   20  C21 UNL     1       2.998   7.872  13.034  1.00  0.00     0.043 C 
HETATM   21  C22 UNL     1       2.238   6.786  12.246  1.00  0.00     0.017 C 
HETATM   22  C23 UNL     1       0.306   9.716  15.134  1.00  0.00     0.017 C 
HETATM   23  C24 UNL     1       0.631  11.169  14.673  1.00  0.00     0.023 C 
HETATM   24  C25 UNL     1       0.679   9.557  16.638  1.00  0.00     0.132 C 
HETATM   25  C26 UNL     1      -0.533  10.116  17.411  1.00  0.00     0.038 C 
HETATM   26  C27 UNL     1      -1.702  10.255  16.395  1.00  0.00     0.002 C 
ENDROOT
BRANCH  26  27
HETATM   27  C28 UNL     1      -3.099  10.044  17.043  1.00  0.00    -0.011 C 
HETATM   28  C29 UNL     1      -4.250  10.525  16.152  1.00  0.00     0.010 C 
BRANCH  27  29
HETATM   29  C30 UNL     1      -3.214  10.663  18.462  1.00  0.00     0.040 C 
BRANCH  29  30
HETATM   30  C31 UNL     1      -3.473  12.175  18.587  1.00  0.00     0.142 C 
BRANCH  30  31
HETATM   31  O5  UNL     1      -2.230  12.817  18.857  1.00  0.00    -0.392 OA
HETATM   32  H48 UNL     1      -2.415  13.769  18.936  1.00  0.00     0.210 HD
ENDBRANCH  30  31
BRANCH  30  33
HETATM   33  C32 UNL     1      -4.481  12.582  19.622  1.00  0.00     0.018 C 
HETATM   34  C33 UNL     1      -5.569  13.365  19.486  1.00  0.00     0.010 C 
HETATM   35  C34 UNL     1      -5.991  14.093  18.247  1.00  0.00     0.055 C 
BRANCH  34  36
HETATM   36  C35 UNL     1      -6.391  13.560  20.708  1.00  0.00     0.171 C 
HETATM   37  O6  UNL     1      -6.036  13.374  21.860  1.00  0.00    -0.646 OA
BRANCH  36  38
HETATM   38  O7  UNL     1      -7.639  13.964  20.419  1.00  0.00    -0.773 OA
HETATM   39  H53 UNL     1      -8.064  14.049  21.299  1.00  0.00     0.167 HD
ENDBRANCH  36  38
ENDBRANCH  34  36
ENDBRANCH  30  33
ENDBRANCH  29  30
ENDBRANCH  27  29
ENDBRANCH  26  27
BRANCH  24  40
HETATM   40  O4  UNL     1       1.850  10.256  17.032  1.00  0.00    -0.394 OA
HETATM   41  H37 UNL     1       2.561   9.951  16.425  1.00  0.00     0.210 HD
ENDBRANCH  24  40
BRANCH  19  42
HETATM   42  O3  UNL     1       3.125   9.245  14.982  1.00  0.00    -0.391 OA
HETATM   43  H29 UNL     1       3.512   9.804  14.284  1.00  0.00     0.210 HD
ENDBRANCH  19  42
BRANCH   1  44
HETATM   44  C3  UNL     1       4.511   6.510  10.935  1.00  0.00     0.047 C 
BRANCH  44  45
HETATM   45  C2  UNL     1       5.091   7.258  12.148  1.00  0.00     0.270 C 
BRANCH  45  46
HETATM   46  N1  UNL     1       6.108   6.483  12.865  1.00  0.00     0.079 N 
HETATM   47  C1  UNL     1       6.688   7.210  13.990  1.00  0.00     0.306 C 
HETATM   48  H4  UNL     1       6.857   6.242  12.214  1.00  0.00     0.315 HD
ENDBRANCH  45  46
ENDBRANCH  44  45
ENDBRANCH   1  44
TORSDOF 13
ENDMDL
MODEL 3
REMARK minimizedAffinity -9.18876553
REMARK CNNscore 0.569639087
REMARK CNNaffinity 7.30099487
REMARK  13 active torsions:
REMARK  status: ('A' for Active; 'I' for Inactive)
REMARK    1  A    between atoms: N1_2  and  C2_3 
REMARK    2  A    between atoms: C2_3  and  C3_4 
REMARK    3  A    between atoms: C3_4  and  C4_5 
REMARK    4  A    between atoms: C19_22  and  C23_27 
REMARK    5  A    between atoms: C20_23  and  O3_24 
REMARK    6  A    between atoms: C25_29  and  O4_30 
REMARK    7  A    between atoms: C27_32  and  C28_33 
REMARK    8  A    between atoms: C28_33  and  C30_35 
REMARK    9  A    between atoms: C30_35  and  C31_36 
REMARK   10  A    between atoms: C31_36  and  O5_37 
REMARK   11  A    between atoms: C31_36  and  C32_38 
REMARK   12  A    between atoms: C33_39  and  C35_41 
REMARK   13  A    between atoms: C35_41  and  O7_43 
ROOT
HETATM    1  C4  UNL     1       5.213   7.663  11.786  1.00  0.00     0.023 C 
HETATM    2  C5  UNL     1       5.734   6.439  10.990  1.00  0.00     0.024 C 
HETATM    3  C6  UNL     1       4.983   8.820  10.797  1.00  0.00     0.135 C 
HETATM    4  O1  UNL     1       5.786   9.750  10.674  1.00  0.00    -0.297 OA
HETATM    5  C7  UNL     1       3.724   8.814   9.959  1.00  0.00     0.080 C 
HETATM    6  C8  UNL     1       2.933   7.528  10.108  1.00  0.00     0.022 C 
HETATM    7  C9  UNL     1       2.530   7.254  11.578  1.00  0.00    -0.004 C 
HETATM    8  C10 UNL     1       2.060   5.748  11.680  1.00  0.00     0.015 C 
HETATM    9  C11 UNL     1       0.881   5.306  10.790  1.00  0.00     0.001 C 
HETATM   10  C12 UNL     1      -0.268   4.612  11.541  1.00  0.00     0.000 C 
HETATM   11  C13 UNL     1      -1.422   5.542  11.952  1.00  0.00     0.001 C 
HETATM   12  C14 UNL     1      -1.114   6.438  13.162  1.00  0.00     0.011 C 
HETATM   13  C15 UNL     1      -1.340   8.018  13.065  1.00  0.00    -0.016 C 
HETATM   14  C16 UNL     1      -1.219   8.566  11.645  1.00  0.00     0.094 C 
HETATM   15  C17 UNL     1       0.216   8.524  11.150  1.00  0.00     0.157 C 
HETATM   16  O2  UNL     1       0.464   8.899  10.006  1.00  0.00    -0.293 OA
HETATM   17  C18 UNL     1       1.323   8.091  12.090  1.00  0.00     0.003 C 
HETATM   18  C19 UNL     1       1.134   8.380  13.405  1.00  0.00    -0.029 C 
HETATM   19  C20 UNL     1       2.260   8.191  14.376  1.00  0.00     0.149 C 
HETATM   20  C21 UNL     1       3.601   8.375  13.676  1.00  0.00     0.043 C 
HETATM   21  C22 UNL     1       3.832   7.378  12.523  1.00  0.00     0.017 C 
HETATM   22  C23 UNL     1      -0.248   8.801  13.932  1.00  0.00     0.017 C 
HETATM   23  C24 UNL     1      -0.298  10.357  13.845  1.00  0.00     0.023 C 
HETATM   24  C25 UNL     1      -0.687   8.350  15.356  1.00  0.00     0.132 C 
HETATM   25  C26 UNL     1      -2.229   8.337  15.313  1.00  0.00     0.038 C 
HETATM   26  C27 UNL     1      -2.648   8.426  13.818  1.00  0.00     0.002 C 
ENDROOT
BRANCH  26  27
HETATM   27  C28 UNL     1      -3.979   7.685  13.515  1.00  0.00    -0.011 C 
HETATM   28  C29 UNL     1      -4.975   7.743  14.679  1.00  0.00     0.010 C 
BRANCH  27  29
HETATM   29  C30 UNL     1      -3.770   6.219  13.049  1.00  0.00     0.040 C 
BRANCH  29  30
HETATM   30  C31 UNL     1      -4.535   5.099  13.777  1.00  0.00     0.142 C 
BRANCH  30  31
HETATM   31  O5  UNL     1      -3.932   3.855  13.435  1.00  0.00    -0.392 OA
HETATM   32  H48 UNL     1      -4.431   3.161  13.901  1.00  0.00     0.210 HD
ENDBRANCH  30  31
BRANCH  30  33
HETATM   33  C32 UNL     1      -6.010   5.031  13.506  1.00  0.00     0.018 C 
HETATM   34  C33 UNL     1      -6.705   4.110  12.810  1.00  0.00     0.010 C 
HETATM   35  C34 UNL     1      -6.133   2.946  12.060  1.00  0.00     0.055 C 
BRANCH  34  36
HETATM   36  C35 UNL     1      -8.174   4.313  12.743  1.00  0.00     0.171 C 
HETATM   37  O6  UNL     1      -8.757   5.379  12.638  1.00  0.00    -0.646 OA
BRANCH  36  38
HETATM   38  O7  UNL     1      -8.850   3.154  12.833  1.00  0.00    -0.773 OA
HETATM   39  H53 UNL     1      -9.789   3.430  12.779  1.00  0.00     0.167 HD
ENDBRANCH  36  38
ENDBRANCH  34  36
ENDBRANCH  30  33
ENDBRANCH  29  30
ENDBRANCH  27  29
ENDBRANCH  26  27
BRANCH  24  40
HETATM   40  O4  UNL     1      -0.254   9.204  16.404  1.00  0.00    -0.394 OA
HETATM   41  H37 UNL     1       0.722   9.274  16.307  1.00  0.00     0.210 HD
ENDBRANCH  24  40
BRANCH  19  42
HETATM   42  O3  UNL     1       2.172   9.157  15.420  1.00  0.00    -0.391 OA
HETATM   43  H29 UNL     1       2.624   9.965  15.117  1.00  0.00     0.210 HD
ENDBRANCH  19  42
BRANCH   1  44
HETATM   44  C3  UNL     1       6.364   8.081  12.768  1.00  0.00     0.047 C 
BRANCH  44  45
HETATM   45  C2  UNL     1       6.841   6.975  13.725  1.00  0.00     0.270 C 
BRANCH  45  46
HETATM   46  N1  UNL     1       7.727   7.474  14.780  1.00  0.00     0.079 N 
HETATM   47  C1  UNL     1       8.978   8.021  14.262  1.00  0.00     0.306 C 
HETATM   48  H4  UNL     1       7.949   6.705  15.415  1.00  0.00     0.315 HD
ENDBRANCH  45  46
ENDBRANCH  44  45
ENDBRANCH   1  44
TORSDOF 13
ENDMDL
MODEL 4
REMARK minimizedAffinity -6.67457819
REMARK CNNscore 0.544003427
REMARK CNNaffinity 6.60069799
REMARK  13 active torsions:
REMARK  status: ('A' for Active; 'I' for Inactive)
REMARK    1  A    between atoms: N1_2  and  C2_3 
REMARK    2  A    between atoms: C2_3  and  C3_4 
REMARK    3  A    between atoms: C3_4  and  C4_5 
REMARK    4  A    between atoms: C19_22  and  C23_27 
REMARK    5  A    between atoms: C20_23  and  O3_24 
REMARK    6  A    between atoms: C25_29  and  O4_30 
REMARK    7  A    between atoms: C27_32  and  C28_33 
REMARK    8  A    between atoms: C28_33  and  C30_35 
REMARK    9  A    between atoms: C30_35  and  C31_36 
REMARK   10  A    between atoms: C31_36  and  O5_37 
REMARK   11  A    between atoms: C31_36  and  C32_38 
REMARK   12  A    between atoms: C33_39  and  C35_41 
REMARK   13  A    between atoms: C35_41  and  O7_43 
ROOT
HETATM    1  C4  UNL     1      -0.562   6.500  12.936  1.00  0.00     0.023 C 
HETATM    2  C5  UNL     1      -1.903   5.726  13.014  1.00  0.00     0.024 C 
HETATM    3  C6  UNL     1      -0.669   7.540  11.806  1.00  0.00     0.135 C 
HETATM    4  O1  UNL     1      -0.165   7.358  10.693  1.00  0.00    -0.297 OA
HETATM    5  C7  UNL     1      -1.411   8.829  12.079  1.00  0.00     0.080 C 
HETATM    6  C8  UNL     1      -2.108   8.824  13.427  1.00  0.00     0.022 C 
HETATM    7  C9  UNL     1      -1.122   8.583  14.597  1.00  0.00    -0.004 C 
HETATM    8  C10 UNL     1      -1.970   8.223  15.880  1.00  0.00     0.015 C 
HETATM    9  C11 UNL     1      -3.010   9.253  16.362  1.00  0.00     0.001 C 
HETATM   10  C12 UNL     1      -2.891   9.645  17.844  1.00  0.00     0.000 C 
HETATM   11  C13 UNL     1      -2.069  10.917  18.110  1.00  0.00     0.001 C 
HETATM   12  C14 UNL     1      -0.549  10.725  17.993  1.00  0.00     0.011 C 
HETATM   13  C15 UNL     1       0.309  11.694  17.054  1.00  0.00    -0.016 C 
HETATM   14  C16 UNL     1      -0.488  12.284  15.894  1.00  0.00     0.094 C 
HETATM   15  C17 UNL     1      -0.829  11.228  14.857  1.00  0.00     0.157 C 
HETATM   16  O2  UNL     1      -1.503  11.547  13.880  1.00  0.00    -0.293 OA
HETATM   17  C18 UNL     1      -0.277   9.824  15.004  1.00  0.00     0.003 C 
HETATM   18  C19 UNL     1       0.935   9.722  15.611  1.00  0.00    -0.029 C 
HETATM   19  C20 UNL     1       1.659   8.410  15.606  1.00  0.00     0.149 C 
HETATM   20  C21 UNL     1       1.285   7.601  14.370  1.00  0.00     0.043 C 
HETATM   21  C22 UNL     1      -0.221   7.283  14.278  1.00  0.00     0.017 C 
HETATM   22  C23 UNL     1       1.531  10.905  16.391  1.00  0.00     0.017 C 
HETATM   23  C24 UNL     1       2.393  11.714  15.375  1.00  0.00     0.023 C 
HETATM   24  C25 UNL     1       2.373  10.623  17.670  1.00  0.00     0.132 C 
HETATM   25  C26 UNL     1       2.245  11.903  18.522  1.00  0.00     0.038 C 
HETATM   26  C27 UNL     1       1.083  12.742  17.920  1.00  0.00     0.002 C 
ENDROOT
BRANCH  26  27
HETATM   27  C28 UNL     1       0.322  13.579  18.985  1.00  0.00    -0.011 C 
HETATM   28  C29 UNL     1       0.072  15.025  18.541  1.00  0.00     0.010 C 
BRANCH  27  29
HETATM   29  C30 UNL     1       0.997  13.549  20.383  1.00  0.00     0.040 C 
BRANCH  29  30
HETATM   30  C31 UNL     1       2.133  14.546  20.674  1.00  0.00     0.142 C 
BRANCH  30  31
HETATM   31  O5  UNL     1       2.392  15.284  19.483  1.00  0.00    -0.392 OA
HETATM   32  H48 UNL     1       3.113  15.904  19.687  1.00  0.00     0.210 HD
ENDBRANCH  30  31
BRANCH  30  33
HETATM   33  C32 UNL     1       3.413  13.948  21.180  1.00  0.00     0.018 C 
HETATM   34  C33 UNL     1       3.736  13.563  22.431  1.00  0.00     0.010 C 
HETATM   35  C34 UNL     1       2.888  13.722  23.656  1.00  0.00     0.055 C 
BRANCH  34  36
HETATM   36  C35 UNL     1       5.089  12.977  22.606  1.00  0.00     0.171 C 
HETATM   37  O6  UNL     1       5.442  11.855  22.286  1.00  0.00    -0.646 OA
BRANCH  36  38
HETATM   38  O7  UNL     1       5.938  13.833  23.202  1.00  0.00    -0.773 OA
HETATM   39  H53 UNL     1       6.776  13.326  23.256  1.00  0.00     0.167 HD
ENDBRANCH  36  38
ENDBRANCH  34  36
ENDBRANCH  30  33
ENDBRANCH  29  30
ENDBRANCH  27  29
ENDBRANCH  26  27
BRANCH  24  40
HETATM   40  O4  UNL     1       3.745  10.357  17.426  1.00  0.00    -0.394 OA
HETATM   41  H37 UNL     1       3.764   9.613  16.783  1.00  0.00     0.210 HD
ENDBRANCH  24  40
BRANCH  19  42
HETATM   42  O3  UNL     1       3.066   8.628  15.581  1.00  0.00    -0.391 OA
HETATM   43  H29 UNL     1       3.335   8.732  14.650  1.00  0.00     0.210 HD
ENDBRANCH  19  42
BRANCH   1  44
HETATM   44  C3  UNL     1       0.536   5.453  12.534  1.00  0.00     0.047 C 
BRANCH  44  45
HETATM   45  C2  UNL     1       1.790   6.044  11.867  1.00  0.00     0.270 C 
BRANCH  45  46
HETATM   46  N1  UNL     1       2.258   5.252  10.725  1.00  0.00     0.079 N 
HETATM   47  C1  UNL     1       3.215   5.970   9.890  1.00  0.00     0.306 C 
HETATM   48  H4  UNL     1       1.452   4.998  10.150  1.00  0.00     0.315 HD
ENDBRANCH  45  46
ENDBRANCH  44  45
ENDBRANCH   1  44
TORSDOF 13
ENDMDL
MODEL 5
REMARK minimizedAffinity -7.0077734
REMARK CNNscore 0.474017799
REMARK CNNaffinity 6.50062561
REMARK  13 active torsions:
REMARK  status: ('A' for Active; 'I' for Inactive)
REMARK    1  A    between atoms: N1_2  and  C2_3 
REMARK    2  A    between atoms: C2_3  and  C3_4 
REMARK    3  A    between atoms: C3_4  and  C4_5 
REMARK    4  A    between atoms: C19_22  and  C23_27 
REMARK    5  A    between atoms: C20_23  and  O3_24 
REMARK    6  A    between atoms: C25_29  and  O4_30 
REMARK    7  A    between atoms: C27_32  and  C28_33 
REMARK    8  A    between atoms: C28_33  and  C30_35 
REMARK    9  A    between atoms: C30_35  and  C31_36 
REMARK   10  A    between atoms: C31_36  and  O5_37 
REMARK   11  A    between atoms: C31_36  and  C32_38 
REMARK   12  A    between atoms: C33_39  and  C35_41 
REMARK   13  A    between atoms: C35_41  and  O7_43 
ROOT
HETATM    1  C4  UNL     1      -6.496 -11.256   2.953  1.00  0.00     0.023 C 
HETATM    2  C5  UNL     1      -6.120 -12.751   3.118  1.00  0.00     0.024 C 
HETATM    3  C6  UNL     1      -5.212 -10.468   2.632  1.00  0.00     0.135 C 
HETATM    4  O1  UNL     1      -4.614  -9.808   3.487  1.00  0.00    -0.297 OA
HETATM    5  C7  UNL     1      -4.678 -10.503   1.218  1.00  0.00     0.080 C 
HETATM    6  C8  UNL     1      -5.428 -11.486   0.338  1.00  0.00     0.022 C 
HETATM    7  C9  UNL     1      -6.943 -11.175   0.269  1.00  0.00    -0.004 C 
HETATM    8  C10 UNL     1      -7.671 -12.439  -0.339  1.00  0.00     0.015 C 
HETATM    9  C11 UNL     1      -7.235 -12.909  -1.741  1.00  0.00     0.001 C 
HETATM   10  C12 UNL     1      -8.383 -13.076  -2.751  1.00  0.00     0.000 C 
HETATM   11  C13 UNL     1      -8.629 -11.855  -3.653  1.00  0.00     0.001 C 
HETATM   12  C14 UNL     1      -9.351 -10.689  -2.959  1.00  0.00     0.011 C 
HETATM   13  C15 UNL     1      -8.727  -9.219  -3.011  1.00  0.00    -0.016 C 
HETATM   14  C16 UNL     1      -7.209  -9.204  -3.170  1.00  0.00     0.094 C 
HETATM   15  C17 UNL     1      -6.511  -9.689  -1.911  1.00  0.00     0.157 C 
HETATM   16  O2  UNL     1      -5.284  -9.768  -1.902  1.00  0.00    -0.293 OA
HETATM   17  C18 UNL     1      -7.326  -9.996  -0.671  1.00  0.00     0.003 C 
HETATM   18  C19 UNL     1      -8.455  -9.258  -0.503  1.00  0.00    -0.029 C 
HETATM   19  C20 UNL     1      -9.206  -9.333   0.792  1.00  0.00     0.149 C 
HETATM   20  C21 UNL     1      -8.255  -9.658   1.938  1.00  0.00     0.043 C 
HETATM   21  C22 UNL     1      -7.523 -11.004   1.765  1.00  0.00     0.017 C 
HETATM   22  C23 UNL     1      -9.034  -8.424  -1.658  1.00  0.00     0.017 C 
HETATM   23  C24 UNL     1      -8.396  -7.007  -1.541  1.00  0.00     0.023 C 
HETATM   24  C25 UNL     1     -10.579  -8.285  -1.793  1.00  0.00     0.132 C 
HETATM   25  C26 UNL     1     -10.825  -8.008  -3.290  1.00  0.00     0.038 C 
HETATM   26  C27 UNL     1      -9.504  -8.336  -4.042  1.00  0.00     0.002 C 
ENDROOT
BRANCH  26  27
HETATM   27  C28 UNL     1      -9.740  -8.859  -5.486  1.00  0.00    -0.011 C 
HETATM   28  C29 UNL     1      -8.449  -9.322  -6.172  1.00  0.00     0.010 C 
BRANCH  27  29
HETATM   29  C30 UNL     1     -10.502  -7.848  -6.385  1.00  0.00     0.040 C 
BRANCH  29  30
HETATM   30  C31 UNL     1      -9.880  -6.460  -6.624  1.00  0.00     0.142 C 
BRANCH  30  31
HETATM   31  O5  UNL     1      -8.487  -6.543  -6.337  1.00  0.00    -0.392 OA
HETATM   32  H48 UNL     1      -8.114  -5.657  -6.489  1.00  0.00     0.210 HD
ENDBRANCH  30  31
BRANCH  30  33
HETATM   33  C32 UNL     1     -10.485  -5.330  -5.842  1.00  0.00     0.018 C 
HETATM   34  C33 UNL     1     -11.177  -4.263  -6.288  1.00  0.00     0.010 C 
HETATM   35  C34 UNL     1     -11.441  -3.911  -7.720  1.00  0.00     0.055 C 
BRANCH  34  36
HETATM   36  C35 UNL     1     -11.671  -3.324  -5.250  1.00  0.00     0.171 C 
HETATM   37  O6  UNL     1     -12.645  -2.594  -5.334  1.00  0.00    -0.646 OA
BRANCH  36  38
HETATM   38  O7  UNL     1     -10.899  -3.332  -4.150  1.00  0.00    -0.773 OA
HETATM   39  H53 UNL     1     -11.330  -2.678  -3.560  1.00  0.00     0.167 HD
ENDBRANCH  36  38
ENDBRANCH  34  36
ENDBRANCH  30  33
ENDBRANCH  29  30
ENDBRANCH  27  29
ENDBRANCH  26  27
BRANCH  24  40
HETATM   40  O4  UNL     1     -11.146  -7.236  -1.023  1.00  0.00    -0.394 OA
HETATM   41  H37 UNL     1     -10.854  -7.395  -0.097  1.00  0.00     0.210 HD
ENDBRANCH  24  40
BRANCH  19  42
HETATM   42  O3  UNL     1      -9.822  -8.080   1.072  1.00  0.00    -0.391 OA
HETATM   43  H29 UNL     1      -9.169  -7.523   1.532  1.00  0.00     0.210 HD
ENDBRANCH  19  42
BRANCH   1  44
HETATM   44  C3  UNL     1      -7.030 -10.773   4.347  1.00  0.00     0.047 C 
BRANCH  44  45
HETATM   45  C2  UNL     1      -7.458  -9.297   4.407  1.00  0.00     0.270 C 
BRANCH  45  46
HETATM   46  N1  UNL     1      -7.192  -8.677   5.709  1.00  0.00     0.079 N 
HETATM   47  C1  UNL     1      -6.364  -9.508   6.577  1.00  0.00     0.306 C 
HETATM   48  H4  UNL     1      -8.083  -8.505   6.179  1.00  0.00     0.315 HD
ENDBRANCH  45  46
ENDBRANCH  44  45
ENDBRANCH   1  44
TORSDOF 13
ENDMDL
MODEL 6
REMARK minimizedAffinity -7.65215588
REMARK CNNscore 0.455632478
REMARK CNNaffinity 6.56080437
REMARK  13 active torsions:
REMARK  status: ('A' for Active; 'I' for Inactive)
REMARK    1  A    between atoms: N1_2  and  C2_3 
REMARK    2  A    between atoms: C2_3  and  C3_4 
REMARK    3  A    between atoms: C3_4  and  C4_5 
REMARK    4  A    between atoms: C19_22  and  C23_27 
REMARK    5  A    between atoms: C20_23  and  O3_24 
REMARK    6  A    between atoms: C25_29  and  O4_30 
REMARK    7  A    between atoms: C27_32  and  C28_33 
REMARK    8  A    between atoms: C28_33  and  C30_35 
REMARK    9  A    between atoms: C30_35  and  C31_36 
REMARK   10  A    between atoms: C31_36  and  O5_37 
REMARK   11  A    between atoms: C31_36  and  C32_38 
REMARK   12  A    between atoms: C33_39  and  C35_41 
REMARK   13  A    between atoms: C35_41  and  O7_43 
ROOT
HETATM    1  C4  UNL     1      -2.955  12.746  18.355  1.00  0.00     0.023 C 
HETATM    2  C5  UNL     1      -1.817  13.296  19.253  1.00  0.00     0.024 C 
HETATM    3  C6  UNL     1      -3.122  13.692  17.152  1.00  0.00     0.135 C 
HETATM    4  O1  UNL     1      -4.027  14.530  17.093  1.00  0.00    -0.297 OA
HETATM    5  C7  UNL     1      -2.145  13.577  16.003  1.00  0.00     0.080 C 
HETATM    6  C8  UNL     1      -1.004  12.622  16.304  1.00  0.00     0.022 C 
HETATM    7  C9  UNL     1      -1.505  11.199  16.649  1.00  0.00    -0.004 C 
HETATM    8  C10 UNL     1      -0.304  10.406  17.301  1.00  0.00     0.015 C 
HETATM    9  C11 UNL     1       0.984  10.250  16.469  1.00  0.00     0.001 C 
HETATM   10  C12 UNL     1       1.489   8.804  16.328  1.00  0.00     0.000 C 
HETATM   11  C13 UNL     1       1.030   8.084  15.049  1.00  0.00     0.001 C 
HETATM   12  C14 UNL     1      -0.435   7.617  15.076  1.00  0.00     0.011 C 
HETATM   13  C15 UNL     1      -1.423   8.017  13.885  1.00  0.00    -0.016 C 
HETATM   14  C16 UNL     1      -1.038   9.316  13.182  1.00  0.00     0.094 C 
HETATM   15  C17 UNL     1      -1.274  10.524  14.072  1.00  0.00     0.157 C 
HETATM   16  O2  UNL     1      -0.974  11.640  13.654  1.00  0.00    -0.293 OA
HETATM   17  C18 UNL     1      -1.937  10.344  15.423  1.00  0.00     0.003 C 
HETATM   18  C19 UNL     1      -2.835   9.327  15.514  1.00  0.00    -0.029 C 
HETATM   19  C20 UNL     1      -3.698   9.207  16.733  1.00  0.00     0.149 C 
HETATM   20  C21 UNL     1      -3.941  10.579  17.350  1.00  0.00     0.043 C 
HETATM   21  C22 UNL     1      -2.646  11.293  17.786  1.00  0.00     0.017 C 
HETATM   22  C23 UNL     1      -2.909   8.238  14.432  1.00  0.00     0.017 C 
HETATM   23  C24 UNL     1      -3.954   8.727  13.384  1.00  0.00     0.023 C 
HETATM   24  C25 UNL     1      -3.244   6.775  14.849  1.00  0.00     0.132 C 
HETATM   25  C26 UNL     1      -2.614   5.894  13.751  1.00  0.00     0.038 C 
HETATM   26  C27 UNL     1      -1.648   6.796  12.933  1.00  0.00     0.002 C 
ENDROOT
BRANCH  26  27
HETATM   27  C28 UNL     1      -0.426   6.023  12.365  1.00  0.00    -0.011 C 
HETATM   28  C29 UNL     1       0.180   5.039  13.372  1.00  0.00     0.010 C 
BRANCH  27  29
HETATM   29  C30 UNL     1       0.672   6.955  11.786  1.00  0.00     0.040 C 
BRANCH  29  30
HETATM   30  C31 UNL     1       1.556   6.429  10.640  1.00  0.00     0.142 C 
BRANCH  30  31
HETATM   31  O5  UNL     1       1.031   5.173  10.217  1.00  0.00    -0.392 OA
HETATM   32  H48 UNL     1       1.604   4.856   9.497  1.00  0.00     0.210 HD
ENDBRANCH  30  31
BRANCH  30  33
HETATM   33  C32 UNL     1       3.015   6.280  10.956  1.00  0.00     0.018 C 
HETATM   34  C33 UNL     1       4.052   7.043  10.559  1.00  0.00     0.010 C 
HETATM   35  C34 UNL     1       3.991   8.207   9.618  1.00  0.00     0.055 C 
BRANCH  34  36
HETATM   36  C35 UNL     1       5.389   6.645  11.069  1.00  0.00     0.171 C 
HETATM   37  O6  UNL     1       6.414   6.538  10.415  1.00  0.00    -0.646 OA
BRANCH  36  38
HETATM   38  O7  UNL     1       5.370   6.376  12.385  1.00  0.00    -0.773 OA
HETATM   39  H53 UNL     1       6.298   6.129  12.584  1.00  0.00     0.167 HD
ENDBRANCH  36  38
ENDBRANCH  34  36
ENDBRANCH  30  33
ENDBRANCH  29  30
ENDBRANCH  27  29
ENDBRANCH  26  27
BRANCH  24  40
HETATM   40  O4  UNL     1      -4.631   6.491  14.941  1.00  0.00    -0.394 OA
HETATM   41  H37 UNL     1      -5.002   7.161  15.558  1.00  0.00     0.210 HD
ENDBRANCH  24  40
BRANCH  19  42
HETATM   42  O3  UNL     1      -4.962   8.651  16.383  1.00  0.00    -0.391 OA
HETATM   43  H29 UNL     1      -5.541   9.381  16.098  1.00  0.00     0.210 HD
ENDBRANCH  19  42
BRANCH   1  44
HETATM   44  C3  UNL     1      -4.270  12.809  19.212  1.00  0.00     0.047 C 
BRANCH  44  45
HETATM   45  C2  UNL     1      -5.408  13.644  18.601  1.00  0.00     0.270 C 
BRANCH  45  46
HETATM   46  N1  UNL     1      -5.776  14.799  19.426  1.00  0.00     0.079 N 
HETATM   47  C1  UNL     1      -5.054  14.846  20.694  1.00  0.00     0.306 C 
HETATM   48  H4  UNL     1      -6.777  14.755  19.625  1.00  0.00     0.315 HD
ENDBRANCH  45  46
ENDBRANCH  44  45
ENDBRANCH   1  44
TORSDOF 13
ENDMDL
MODEL 7
REMARK minimizedAffinity -6.89294147
REMARK CNNscore 0.4553653
REMARK CNNaffinity 6.66244459
REMARK  13 active torsions:
REMARK  status: ('A' for Active; 'I' for Inactive)
REMARK    1  A    between atoms: N1_2  and  C2_3 
REMARK    2  A    between atoms: C2_3  and  C3_4 
REMARK    3  A    between atoms: C3_4  and  C4_5 
REMARK    4  A    between atoms: C19_22  and  C23_27 
REMARK    5  A    between atoms: C20_23  and  O3_24 
REMARK    6  A    between atoms: C25_29  and  O4_30 
REMARK    7  A    between atoms: C27_32  and  C28_33 
REMARK    8  A    between atoms: C28_33  and  C30_35 
REMARK    9  A    between atoms: C30_35  and  C31_36 
REMARK   10  A    between atoms: C31_36  and  O5_37 
REMARK   11  A    between atoms: C31_36  and  C32_38 
REMARK   12  A    between atoms: C33_39  and  C35_41 
REMARK   13  A    between atoms: C35_41  and  O7_43 
ROOT
HETATM    1  C4  UNL     1       1.588   6.565  11.275  1.00  0.00     0.023 C 
HETATM    2  C5  UNL     1       0.705   5.374  10.822  1.00  0.00     0.024 C 
HETATM    3  C6  UNL     1       1.250   7.780  10.393  1.00  0.00     0.135 C 
HETATM    4  O1  UNL     1       1.967   8.129   9.450  1.00  0.00    -0.297 OA
HETATM    5  C7  UNL     1       0.000   8.573  10.704  1.00  0.00     0.080 C 
HETATM    6  C8  UNL     1      -0.850   7.919  11.778  1.00  0.00     0.022 C 
HETATM    7  C9  UNL     1      -0.072   7.716  13.100  1.00  0.00    -0.004 C 
HETATM    8  C10 UNL     1      -0.896   6.712  14.000  1.00  0.00     0.015 C 
HETATM    9  C11 UNL     1      -2.338   7.107  14.373  1.00  0.00     0.001 C 
HETATM   10  C12 UNL     1      -2.651   7.058  15.878  1.00  0.00     0.000 C 
HETATM   11  C13 UNL     1      -2.499   8.402  16.611  1.00  0.00     0.001 C 
HETATM   12  C14 UNL     1      -1.043   8.814  16.882  1.00  0.00     0.011 C 
HETATM   13  C15 UNL     1      -0.525  10.258  16.432  1.00  0.00    -0.016 C 
HETATM   14  C16 UNL     1      -1.284  10.836  15.240  1.00  0.00     0.094 C 
HETATM   15  C17 UNL     1      -0.966  10.085  13.958  1.00  0.00     0.157 C 
HETATM   16  O2  UNL     1      -1.533  10.413  12.919  1.00  0.00    -0.293 OA
HETATM   17  C18 UNL     1       0.090   8.998  13.966  1.00  0.00     0.003 C 
HETATM   18  C19 UNL     1       1.109   9.165  14.851  1.00  0.00    -0.029 C 
HETATM   19  C20 UNL     1       2.306   8.266  14.782  1.00  0.00     0.149 C 
HETATM   20  C21 UNL     1       2.525   7.781  13.355  1.00  0.00     0.043 C 
HETATM   21  C22 UNL     1       1.333   6.983  12.788  1.00  0.00     0.017 C 
HETATM   22  C23 UNL     1       1.009  10.196  15.987  1.00  0.00     0.017 C 
HETATM   23  C24 UNL     1       1.612  11.523  15.433  1.00  0.00     0.023 C 
HETATM   24  C25 UNL     1       1.658   9.872  17.365  1.00  0.00     0.132 C 
HETATM   25  C26 UNL     1       0.861  10.707  18.388  1.00  0.00     0.038 C 
HETATM   26  C27 UNL     1      -0.424  11.208  17.670  1.00  0.00     0.002 C 
ENDROOT
BRANCH  26  27
HETATM   27  C28 UNL     1      -1.637  11.361  18.629  1.00  0.00    -0.011 C 
HETATM   28  C29 UNL     1      -2.247  10.016  19.040  1.00  0.00     0.010 C 
BRANCH  27  29
HETATM   29  C30 UNL     1      -2.735  12.312  18.080  1.00  0.00     0.040 C 
BRANCH  29  30
HETATM   30  C31 UNL     1      -2.365  13.780  17.801  1.00  0.00     0.142 C 
BRANCH  30  31
HETATM   31  O5  UNL     1      -1.928  14.367  19.023  1.00  0.00    -0.392 OA
HETATM   32  H48 UNL     1      -1.703  15.293  18.827  1.00  0.00     0.210 HD
ENDBRANCH  30  31
BRANCH  30  33
HETATM   33  C32 UNL     1      -3.451  14.624  17.201  1.00  0.00     0.018 C 
HETATM   34  C33 UNL     1      -3.886  14.670  15.927  1.00  0.00     0.010 C 
HETATM   35  C34 UNL     1      -3.311  13.919  14.765  1.00  0.00     0.055 C 
BRANCH  34  36
HETATM   36  C35 UNL     1      -5.008  15.603  15.652  1.00  0.00     0.171 C 
HETATM   37  O6  UNL     1      -5.034  16.479  14.803  1.00  0.00    -0.646 OA
BRANCH  36  38
HETATM   38  O7  UNL     1      -6.048  15.402  16.479  1.00  0.00    -0.773 OA
HETATM   39  H53 UNL     1      -6.703  16.074  16.194  1.00  0.00     0.167 HD
ENDBRANCH  36  38
ENDBRANCH  34  36
ENDBRANCH  30  33
ENDBRANCH  29  30
ENDBRANCH  27  29
ENDBRANCH  26  27
BRANCH  24  40
HETATM   40  O4  UNL     1       3.035  10.203  17.461  1.00  0.00    -0.394 OA
HETATM   41  H37 UNL     1       3.475   9.742  16.711  1.00  0.00     0.210 HD
ENDBRANCH  24  40
BRANCH  19  42
HETATM   42  O3  UNL     1       3.473   8.974  15.191  1.00  0.00    -0.391 OA
HETATM   43  H29 UNL     1       3.829   9.437  14.411  1.00  0.00     0.210 HD
ENDBRANCH  19  42
BRANCH   1  44
HETATM   44  C3  UNL     1       3.076   6.153  10.989  1.00  0.00     0.047 C 
BRANCH  44  45
HETATM   45  C2  UNL     1       3.262   5.114   9.871  1.00  0.00     0.270 C 
BRANCH  45  46
HETATM   46  N1  UNL     1       4.645   4.642   9.753  1.00  0.00     0.079 N 
HETATM   47  C1  UNL     1       4.753   3.366   9.053  1.00  0.00     0.306 C 
HETATM   48  H4  UNL     1       5.035   4.530  10.691  1.00  0.00     0.315 HD
ENDBRANCH  45  46
ENDBRANCH  44  45
ENDBRANCH   1  44
TORSDOF 13
ENDMDL
MODEL 8
REMARK minimizedAffinity -10.1179304
REMARK CNNscore 0.372418046
REMARK CNNaffinity 6.92788935
REMARK  13 active torsions:
REMARK  status: ('A' for Active; 'I' for Inactive)
REMARK    1  A    between atoms: N1_2  and  C2_3 
REMARK    2  A    between atoms: C2_3  and  C3_4 
REMARK    3  A    between atoms: C3_4  and  C4_5 
REMARK    4  A    between atoms: C19_22  and  C23_27 
REMARK    5  A    between atoms: C20_23  and  O3_24 
REMARK    6  A    between atoms: C25_29  and  O4_30 
REMARK    7  A    between atoms: C27_32  and  C28_33 
REMARK    8  A    between atoms: C28_33  and  C30_35 
REMARK    9  A    between atoms: C30_35  and  C31_36 
REMARK   10  A    between atoms: C31_36  and  O5_37 
REMARK   11  A    between atoms: C31_36  and  C32_38 
REMARK   12  A    between atoms: C33_39  and  C35_41 
REMARK   13  A    between atoms: C35_41  and  O7_43 
ROOT
HETATM    1  C4  UNL     1       3.761   6.494  10.554  1.00  0.00     0.023 C 
HETATM    2  C5  UNL     1       3.757   5.283   9.586  1.00  0.00     0.024 C 
HETATM    3  C6  UNL     1       3.480   7.768   9.737  1.00  0.00     0.135 C 
HETATM    4  O1  UNL     1       4.377   8.546   9.401  1.00  0.00    -0.297 OA
HETATM    5  C7  UNL     1       2.052   8.073   9.344  1.00  0.00     0.080 C 
HETATM    6  C8  UNL     1       1.101   6.940   9.687  1.00  0.00     0.022 C 
HETATM    7  C9  UNL     1       1.118   6.596  11.196  1.00  0.00    -0.004 C 
HETATM    8  C10 UNL     1       0.407   5.197  11.383  1.00  0.00     0.015 C 
HETATM    9  C11 UNL     1      -1.050   5.066  10.899  1.00  0.00     0.001 C 
HETATM   10  C12 UNL     1      -2.031   4.516  11.949  1.00  0.00     0.000 C 
HETATM   11  C13 UNL     1      -2.792   5.592  12.743  1.00  0.00     0.001 C 
HETATM   12  C14 UNL     1      -1.955   6.291  13.826  1.00  0.00     0.011 C 
HETATM   13  C15 UNL     1      -1.875   7.887  13.868  1.00  0.00    -0.016 C 
HETATM   14  C16 UNL     1      -2.085   8.545  12.507  1.00  0.00     0.094 C 
HETATM   15  C17 UNL     1      -0.909   8.297  11.579  1.00  0.00     0.157 C 
HETATM   16  O2  UNL     1      -0.951   8.735  10.432  1.00  0.00    -0.293 OA
HETATM   17  C18 UNL     1       0.320   7.579  12.099  1.00  0.00     0.003 C 
HETATM   18  C19 UNL     1       0.604   7.763  13.416  1.00  0.00    -0.029 C 
HETATM   19  C20 UNL     1       1.909   7.278  13.969  1.00  0.00     0.149 C 
HETATM   20  C21 UNL     1       2.981   7.288  12.886  1.00  0.00     0.043 C 
HETATM   21  C22 UNL     1       2.643   6.388  11.680  1.00  0.00     0.017 C 
HETATM   22  C23 UNL     1      -0.437   8.370  14.372  1.00  0.00     0.017 C 
HETATM   23  C24 UNL     1      -0.196   9.910  14.367  1.00  0.00     0.023 C 
HETATM   24  C25 UNL     1      -0.502   7.863  15.843  1.00  0.00     0.132 C 
HETATM   25  C26 UNL     1      -1.953   8.131  16.293  1.00  0.00     0.038 C 
HETATM   26  C27 UNL     1      -2.781   8.444  15.015  1.00  0.00     0.002 C 
ENDROOT
BRANCH  26  27
HETATM   27  C28 UNL     1      -4.262   7.989  15.122  1.00  0.00    -0.011 C 
HETATM   28  C29 UNL     1      -4.418   6.611  15.776  1.00  0.00     0.010 C 
BRANCH  27  29
HETATM   29  C30 UNL     1      -5.017   8.036  13.766  1.00  0.00     0.040 C 
BRANCH  29  30
HETATM   30  C31 UNL     1      -6.460   7.504  13.707  1.00  0.00     0.142 C 
BRANCH  30  31
HETATM   31  O5  UNL     1      -7.148   7.960  14.868  1.00  0.00    -0.392 OA
HETATM   32  H48 UNL     1      -8.055   7.611  14.814  1.00  0.00     0.210 HD
ENDBRANCH  30  31
BRANCH  30  33
HETATM   33  C32 UNL     1      -6.602   6.014  13.593  1.00  0.00     0.018 C 
HETATM   34  C33 UNL     1      -7.524   5.297  12.921  1.00  0.00     0.010 C 
HETATM   35  C34 UNL     1      -8.701   5.843  12.172  1.00  0.00     0.055 C 
BRANCH  34  36
HETATM   36  C35 UNL     1      -7.378   3.821  12.984  1.00  0.00     0.171 C 
HETATM   37  O6  UNL     1      -6.342   3.187  12.864  1.00  0.00    -0.646 OA
BRANCH  36  38
HETATM   38  O7  UNL     1      -8.556   3.203  13.175  1.00  0.00    -0.773 OA
HETATM   39  H53 UNL     1      -8.317   2.252  13.193  1.00  0.00     0.167 HD
ENDBRANCH  36  38
ENDBRANCH  34  36
ENDBRANCH  30  33
ENDBRANCH  29  30
ENDBRANCH  27  29
ENDBRANCH  26  27
BRANCH  24  40
HETATM   40  O4  UNL     1       0.392   8.514  16.731  1.00  0.00    -0.394 OA
HETATM   41  H37 UNL     1       1.286   8.417  16.331  1.00  0.00     0.210 HD
ENDBRANCH  24  40
BRANCH  19  42
HETATM   42  O3  UNL     1       2.340   8.133  15.024  1.00  0.00    -0.391 OA
HETATM   43  H29 UNL     1       2.833   8.874  14.625  1.00  0.00     0.210 HD
ENDBRANCH  19  42
BRANCH   1  44
HETATM   44  C3  UNL     1       5.217   6.597  11.133  1.00  0.00     0.047 C 
BRANCH  44  45
HETATM   45  C2  UNL     1       5.354   7.444  12.410  1.00  0.00     0.270 C 
BRANCH  45  46
HETATM   46  N1  UNL     1       6.259   6.848  13.397  1.00  0.00     0.079 N 
HETATM   47  C1  UNL     1       7.462   7.644  13.620  1.00  0.00     0.306 C 
HETATM   48  H4  UNL     1       6.539   5.922  13.070  1.00  0.00     0.315 HD
ENDBRANCH  45  46
ENDBRANCH  44  45
ENDBRANCH   1  44
TORSDOF 13
ENDMDL
MODEL 9
REMARK minimizedAffinity -7.16342783
REMARK CNNscore 0.296517789
REMARK CNNaffinity 6.3167758
REMARK  13 active torsions:
REMARK  status: ('A' for Active; 'I' for Inactive)
REMARK    1  A    between atoms: N1_2  and  C2_3 
REMARK    2  A    between atoms: C2_3  and  C3_4 
REMARK    3  A    between atoms: C3_4  and  C4_5 
REMARK    4  A    between atoms: C19_22  and  C23_27 
REMARK    5  A    between atoms: C20_23  and  O3_24 
REMARK    6  A    between atoms: C25_29  and  O4_30 
REMARK    7  A    between atoms: C27_32  and  C28_33 
REMARK    8  A    between atoms: C28_33  and  C30_35 
REMARK    9  A    between atoms: C30_35  and  C31_36 
REMARK   10  A    between atoms: C31_36  and  O5_37 
REMARK   11  A    between atoms: C31_36  and  C32_38 
REMARK   12  A    between atoms: C33_39  and  C35_41 
REMARK   13  A    between atoms: C35_41  and  O7_43 
ROOT
HETATM    1  C4  UNL     1      -3.073  14.397  18.684  1.00  0.00     0.023 C 
HETATM    2  C5  UNL     1      -2.072  15.465  19.195  1.00  0.00     0.024 C 
HETATM    3  C6  UNL     1      -3.745  14.936  17.408  1.00  0.00     0.135 C 
HETATM    4  O1  UNL     1      -4.882  15.417  17.415  1.00  0.00    -0.297 OA
HETATM    5  C7  UNL     1      -2.982  14.861  16.104  1.00  0.00     0.080 C 
HETATM    6  C8  UNL     1      -1.548  14.402  16.296  1.00  0.00     0.022 C 
HETATM    7  C9  UNL     1      -1.462  13.016  16.979  1.00  0.00    -0.004 C 
HETATM    8  C10 UNL     1       0.027  12.807  17.467  1.00  0.00     0.015 C 
HETATM    9  C11 UNL     1       1.141  12.864  16.404  1.00  0.00     0.001 C 
HETATM   10  C12 UNL     1       2.089  11.653  16.398  1.00  0.00     0.000 C 
HETATM   11  C13 UNL     1       1.714  10.548  15.396  1.00  0.00     0.001 C 
HETATM   12  C14 UNL     1       0.528   9.673  15.832  1.00  0.00     0.011 C 
HETATM   13  C15 UNL     1      -0.712   9.459  14.845  1.00  0.00    -0.016 C 
HETATM   14  C16 UNL     1      -0.919  10.611  13.865  1.00  0.00     0.094 C 
HETATM   15  C17 UNL     1      -1.418  11.861  14.568  1.00  0.00     0.157 C 
HETATM   16  O2  UNL     1      -1.594  12.885  13.912  1.00  0.00    -0.293 OA
HETATM   17  C18 UNL     1      -1.756  11.808  16.045  1.00  0.00     0.003 C 
HETATM   18  C19 UNL     1      -2.217  10.616  16.507  1.00  0.00    -0.029 C 
HETATM   19  C20 UNL     1      -2.782  10.525  17.892  1.00  0.00     0.149 C 
HETATM   20  C21 UNL     1      -3.388  11.860  18.307  1.00  0.00     0.043 C 
HETATM   21  C22 UNL     1      -2.371  13.019  18.313  1.00  0.00     0.017 C 
HETATM   22  C23 UNL     1      -2.077   9.334  15.669  1.00  0.00     0.017 C 
HETATM   23  C24 UNL     1      -3.377   9.219  14.817  1.00  0.00     0.023 C 
HETATM   24  C25 UNL     1      -1.811   7.980  16.392  1.00  0.00     0.132 C 
HETATM   25  C26 UNL     1      -1.095   7.103  15.344  1.00  0.00     0.038 C 
HETATM   26  C27 UNL     1      -0.644   8.041  14.189  1.00  0.00     0.002 C 
ENDROOT
BRANCH  26  27
HETATM   27  C28 UNL     1       0.665   7.570  13.498  1.00  0.00    -0.011 C 
HETATM   28  C29 UNL     1       1.741   7.125  14.495  1.00  0.00     0.010 C 
BRANCH  27  29
HETATM   29  C30 UNL     1       1.242   8.615  12.504  1.00  0.00     0.040 C 
BRANCH  29  30
HETATM   30  C31 UNL     1       1.082   8.362  10.994  1.00  0.00     0.142 C 
BRANCH  30  31
HETATM   31  O5  UNL     1      -0.310   8.304  10.700  1.00  0.00    -0.392 OA
HETATM   32  H48 UNL     1      -0.390   8.140   9.744  1.00  0.00     0.210 HD
ENDBRANCH  30  31
BRANCH  30  33
HETATM   33  C32 UNL     1       1.757   7.131  10.463  1.00  0.00     0.018 C 
HETATM   34  C33 UNL     1       2.469   6.974   9.330  1.00  0.00     0.010 C 
HETATM   35  C34 UNL     1       2.690   8.008   8.269  1.00  0.00     0.055 C 
BRANCH  34  36
HETATM   36  C35 UNL     1       3.036   5.621   9.097  1.00  0.00     0.171 C 
HETATM   37  O6  UNL     1       3.059   5.015   8.038  1.00  0.00    -0.646 OA
BRANCH  36  38
HETATM   38  O7  UNL     1       3.535   5.080  10.221  1.00  0.00    -0.773 OA
HETATM   39  H53 UNL     1       3.868   4.205   9.929  1.00  0.00     0.167 HD
ENDBRANCH  36  38
ENDBRANCH  34  36
ENDBRANCH  30  33
ENDBRANCH  29  30
ENDBRANCH  27  29
ENDBRANCH  26  27
BRANCH  24  40
HETATM   40  O4  UNL     1      -2.980   7.313  16.841  1.00  0.00    -0.394 OA
HETATM   41  H37 UNL     1      -3.460   7.962  17.404  1.00  0.00     0.210 HD
ENDBRANCH  24  40
BRANCH  19  42
HETATM   42  O3  UNL     1      -3.812   9.541  17.936  1.00  0.00    -0.391 OA
HETATM   43  H29 UNL     1      -4.646   9.970  17.670  1.00  0.00     0.210 HD
ENDBRANCH  19  42
BRANCH   1  44
HETATM   44  C3  UNL     1      -4.175  14.252  19.792  1.00  0.00     0.047 C 
BRANCH  44  45
HETATM   45  C2  UNL     1      -5.165  15.426  19.887  1.00  0.00     0.270 C 
BRANCH  45  46
HETATM   46  N1  UNL     1      -6.206  15.216  20.899  1.00  0.00     0.079 N 
HETATM   47  C1  UNL     1      -6.145  13.893  21.512  1.00  0.00     0.306 C 
HETATM   48  H4  UNL     1      -7.120  15.326  20.456  1.00  0.00     0.315 HD
ENDBRANCH  45  46
ENDBRANCH  44  45
ENDBRANCH   1  44
TORSDOF 13
ENDMDL
