MODEL 1
REMARK minimizedAffinity -8.32674217
REMARK CNNscore 0.544414759
REMARK CNNaffinity 7.15944433
REMARK  11 active torsions:
REMARK  status: ('A' for Active; 'I' for Inactive)
REMARK    1  A    between atoms: C3_3  and  O1_4 
REMARK    2  A    between atoms: N1_14  and  O2_16 
REMARK    3  A    between atoms: O2_16  and  C13_17 
REMARK    4  A    between atoms: C13_17  and  C14_18 
REMARK       I    between atoms: C14_18  and  N2_20 
REMARK    5  A    between atoms: N2_20  and  C15_21 
REMARK    6  A    between atoms: C15_21  and  C16_22 
REMARK    7  A    between atoms: C15_21  and  C17_25 
REMARK    8  A    between atoms: C16_22  and  O5_24 
REMARK    9  A    between atoms: C17_25  and  O6_26 
REMARK   10  A    between atoms: C17_25  and  C18_27 
REMARK   11  A    between atoms: C22_31  and  N3_32 
ROOT
HETATM    1  C1  UNL     1      -4.258   5.459  13.564  1.00  0.00     0.015 C 
HETATM    2  C2  UNL     1      -5.452   5.325  13.567  1.00  0.00    -0.078 C 
HETATM    3  C3  UNL     1      -6.914   5.155  13.558  1.00  0.00     0.128 C 
HETATM    4  C4  UNL     1      -7.534   5.562  12.216  1.00  0.00     0.052 C 
HETATM    5  C5  UNL     1      -8.968   6.001  12.533  1.00  0.00     0.010 C 
HETATM    6  C6  UNL     1      -9.126   5.935  14.066  1.00  0.00     0.002 C 
HETATM    7  C7  UNL     1     -10.106   6.962  14.678  1.00  0.00    -0.004 C 
HETATM    8  C8  UNL     1     -11.491   6.872  14.014  1.00  0.00     0.010 C 
HETATM    9  C9  UNL     1     -12.483   7.843  14.642  1.00  0.00     0.035 C 
HETATM   10  C10 UNL     1     -11.955   9.257  14.602  1.00  0.00    -0.069 C 
HETATM   11  C11 UNL     1     -12.691  10.229  14.030  1.00  0.00     0.030 C 
HETATM   12  C12 UNL     1     -12.226  11.643  14.029  1.00  0.00     0.032 C 
HETATM   13  N1  UNL     1     -12.706  12.611  13.310  1.00  0.00    -0.271 N 
ATOM     14  H1  UNL     1     -12.361  13.571  13.342  1.00  0.00     0.194 HD
HETATM   15  C24 UNL     1     -11.098  11.979  14.976  1.00  0.00     0.060 C 
HETATM   16  C25 UNL     1     -10.033  10.898  14.883  1.00  0.00     0.020 C 
HETATM   17  C26 UNL     1     -10.570   9.476  15.227  1.00  0.00    -0.016 C 
HETATM   18  C27 UNL     1     -10.706   9.363  16.763  1.00  0.00     0.020 C 
HETATM   19  C28 UNL     1      -9.562   8.414  14.638  1.00  0.00     0.002 C 
HETATM   20  C29 UNL     1      -8.167   8.464  15.289  1.00  0.00     0.007 C 
HETATM   21  C30 UNL     1      -7.189   7.500  14.616  1.00  0.00     0.014 C 
HETATM   22  C31 UNL     1      -7.672   6.027  14.605  1.00  0.00     0.003 C 
HETATM   23  C32 UNL     1      -7.575   5.435  16.026  1.00  0.00     0.020 C 
ENDROOT
BRANCH   3  24
HETATM   24  O1  UNL     1      -7.208   3.772  13.767  1.00  0.00    -0.377 OA
HETATM   25  H2  UNL     1      -6.682   3.269  13.123  1.00  0.00     0.211 HD
ENDBRANCH   3  24
BRANCH  13  26
HETATM   26  O2  UNL     1     -13.755  12.180  12.481  1.00  0.00    -0.271 OA
BRANCH  26  27
HETATM   27  C13 UNL     1     -14.994  12.525  13.080  1.00  0.00     0.303 C 
BRANCH  27  28
HETATM   28  C14 UNL     1     -15.894  11.316  13.325  1.00  0.00     0.244 C 
HETATM   29  O3  UNL     1     -16.639  11.181  14.291  1.00  0.00    -0.271 OA
HETATM   30  N2  UNL     1     -15.791  10.350  12.346  1.00  0.00    -0.342 N 
HETATM   31  H16 UNL     1     -15.221  10.503  11.519  1.00  0.00     0.163 HD
BRANCH  30  32
HETATM   32  C15 UNL     1     -16.623   9.135  12.353  1.00  0.00     0.216 C 
BRANCH  32  33
HETATM   33  C16 UNL     1     -17.496   9.133  11.093  1.00  0.00     0.166 C 
HETATM   34  O4  UNL     1     -17.418   9.899  10.145  1.00  0.00    -0.648 OA
BRANCH  33  35
HETATM   35  O5  UNL     1     -18.420   8.140  11.070  1.00  0.00    -0.775 OA
HETATM   36  H18 UNL     1     -18.869   8.262  10.206  1.00  0.00     0.167 HD
ENDBRANCH  33  35
ENDBRANCH  32  33
BRANCH  32  37
HETATM   37  C17 UNL     1     -15.766   7.844  12.431  1.00  0.00     0.184 C 
BRANCH  37  38
HETATM   38  O6  UNL     1     -15.728   7.222  11.133  1.00  0.00    -0.388 OA
HETATM   39  H20 UNL     1     -16.219   6.384  11.191  1.00  0.00     0.210 HD
ENDBRANCH  37  38
BRANCH  37  40
HETATM   40  C18 UNL     1     -16.105   6.796  13.486  1.00  0.00    -0.025 A 
HETATM   41  C19 UNL     1     -16.066   7.185  14.841  1.00  0.00     0.010 A 
HETATM   42  C20 UNL     1     -16.360   6.285  15.871  1.00  0.00     0.003 A 
HETATM   43  C21 UNL     1     -16.707   4.972  15.569  1.00  0.00     0.036 A 
HETATM   44  C22 UNL     1     -16.766   4.571  14.230  1.00  0.00     0.103 A 
HETATM   45  C23 UNL     1     -16.476   5.475  13.193  1.00  0.00     0.045 A 
BRANCH  44  46
HETATM   46  N3  UNL     1     -17.138   3.188  13.905  1.00  0.00    -0.116 N 
HETATM   47  O7  UNL     1     -16.370   2.283  14.263  1.00  0.00    -0.532 OA
HETATM   48  O8  UNL     1     -18.199   3.005  13.290  1.00  0.00    -0.532 OA
ENDBRANCH  44  46
ENDBRANCH  37  40
ENDBRANCH  32  37
ENDBRANCH  30  32
ENDBRANCH  27  28
ENDBRANCH  26  27
ENDBRANCH  13  26
TORSDOF 11
ENDMDL
MODEL 2
REMARK minimizedAffinity -7.99513006
REMARK CNNscore 0.375159055
REMARK CNNaffinity 7.02885008
REMARK  11 active torsions:
REMARK  status: ('A' for Active; 'I' for Inactive)
REMARK    1  A    between atoms: C3_3  and  O1_4 
REMARK    2  A    between atoms: N1_14  and  O2_16 
REMARK    3  A    between atoms: O2_16  and  C13_17 
REMARK    4  A    between atoms: C13_17  and  C14_18 
REMARK       I    between atoms: C14_18  and  N2_20 
REMARK    5  A    between atoms: N2_20  and  C15_21 
REMARK    6  A    between atoms: C15_21  and  C16_22 
REMARK    7  A    between atoms: C15_21  and  C17_25 
REMARK    8  A    between atoms: C16_22  and  O5_24 
REMARK    9  A    between atoms: C17_25  and  O6_26 
REMARK   10  A    between atoms: C17_25  and  C18_27 
REMARK   11  A    between atoms: C22_31  and  N3_32 
ROOT
HETATM    1  C1  UNL     1       0.122   8.637  15.572  1.00  0.00     0.015 C 
HETATM    2  C2  UNL     1      -0.634   8.071  14.829  1.00  0.00    -0.078 C 
HETATM    3  C3  UNL     1      -1.555   7.385  13.908  1.00  0.00     0.128 C 
HETATM    4  C4  UNL     1      -2.229   8.359  12.934  1.00  0.00     0.052 C 
HETATM    5  C5  UNL     1      -3.570   7.716  12.561  1.00  0.00     0.010 C 
HETATM    6  C6  UNL     1      -3.697   6.428  13.400  1.00  0.00     0.002 C 
HETATM    7  C7  UNL     1      -5.138   6.024  13.783  1.00  0.00    -0.004 C 
HETATM    8  C8  UNL     1      -6.035   5.916  12.537  1.00  0.00     0.010 C 
HETATM    9  C9  UNL     1      -7.447   5.468  12.893  1.00  0.00     0.035 C 
HETATM   10  C10 UNL     1      -8.061   6.384  13.923  1.00  0.00    -0.069 C 
HETATM   11  C11 UNL     1      -9.244   6.976  13.671  1.00  0.00     0.030 C 
HETATM   12  C12 UNL     1      -9.905   7.836  14.690  1.00  0.00     0.032 C 
HETATM   13  N1  UNL     1     -10.897   8.648  14.487  1.00  0.00    -0.271 N 
ATOM     14  H1  UNL     1     -11.326   9.218  15.217  1.00  0.00     0.194 HD
HETATM   15  C24 UNL     1      -9.375   7.731  16.102  1.00  0.00     0.060 C 
HETATM   16  C25 UNL     1      -7.856   7.743  16.063  1.00  0.00     0.020 C 
HETATM   17  C26 UNL     1      -7.253   6.583  15.214  1.00  0.00    -0.016 C 
HETATM   18  C27 UNL     1      -7.332   5.280  16.042  1.00  0.00     0.020 C 
HETATM   19  C28 UNL     1      -5.768   6.965  14.842  1.00  0.00     0.002 C 
HETATM   20  C29 UNL     1      -4.836   7.069  16.065  1.00  0.00     0.007 C 
HETATM   21  C30 UNL     1      -3.437   7.549  15.676  1.00  0.00     0.014 C 
HETATM   22  C31 UNL     1      -2.747   6.663  14.606  1.00  0.00     0.003 C 
HETATM   23  C32 UNL     1      -2.320   5.322  15.237  1.00  0.00     0.020 C 
ENDROOT
BRANCH   3  24
HETATM   24  O1  UNL     1      -0.803   6.450  13.132  1.00  0.00    -0.377 OA
HETATM   25  H2  UNL     1      -0.050   6.935  12.755  1.00  0.00     0.211 HD
ENDBRANCH   3  24
BRANCH  13  26
HETATM   26  O2  UNL     1     -11.308   8.649  13.144  1.00  0.00    -0.271 OA
BRANCH  26  27
HETATM   27  C13 UNL     1     -12.640   9.131  13.064  1.00  0.00     0.303 C 
BRANCH  27  28
HETATM   28  C14 UNL     1     -13.681   8.016  13.130  1.00  0.00     0.244 C 
HETATM   29  O3  UNL     1     -13.480   6.848  12.812  1.00  0.00    -0.271 OA
HETATM   30  N2  UNL     1     -14.912   8.443  13.582  1.00  0.00    -0.342 N 
HETATM   31  H16 UNL     1     -15.048   9.397  13.904  1.00  0.00     0.163 HD
BRANCH  30  32
HETATM   32  C15 UNL     1     -16.037   7.516  13.787  1.00  0.00     0.216 C 
BRANCH  32  33
HETATM   33  C16 UNL     1     -16.233   6.692  12.510  1.00  0.00     0.166 C 
HETATM   34  O4  UNL     1     -16.785   5.607  12.415  1.00  0.00    -0.648 OA
BRANCH  33  35
HETATM   35  O5  UNL     1     -15.743   7.288  11.394  1.00  0.00    -0.775 OA
HETATM   36  H18 UNL     1     -15.966   6.655  10.677  1.00  0.00     0.167 HD
ENDBRANCH  33  35
ENDBRANCH  32  33
BRANCH  32  37
HETATM   37  C17 UNL     1     -15.812   6.591  15.011  1.00  0.00     0.184 C 
BRANCH  37  38
HETATM   38  O6  UNL     1     -14.410   6.570  15.338  1.00  0.00    -0.388 OA
HETATM   39  H20 UNL     1     -14.073   5.678  15.144  1.00  0.00     0.210 HD
ENDBRANCH  37  38
BRANCH  37  40
HETATM   40  C18 UNL     1     -16.342   5.161  14.963  1.00  0.00    -0.025 A 
HETATM   41  C19 UNL     1     -17.735   4.968  15.067  1.00  0.00     0.010 A 
HETATM   42  C20 UNL     1     -18.303   3.690  15.035  1.00  0.00     0.003 A 
HETATM   43  C21 UNL     1     -17.488   2.570  14.892  1.00  0.00     0.036 A 
HETATM   44  C22 UNL     1     -16.105   2.743  14.772  1.00  0.00     0.103 A 
HETATM   45  C23 UNL     1     -15.533   4.026  14.799  1.00  0.00     0.045 A 
BRANCH  44  46
HETATM   46  N3  UNL     1     -15.242   1.565  14.615  1.00  0.00    -0.116 N 
HETATM   47  O7  UNL     1     -14.399   1.343  15.496  1.00  0.00    -0.532 OA
HETATM   48  O8  UNL     1     -15.405   0.861  13.608  1.00  0.00    -0.532 OA
ENDBRANCH  44  46
ENDBRANCH  37  40
ENDBRANCH  32  37
ENDBRANCH  30  32
ENDBRANCH  27  28
ENDBRANCH  26  27
ENDBRANCH  13  26
TORSDOF 11
ENDMDL
MODEL 3
REMARK minimizedAffinity -9.50139523
REMARK CNNscore 0.257522613
REMARK CNNaffinity 7.1160531
REMARK  11 active torsions:
REMARK  status: ('A' for Active; 'I' for Inactive)
REMARK    1  A    between atoms: C3_3  and  O1_4 
REMARK    2  A    between atoms: N1_14  and  O2_16 
REMARK    3  A    between atoms: O2_16  and  C13_17 
REMARK    4  A    between atoms: C13_17  and  C14_18 
REMARK       I    between atoms: C14_18  and  N2_20 
REMARK    5  A    between atoms: N2_20  and  C15_21 
REMARK    6  A    between atoms: C15_21  and  C16_22 
REMARK    7  A    between atoms: C15_21  and  C17_25 
REMARK    8  A    between atoms: C16_22  and  O5_24 
REMARK    9  A    between atoms: C17_25  and  O6_26 
REMARK   10  A    between atoms: C17_25  and  C18_27 
REMARK   11  A    between atoms: C22_31  and  N3_32 
ROOT
HETATM    1  C1  UNL     1     -13.400   9.585  12.116  1.00  0.00     0.015 C 
HETATM    2  C2  UNL     1     -12.728   9.376  13.091  1.00  0.00    -0.078 C 
HETATM    3  C3  UNL     1     -11.906   9.134  14.288  1.00  0.00     0.128 C 
HETATM    4  C4  UNL     1     -10.754  10.138  14.409  1.00  0.00     0.052 C 
HETATM    5  C5  UNL     1      -9.651   9.417  15.193  1.00  0.00     0.010 C 
HETATM    6  C6  UNL     1     -10.142   7.974  15.428  1.00  0.00     0.002 C 
HETATM    7  C7  UNL     1      -9.034   6.898  15.496  1.00  0.00    -0.004 C 
HETATM    8  C8  UNL     1      -7.973   7.259  16.550  1.00  0.00     0.010 C 
HETATM    9  C9  UNL     1      -6.901   6.183  16.666  1.00  0.00     0.035 C 
HETATM   10  C10 UNL     1      -6.261   5.912  15.325  1.00  0.00    -0.069 C 
HETATM   11  C11 UNL     1      -4.924   6.007  15.192  1.00  0.00     0.030 C 
HETATM   12  C12 UNL     1      -4.257   5.686  13.900  1.00  0.00     0.032 C 
HETATM   13  N1  UNL     1      -3.035   5.973  13.572  1.00  0.00    -0.271 N 
ATOM     14  H1  UNL     1      -2.614   5.730  12.675  1.00  0.00     0.194 HD
HETATM   15  C24 UNL     1      -5.088   4.935  12.884  1.00  0.00     0.060 C 
HETATM   16  C25 UNL     1      -6.472   5.560  12.816  1.00  0.00     0.020 C 
HETATM   17  C26 UNL     1      -7.221   5.549  14.183  1.00  0.00    -0.016 C 
HETATM   18  C27 UNL     1      -7.757   4.121  14.434  1.00  0.00     0.020 C 
HETATM   19  C28 UNL     1      -8.378   6.619  14.119  1.00  0.00     0.002 C 
HETATM   20  C29 UNL     1      -9.468   6.285  13.083  1.00  0.00     0.007 C 
HETATM   21  C30 UNL     1     -10.510   7.398  12.971  1.00  0.00     0.014 C 
HETATM   22  C31 UNL     1     -11.201   7.744  14.316  1.00  0.00     0.003 C 
HETATM   23  C32 UNL     1     -12.172   6.612  14.710  1.00  0.00     0.020 C 
ENDROOT
BRANCH   3  24
HETATM   24  O1  UNL     1     -12.735   9.286  15.442  1.00  0.00    -0.377 OA
HETATM   25  H2  UNL     1     -13.184  10.144  15.358  1.00  0.00     0.211 HD
ENDBRANCH   3  24
BRANCH  13  26
HETATM   26  O2  UNL     1      -2.363   6.657  14.598  1.00  0.00    -0.271 OA
BRANCH  26  27
HETATM   27  C13 UNL     1      -0.995   6.280  14.592  1.00  0.00     0.303 C 
BRANCH  27  28
HETATM   28  C14 UNL     1      -0.049   7.474  14.699  1.00  0.00     0.244 C 
HETATM   29  O3  UNL     1      -0.347   8.566  15.173  1.00  0.00    -0.271 OA
HETATM   30  N2  UNL     1       1.209   7.222  14.193  1.00  0.00    -0.342 N 
HETATM   31  H16 UNL     1       1.463   6.295  13.864  1.00  0.00     0.163 HD
BRANCH  30  32
HETATM   32  C15 UNL     1       2.295   8.213  14.261  1.00  0.00     0.216 C 
BRANCH  32  33
HETATM   33  C16 UNL     1       3.139   7.931  15.509  1.00  0.00     0.166 C 
HETATM   34  O4  UNL     1       3.824   8.732  16.127  1.00  0.00    -0.648 OA
BRANCH  33  35
HETATM   35  O5  UNL     1       3.060   6.649  15.944  1.00  0.00    -0.775 OA
HETATM   36  H18 UNL     1       3.626   6.642  16.747  1.00  0.00     0.167 HD
ENDBRANCH  33  35
ENDBRANCH  32  33
BRANCH  32  37
HETATM   37  C17 UNL     1       3.177   8.197  12.984  1.00  0.00     0.184 C 
BRANCH  37  38
HETATM   38  O6  UNL     1       3.522   9.550  12.631  1.00  0.00    -0.388 OA
HETATM   39  H20 UNL     1       3.070   9.763  11.795  1.00  0.00     0.210 HD
ENDBRANCH  37  38
BRANCH  37  40
HETATM   40  C18 UNL     1       2.672   7.463  11.747  1.00  0.00    -0.025 A 
HETATM   41  C19 UNL     1       2.218   6.137  11.903  1.00  0.00     0.010 A 
HETATM   42  C20 UNL     1       1.741   5.392  10.820  1.00  0.00     0.003 A 
HETATM   43  C21 UNL     1       1.701   5.959   9.550  1.00  0.00     0.036 A 
HETATM   44  C22 UNL     1       2.132   7.279   9.377  1.00  0.00     0.103 A 
HETATM   45  C23 UNL     1       2.607   8.031  10.465  1.00  0.00     0.045 A 
BRANCH  44  46
HETATM   46  N3  UNL     1       2.085   7.884   8.040  1.00  0.00    -0.116 N 
HETATM   47  O7  UNL     1       1.893   9.106   7.964  1.00  0.00    -0.532 OA
HETATM   48  O8  UNL     1       2.240   7.137   7.063  1.00  0.00    -0.532 OA
ENDBRANCH  44  46
ENDBRANCH  37  40
ENDBRANCH  32  37
ENDBRANCH  30  32
ENDBRANCH  27  28
ENDBRANCH  26  27
ENDBRANCH  13  26
TORSDOF 11
ENDMDL
MODEL 4
REMARK minimizedAffinity -8.11929226
REMARK CNNscore 0.21253486
REMARK CNNaffinity 5.94245148
REMARK  11 active torsions:
REMARK  status: ('A' for Active; 'I' for Inactive)
REMARK    1  A    between atoms: C3_3  and  O1_4 
REMARK    2  A    between atoms: N1_14  and  O2_16 
REMARK    3  A    between atoms: O2_16  and  C13_17 
REMARK    4  A    between atoms: C13_17  and  C14_18 
REMARK       I    between atoms: C14_18  and  N2_20 
REMARK    5  A    between atoms: N2_20  and  C15_21 
REMARK    6  A    between atoms: C15_21  and  C16_22 
REMARK    7  A    between atoms: C15_21  and  C17_25 
REMARK    8  A    between atoms: C16_22  and  O5_24 
REMARK    9  A    between atoms: C17_25  and  O6_26 
REMARK   10  A    between atoms: C17_25  and  C18_27 
REMARK   11  A    between atoms: C22_31  and  N3_32 
ROOT
HETATM    1  C1  UNL     1      -5.572  16.199  25.600  1.00  0.00     0.015 C 
HETATM    2  C2  UNL     1      -6.118  15.972  24.553  1.00  0.00    -0.078 C 
HETATM    3  C3  UNL     1      -6.796  15.687  23.278  1.00  0.00     0.128 C 
HETATM    4  C4  UNL     1      -7.211  14.216  23.161  1.00  0.00     0.052 C 
HETATM    5  C5  UNL     1      -7.237  13.906  21.660  1.00  0.00     0.010 C 
HETATM    6  C6  UNL     1      -6.740  15.174  20.935  1.00  0.00     0.002 C 
HETATM    7  C7  UNL     1      -5.988  14.928  19.607  1.00  0.00    -0.004 C 
HETATM    8  C8  UNL     1      -6.831  14.078  18.640  1.00  0.00     0.010 C 
HETATM    9  C9  UNL     1      -6.125  13.870  17.306  1.00  0.00     0.035 C 
HETATM   10  C10 UNL     1      -4.757  13.263  17.508  1.00  0.00    -0.069 C 
HETATM   11  C11 UNL     1      -4.433  12.121  16.872  1.00  0.00     0.030 C 
HETATM   12  C12 UNL     1      -3.073  11.530  17.002  1.00  0.00     0.032 C 
HETATM   13  N1  UNL     1      -2.717  10.331  16.655  1.00  0.00    -0.271 N 
ATOM     14  H1  UNL     1      -1.770   9.965  16.756  1.00  0.00     0.194 HD
HETATM   15  C24 UNL     1      -2.003  12.429  17.578  1.00  0.00     0.060 C 
HETATM   16  C25 UNL     1      -2.564  13.154  18.790  1.00  0.00     0.020 C 
HETATM   17  C26 UNL     1      -3.821  14.016  18.465  1.00  0.00    -0.016 C 
HETATM   18  C27 UNL     1      -3.355  15.314  17.766  1.00  0.00     0.020 C 
HETATM   19  C28 UNL     1      -4.584  14.305  19.815  1.00  0.00     0.002 C 
HETATM   20  C29 UNL     1      -3.775  15.166  20.805  1.00  0.00     0.007 C 
HETATM   21  C30 UNL     1      -4.499  15.329  22.142  1.00  0.00     0.014 C 
HETATM   22  C31 UNL     1      -5.921  15.935  22.012  1.00  0.00     0.003 C 
HETATM   23  C32 UNL     1      -5.819  17.435  21.665  1.00  0.00     0.020 C 
ENDROOT
BRANCH   3  24
HETATM   24  O1  UNL     1      -7.985  16.478  23.214  1.00  0.00    -0.377 OA
HETATM   25  H2  UNL     1      -8.473  16.324  24.041  1.00  0.00     0.211 HD
ENDBRANCH   3  24
BRANCH  13  26
HETATM   26  O2  UNL     1      -3.791   9.598  16.123  1.00  0.00    -0.271 OA
BRANCH  26  27
HETATM   27  C13 UNL     1      -3.970   9.954  14.761  1.00  0.00     0.303 C 
BRANCH  27  28
HETATM   28  C14 UNL     1      -4.033   8.743  13.833  1.00  0.00     0.244 C 
HETATM   29  O3  UNL     1      -4.994   8.449  13.128  1.00  0.00    -0.271 OA
HETATM   30  N2  UNL     1      -2.889   7.974  13.858  1.00  0.00    -0.342 N 
HETATM   31  H16 UNL     1      -2.076   8.265  14.395  1.00  0.00     0.163 HD
BRANCH  30  32
HETATM   32  C15 UNL     1      -2.713   6.801  12.987  1.00  0.00     0.216 C 
BRANCH  32  33
HETATM   33  C16 UNL     1      -1.249   6.740  12.537  1.00  0.00     0.166 C 
HETATM   34  O4  UNL     1      -0.323   7.417  12.958  1.00  0.00    -0.648 OA
BRANCH  33  35
HETATM   35  O5  UNL     1      -1.008   5.804  11.586  1.00  0.00    -0.775 OA
HETATM   36  H18 UNL     1      -0.041   5.876  11.430  1.00  0.00     0.167 HD
ENDBRANCH  33  35
ENDBRANCH  32  33
BRANCH  32  37
HETATM   37  C17 UNL     1      -3.126   5.484  13.695  1.00  0.00     0.184 C 
BRANCH  37  38
HETATM   38  O6  UNL     1      -1.945   4.721  14.004  1.00  0.00    -0.388 OA
HETATM   39  H20 UNL     1      -1.954   3.921  13.449  1.00  0.00     0.210 HD
ENDBRANCH  37  38
BRANCH  37  40
HETATM   40  C18 UNL     1      -4.154   4.577  13.026  1.00  0.00    -0.025 A 
HETATM   41  C19 UNL     1      -3.679   3.506  12.241  1.00  0.00     0.010 A 
HETATM   42  C20 UNL     1      -4.553   2.629  11.590  1.00  0.00     0.003 A 
HETATM   43  C21 UNL     1      -5.928   2.799  11.714  1.00  0.00     0.036 A 
HETATM   44  C22 UNL     1      -6.419   3.846  12.501  1.00  0.00     0.103 A 
HETATM   45  C23 UNL     1      -5.543   4.726  13.160  1.00  0.00     0.045 A 
BRANCH  44  46
HETATM   46  N3  UNL     1      -7.870   4.026  12.640  1.00  0.00    -0.116 N 
HETATM   47  O7  UNL     1      -8.559   3.022  12.867  1.00  0.00    -0.532 OA
HETATM   48  O8  UNL     1      -8.323   5.175  12.522  1.00  0.00    -0.532 OA
ENDBRANCH  44  46
ENDBRANCH  37  40
ENDBRANCH  32  37
ENDBRANCH  30  32
ENDBRANCH  27  28
ENDBRANCH  26  27
ENDBRANCH  13  26
TORSDOF 11
ENDMDL
MODEL 5
REMARK minimizedAffinity -8.24211884
REMARK CNNscore 0.195350125
REMARK CNNaffinity 6.20928955
REMARK  11 active torsions:
REMARK  status: ('A' for Active; 'I' for Inactive)
REMARK    1  A    between atoms: C3_3  and  O1_4 
REMARK    2  A    between atoms: N1_14  and  O2_16 
REMARK    3  A    between atoms: O2_16  and  C13_17 
REMARK    4  A    between atoms: C13_17  and  C14_18 
REMARK       I    between atoms: C14_18  and  N2_20 
REMARK    5  A    between atoms: N2_20  and  C15_21 
REMARK    6  A    between atoms: C15_21  and  C16_22 
REMARK    7  A    between atoms: C15_21  and  C17_25 
REMARK    8  A    between atoms: C16_22  and  O5_24 
REMARK    9  A    between atoms: C17_25  and  O6_26 
REMARK   10  A    between atoms: C17_25  and  C18_27 
REMARK   11  A    between atoms: C22_31  and  N3_32 
ROOT
HETATM    1  C1  UNL     1     -16.415  -2.828  31.593  1.00  0.00     0.015 C 
HETATM    2  C2  UNL     1     -15.540  -3.632  31.412  1.00  0.00    -0.078 C 
HETATM    3  C3  UNL     1     -14.459  -4.605  31.187  1.00  0.00     0.128 C 
HETATM    4  C4  UNL     1     -13.616  -4.257  29.955  1.00  0.00     0.052 C 
HETATM    5  C5  UNL     1     -13.053  -5.588  29.444  1.00  0.00     0.010 C 
HETATM    6  C6  UNL     1     -13.658  -6.698  30.328  1.00  0.00     0.002 C 
HETATM    7  C7  UNL     1     -13.872  -8.061  29.631  1.00  0.00    -0.004 C 
HETATM    8  C8  UNL     1     -12.568  -8.568  28.990  1.00  0.00     0.010 C 
HETATM    9  C9  UNL     1     -12.749  -9.935  28.343  1.00  0.00     0.035 C 
HETATM   10  C10 UNL     1     -13.873  -9.911  27.335  1.00  0.00    -0.069 C 
HETATM   11  C11 UNL     1     -13.643 -10.303  26.068  1.00  0.00     0.030 C 
HETATM   12  C12 UNL     1     -14.743 -10.349  25.066  1.00  0.00     0.032 C 
HETATM   13  N1  UNL     1     -14.610 -10.463  23.781  1.00  0.00    -0.271 N 
ATOM     14  H1  UNL     1     -15.393 -10.496  23.127  1.00  0.00     0.194 HD
HETATM   15  C24 UNL     1     -16.151 -10.275  25.612  1.00  0.00     0.060 C 
HETATM   16  C25 UNL     1     -16.216  -9.183  26.667  1.00  0.00     0.020 C 
HETATM   17  C26 UNL     1     -15.230  -9.412  27.853  1.00  0.00    -0.016 C 
HETATM   18  C27 UNL     1     -15.825 -10.496  28.780  1.00  0.00     0.020 C 
HETATM   19  C28 UNL     1     -15.027  -8.035  28.597  1.00  0.00     0.002 C 
HETATM   20  C29 UNL     1     -16.310  -7.502  29.264  1.00  0.00     0.007 C 
HETATM   21  C30 UNL     1     -16.100  -6.117  29.876  1.00  0.00     0.014 C 
HETATM   22  C31 UNL     1     -14.948  -6.060  30.913  1.00  0.00     0.003 C 
HETATM   23  C32 UNL     1     -15.376  -6.779  32.209  1.00  0.00     0.020 C 
ENDROOT
BRANCH   3  24
HETATM   24  O1  UNL     1     -13.593  -4.586  32.324  1.00  0.00    -0.377 OA
HETATM   25  H2  UNL     1     -13.351  -3.657  32.481  1.00  0.00     0.211 HD
ENDBRANCH   3  24
BRANCH  13  26
HETATM   26  O2  UNL     1     -13.261 -10.536  23.397  1.00  0.00    -0.271 OA
BRANCH  26  27
HETATM   27  C13 UNL     1     -13.185 -10.891  22.025  1.00  0.00     0.303 C 
BRANCH  27  28
HETATM   28  C14 UNL     1     -11.824 -11.460  21.632  1.00  0.00     0.244 C 
HETATM   29  O3  UNL     1     -11.641 -12.576  21.155  1.00  0.00    -0.271 OA
HETATM   30  N2  UNL     1     -10.778 -10.594  21.874  1.00  0.00    -0.342 N 
HETATM   31  H16 UNL     1     -10.949  -9.649  22.208  1.00  0.00     0.163 HD
BRANCH  30  32
HETATM   32  C15 UNL     1      -9.390 -10.917  21.505  1.00  0.00     0.216 C 
BRANCH  32  33
HETATM   33  C16 UNL     1      -8.920  -9.916  20.443  1.00  0.00     0.166 C 
HETATM   34  O4  UNL     1      -7.800  -9.826  19.965  1.00  0.00    -0.648 OA
BRANCH  33  35
HETATM   35  O5  UNL     1      -9.897  -9.082  20.007  1.00  0.00    -0.775 OA
HETATM   36  H18 UNL     1      -9.447  -8.534  19.329  1.00  0.00     0.167 HD
ENDBRANCH  33  35
ENDBRANCH  32  33
BRANCH  32  37
HETATM   37  C17 UNL     1      -8.443 -10.903  22.733  1.00  0.00     0.184 C 
BRANCH  37  38
HETATM   38  O6  UNL     1      -7.085 -10.740  22.282  1.00  0.00    -0.388 OA
HETATM   39  H20 UNL     1      -6.609 -11.569  22.466  1.00  0.00     0.210 HD
ENDBRANCH  37  38
BRANCH  37  40
HETATM   40  C18 UNL     1      -8.510 -12.054  23.731  1.00  0.00    -0.025 A 
HETATM   41  C19 UNL     1      -7.482 -13.020  23.697  1.00  0.00     0.010 A 
HETATM   42  C20 UNL     1      -7.469 -14.109  24.574  1.00  0.00     0.003 A 
HETATM   43  C21 UNL     1      -8.485 -14.257  25.514  1.00  0.00     0.036 A 
HETATM   44  C22 UNL     1      -9.506 -13.301  25.574  1.00  0.00     0.103 A 
HETATM   45  C23 UNL     1      -9.518 -12.203  24.696  1.00  0.00     0.045 A 
BRANCH  44  46
HETATM   46  N3  UNL     1     -10.577 -13.450  26.568  1.00  0.00    -0.116 N 
HETATM   47  O7  UNL     1     -11.181 -14.531  26.610  1.00  0.00    -0.532 OA
HETATM   48  O8  UNL     1     -10.815 -12.483  27.306  1.00  0.00    -0.532 OA
ENDBRANCH  44  46
ENDBRANCH  37  40
ENDBRANCH  32  37
ENDBRANCH  30  32
ENDBRANCH  27  28
ENDBRANCH  26  27
ENDBRANCH  13  26
TORSDOF 11
ENDMDL
MODEL 6
REMARK minimizedAffinity -9.40861893
REMARK CNNscore 0.190004349
REMARK CNNaffinity 6.64316368
REMARK  11 active torsions:
REMARK  status: ('A' for Active; 'I' for Inactive)
REMARK    1  A    between atoms: C3_3  and  O1_4 
REMARK    2  A    between atoms: N1_14  and  O2_16 
REMARK    3  A    between atoms: O2_16  and  C13_17 
REMARK    4  A    between atoms: C13_17  and  C14_18 
REMARK       I    between atoms: C14_18  and  N2_20 
REMARK    5  A    between atoms: N2_20  and  C15_21 
REMARK    6  A    between atoms: C15_21  and  C16_22 
REMARK    7  A    between atoms: C15_21  and  C17_25 
REMARK    8  A    between atoms: C16_22  and  O5_24 
REMARK    9  A    between atoms: C17_25  and  O6_26 
REMARK   10  A    between atoms: C17_25  and  C18_27 
REMARK   11  A    between atoms: C22_31  and  N3_32 
ROOT
HETATM    1  C1  UNL     1     -10.056   7.285  14.596  1.00  0.00     0.015 C 
HETATM    2  C2  UNL     1      -9.012   6.703  14.719  1.00  0.00    -0.078 C 
HETATM    3  C3  UNL     1      -7.738   5.983  14.881  1.00  0.00     0.128 C 
HETATM    4  C4  UNL     1      -7.256   5.983  16.336  1.00  0.00     0.052 C 
HETATM    5  C5  UNL     1      -5.729   5.865  16.272  1.00  0.00     0.010 C 
HETATM    6  C6  UNL     1      -5.342   5.899  14.779  1.00  0.00     0.002 C 
HETATM    7  C7  UNL     1      -3.964   6.526  14.464  1.00  0.00    -0.004 C 
HETATM    8  C8  UNL     1      -2.846   5.843  15.271  1.00  0.00     0.010 C 
HETATM    9  C9  UNL     1      -1.475   6.415  14.933  1.00  0.00     0.035 C 
HETATM   10  C10 UNL     1      -1.449   7.911  15.133  1.00  0.00    -0.069 C 
HETATM   11  C11 UNL     1      -0.521   8.462  15.938  1.00  0.00     0.030 C 
HETATM   12  C12 UNL     1      -0.431   9.938  16.108  1.00  0.00     0.032 C 
HETATM   13  N1  UNL     1       0.235  10.569  17.025  1.00  0.00    -0.271 N 
ATOM     14  H1  UNL     1       0.275  11.585  17.104  1.00  0.00     0.194 HD
HETATM   15  C24 UNL     1      -1.176  10.777  15.094  1.00  0.00     0.060 C 
HETATM   16  C25 UNL     1      -2.560  10.185  14.882  1.00  0.00     0.020 C 
HETATM   17  C26 UNL     1      -2.528   8.708  14.385  1.00  0.00    -0.016 C 
HETATM   18  C27 UNL     1      -2.176   8.707  12.879  1.00  0.00     0.020 C 
HETATM   19  C28 UNL     1      -3.939   8.062  14.668  1.00  0.00     0.002 C 
HETATM   20  C29 UNL     1      -5.084   8.712  13.867  1.00  0.00     0.007 C 
HETATM   21  C30 UNL     1      -6.447   8.136  14.252  1.00  0.00     0.014 C 
HETATM   22  C31 UNL     1      -6.544   6.597  14.087  1.00  0.00     0.003 C 
HETATM   23  C32 UNL     1      -6.601   6.235  12.589  1.00  0.00     0.020 C 
ENDROOT
BRANCH   3  24
HETATM   24  O1  UNL     1      -7.937   4.623  14.491  1.00  0.00    -0.377 OA
HETATM   25  H2  UNL     1      -8.714   4.299  14.978  1.00  0.00     0.211 HD
ENDBRANCH   3  24
BRANCH  13  26
HETATM   26  O2  UNL     1       0.893   9.685  17.897  1.00  0.00    -0.271 OA
BRANCH  26  27
HETATM   27  C13 UNL     1       2.087  10.293  18.363  1.00  0.00     0.303 C 
BRANCH  27  28
HETATM   28  C14 UNL     1       2.023  10.677  19.840  1.00  0.00     0.244 C 
HETATM   29  O3  UNL     1       1.274  11.527  20.312  1.00  0.00    -0.271 OA
HETATM   30  N2  UNL     1       2.912   9.975  20.627  1.00  0.00    -0.342 N 
HETATM   31  H16 UNL     1       3.479   9.229  20.235  1.00  0.00     0.163 HD
BRANCH  30  32
HETATM   32  C15 UNL     1       2.966  10.140  22.088  1.00  0.00     0.216 C 
BRANCH  32  33
HETATM   33  C16 UNL     1       2.356   8.897  22.744  1.00  0.00     0.166 C 
HETATM   34  O4  UNL     1       2.530   8.512  23.891  1.00  0.00    -0.648 OA
BRANCH  33  35
HETATM   35  O5  UNL     1       1.524   8.201  21.930  1.00  0.00    -0.775 OA
HETATM   36  H18 UNL     1       1.206   7.466  22.498  1.00  0.00     0.167 HD
ENDBRANCH  33  35
ENDBRANCH  32  33
BRANCH  32  37
HETATM   37  C17 UNL     1       4.413  10.376  22.594  1.00  0.00     0.184 C 
BRANCH  37  38
HETATM   38  O6  UNL     1       4.611   9.646  23.820  1.00  0.00    -0.388 OA
HETATM   39  H20 UNL     1       4.714  10.295  24.538  1.00  0.00     0.210 HD
ENDBRANCH  37  38
BRANCH  37  40
HETATM   40  C18 UNL     1       4.910  11.807  22.771  1.00  0.00    -0.025 A 
HETATM   41  C19 UNL     1       3.952  12.843  22.779  1.00  0.00     0.010 A 
HETATM   42  C20 UNL     1       4.323  14.183  22.933  1.00  0.00     0.003 A 
HETATM   43  C21 UNL     1       5.664  14.521  23.089  1.00  0.00     0.036 A 
HETATM   44  C22 UNL     1       6.627  13.506  23.099  1.00  0.00     0.103 A 
HETATM   45  C23 UNL     1       6.257  12.158  22.949  1.00  0.00     0.045 A 
BRANCH  44  46
HETATM   46  N3  UNL     1       8.043  13.856  23.269  1.00  0.00    -0.116 N 
HETATM   47  O7  UNL     1       8.840  12.940  23.519  1.00  0.00    -0.532 OA
HETATM   48  O8  UNL     1       8.360  15.049  23.155  1.00  0.00    -0.532 OA
ENDBRANCH  44  46
ENDBRANCH  37  40
ENDBRANCH  32  37
ENDBRANCH  30  32
ENDBRANCH  27  28
ENDBRANCH  26  27
ENDBRANCH  13  26
TORSDOF 11
ENDMDL
MODEL 7
REMARK minimizedAffinity -8.24837303
REMARK CNNscore 0.188946739
REMARK CNNaffinity 5.83909607
REMARK  11 active torsions:
REMARK  status: ('A' for Active; 'I' for Inactive)
REMARK    1  A    between atoms: C3_3  and  O1_4 
REMARK    2  A    between atoms: N1_14  and  O2_16 
REMARK    3  A    between atoms: O2_16  and  C13_17 
REMARK    4  A    between atoms: C13_17  and  C14_18 
REMARK       I    between atoms: C14_18  and  N2_20 
REMARK    5  A    between atoms: N2_20  and  C15_21 
REMARK    6  A    between atoms: C15_21  and  C16_22 
REMARK    7  A    between atoms: C15_21  and  C17_25 
REMARK    8  A    between atoms: C16_22  and  O5_24 
REMARK    9  A    between atoms: C17_25  and  O6_26 
REMARK   10  A    between atoms: C17_25  and  C18_27 
REMARK   11  A    between atoms: C22_31  and  N3_32 
ROOT
HETATM    1  C1  UNL     1       9.727  14.848  19.100  1.00  0.00     0.015 C 
HETATM    2  C2  UNL     1       9.106  13.916  19.537  1.00  0.00    -0.078 C 
HETATM    3  C3  UNL     1       8.352  12.767  20.064  1.00  0.00     0.128 C 
HETATM    4  C4  UNL     1       7.876  11.829  18.949  1.00  0.00     0.052 C 
HETATM    5  C5  UNL     1       6.613  11.147  19.487  1.00  0.00     0.010 C 
HETATM    6  C6  UNL     1       6.319  11.774  20.866  1.00  0.00     0.002 C 
HETATM    7  C7  UNL     1       4.827  11.844  21.260  1.00  0.00    -0.004 C 
HETATM    8  C8  UNL     1       4.163  10.458  21.173  1.00  0.00     0.010 C 
HETATM    9  C9  UNL     1       2.704  10.502  21.609  1.00  0.00     0.035 C 
HETATM   10  C10 UNL     1       1.931  11.522  20.809  1.00  0.00    -0.069 C 
HETATM   11  C11 UNL     1       0.821  11.149  20.144  1.00  0.00     0.030 C 
HETATM   12  C12 UNL     1       0.003  12.143  19.397  1.00  0.00     0.032 C 
HETATM   13  N1  UNL     1      -0.925  11.881  18.529  1.00  0.00    -0.271 N 
ATOM     14  H1  UNL     1      -1.467  12.593  18.040  1.00  0.00     0.194 HD
HETATM   15  C24 UNL     1       0.273  13.599  19.701  1.00  0.00     0.060 C 
HETATM   16  C25 UNL     1       1.775  13.826  19.743  1.00  0.00     0.020 C 
HETATM   17  C26 UNL     1       2.501  12.948  20.808  1.00  0.00    -0.016 C 
HETATM   18  C27 UNL     1       2.257  13.570  22.202  1.00  0.00     0.020 C 
HETATM   19  C28 UNL     1       4.034  12.893  20.439  1.00  0.00     0.002 C 
HETATM   20  C29 UNL     1       4.737  14.262  20.527  1.00  0.00     0.007 C 
HETATM   21  C30 UNL     1       6.189  14.188  20.055  1.00  0.00     0.014 C 
HETATM   22  C31 UNL     1       7.044  13.147  20.823  1.00  0.00     0.003 C 
HETATM   23  C32 UNL     1       7.332  13.659  22.249  1.00  0.00     0.020 C 
ENDROOT
BRANCH   3  24
HETATM   24  O1  UNL     1       9.215  12.017  20.921  1.00  0.00    -0.377 OA
HETATM   25  H2  UNL     1      10.030  11.843  20.420  1.00  0.00     0.211 HD
ENDBRANCH   3  24
BRANCH  13  26
HETATM   26  O2  UNL     1      -1.092  10.498  18.341  1.00  0.00    -0.271 OA
BRANCH  26  27
HETATM   27  C13 UNL     1      -1.400  10.247  16.979  1.00  0.00     0.303 C 
BRANCH  27  28
HETATM   28  C14 UNL     1      -0.158  10.022  16.120  1.00  0.00     0.244 C 
HETATM   29  O3  UNL     1       0.652  10.894  15.815  1.00  0.00    -0.271 OA
HETATM   30  N2  UNL     1      -0.018   8.720  15.689  1.00  0.00    -0.342 N 
HETATM   31  H16 UNL     1      -0.658   7.995  16.002  1.00  0.00     0.163 HD
BRANCH  30  32
HETATM   32  C15 UNL     1       1.146   8.272  14.907  1.00  0.00     0.216 C 
BRANCH  32  33
HETATM   33  C16 UNL     1       2.255   7.850  15.877  1.00  0.00     0.166 C 
HETATM   34  O4  UNL     1       3.416   8.226  15.872  1.00  0.00    -0.648 OA
BRANCH  33  35
HETATM   35  O5  UNL     1       1.842   6.984  16.837  1.00  0.00    -0.775 OA
HETATM   36  H18 UNL     1       2.648   6.837  17.377  1.00  0.00     0.167 HD
ENDBRANCH  33  35
ENDBRANCH  32  33
BRANCH  32  37
HETATM   37  C17 UNL     1       0.786   7.112  13.942  1.00  0.00     0.184 C 
BRANCH  37  38
HETATM   38  O6  UNL     1       1.535   5.939  14.313  1.00  0.00    -0.388 OA
HETATM   39  H20 UNL     1       2.175   5.758  13.602  1.00  0.00     0.210 HD
ENDBRANCH  37  38
BRANCH  37  40
HETATM   40  C18 UNL     1       0.910   7.337  12.439  1.00  0.00    -0.025 A 
HETATM   41  C19 UNL     1       0.008   8.234  11.828  1.00  0.00     0.010 A 
HETATM   42  C20 UNL     1       0.051   8.495  10.454  1.00  0.00     0.003 A 
HETATM   43  C21 UNL     1       1.004   7.868   9.656  1.00  0.00     0.036 A 
HETATM   44  C22 UNL     1       1.917   6.987  10.246  1.00  0.00     0.103 A 
HETATM   45  C23 UNL     1       1.879   6.727  11.627  1.00  0.00     0.045 A 
BRANCH  44  46
HETATM   46  N3  UNL     1       2.928   6.328   9.410  1.00  0.00    -0.116 N 
HETATM   47  O7  UNL     1       2.532   5.625   8.469  1.00  0.00    -0.532 OA
HETATM   48  O8  UNL     1       4.121   6.511   9.695  1.00  0.00    -0.532 OA
ENDBRANCH  44  46
ENDBRANCH  37  40
ENDBRANCH  32  37
ENDBRANCH  30  32
ENDBRANCH  27  28
ENDBRANCH  26  27
ENDBRANCH  13  26
TORSDOF 11
ENDMDL
MODEL 8
REMARK minimizedAffinity -9.38105297
REMARK CNNscore 0.184021279
REMARK CNNaffinity 6.76858759
REMARK  11 active torsions:
REMARK  status: ('A' for Active; 'I' for Inactive)
REMARK    1  A    between atoms: C3_3  and  O1_4 
REMARK    2  A    between atoms: N1_14  and  O2_16 
REMARK    3  A    between atoms: O2_16  and  C13_17 
REMARK    4  A    between atoms: C13_17  and  C14_18 
REMARK       I    between atoms: C14_18  and  N2_20 
REMARK    5  A    between atoms: N2_20  and  C15_21 
REMARK    6  A    between atoms: C15_21  and  C16_22 
REMARK    7  A    between atoms: C15_21  and  C17_25 
REMARK    8  A    between atoms: C16_22  and  O5_24 
REMARK    9  A    between atoms: C17_25  and  O6_26 
REMARK   10  A    between atoms: C17_25  and  C18_27 
REMARK   11  A    between atoms: C22_31  and  N3_32 
ROOT
HETATM    1  C1  UNL     1      -3.836   0.731  11.854  1.00  0.00     0.015 C 
HETATM    2  C2  UNL     1      -3.016   1.524  11.477  1.00  0.00    -0.078 C 
HETATM    3  C3  UNL     1      -2.002   2.484  11.013  1.00  0.00     0.128 C 
HETATM    4  C4  UNL     1      -0.628   2.223  11.642  1.00  0.00     0.052 C 
HETATM    5  C5  UNL     1       0.088   3.578  11.662  1.00  0.00     0.010 C 
HETATM    6  C6  UNL     1      -0.917   4.622  11.136  1.00  0.00     0.002 C 
HETATM    7  C7  UNL     1      -0.764   6.045  11.718  1.00  0.00    -0.004 C 
HETATM    8  C8  UNL     1       0.670   6.571  11.530  1.00  0.00     0.010 C 
HETATM    9  C9  UNL     1       0.824   7.994  12.054  1.00  0.00     0.035 C 
HETATM   10  C10 UNL     1       0.399   8.087  13.499  1.00  0.00    -0.069 C 
HETATM   11  C11 UNL     1       1.253   8.581  14.416  1.00  0.00     0.030 C 
HETATM   12  C12 UNL     1       0.843   8.743  15.838  1.00  0.00     0.032 C 
HETATM   13  N1  UNL     1       1.630   8.964  16.846  1.00  0.00    -0.271 N 
ATOM     14  H1  UNL     1       1.308   9.074  17.808  1.00  0.00     0.194 HD
HETATM   15  C24 UNL     1      -0.638   8.659  16.123  1.00  0.00     0.060 C 
HETATM   16  C25 UNL     1      -1.224   7.481  15.361  1.00  0.00     0.020 C 
HETATM   17  C26 UNL     1      -1.015   7.581  13.819  1.00  0.00    -0.016 C 
HETATM   18  C27 UNL     1      -2.034   8.595  13.253  1.00  0.00     0.020 C 
HETATM   19  C28 UNL     1      -1.201   6.140  13.203  1.00  0.00     0.002 C 
HETATM   20  C29 UNL     1      -2.630   5.585  13.360  1.00  0.00     0.007 C 
HETATM   21  C30 UNL     1      -2.741   4.147  12.853  1.00  0.00     0.014 C 
HETATM   22  C31 UNL     1      -2.306   3.970  11.375  1.00  0.00     0.003 C 
HETATM   23  C32 UNL     1      -3.369   4.585  10.441  1.00  0.00     0.020 C 
ENDROOT
BRANCH   3  24
HETATM   24  O1  UNL     1      -1.862   2.344   9.598  1.00  0.00    -0.377 OA
HETATM   25  H2  UNL     1      -1.718   1.399   9.419  1.00  0.00     0.211 HD
ENDBRANCH   3  24
BRANCH  13  26
HETATM   26  O2  UNL     1       2.978   9.034  16.455  1.00  0.00    -0.271 OA
BRANCH  26  27
HETATM   27  C13 UNL     1       3.068   8.831  15.054  1.00  0.00     0.303 C 
BRANCH  27  28
HETATM   28  C14 UNL     1       4.408   9.276  14.473  1.00  0.00     0.244 C 
HETATM   29  O3  UNL     1       5.104  10.180  14.926  1.00  0.00    -0.271 OA
HETATM   30  N2  UNL     1       4.784   8.562  13.355  1.00  0.00    -0.342 N 
HETATM   31  H16 UNL     1       4.232   7.773  13.029  1.00  0.00     0.163 HD
BRANCH  30  32
HETATM   32  C15 UNL     1       6.074   8.781  12.680  1.00  0.00     0.216 C 
BRANCH  32  33
HETATM   33  C16 UNL     1       7.027   7.645  13.064  1.00  0.00     0.166 C 
HETATM   34  O4  UNL     1       8.010   7.271  12.443  1.00  0.00    -0.648 OA
BRANCH  33  35
HETATM   35  O5  UNL     1       6.714   7.041  14.237  1.00  0.00    -0.775 OA
HETATM   36  H18 UNL     1       7.421   6.368  14.347  1.00  0.00     0.167 HD
ENDBRANCH  33  35
ENDBRANCH  32  33
BRANCH  32  37
HETATM   37  C17 UNL     1       5.916   8.872  11.139  1.00  0.00     0.184 C 
BRANCH  37  38
HETATM   38  O6  UNL     1       5.646  10.238  10.770  1.00  0.00    -0.388 OA
HETATM   39  H20 UNL     1       4.734  10.280  10.434  1.00  0.00     0.210 HD
ENDBRANCH  37  38
BRANCH  37  40
HETATM   40  C18 UNL     1       4.916   7.953  10.444  1.00  0.00    -0.025 A 
HETATM   41  C19 UNL     1       4.974   6.573  10.733  1.00  0.00     0.010 A 
HETATM   42  C20 UNL     1       4.097   5.662  10.137  1.00  0.00     0.003 A 
HETATM   43  C21 UNL     1       3.132   6.110   9.239  1.00  0.00     0.036 A 
HETATM   44  C22 UNL     1       3.049   7.477   8.952  1.00  0.00     0.103 A 
HETATM   45  C23 UNL     1       3.926   8.395   9.553  1.00  0.00     0.045 A 
BRANCH  44  46
HETATM   46  N3  UNL     1       2.029   7.956   8.010  1.00  0.00    -0.116 N 
HETATM   47  O7  UNL     1       1.222   8.805   8.412  1.00  0.00    -0.532 OA
HETATM   48  O8  UNL     1       2.033   7.480   6.865  1.00  0.00    -0.532 OA
ENDBRANCH  44  46
ENDBRANCH  37  40
ENDBRANCH  32  37
ENDBRANCH  30  32
ENDBRANCH  27  28
ENDBRANCH  26  27
ENDBRANCH  13  26
TORSDOF 11
ENDMDL
MODEL 9
REMARK minimizedAffinity -8.84453583
REMARK CNNscore 0.172558889
REMARK CNNaffinity 5.62573481
REMARK  11 active torsions:
REMARK  status: ('A' for Active; 'I' for Inactive)
REMARK    1  A    between atoms: C3_3  and  O1_4 
REMARK    2  A    between atoms: N1_14  and  O2_16 
REMARK    3  A    between atoms: O2_16  and  C13_17 
REMARK    4  A    between atoms: C13_17  and  C14_18 
REMARK       I    between atoms: C14_18  and  N2_20 
REMARK    5  A    between atoms: N2_20  and  C15_21 
REMARK    6  A    between atoms: C15_21  and  C16_22 
REMARK    7  A    between atoms: C15_21  and  C17_25 
REMARK    8  A    between atoms: C16_22  and  O5_24 
REMARK    9  A    between atoms: C17_25  and  O6_26 
REMARK   10  A    between atoms: C17_25  and  C18_27 
REMARK   11  A    between atoms: C22_31  and  N3_32 
ROOT
HETATM    1  C1  UNL     1      -4.104 -10.243   8.944  1.00  0.00     0.015 C 
HETATM    2  C2  UNL     1      -3.712 -10.370   7.815  1.00  0.00    -0.078 C 
HETATM    3  C3  UNL     1      -3.223 -10.516   6.435  1.00  0.00     0.128 C 
HETATM    4  C4  UNL     1      -3.105  -9.166   5.718  1.00  0.00     0.052 C 
HETATM    5  C5  UNL     1      -3.280  -9.467   4.226  1.00  0.00     0.010 C 
HETATM    6  C6  UNL     1      -3.596 -10.972   4.108  1.00  0.00     0.002 C 
HETATM    7  C7  UNL     1      -4.503 -11.370   2.922  1.00  0.00    -0.004 C 
HETATM    8  C8  UNL     1      -3.930 -10.859   1.588  1.00  0.00     0.010 C 
HETATM    9  C9  UNL     1      -4.786 -11.287   0.403  1.00  0.00     0.035 C 
HETATM   10  C10 UNL     1      -6.218 -10.843   0.582  1.00  0.00    -0.069 C 
HETATM   11  C11 UNL     1      -6.810 -10.096  -0.370  1.00  0.00     0.030 C 
HETATM   12  C12 UNL     1      -8.238  -9.694  -0.252  1.00  0.00     0.032 C 
HETATM   13  N1  UNL     1      -8.844  -8.788  -0.956  1.00  0.00    -0.271 N 
ATOM     14  H1  UNL     1      -9.829  -8.545  -0.847  1.00  0.00     0.194 HD
HETATM   15  C24 UNL     1      -9.061 -10.434   0.778  1.00  0.00     0.060 C 
HETATM   16  C25 UNL     1      -8.261 -10.544   2.066  1.00  0.00     0.020 C 
HETATM   17  C26 UNL     1      -6.901 -11.283   1.885  1.00  0.00    -0.016 C 
HETATM   18  C27 UNL     1      -7.179 -12.801   1.799  1.00  0.00     0.020 C 
HETATM   19  C28 UNL     1      -5.974 -10.914   3.107  1.00  0.00     0.002 C 
HETATM   20  C29 UNL     1      -6.509 -11.422   4.459  1.00  0.00     0.007 C 
HETATM   21  C30 UNL     1      -5.643 -10.949   5.628  1.00  0.00     0.014 C 
HETATM   22  C31 UNL     1      -4.152 -11.357   5.506  1.00  0.00     0.003 C 
HETATM   23  C32 UNL     1      -4.002 -12.871   5.758  1.00  0.00     0.020 C 
ENDROOT
BRANCH   3  24
HETATM   24  O1  UNL     1      -1.918 -11.098   6.478  1.00  0.00    -0.377 OA
HETATM   25  H2  UNL     1      -1.392 -10.568   7.100  1.00  0.00     0.211 HD
ENDBRANCH   3  24
BRANCH  13  26
HETATM   26  O2  UNL     1      -7.982  -8.181  -1.884  1.00  0.00    -0.271 OA
BRANCH  26  27
HETATM   27  C13 UNL     1      -8.254  -6.790  -1.933  1.00  0.00     0.303 C 
BRANCH  27  28
HETATM   28  C14 UNL     1      -9.337  -6.430  -2.948  1.00  0.00     0.244 C 
HETATM   29  O3  UNL     1     -10.509  -6.789  -2.881  1.00  0.00    -0.271 OA
HETATM   30  N2  UNL     1      -8.875  -5.652  -3.988  1.00  0.00    -0.342 N 
HETATM   31  H16 UNL     1      -7.919  -5.307  -3.998  1.00  0.00     0.163 HD
BRANCH  30  32
HETATM   32  C15 UNL     1      -9.768  -5.135  -5.038  1.00  0.00     0.216 C 
BRANCH  32  33
HETATM   33  C16 UNL     1     -10.696  -6.267  -5.493  1.00  0.00     0.166 C 
HETATM   34  O4  UNL     1     -10.430  -7.162  -6.281  1.00  0.00    -0.648 OA
BRANCH  33  35
HETATM   35  O5  UNL     1     -11.920  -6.238  -4.909  1.00  0.00    -0.775 OA
HETATM   36  H18 UNL     1     -12.372  -7.027  -5.281  1.00  0.00     0.167 HD
ENDBRANCH  33  35
ENDBRANCH  32  33
BRANCH  32  37
HETATM   37  C17 UNL     1     -10.588  -3.911  -4.554  1.00  0.00     0.184 C 
BRANCH  37  38
HETATM   38  O6  UNL     1     -11.949  -4.044  -5.007  1.00  0.00    -0.388 OA
HETATM   39  H20 UNL     1     -12.111  -3.348  -5.668  1.00  0.00     0.210 HD
ENDBRANCH  37  38
BRANCH  37  40
HETATM   40  C18 UNL     1     -10.082  -2.509  -4.876  1.00  0.00    -0.025 A 
HETATM   41  C19 UNL     1     -10.893  -1.413  -4.514  1.00  0.00     0.010 A 
HETATM   42  C20 UNL     1     -10.505  -0.095  -4.775  1.00  0.00     0.003 A 
HETATM   43  C21 UNL     1      -9.289   0.161  -5.402  1.00  0.00     0.036 A 
HETATM   44  C22 UNL     1      -8.463  -0.912  -5.755  1.00  0.00     0.103 A 
HETATM   45  C23 UNL     1      -8.849  -2.237  -5.489  1.00  0.00     0.045 A 
BRANCH  44  46
HETATM   46  N3  UNL     1      -7.177  -0.647  -6.411  1.00  0.00    -0.116 N 
HETATM   47  O7  UNL     1      -7.106   0.326  -7.175  1.00  0.00    -0.532 OA
HETATM   48  O8  UNL     1      -6.235  -1.415  -6.164  1.00  0.00    -0.532 OA
ENDBRANCH  44  46
ENDBRANCH  37  40
ENDBRANCH  32  37
ENDBRANCH  30  32
ENDBRANCH  27  28
ENDBRANCH  26  27
ENDBRANCH  13  26
TORSDOF 11
ENDMDL
