MODEL 1
REMARK minimizedAffinity -7.14590168
REMARK CNNscore 0.874797165
REMARK CNNaffinity 7.44924688
REMARK  9 active torsions:
REMARK  status: ('A' for Active; 'I' for Inactive)
REMARK    1  A    between atoms: C2_2  and  C3_3 
REMARK    2  A    between atoms: C2_2  and  C9_11 
REMARK    3  A    between atoms: C3_3  and  C4_4 
REMARK    4  A    between atoms: C4_4  and  C5_5 
REMARK    5  A    between atoms: C5_5  and  O1_6 
REMARK    6  A    between atoms: C5_5  and  C6_7 
REMARK    7  A    between atoms: C6_7  and  O2_10 
REMARK    8  A    between atoms: C17_19  and  C18_20 
REMARK    9  A    between atoms: C18_20  and  O3_23 
ROOT
HETATM    1  C9  UNL     1      -2.301  51.727 -10.028  1.00  0.00    -0.002 C 
HETATM    2  C10 UNL     1      -2.246  51.276  -8.533  1.00  0.00     0.006 C 
HETATM    3  C11 UNL     1      -0.930  51.830  -7.939  1.00  0.00     0.011 C 
HETATM    4  C12 UNL     1      -0.105  52.250  -9.170  1.00  0.00    -0.032 C 
HETATM    5  C13 UNL     1       0.510  50.922  -9.731  1.00  0.00     0.016 C 
HETATM    6  C14 UNL     1       0.992  53.323  -8.906  1.00  0.00     0.003 C 
HETATM    7  C15 UNL     1       2.013  52.948  -7.822  1.00  0.00     0.009 C 
HETATM    8  C16 UNL     1       3.262  53.828  -7.780  1.00  0.00     0.042 C 
HETATM    9  C17 UNL     1       3.186  55.238  -8.428  1.00  0.00     0.095 C 
HETATM   10  O4  UNL     1       4.572  55.641  -8.673  1.00  0.00    -0.377 OA
HETATM   11  C21 UNL     1       5.153  55.145  -9.867  1.00  0.00     0.169 C 
HETATM   12  C22 UNL     1       4.507  55.786 -11.076  1.00  0.00     0.027 C 
HETATM   13  C23 UNL     1       3.027  56.081 -10.879  1.00  0.00     0.010 C 
HETATM   14  C24 UNL     1       2.328  55.291  -9.751  1.00  0.00     0.032 C 
HETATM   15  C25 UNL     1       1.648  53.921 -10.202  1.00  0.00    -0.033 C 
HETATM   16  C26 UNL     1       2.666  52.966 -10.864  1.00  0.00     0.016 C 
HETATM   17  C27 UNL     1       0.554  54.232 -11.294  1.00  0.00     0.011 C 
HETATM   18  C28 UNL     1      -0.609  53.224 -11.441  1.00  0.00     0.011 C 
HETATM   19  C29 UNL     1      -1.243  52.873 -10.083  1.00  0.00    -0.032 C 
HETATM   20  C30 UNL     1      -1.881  54.179  -9.522  1.00  0.00     0.016 C 
ENDROOT
BRANCH   1  21
HETATM   21  C2  UNL     1      -3.756  51.853 -10.579  1.00  0.00    -0.014 C 
HETATM   22  C1  UNL     1      -3.948  52.676 -11.860  1.00  0.00     0.010 C 
BRANCH  21  23
HETATM   23  C3  UNL     1      -4.435  50.473 -10.708  1.00  0.00     0.007 C 
BRANCH  23  24
HETATM   24  C4  UNL     1      -5.854  50.330 -10.124  1.00  0.00     0.035 C 
BRANCH  24  25
HETATM   25  C5  UNL     1      -6.264  48.885  -9.777  1.00  0.00     0.151 C 
BRANCH  25  26
HETATM   26  O1  UNL     1      -5.700  48.542  -8.511  1.00  0.00    -0.393 OA
HETATM   27  H10 UNL     1      -5.755  47.577  -8.406  1.00  0.00     0.210 HD
ENDBRANCH  25  26
BRANCH  25  28
HETATM   28  C6  UNL     1      -7.813  48.681  -9.765  1.00  0.00     0.076 C 
HETATM   29  C7  UNL     1      -8.445  49.327  -8.524  1.00  0.00     0.048 C 
HETATM   30  C8  UNL     1      -8.486  49.245 -11.020  1.00  0.00     0.048 C 
BRANCH  28  31
HETATM   31  O2  UNL     1      -8.116  47.279  -9.714  1.00  0.00    -0.388 OA
HETATM   32  H17 UNL     1      -7.766  46.922  -8.881  1.00  0.00     0.210 HD
ENDBRANCH  28  31
ENDBRANCH  25  28
ENDBRANCH  24  25
ENDBRANCH  23  24
ENDBRANCH  21  23
ENDBRANCH   1  21
BRANCH   9  33
HETATM   33  C18 UNL     1       2.725  56.331  -7.352  1.00  0.00     0.082 C 
HETATM   34  C19 UNL     1       3.388  57.704  -7.475  1.00  0.00     0.049 C 
HETATM   35  C20 UNL     1       2.867  55.848  -5.898  1.00  0.00     0.049 C 
BRANCH  33  36
HETATM   36  O3  UNL     1       1.308  56.555  -7.535  1.00  0.00    -0.388 OA
HETATM   37  H37 UNL     1       0.935  55.658  -7.658  1.00  0.00     0.210 HD
ENDBRANCH  33  36
ENDBRANCH   9  33
TORSDOF 9
ENDMDL
MODEL 2
REMARK minimizedAffinity -6.87688541
REMARK CNNscore 0.844574392
REMARK CNNaffinity 7.34897757
REMARK  9 active torsions:
REMARK  status: ('A' for Active; 'I' for Inactive)
REMARK    1  A    between atoms: C2_2  and  C3_3 
REMARK    2  A    between atoms: C2_2  and  C9_11 
REMARK    3  A    between atoms: C3_3  and  C4_4 
REMARK    4  A    between atoms: C4_4  and  C5_5 
REMARK    5  A    between atoms: C5_5  and  O1_6 
REMARK    6  A    between atoms: C5_5  and  C6_7 
REMARK    7  A    between atoms: C6_7  and  O2_10 
REMARK    8  A    between atoms: C17_19  and  C18_20 
REMARK    9  A    between atoms: C18_20  and  O3_23 
ROOT
HETATM    1  C9  UNL     1      -1.855  52.408 -10.313  1.00  0.00    -0.002 C 
HETATM    2  C10 UNL     1      -1.237  52.541 -11.742  1.00  0.00     0.006 C 
HETATM    3  C11 UNL     1       0.025  53.424 -11.611  1.00  0.00     0.011 C 
HETATM    4  C12 UNL     1      -0.106  54.070 -10.219  1.00  0.00    -0.032 C 
HETATM    5  C13 UNL     1      -1.119  55.252 -10.402  1.00  0.00     0.016 C 
HETATM    6  C14 UNL     1       1.228  54.553  -9.577  1.00  0.00     0.003 C 
HETATM    7  C15 UNL     1       2.031  55.547 -10.429  1.00  0.00     0.009 C 
HETATM    8  C16 UNL     1       3.157  56.268  -9.689  1.00  0.00     0.042 C 
HETATM    9  C17 UNL     1       3.706  55.626  -8.386  1.00  0.00     0.095 C 
HETATM   10  O4  UNL     1       4.383  56.703  -7.662  1.00  0.00    -0.377 OA
HETATM   11  C21 UNL     1       3.546  57.534  -6.876  1.00  0.00     0.169 C 
HETATM   12  C22 UNL     1       2.999  56.767  -5.692  1.00  0.00     0.027 C 
HETATM   13  C23 UNL     1       2.738  55.299  -5.998  1.00  0.00     0.010 C 
HETATM   14  C24 UNL     1       2.601  54.938  -7.494  1.00  0.00     0.032 C 
HETATM   15  C25 UNL     1       1.113  54.974  -8.068  1.00  0.00    -0.033 C 
HETATM   16  C26 UNL     1       0.455  56.357  -7.871  1.00  0.00     0.016 C 
HETATM   17  C27 UNL     1       0.233  53.943  -7.262  1.00  0.00     0.011 C 
HETATM   18  C28 UNL     1      -1.011  53.363  -7.974  1.00  0.00     0.011 C 
HETATM   19  C29 UNL     1      -0.679  52.848  -9.386  1.00  0.00    -0.032 C 
HETATM   20  C30 UNL     1       0.309  51.656  -9.219  1.00  0.00     0.016 C 
ENDROOT
BRANCH   1  21
HETATM   21  C2  UNL     1      -2.677  51.095 -10.119  1.00  0.00    -0.014 C 
HETATM   22  C1  UNL     1      -2.775  50.538  -8.693  1.00  0.00     0.010 C 
BRANCH  21  23
HETATM   23  C3  UNL     1      -4.077  51.202 -10.762  1.00  0.00     0.007 C 
BRANCH  23  24
HETATM   24  C4  UNL     1      -5.220  50.413 -10.094  1.00  0.00     0.035 C 
BRANCH  24  25
HETATM   25  C5  UNL     1      -5.772  49.245 -10.933  1.00  0.00     0.151 C 
BRANCH  25  26
HETATM   26  O1  UNL     1      -4.902  48.123 -10.782  1.00  0.00    -0.393 OA
HETATM   27  H10 UNL     1      -5.110  47.480 -11.481  1.00  0.00     0.210 HD
ENDBRANCH  25  26
BRANCH  25  28
HETATM   28  C6  UNL     1      -7.237  48.862 -10.552  1.00  0.00     0.076 C 
HETATM   29  C7  UNL     1      -7.825  47.862 -11.557  1.00  0.00     0.048 C 
HETATM   30  C8  UNL     1      -7.338  48.271  -9.142  1.00  0.00     0.048 C 
BRANCH  28  31
HETATM   31  O2  UNL     1      -8.067  50.032 -10.582  1.00  0.00    -0.388 OA
HETATM   32  H17 UNL     1      -8.080  50.372 -11.493  1.00  0.00     0.210 HD
ENDBRANCH  28  31
ENDBRANCH  25  28
ENDBRANCH  24  25
ENDBRANCH  23  24
ENDBRANCH  21  23
ENDBRANCH   1  21
BRANCH   9  33
HETATM   33  C18 UNL     1       4.930  54.645  -8.711  1.00  0.00     0.082 C 
HETATM   34  C19 UNL     1       6.307  55.308  -8.795  1.00  0.00     0.049 C 
HETATM   35  C20 UNL     1       4.713  53.805  -9.982  1.00  0.00     0.049 C 
BRANCH  33  36
HETATM   36  O3  UNL     1       5.018  53.681  -7.636  1.00  0.00    -0.388 OA
HETATM   37  H37 UNL     1       4.088  53.424  -7.466  1.00  0.00     0.210 HD
ENDBRANCH  33  36
ENDBRANCH   9  33
TORSDOF 9
ENDMDL
MODEL 3
REMARK minimizedAffinity -6.90927315
REMARK CNNscore 0.809130132
REMARK CNNaffinity 7.55870771
REMARK  9 active torsions:
REMARK  status: ('A' for Active; 'I' for Inactive)
REMARK    1  A    between atoms: C2_2  and  C3_3 
REMARK    2  A    between atoms: C2_2  and  C9_11 
REMARK    3  A    between atoms: C3_3  and  C4_4 
REMARK    4  A    between atoms: C4_4  and  C5_5 
REMARK    5  A    between atoms: C5_5  and  O1_6 
REMARK    6  A    between atoms: C5_5  and  C6_7 
REMARK    7  A    between atoms: C6_7  and  O2_10 
REMARK    8  A    between atoms: C17_19  and  C18_20 
REMARK    9  A    between atoms: C18_20  and  O3_23 
ROOT
HETATM    1  C9  UNL     1       2.547  55.566  -7.986  1.00  0.00    -0.002 C 
HETATM    2  C10 UNL     1       3.577  54.401  -8.142  1.00  0.00     0.006 C 
HETATM    3  C11 UNL     1       2.825  53.214  -8.787  1.00  0.00     0.011 C 
HETATM    4  C12 UNL     1       1.337  53.582  -8.643  1.00  0.00    -0.032 C 
HETATM    5  C13 UNL     1       0.963  53.231  -7.162  1.00  0.00     0.016 C 
HETATM    6  C14 UNL     1       0.375  52.892  -9.655  1.00  0.00     0.003 C 
HETATM    7  C15 UNL     1       0.432  51.357  -9.655  1.00  0.00     0.009 C 
HETATM    8  C16 UNL     1      -0.715  50.669 -10.393  1.00  0.00     0.042 C 
HETATM    9  C17 UNL     1      -1.506  51.493 -11.447  1.00  0.00     0.095 C 
HETATM   10  O4  UNL     1      -2.780  50.795 -11.627  1.00  0.00    -0.377 OA
HETATM   11  C21 UNL     1      -3.783  51.095 -10.671  1.00  0.00     0.169 C 
HETATM   12  C22 UNL     1      -4.270  52.517 -10.841  1.00  0.00     0.027 C 
HETATM   13  C23 UNL     1      -3.177  53.474 -11.293  1.00  0.00     0.010 C 
HETATM   14  C24 UNL     1      -1.727  53.003 -11.048  1.00  0.00     0.032 C 
HETATM   15  C25 UNL     1      -1.087  53.463  -9.661  1.00  0.00    -0.033 C 
HETATM   16  C26 UNL     1      -1.930  52.990  -8.456  1.00  0.00     0.016 C 
HETATM   17  C27 UNL     1      -1.077  55.039  -9.605  1.00  0.00     0.011 C 
HETATM   18  C28 UNL     1      -0.016  55.709  -8.703  1.00  0.00     0.011 C 
HETATM   19  C29 UNL     1       1.393  55.138  -8.946  1.00  0.00    -0.032 C 
HETATM   20  C30 UNL     1       1.789  55.500 -10.409  1.00  0.00     0.016 C 
ENDROOT
BRANCH   1  21
HETATM   21  C2  UNL     1       3.211  56.979  -7.993  1.00  0.00    -0.014 C 
HETATM   22  C1  UNL     1       2.758  57.969  -6.913  1.00  0.00     0.010 C 
BRANCH  21  23
HETATM   23  C3  UNL     1       4.752  56.880  -8.033  1.00  0.00     0.007 C 
BRANCH  23  24
HETATM   24  C4  UNL     1       5.519  57.347  -6.781  1.00  0.00     0.035 C 
BRANCH  24  25
HETATM   25  C5  UNL     1       6.502  56.311  -6.204  1.00  0.00     0.151 C 
BRANCH  25  26
HETATM   26  O1  UNL     1       7.235  55.727  -7.281  1.00  0.00    -0.393 OA
HETATM   27  H10 UNL     1       7.671  54.923  -6.952  1.00  0.00     0.210 HD
ENDBRANCH  25  26
BRANCH  25  28
HETATM   28  C6  UNL     1       7.472  56.919  -5.142  1.00  0.00     0.076 C 
HETATM   29  C7  UNL     1       8.928  56.534  -5.440  1.00  0.00     0.048 C 
HETATM   30  C8  UNL     1       7.366  58.446  -5.061  1.00  0.00     0.048 C 
BRANCH  28  31
HETATM   31  O2  UNL     1       7.154  56.402  -3.842  1.00  0.00    -0.388 OA
HETATM   32  H17 UNL     1       7.297  55.441  -3.854  1.00  0.00     0.210 HD
ENDBRANCH  28  31
ENDBRANCH  25  28
ENDBRANCH  24  25
ENDBRANCH  23  24
ENDBRANCH  21  23
ENDBRANCH   1  21
BRANCH   9  33
HETATM   33  C18 UNL     1      -0.850  51.331 -12.900  1.00  0.00     0.082 C 
HETATM   34  C19 UNL     1       0.131  52.429 -13.311  1.00  0.00     0.049 C 
HETATM   35  C20 UNL     1      -1.892  51.162 -14.020  1.00  0.00     0.049 C 
BRANCH  33  36
HETATM   36  O3  UNL     1      -0.094  50.098 -12.904  1.00  0.00    -0.388 OA
HETATM   37  H37 UNL     1      -0.676  49.456 -12.447  1.00  0.00     0.210 HD
ENDBRANCH  33  36
ENDBRANCH   9  33
TORSDOF 9
ENDMDL
MODEL 4
REMARK minimizedAffinity -6.9015379
REMARK CNNscore 0.789249599
REMARK CNNaffinity 7.28541756
REMARK  9 active torsions:
REMARK  status: ('A' for Active; 'I' for Inactive)
REMARK    1  A    between atoms: C2_2  and  C3_3 
REMARK    2  A    between atoms: C2_2  and  C9_11 
REMARK    3  A    between atoms: C3_3  and  C4_4 
REMARK    4  A    between atoms: C4_4  and  C5_5 
REMARK    5  A    between atoms: C5_5  and  O1_6 
REMARK    6  A    between atoms: C5_5  and  C6_7 
REMARK    7  A    between atoms: C6_7  and  O2_10 
REMARK    8  A    between atoms: C17_19  and  C18_20 
REMARK    9  A    between atoms: C18_20  and  O3_23 
ROOT
HETATM    1  C9  UNL     1       1.187  54.129 -10.451  1.00  0.00    -0.002 C 
HETATM    2  C10 UNL     1       2.291  53.343 -11.230  1.00  0.00     0.006 C 
HETATM    3  C11 UNL     1       3.645  53.684 -10.566  1.00  0.00     0.011 C 
HETATM    4  C12 UNL     1       3.341  54.913  -9.689  1.00  0.00    -0.032 C 
HETATM    5  C13 UNL     1       3.327  56.132 -10.674  1.00  0.00     0.016 C 
HETATM    6  C14 UNL     1       4.320  55.147  -8.501  1.00  0.00     0.003 C 
HETATM    7  C15 UNL     1       5.799  55.268  -8.898  1.00  0.00     0.009 C 
HETATM    8  C16 UNL     1       6.718  55.813  -7.806  1.00  0.00     0.042 C 
HETATM    9  C17 UNL     1       6.237  55.723  -6.332  1.00  0.00     0.095 C 
HETATM   10  O4  UNL     1       7.031  56.704  -5.590  1.00  0.00    -0.377 OA
HETATM   11  C21 UNL     1       6.559  58.039  -5.641  1.00  0.00     0.169 C 
HETATM   12  C22 UNL     1       5.257  58.171  -4.881  1.00  0.00     0.027 C 
HETATM   13  C23 UNL     1       4.383  56.929  -4.971  1.00  0.00     0.010 C 
HETATM   14  C24 UNL     1       4.690  55.974  -6.145  1.00  0.00     0.032 C 
HETATM   15  C25 UNL     1       3.857  56.244  -7.478  1.00  0.00    -0.033 C 
HETATM   16  C26 UNL     1       4.058  57.684  -7.998  1.00  0.00     0.016 C 
HETATM   17  C27 UNL     1       2.321  56.099  -7.154  1.00  0.00     0.011 C 
HETATM   18  C28 UNL     1       1.382  55.722  -8.323  1.00  0.00     0.011 C 
HETATM   19  C29 UNL     1       1.912  54.519  -9.124  1.00  0.00    -0.032 C 
HETATM   20  C30 UNL     1       1.909  53.292  -8.165  1.00  0.00     0.016 C 
ENDROOT
BRANCH   1  21
HETATM   21  C2  UNL     1      -0.214  53.444 -10.512  1.00  0.00    -0.014 C 
HETATM   22  C1  UNL     1      -1.421  54.348 -10.799  1.00  0.00     0.010 C 
BRANCH  21  23
HETATM   23  C3  UNL     1      -0.207  52.224 -11.458  1.00  0.00     0.007 C 
BRANCH  23  24
HETATM   24  C4  UNL     1      -0.708  52.449 -12.898  1.00  0.00     0.035 C 
BRANCH  24  25
HETATM   25  C5  UNL     1      -0.412  51.291 -13.871  1.00  0.00     0.151 C 
BRANCH  25  26
HETATM   26  O1  UNL     1      -1.570  51.063 -14.675  1.00  0.00    -0.393 OA
HETATM   27  H10 UNL     1      -1.472  50.199 -15.110  1.00  0.00     0.210 HD
ENDBRANCH  25  26
BRANCH  25  28
HETATM   28  C6  UNL     1       0.839  51.555 -14.767  1.00  0.00     0.076 C 
HETATM   29  C7  UNL     1       2.104  50.951 -14.141  1.00  0.00     0.048 C 
HETATM   30  C8  UNL     1       0.670  51.000 -16.185  1.00  0.00     0.048 C 
BRANCH  28  31
HETATM   31  O2  UNL     1       1.060  52.968 -14.888  1.00  0.00    -0.388 OA
HETATM   32  H17 UNL     1       1.251  53.323 -14.003  1.00  0.00     0.210 HD
ENDBRANCH  28  31
ENDBRANCH  25  28
ENDBRANCH  24  25
ENDBRANCH  23  24
ENDBRANCH  21  23
ENDBRANCH   1  21
BRANCH   9  33
HETATM   33  C18 UNL     1       6.722  54.352  -5.661  1.00  0.00     0.082 C 
HETATM   34  C19 UNL     1       5.738  53.706  -4.684  1.00  0.00     0.049 C 
HETATM   35  C20 UNL     1       8.092  54.467  -4.970  1.00  0.00     0.049 C 
BRANCH  33  36
HETATM   36  O3  UNL     1       6.919  53.390  -6.723  1.00  0.00    -0.388 OA
HETATM   37  H37 UNL     1       7.378  53.895  -7.425  1.00  0.00     0.210 HD
ENDBRANCH  33  36
ENDBRANCH   9  33
TORSDOF 9
ENDMDL
MODEL 5
REMARK minimizedAffinity -7.18344688
REMARK CNNscore 0.692373991
REMARK CNNaffinity 7.02029657
REMARK  9 active torsions:
REMARK  status: ('A' for Active; 'I' for Inactive)
REMARK    1  A    between atoms: C2_2  and  C3_3 
REMARK    2  A    between atoms: C2_2  and  C9_11 
REMARK    3  A    between atoms: C3_3  and  C4_4 
REMARK    4  A    between atoms: C4_4  and  C5_5 
REMARK    5  A    between atoms: C5_5  and  O1_6 
REMARK    6  A    between atoms: C5_5  and  C6_7 
REMARK    7  A    between atoms: C6_7  and  O2_10 
REMARK    8  A    between atoms: C17_19  and  C18_20 
REMARK    9  A    between atoms: C18_20  and  O3_23 
ROOT
HETATM    1  C9  UNL     1       1.287  54.137 -10.845  1.00  0.00    -0.002 C 
HETATM    2  C10 UNL     1       2.475  53.379 -11.523  1.00  0.00     0.006 C 
HETATM    3  C11 UNL     1       3.752  53.731 -10.726  1.00  0.00     0.011 C 
HETATM    4  C12 UNL     1       3.344  54.943  -9.868  1.00  0.00    -0.032 C 
HETATM    5  C13 UNL     1       3.404  56.176 -10.835  1.00  0.00     0.016 C 
HETATM    6  C14 UNL     1       4.199  55.177  -8.588  1.00  0.00     0.003 C 
HETATM    7  C15 UNL     1       5.707  55.326  -8.839  1.00  0.00     0.009 C 
HETATM    8  C16 UNL     1       6.507  55.871  -7.656  1.00  0.00     0.042 C 
HETATM    9  C17 UNL     1       5.887  55.753  -6.236  1.00  0.00     0.095 C 
HETATM   10  O4  UNL     1       6.589  56.735  -5.409  1.00  0.00    -0.377 OA
HETATM   11  C21 UNL     1       6.101  58.064  -5.490  1.00  0.00     0.169 C 
HETATM   12  C22 UNL     1       4.730  58.165  -4.858  1.00  0.00     0.027 C 
HETATM   13  C23 UNL     1       3.889  56.911  -5.047  1.00  0.00     0.010 C 
HETATM   14  C24 UNL     1       4.326  55.976  -6.197  1.00  0.00     0.032 C 
HETATM   15  C25 UNL     1       3.620  56.252  -7.601  1.00  0.00    -0.033 C 
HETATM   16  C26 UNL     1       3.847  57.702  -8.082  1.00  0.00     0.016 C 
HETATM   17  C27 UNL     1       2.063  56.078  -7.430  1.00  0.00     0.011 C 
HETATM   18  C28 UNL     1       1.248  55.703  -8.689  1.00  0.00     0.011 C 
HETATM   19  C29 UNL     1       1.874  54.520  -9.449  1.00  0.00    -0.032 C 
HETATM   20  C30 UNL     1       1.800  53.279  -8.510  1.00  0.00     0.016 C 
ENDROOT
BRANCH   1  21
HETATM   21  C2  UNL     1      -0.090  53.430 -11.050  1.00  0.00    -0.014 C 
HETATM   22  C1  UNL     1      -0.185  51.955 -10.641  1.00  0.00     0.010 C 
BRANCH  21  23
HETATM   23  C3  UNL     1      -1.243  54.247 -10.428  1.00  0.00     0.007 C 
BRANCH  23  24
HETATM   24  C4  UNL     1      -2.309  53.466  -9.635  1.00  0.00     0.035 C 
BRANCH  24  25
HETATM   25  C5  UNL     1      -3.619  53.204 -10.403  1.00  0.00     0.151 C 
BRANCH  25  26
HETATM   26  O1  UNL     1      -3.543  53.855 -11.671  1.00  0.00    -0.393 OA
HETATM   27  H10 UNL     1      -4.438  53.893 -12.048  1.00  0.00     0.210 HD
ENDBRANCH  25  26
BRANCH  25  28
HETATM   28  C6  UNL     1      -3.926  51.683 -10.580  1.00  0.00     0.076 C 
HETATM   29  C7  UNL     1      -3.415  51.171 -11.934  1.00  0.00     0.048 C 
HETATM   30  C8  UNL     1      -3.317  50.830  -9.462  1.00  0.00     0.048 C 
BRANCH  28  31
HETATM   31  O2  UNL     1      -5.344  51.468 -10.553  1.00  0.00    -0.388 OA
HETATM   32  H17 UNL     1      -5.737  51.937 -11.308  1.00  0.00     0.210 HD
ENDBRANCH  28  31
ENDBRANCH  25  28
ENDBRANCH  24  25
ENDBRANCH  23  24
ENDBRANCH  21  23
ENDBRANCH   1  21
BRANCH   9  33
HETATM   33  C18 UNL     1       6.328  54.380  -5.539  1.00  0.00     0.082 C 
HETATM   34  C19 UNL     1       6.275  53.137  -6.427  1.00  0.00     0.049 C 
HETATM   35  C20 UNL     1       5.558  54.086  -4.239  1.00  0.00     0.049 C 
BRANCH  33  36
HETATM   36  O3  UNL     1       7.709  54.520  -5.131  1.00  0.00    -0.388 OA
HETATM   37  H37 UNL     1       7.757  55.418  -4.744  1.00  0.00     0.210 HD
ENDBRANCH  33  36
ENDBRANCH   9  33
TORSDOF 9
ENDMDL
MODEL 6
REMARK minimizedAffinity -8.78973293
REMARK CNNscore 0.481030971
REMARK CNNaffinity 6.88743353
REMARK  9 active torsions:
REMARK  status: ('A' for Active; 'I' for Inactive)
REMARK    1  A    between atoms: C2_2  and  C3_3 
REMARK    2  A    between atoms: C2_2  and  C9_11 
REMARK    3  A    between atoms: C3_3  and  C4_4 
REMARK    4  A    between atoms: C4_4  and  C5_5 
REMARK    5  A    between atoms: C5_5  and  O1_6 
REMARK    6  A    between atoms: C5_5  and  C6_7 
REMARK    7  A    between atoms: C6_7  and  O2_10 
REMARK    8  A    between atoms: C17_19  and  C18_20 
REMARK    9  A    between atoms: C18_20  and  O3_23 
ROOT
HETATM    1  C9  UNL     1      -1.414  51.305 -22.551  1.00  0.00    -0.002 C 
HETATM    2  C10 UNL     1      -2.746  51.904 -23.107  1.00  0.00     0.006 C 
HETATM    3  C11 UNL     1      -3.891  50.973 -22.644  1.00  0.00     0.011 C 
HETATM    4  C12 UNL     1      -3.174  49.696 -22.167  1.00  0.00    -0.032 C 
HETATM    5  C13 UNL     1      -2.831  48.900 -23.473  1.00  0.00     0.016 C 
HETATM    6  C14 UNL     1      -3.970  48.820 -21.155  1.00  0.00     0.003 C 
HETATM    7  C15 UNL     1      -5.355  48.369 -21.641  1.00  0.00     0.009 C 
HETATM    8  C16 UNL     1      -6.001  47.261 -20.811  1.00  0.00     0.042 C 
HETATM    9  C17 UNL     1      -5.497  47.047 -19.357  1.00  0.00     0.095 C 
HETATM   10  O4  UNL     1      -5.906  45.691 -18.987  1.00  0.00    -0.377 OA
HETATM   11  C21 UNL     1      -5.045  44.651 -19.418  1.00  0.00     0.169 C 
HETATM   12  C22 UNL     1      -3.730  44.709 -18.671  1.00  0.00     0.027 C 
HETATM   13  C23 UNL     1      -3.292  46.127 -18.338  1.00  0.00     0.010 C 
HETATM   14  C24 UNL     1      -3.942  47.247 -19.181  1.00  0.00     0.032 C 
HETATM   15  C25 UNL     1      -3.135  47.667 -20.491  1.00  0.00    -0.033 C 
HETATM   16  C26 UNL     1      -2.904  46.465 -21.432  1.00  0.00     0.016 C 
HETATM   17  C27 UNL     1      -1.706  48.180 -20.065  1.00  0.00     0.011 C 
HETATM   18  C28 UNL     1      -0.993  49.166 -21.018  1.00  0.00     0.011 C 
HETATM   19  C29 UNL     1      -1.912  50.326 -21.441  1.00  0.00    -0.032 C 
HETATM   20  C30 UNL     1      -2.244  51.142 -20.156  1.00  0.00     0.016 C 
ENDROOT
BRANCH   1  21
HETATM   21  C2  UNL     1      -0.302  52.378 -22.334  1.00  0.00    -0.014 C 
HETATM   22  C1  UNL     1       0.433  52.359 -20.987  1.00  0.00     0.010 C 
BRANCH  21  23
HETATM   23  C3  UNL     1       0.704  52.395 -23.506  1.00  0.00     0.007 C 
BRANCH  23  24
HETATM   24  C4  UNL     1       0.588  53.554 -24.515  1.00  0.00     0.035 C 
BRANCH  24  25
HETATM   25  C5  UNL     1      -0.115  53.189 -25.836  1.00  0.00     0.151 C 
BRANCH  25  26
HETATM   26  O1  UNL     1      -0.392  54.392 -26.553  1.00  0.00    -0.393 OA
HETATM   27  H10 UNL     1      -1.034  54.188 -27.254  1.00  0.00     0.210 HD
ENDBRANCH  25  26
BRANCH  25  28
HETATM   28  C6  UNL     1       0.717  52.202 -26.715  1.00  0.00     0.076 C 
HETATM   29  C7  UNL     1       0.400  50.743 -26.356  1.00  0.00     0.048 C 
HETATM   30  C8  UNL     1       0.478  52.410 -28.214  1.00  0.00     0.048 C 
BRANCH  28  31
HETATM   31  O2  UNL     1       2.117  52.402 -26.476  1.00  0.00    -0.388 OA
HETATM   32  H17 UNL     1       2.300  52.193 -25.545  1.00  0.00     0.210 HD
ENDBRANCH  28  31
ENDBRANCH  25  28
ENDBRANCH  24  25
ENDBRANCH  23  24
ENDBRANCH  21  23
ENDBRANCH   1  21
BRANCH   9  33
HETATM   33  C18 UNL     1      -6.351  47.926 -18.327  1.00  0.00     0.082 C 
HETATM   34  C19 UNL     1      -7.068  47.147 -17.224  1.00  0.00     0.049 C 
HETATM   35  C20 UNL     1      -7.372  48.848 -19.018  1.00  0.00     0.049 C 
BRANCH  33  36
HETATM   36  O3  UNL     1      -5.437  48.822 -17.652  1.00  0.00    -0.388 OA
HETATM   37  H37 UNL     1      -4.853  49.154 -18.365  1.00  0.00     0.210 HD
ENDBRANCH  33  36
ENDBRANCH   9  33
TORSDOF 9
ENDMDL
MODEL 7
REMARK minimizedAffinity -6.75760603
REMARK CNNscore 0.452652514
REMARK CNNaffinity 6.11189127
REMARK  9 active torsions:
REMARK  status: ('A' for Active; 'I' for Inactive)
REMARK    1  A    between atoms: C2_2  and  C3_3 
REMARK    2  A    between atoms: C2_2  and  C9_11 
REMARK    3  A    between atoms: C3_3  and  C4_4 
REMARK    4  A    between atoms: C4_4  and  C5_5 
REMARK    5  A    between atoms: C5_5  and  O1_6 
REMARK    6  A    between atoms: C5_5  and  C6_7 
REMARK    7  A    between atoms: C6_7  and  O2_10 
REMARK    8  A    between atoms: C17_19  and  C18_20 
REMARK    9  A    between atoms: C18_20  and  O3_23 
ROOT
HETATM    1  C9  UNL     1      -7.275  47.942 -27.569  1.00  0.00    -0.002 C 
HETATM    2  C10 UNL     1      -6.885  47.426 -26.146  1.00  0.00     0.006 C 
HETATM    3  C11 UNL     1      -8.110  46.667 -25.587  1.00  0.00     0.011 C 
HETATM    4  C12 UNL     1      -9.268  47.075 -26.517  1.00  0.00    -0.032 C 
HETATM    5  C13 UNL     1      -9.714  48.495 -26.026  1.00  0.00     0.016 C 
HETATM    6  C14 UNL     1     -10.468  46.083 -26.568  1.00  0.00     0.003 C 
HETATM    7  C15 UNL     1     -11.109  45.776 -25.206  1.00  0.00     0.009 C 
HETATM    8  C16 UNL     1     -12.465  45.075 -25.275  1.00  0.00     0.042 C 
HETATM    9  C17 UNL     1     -12.831  44.316 -26.580  1.00  0.00     0.095 C 
HETATM   10  O4  UNL     1     -14.288  44.173 -26.565  1.00  0.00    -0.377 OA
HETATM   11  C21 UNL     1     -15.019  45.293 -27.035  1.00  0.00     0.169 C 
HETATM   12  C22 UNL     1     -14.818  45.470 -28.524  1.00  0.00     0.027 C 
HETATM   13  C23 UNL     1     -13.425  45.074 -28.992  1.00  0.00     0.010 C 
HETATM   14  C24 UNL     1     -12.336  45.028 -27.898  1.00  0.00     0.032 C 
HETATM   15  C25 UNL     1     -11.516  46.382 -27.698  1.00  0.00    -0.033 C 
HETATM   16  C26 UNL     1     -12.444  47.571 -27.368  1.00  0.00     0.016 C 
HETATM   17  C27 UNL     1     -10.795  46.742 -29.053  1.00  0.00     0.011 C 
HETATM   18  C28 UNL     1      -9.518  47.611 -28.968  1.00  0.00     0.011 C 
HETATM   19  C29 UNL     1      -8.526  47.077 -27.919  1.00  0.00    -0.032 C 
HETATM   20  C30 UNL     1      -8.054  45.674 -28.405  1.00  0.00     0.016 C 
ENDROOT
BRANCH   1  21
HETATM   21  C2  UNL     1      -6.046  48.123 -28.515  1.00  0.00    -0.014 C 
HETATM   22  C1  UNL     1      -4.655  48.073 -27.869  1.00  0.00     0.010 C 
BRANCH  21  23
HETATM   23  C3  UNL     1      -6.120  47.171 -29.728  1.00  0.00     0.007 C 
BRANCH  23  24
HETATM   24  C4  UNL     1      -6.703  47.742 -31.035  1.00  0.00     0.035 C 
BRANCH  24  25
HETATM   25  C5  UNL     1      -5.660  48.334 -32.002  1.00  0.00     0.151 C 
BRANCH  25  26
HETATM   26  O1  UNL     1      -4.534  48.777 -31.244  1.00  0.00    -0.393 OA
HETATM   27  H10 UNL     1      -3.994  49.355 -31.809  1.00  0.00     0.210 HD
ENDBRANCH  25  26
BRANCH  25  28
HETATM   28  C6  UNL     1      -5.217  47.326 -33.110  1.00  0.00     0.076 C 
HETATM   29  C7  UNL     1      -4.741  48.064 -34.369  1.00  0.00     0.048 C 
HETATM   30  C8  UNL     1      -4.106  46.386 -32.633  1.00  0.00     0.048 C 
BRANCH  28  31
HETATM   31  O2  UNL     1      -6.331  46.508 -33.494  1.00  0.00    -0.388 OA
HETATM   32  H17 UNL     1      -7.014  47.083 -33.876  1.00  0.00     0.210 HD
ENDBRANCH  28  31
ENDBRANCH  25  28
ENDBRANCH  24  25
ENDBRANCH  23  24
ENDBRANCH  21  23
ENDBRANCH   1  21
BRANCH   9  33
HETATM   33  C18 UNL     1     -12.363  42.786 -26.495  1.00  0.00     0.082 C 
HETATM   34  C19 UNL     1     -10.971  42.486 -27.053  1.00  0.00     0.049 C 
HETATM   35  C20 UNL     1     -13.366  41.809 -27.134  1.00  0.00     0.049 C 
BRANCH  33  36
HETATM   36  O3  UNL     1     -12.321  42.418 -25.098  1.00  0.00    -0.388 OA
HETATM   37  H37 UNL     1     -13.138  42.804 -24.721  1.00  0.00     0.210 HD
ENDBRANCH  33  36
ENDBRANCH   9  33
TORSDOF 9
ENDMDL
MODEL 8
REMARK minimizedAffinity -7.49864388
REMARK CNNscore 0.446296602
REMARK CNNaffinity 5.85367966
REMARK  9 active torsions:
REMARK  status: ('A' for Active; 'I' for Inactive)
REMARK    1  A    between atoms: C2_2  and  C3_3 
REMARK    2  A    between atoms: C2_2  and  C9_11 
REMARK    3  A    between atoms: C3_3  and  C4_4 
REMARK    4  A    between atoms: C4_4  and  C5_5 
REMARK    5  A    between atoms: C5_5  and  O1_6 
REMARK    6  A    between atoms: C5_5  and  C6_7 
REMARK    7  A    between atoms: C6_7  and  O2_10 
REMARK    8  A    between atoms: C17_19  and  C18_20 
REMARK    9  A    between atoms: C18_20  and  O3_23 
ROOT
HETATM    1  C9  UNL     1       5.273  69.057 -38.689  1.00  0.00    -0.002 C 
HETATM    2  C10 UNL     1       6.497  69.812 -38.078  1.00  0.00     0.006 C 
HETATM    3  C11 UNL     1       7.038  68.940 -36.921  1.00  0.00     0.011 C 
HETATM    4  C12 UNL     1       5.917  67.918 -36.658  1.00  0.00    -0.032 C 
HETATM    5  C13 UNL     1       4.848  68.684 -35.804  1.00  0.00     0.016 C 
HETATM    6  C14 UNL     1       6.364  66.597 -35.966  1.00  0.00     0.003 C 
HETATM    7  C15 UNL     1       7.086  66.784 -34.624  1.00  0.00     0.009 C 
HETATM    8  C16 UNL     1       7.239  65.513 -33.790  1.00  0.00     0.042 C 
HETATM    9  C17 UNL     1       7.132  64.144 -34.516  1.00  0.00     0.095 C 
HETATM   10  O4  UNL     1       6.834  63.160 -33.474  1.00  0.00    -0.377 OA
HETATM   11  C21 UNL     1       5.469  63.049 -33.108  1.00  0.00     0.169 C 
HETATM   12  C22 UNL     1       4.664  62.443 -34.237  1.00  0.00     0.027 C 
HETATM   13  C23 UNL     1       5.172  62.842 -35.615  1.00  0.00     0.010 C 
HETATM   14  C24 UNL     1       6.053  64.110 -35.667  1.00  0.00     0.032 C 
HETATM   15  C25 UNL     1       5.268  65.472 -35.933  1.00  0.00    -0.033 C 
HETATM   16  C26 UNL     1       4.173  65.721 -34.873  1.00  0.00     0.016 C 
HETATM   17  C27 UNL     1       4.527  65.368 -37.321  1.00  0.00     0.011 C 
HETATM   18  C28 UNL     1       4.221  66.689 -38.063  1.00  0.00     0.011 C 
HETATM   19  C29 UNL     1       5.456  67.605 -38.143  1.00  0.00    -0.032 C 
HETATM   20  C30 UNL     1       6.519  66.867 -39.011  1.00  0.00     0.016 C 
ENDROOT
BRANCH   1  21
HETATM   21  C2  UNL     1       5.025  69.401 -40.191  1.00  0.00    -0.014 C 
HETATM   22  C1  UNL     1       6.250  69.410 -41.116  1.00  0.00     0.010 C 
BRANCH  21  23
HETATM   23  C3  UNL     1       3.893  68.539 -40.790  1.00  0.00     0.007 C 
BRANCH  23  24
HETATM   24  C4  UNL     1       2.456  69.081 -40.665  1.00  0.00     0.035 C 
BRANCH  24  25
HETATM   25  C5  UNL     1       1.355  68.091 -41.094  1.00  0.00     0.151 C 
BRANCH  25  26
HETATM   26  O1  UNL     1       1.975  66.904 -41.588  1.00  0.00    -0.393 OA
HETATM   27  H10 UNL     1       1.306  66.390 -42.070  1.00  0.00     0.210 HD
ENDBRANCH  25  26
BRANCH  25  28
HETATM   28  C6  UNL     1       0.359  67.754 -39.939  1.00  0.00     0.076 C 
HETATM   29  C7  UNL     1       0.787  66.482 -39.195  1.00  0.00     0.048 C 
HETATM   30  C8  UNL     1       0.223  68.900 -38.931  1.00  0.00     0.048 C 
BRANCH  28  31
HETATM   31  O2  UNL     1      -0.947  67.509 -40.482  1.00  0.00    -0.388 OA
HETATM   32  H17 UNL     1      -0.894  66.731 -41.062  1.00  0.00     0.210 HD
ENDBRANCH  28  31
ENDBRANCH  25  28
ENDBRANCH  24  25
ENDBRANCH  23  24
ENDBRANCH  21  23
ENDBRANCH   1  21
BRANCH   9  33
HETATM   33  C18 UNL     1       8.573  63.652 -35.011  1.00  0.00     0.082 C 
HETATM   34  C19 UNL     1       9.664  63.608 -33.940  1.00  0.00     0.049 C 
HETATM   35  C20 UNL     1       9.105  64.449 -36.216  1.00  0.00     0.049 C 
BRANCH  33  36
HETATM   36  O3  UNL     1       8.433  62.296 -35.493  1.00  0.00    -0.388 OA
HETATM   37  H37 UNL     1       7.605  62.309 -36.016  1.00  0.00     0.210 HD
ENDBRANCH  33  36
ENDBRANCH   9  33
TORSDOF 9
ENDMDL
MODEL 9
REMARK minimizedAffinity -7.75709248
REMARK CNNscore 0.386909306
REMARK CNNaffinity 5.74710894
REMARK  9 active torsions:
REMARK  status: ('A' for Active; 'I' for Inactive)
REMARK    1  A    between atoms: C2_2  and  C3_3 
REMARK    2  A    between atoms: C2_2  and  C9_11 
REMARK    3  A    between atoms: C3_3  and  C4_4 
REMARK    4  A    between atoms: C4_4  and  C5_5 
REMARK    5  A    between atoms: C5_5  and  O1_6 
REMARK    6  A    between atoms: C5_5  and  C6_7 
REMARK    7  A    between atoms: C6_7  and  O2_10 
REMARK    8  A    between atoms: C17_19  and  C18_20 
REMARK    9  A    between atoms: C18_20  and  O3_23 
ROOT
HETATM    1  C9  UNL     1       7.307  66.134 -35.994  1.00  0.00    -0.002 C 
HETATM    2  C10 UNL     1       6.583  66.581 -34.683  1.00  0.00     0.006 C 
HETATM    3  C11 UNL     1       5.417  67.506 -35.100  1.00  0.00     0.011 C 
HETATM    4  C12 UNL     1       5.720  67.862 -36.568  1.00  0.00    -0.032 C 
HETATM    5  C13 UNL     1       6.811  68.986 -36.506  1.00  0.00     0.016 C 
HETATM    6  C14 UNL     1       4.491  68.303 -37.417  1.00  0.00     0.003 C 
HETATM    7  C15 UNL     1       3.707  69.494 -36.848  1.00  0.00     0.009 C 
HETATM    8  C16 UNL     1       2.713  70.134 -37.816  1.00  0.00     0.042 C 
HETATM    9  C17 UNL     1       2.224  69.292 -39.027  1.00  0.00     0.095 C 
HETATM   10  O4  UNL     1       1.705  70.254 -40.001  1.00  0.00    -0.377 OA
HETATM   11  C21 UNL     1       2.674  70.860 -40.840  1.00  0.00     0.169 C 
HETATM   12  C22 UNL     1       3.252  69.845 -41.801  1.00  0.00     0.027 C 
HETATM   13  C23 UNL     1       3.360  68.449 -41.204  1.00  0.00     0.010 C 
HETATM   14  C24 UNL     1       3.338  68.373 -39.662  1.00  0.00     0.032 C 
HETATM   15  C25 UNL     1       4.769  68.417 -38.959  1.00  0.00    -0.033 C 
HETATM   16  C26 UNL     1       5.557  69.689 -39.341  1.00  0.00     0.016 C 
HETATM   17  C27 UNL     1       5.623  67.194 -39.469  1.00  0.00     0.011 C 
HETATM   18  C28 UNL     1       6.748  66.678 -38.542  1.00  0.00     0.011 C 
HETATM   19  C29 UNL     1       6.255  66.467 -37.099  1.00  0.00    -0.032 C 
HETATM   20  C30 UNL     1       5.186  65.335 -37.140  1.00  0.00     0.016 C 
ENDROOT
BRANCH   1  21
HETATM   21  C2  UNL     1       8.027  64.756 -35.860  1.00  0.00    -0.014 C 
HETATM   22  C1  UNL     1       9.463  64.664 -36.391  1.00  0.00     0.010 C 
BRANCH  21  23
HETATM   23  C3  UNL     1       7.941  64.210 -34.418  1.00  0.00     0.007 C 
BRANCH  23  24
HETATM   24  C4  UNL     1       6.965  63.045 -34.164  1.00  0.00     0.035 C 
BRANCH  24  25
HETATM   25  C5  UNL     1       5.600  63.183 -34.865  1.00  0.00     0.151 C 
BRANCH  25  26
HETATM   26  O1  UNL     1       5.390  62.035 -35.687  1.00  0.00    -0.393 OA
HETATM   27  H10 UNL     1       4.661  62.228 -36.300  1.00  0.00     0.210 HD
ENDBRANCH  25  26
BRANCH  25  28
HETATM   28  C6  UNL     1       4.417  63.367 -33.862  1.00  0.00     0.076 C 
HETATM   29  C7  UNL     1       3.974  62.018 -33.279  1.00  0.00     0.048 C 
HETATM   30  C8  UNL     1       4.770  64.316 -32.712  1.00  0.00     0.048 C 
BRANCH  28  31
HETATM   31  O2  UNL     1       3.286  63.926 -34.543  1.00  0.00    -0.388 OA
HETATM   32  H17 UNL     1       2.998  63.296 -35.224  1.00  0.00     0.210 HD
ENDBRANCH  28  31
ENDBRANCH  25  28
ENDBRANCH  24  25
ENDBRANCH  23  24
ENDBRANCH  21  23
ENDBRANCH   1  21
BRANCH   9  33
HETATM   33  C18 UNL     1       0.897  68.478 -38.650  1.00  0.00     0.082 C 
HETATM   34  C19 UNL     1       0.201  68.905 -37.357  1.00  0.00     0.049 C 
HETATM   35  C20 UNL     1       1.112  66.955 -38.609  1.00  0.00     0.049 C 
BRANCH  33  36
HETATM   36  O3  UNL     1      -0.064  68.692 -39.709  1.00  0.00    -0.388 OA
HETATM   37  H37 UNL     1       0.461  68.611 -40.532  1.00  0.00     0.210 HD
ENDBRANCH  33  36
ENDBRANCH   9  33
TORSDOF 9
ENDMDL
