MODEL 1
REMARK minimizedAffinity -9.25950813
REMARK CNNscore 0.528269768
REMARK CNNaffinity 7.02037621
REMARK  9 active torsions:
REMARK  status: ('A' for Active; 'I' for Inactive)
REMARK    1  A    between atoms: C4_4  and  C5_5 
REMARK    2  A    between atoms: C7_7  and  O1_9 
REMARK    3  A    between atoms: C20_21  and  O2_22 
REMARK    4  A    between atoms: O2_22  and  C21_23 
REMARK    5  A    between atoms: C22_25  and  C23_26 
REMARK    6  A    between atoms: C23_26  and  O4_27 
REMARK    7  A    between atoms: C24_28  and  O5_29 
REMARK    8  A    between atoms: C25_30  and  O6_31 
REMARK    9  A    between atoms: C26_32  and  O7_33 
ROOT
HETATM    1  C5  UNL     1      -5.521   5.650  14.238  1.00  0.00     0.147 C 
HETATM    2  C6  UNL     1      -5.041   6.392  15.508  1.00  0.00     0.074 C 
HETATM    3  C7  UNL     1      -3.542   6.183  15.799  1.00  0.00     0.064 C 
HETATM    4  C8  UNL     1      -3.323   4.783  16.409  1.00  0.00     0.046 C 
HETATM    5  C9  UNL     1      -2.734   6.327  14.492  1.00  0.00     0.058 C 
HETATM    6  C10 UNL     1      -3.626   6.739  13.308  1.00  0.00     0.131 C 
HETATM    7  C11 UNL     1      -2.642   6.932  12.128  1.00  0.00     0.042 C 
HETATM    8  C12 UNL     1      -1.210   6.974  12.770  1.00  0.00    -0.029 C 
HETATM    9  C13 UNL     1      -0.566   5.561  12.512  1.00  0.00     0.016 C 
HETATM   10  C14 UNL     1      -0.227   8.057  12.227  1.00  0.00     0.014 C 
HETATM   11  C15 UNL     1      -0.080   7.999  10.697  1.00  0.00     0.034 C 
HETATM   12  C16 UNL     1       1.285   8.146  10.134  1.00  0.00    -0.022 C 
HETATM   13  C17 UNL     1       2.439   7.991  10.807  1.00  0.00    -0.059 C 
HETATM   14  C18 UNL     1       2.424   7.680  12.304  1.00  0.00     0.057 C 
HETATM   15  C19 UNL     1       3.700   8.193  12.979  1.00  0.00     0.024 C 
HETATM   16  C20 UNL     1       4.751   8.773  12.389  1.00  0.00     0.116 C 
HETATM   17  C27 UNL     1       4.774   8.902  10.907  1.00  0.00     0.194 C 
HETATM   18  O8  UNL     1       5.617   9.637  10.390  1.00  0.00    -0.289 OA
HETATM   19  C28 UNL     1       3.811   8.016  10.102  1.00  0.00     0.044 C 
HETATM   20  C29 UNL     1       3.788   8.561   8.654  1.00  0.00     0.028 C 
HETATM   21  C30 UNL     1       4.414   6.594  10.052  1.00  0.00     0.028 C 
HETATM   22  C31 UNL     1       1.108   8.158  13.086  1.00  0.00     0.032 C 
HETATM   23  C32 UNL     1       1.302   9.643  13.503  1.00  0.00     0.025 C 
HETATM   24  C33 UNL     1       1.014   7.292  14.403  1.00  0.00     0.137 C 
HETATM   25  O9  UNL     1       2.015   6.757  14.886  1.00  0.00    -0.297 OA
HETATM   26  C34 UNL     1      -0.305   7.058  15.139  1.00  0.00     0.089 C 
HETATM   27  C35 UNL     1      -1.540   7.297  14.288  1.00  0.00    -0.021 C 
HETATM   28  C36 UNL     1      -2.022   8.770  14.534  1.00  0.00     0.017 C 
HETATM   29  O10 UNL     1      -4.617   5.743  13.113  1.00  0.00    -0.376 OA
ENDROOT
BRANCH  16  30
HETATM   30  O2  UNL     1       5.769   9.324  13.144  1.00  0.00    -0.314 OA
BRANCH  30  31
HETATM   31  C21 UNL     1       7.092   8.921  12.743  1.00  0.00     0.298 C 
HETATM   32  O3  UNL     1       7.482   7.782  13.530  1.00  0.00    -0.348 OA
HETATM   33  C22 UNL     1       8.045   8.077  14.820  1.00  0.00     0.179 C 
HETATM   34  C24 UNL     1       9.344   8.901  14.704  1.00  0.00     0.180 C 
HETATM   35  C25 UNL     1       9.443   9.617  13.349  1.00  0.00     0.183 C 
HETATM   36  C26 UNL     1       8.076  10.111  12.878  1.00  0.00     0.205 C 
BRANCH  33  37
HETATM   37  C23 UNL     1       7.024   8.728  15.768  1.00  0.00     0.198 C 
BRANCH  37  38
HETATM   38  O4  UNL     1       5.849   7.928  15.878  1.00  0.00    -0.398 OA
HETATM   39  H32 UNL     1       5.251   8.393  16.490  1.00  0.00     0.209 HD
ENDBRANCH  37  38
ENDBRANCH  33  37
BRANCH  34  40
HETATM   40  O5  UNL     1      10.478   8.017  14.808  1.00  0.00    -0.390 OA
HETATM   41  H34 UNL     1      10.959   8.283  15.612  1.00  0.00     0.210 HD
ENDBRANCH  34  40
BRANCH  35  42
HETATM   42  O6  UNL     1      10.322  10.752  13.472  1.00  0.00    -0.390 OA
HETATM   43  H36 UNL     1      10.295  11.168  12.584  1.00  0.00     0.210 HD
ENDBRANCH  35  42
BRANCH  36  44
HETATM   44  O7  UNL     1       8.264  10.803  11.627  1.00  0.00    -0.388 OA
HETATM   45  H38 UNL     1       7.396  11.213  11.419  1.00  0.00     0.210 HD
ENDBRANCH  36  44
ENDBRANCH  30  31
ENDBRANCH  16  30
BRANCH   3  46
HETATM   46  O1  UNL     1      -3.143   7.126  16.794  1.00  0.00    -0.390 OA
HETATM   47  H14 UNL     1      -2.332   6.795  17.223  1.00  0.00     0.210 HD
ENDBRANCH   3  46
BRANCH   1  48
HETATM   48  C4  UNL     1      -6.858   6.187  13.795  1.00  0.00     0.007 C 
HETATM   49  C2  UNL     1      -7.899   5.495  13.279  1.00  0.00    -0.089 C 
HETATM   50  C1  UNL     1      -7.916   4.012  13.028  1.00  0.00     0.042 C 
HETATM   51  C3  UNL     1      -9.188   6.199  12.913  1.00  0.00     0.042 C 
ENDBRANCH   1  48
TORSDOF 9
ENDMDL
MODEL 2
REMARK minimizedAffinity -7.78742456
REMARK CNNscore 0.400279105
REMARK CNNaffinity 6.60951185
REMARK  9 active torsions:
REMARK  status: ('A' for Active; 'I' for Inactive)
REMARK    1  A    between atoms: C4_4  and  C5_5 
REMARK    2  A    between atoms: C7_7  and  O1_9 
REMARK    3  A    between atoms: C20_21  and  O2_22 
REMARK    4  A    between atoms: O2_22  and  C21_23 
REMARK    5  A    between atoms: C22_25  and  C23_26 
REMARK    6  A    between atoms: C23_26  and  O4_27 
REMARK    7  A    between atoms: C24_28  and  O5_29 
REMARK    8  A    between atoms: C25_30  and  O6_31 
REMARK    9  A    between atoms: C26_32  and  O7_33 
ROOT
HETATM    1  C5  UNL     1      -1.830  18.404   8.463  1.00  0.00     0.147 C 
HETATM    2  C6  UNL     1      -2.629  17.202   7.906  1.00  0.00     0.074 C 
HETATM    3  C7  UNL     1      -2.520  17.061   6.375  1.00  0.00     0.064 C 
HETATM    4  C8  UNL     1      -3.423  18.110   5.693  1.00  0.00     0.046 C 
HETATM    5  C9  UNL     1      -1.053  17.258   5.939  1.00  0.00     0.058 C 
HETATM    6  C10 UNL     1      -0.113  17.426   7.145  1.00  0.00     0.131 C 
HETATM    7  C11 UNL     1       1.304  17.505   6.526  1.00  0.00     0.042 C 
HETATM    8  C12 UNL     1       1.148  17.020   5.041  1.00  0.00    -0.029 C 
HETATM    9  C13 UNL     1       1.156  18.317   4.148  1.00  0.00     0.016 C 
HETATM   10  C14 UNL     1       2.246  16.055   4.496  1.00  0.00     0.014 C 
HETATM   11  C15 UNL     1       3.665  16.617   4.685  1.00  0.00     0.034 C 
HETATM   12  C16 UNL     1       4.618  16.465   3.557  1.00  0.00    -0.022 C 
HETATM   13  C17 UNL     1       4.295  16.195   2.281  1.00  0.00    -0.059 C 
HETATM   14  C18 UNL     1       2.836  15.965   1.885  1.00  0.00     0.057 C 
HETATM   15  C19 UNL     1       2.742  15.058   0.654  1.00  0.00     0.024 C 
HETATM   16  C20 UNL     1       3.755  14.563  -0.066  1.00  0.00     0.116 C 
HETATM   17  C27 UNL     1       5.149  14.956   0.274  1.00  0.00     0.194 C 
HETATM   18  O8  UNL     1       6.081  14.325  -0.229  1.00  0.00    -0.289 OA
HETATM   19  C28 UNL     1       5.343  16.204   1.148  1.00  0.00     0.044 C 
HETATM   20  C29 UNL     1       6.815  16.207   1.625  1.00  0.00     0.028 C 
HETATM   21  C30 UNL     1       5.146  17.443   0.246  1.00  0.00     0.028 C 
HETATM   22  C31 UNL     1       1.882  15.455   3.069  1.00  0.00     0.032 C 
HETATM   23  C32 UNL     1       1.993  13.907   3.153  1.00  0.00     0.025 C 
HETATM   24  C33 UNL     1       0.400  15.813   2.654  1.00  0.00     0.137 C 
HETATM   25  O9  UNL     1       0.094  15.985   1.471  1.00  0.00    -0.297 OA
HETATM   26  C34 UNL     1      -0.721  15.979   3.678  1.00  0.00     0.089 C 
HETATM   27  C35 UNL     1      -0.236  16.246   5.092  1.00  0.00    -0.021 C 
HETATM   28  C36 UNL     1      -0.167  14.872   5.849  1.00  0.00     0.017 C 
HETATM   29  O10 UNL     1      -0.515  18.569   7.883  1.00  0.00    -0.376 OA
ENDROOT
BRANCH  16  30
HETATM   30  O2  UNL     1       3.525  13.633  -1.062  1.00  0.00    -0.314 OA
BRANCH  30  31
HETATM   31  C21 UNL     1       4.514  13.625  -2.109  1.00  0.00     0.298 C 
HETATM   32  O3  UNL     1       4.175  14.643  -3.067  1.00  0.00    -0.348 OA
HETATM   33  C22 UNL     1       3.219  14.263  -4.072  1.00  0.00     0.179 C 
HETATM   34  C24 UNL     1       3.736  13.100  -4.943  1.00  0.00     0.180 C 
HETATM   35  C25 UNL     1       4.860  12.322  -4.244  1.00  0.00     0.183 C 
HETATM   36  C26 UNL     1       4.611  12.213  -2.740  1.00  0.00     0.205 C 
BRANCH  33  37
HETATM   37  C23 UNL     1       1.830  13.974  -3.476  1.00  0.00     0.198 C 
BRANCH  37  38
HETATM   38  O4  UNL     1       1.193  12.902  -4.166  1.00  0.00    -0.398 OA
HETATM   39  H32 UNL     1       0.326  12.772  -3.740  1.00  0.00     0.209 HD
ENDBRANCH  37  38
ENDBRANCH  33  37
BRANCH  34  40
HETATM   40  O5  UNL     1       4.277  13.631  -6.169  1.00  0.00    -0.390 OA
HETATM   41  H34 UNL     1       3.723  13.278  -6.888  1.00  0.00     0.210 HD
ENDBRANCH  34  40
BRANCH  35  42
HETATM   42  O6  UNL     1       4.932  10.991  -4.793  1.00  0.00    -0.390 OA
HETATM   43  H36 UNL     1       5.638  10.559  -4.268  1.00  0.00     0.210 HD
ENDBRANCH  35  42
BRANCH  36  44
HETATM   44  O7  UNL     1       5.684  11.438  -2.171  1.00  0.00    -0.388 OA
HETATM   45  H38 UNL     1       5.430  11.281  -1.235  1.00  0.00     0.210 HD
ENDBRANCH  36  44
ENDBRANCH  30  31
ENDBRANCH  16  30
BRANCH   3  46
HETATM   46  O1  UNL     1      -3.034  15.781   6.005  1.00  0.00    -0.390 OA
HETATM   47  H14 UNL     1      -3.286  15.812   5.064  1.00  0.00     0.210 HD
ENDBRANCH   3  46
BRANCH   1  48
HETATM   48  C4  UNL     1      -1.657  18.269   9.954  1.00  0.00     0.007 C 
HETATM   49  C2  UNL     1      -2.570  18.519  10.920  1.00  0.00    -0.089 C 
HETATM   50  C1  UNL     1      -3.973  19.007  10.682  1.00  0.00     0.042 C 
HETATM   51  C3  UNL     1      -2.231  18.300  12.378  1.00  0.00     0.042 C 
ENDBRANCH   1  48
TORSDOF 9
ENDMDL
MODEL 3
REMARK minimizedAffinity -9.27802277
REMARK CNNscore 0.317058265
REMARK CNNaffinity 6.47768354
REMARK  9 active torsions:
REMARK  status: ('A' for Active; 'I' for Inactive)
REMARK    1  A    between atoms: C4_4  and  C5_5 
REMARK    2  A    between atoms: C7_7  and  O1_9 
REMARK    3  A    between atoms: C20_21  and  O2_22 
REMARK    4  A    between atoms: O2_22  and  C21_23 
REMARK    5  A    between atoms: C22_25  and  C23_26 
REMARK    6  A    between atoms: C23_26  and  O4_27 
REMARK    7  A    between atoms: C24_28  and  O5_29 
REMARK    8  A    between atoms: C25_30  and  O6_31 
REMARK    9  A    between atoms: C26_32  and  O7_33 
ROOT
HETATM    1  C5  UNL     1      -5.886   7.859  14.382  1.00  0.00     0.147 C 
HETATM    2  C6  UNL     1      -5.283   6.863  15.401  1.00  0.00     0.074 C 
HETATM    3  C7  UNL     1      -3.794   6.562  15.142  1.00  0.00     0.064 C 
HETATM    4  C8  UNL     1      -3.661   5.587  13.953  1.00  0.00     0.046 C 
HETATM    5  C9  UNL     1      -3.043   7.877  14.839  1.00  0.00     0.058 C 
HETATM    6  C10 UNL     1      -3.957   9.106  14.986  1.00  0.00     0.131 C 
HETATM    7  C11 UNL     1      -3.022  10.317  14.750  1.00  0.00     0.042 C 
HETATM    8  C12 UNL     1      -1.560   9.749  14.835  1.00  0.00    -0.029 C 
HETATM    9  C13 UNL     1      -1.049   9.615  13.352  1.00  0.00     0.016 C 
HETATM   10  C14 UNL     1      -0.519  10.600  15.626  1.00  0.00     0.014 C 
HETATM   11  C15 UNL     1      -0.455  12.055  15.131  1.00  0.00     0.034 C 
HETATM   12  C16 UNL     1       0.887  12.671  14.986  1.00  0.00    -0.022 C 
HETATM   13  C17 UNL     1       2.056  12.012  14.918  1.00  0.00    -0.059 C 
HETATM   14  C18 UNL     1       2.092  10.488  15.039  1.00  0.00     0.057 C 
HETATM   15  C19 UNL     1       3.439  10.017  15.597  1.00  0.00     0.024 C 
HETATM   16  C20 UNL     1       4.503  10.773  15.890  1.00  0.00     0.116 C 
HETATM   17  C27 UNL     1       4.461  12.231  15.597  1.00  0.00     0.194 C 
HETATM   18  O8  UNL     1       5.335  12.956  16.076  1.00  0.00    -0.289 OA
HETATM   19  C28 UNL     1       3.388  12.729  14.617  1.00  0.00     0.044 C 
HETATM   20  C29 UNL     1       3.338  14.271  14.736  1.00  0.00     0.028 C 
HETATM   21  C30 UNL     1       3.868  12.391  13.187  1.00  0.00     0.028 C 
HETATM   22  C31 UNL     1       0.861   9.839  15.838  1.00  0.00     0.032 C 
HETATM   23  C32 UNL     1       1.198   9.863  17.355  1.00  0.00     0.025 C 
HETATM   24  C33 UNL     1       0.762   8.329  15.386  1.00  0.00     0.137 C 
HETATM   25  O9  UNL     1       1.739   7.740  14.915  1.00  0.00    -0.297 OA
HETATM   26  C34 UNL     1      -0.532   7.524  15.491  1.00  0.00     0.089 C 
HETATM   27  C35 UNL     1      -1.785   8.376  15.597  1.00  0.00    -0.021 C 
HETATM   28  C36 UNL     1      -2.130   8.544  17.120  1.00  0.00     0.017 C 
HETATM   29  O10 UNL     1      -5.035   8.987  14.073  1.00  0.00    -0.376 OA
ENDROOT
BRANCH  16  30
HETATM   30  O2  UNL     1       5.599  10.230  16.531  1.00  0.00    -0.314 OA
BRANCH  30  31
HETATM   31  C21 UNL     1       6.702  11.142  16.700  1.00  0.00     0.298 C 
HETATM   32  O3  UNL     1       7.727  10.800  15.750  1.00  0.00    -0.348 OA
HETATM   33  C22 UNL     1       8.629   9.754  16.153  1.00  0.00     0.179 C 
HETATM   34  C24 UNL     1       9.419  10.136  17.421  1.00  0.00     0.180 C 
HETATM   35  C25 UNL     1       8.724  11.257  18.209  1.00  0.00     0.183 C 
HETATM   36  C26 UNL     1       7.204  11.107  18.166  1.00  0.00     0.205 C 
BRANCH  33  37
HETATM   37  C23 UNL     1       7.922   8.395  16.292  1.00  0.00     0.198 C 
BRANCH  37  38
HETATM   38  O4  UNL     1       8.731   7.472  17.016  1.00  0.00    -0.398 OA
HETATM   39  H32 UNL     1       8.226   6.640  17.069  1.00  0.00     0.209 HD
ENDBRANCH  37  38
ENDBRANCH  33  37
BRANCH  34  40
HETATM   40  O5  UNL     1      10.722  10.623  17.040  1.00  0.00    -0.390 OA
HETATM   41  H34 UNL     1      11.368  10.000  17.417  1.00  0.00     0.210 HD
ENDBRANCH  34  40
BRANCH  35  42
HETATM   42  O6  UNL     1       9.149  11.208  19.585  1.00  0.00    -0.390 OA
HETATM   43  H36 UNL     1       8.633  11.921  20.016  1.00  0.00     0.210 HD
ENDBRANCH  35  42
BRANCH  36  44
HETATM   44  O7  UNL     1       6.634  12.167  18.958  1.00  0.00    -0.388 OA
HETATM   45  H38 UNL     1       5.673  11.969  19.013  1.00  0.00     0.210 HD
ENDBRANCH  36  44
ENDBRANCH  30  31
ENDBRANCH  16  30
BRANCH   3  46
HETATM   46  O1  UNL     1      -3.268   5.884  16.283  1.00  0.00    -0.390 OA
HETATM   47  H14 UNL     1      -2.466   5.400  16.010  1.00  0.00     0.210 HD
ENDBRANCH   3  46
BRANCH   1  48
HETATM   48  C4  UNL     1      -7.195   8.402  14.897  1.00  0.00     0.007 C 
HETATM   49  C2  UNL     1      -8.408   7.805  14.870  1.00  0.00    -0.089 C 
HETATM   50  C1  UNL     1      -8.693   6.447  14.288  1.00  0.00     0.042 C 
HETATM   51  C3  UNL     1      -9.619   8.489  15.463  1.00  0.00     0.042 C 
ENDBRANCH   1  48
TORSDOF 9
ENDMDL
MODEL 4
REMARK minimizedAffinity -8.31623077
REMARK CNNscore 0.316759348
REMARK CNNaffinity 7.166327
REMARK  9 active torsions:
REMARK  status: ('A' for Active; 'I' for Inactive)
REMARK    1  A    between atoms: C4_4  and  C5_5 
REMARK    2  A    between atoms: C7_7  and  O1_9 
REMARK    3  A    between atoms: C20_21  and  O2_22 
REMARK    4  A    between atoms: O2_22  and  C21_23 
REMARK    5  A    between atoms: C22_25  and  C23_26 
REMARK    6  A    between atoms: C23_26  and  O4_27 
REMARK    7  A    between atoms: C24_28  and  O5_29 
REMARK    8  A    between atoms: C25_30  and  O6_31 
REMARK    9  A    between atoms: C26_32  and  O7_33 
ROOT
HETATM    1  C5  UNL     1      -0.233  13.815  18.321  1.00  0.00     0.147 C 
HETATM    2  C6  UNL     1       0.704  13.450  17.145  1.00  0.00     0.074 C 
HETATM    3  C7  UNL     1       0.722  11.941  16.833  1.00  0.00     0.064 C 
HETATM    4  C8  UNL     1       1.582  11.205  17.882  1.00  0.00     0.046 C 
HETATM    5  C9  UNL     1      -0.721  11.390  16.847  1.00  0.00     0.058 C 
HETATM    6  C10 UNL     1      -1.759  12.506  17.055  1.00  0.00     0.131 C 
HETATM    7  C11 UNL     1      -3.127  11.792  16.938  1.00  0.00     0.042 C 
HETATM    8  C12 UNL     1      -2.820  10.383  16.315  1.00  0.00    -0.029 C 
HETATM    9  C13 UNL     1      -2.870   9.352  17.504  1.00  0.00     0.016 C 
HETATM   10  C14 UNL     1      -3.789   9.880  15.201  1.00  0.00     0.014 C 
HETATM   11  C15 UNL     1      -5.261   9.911  15.647  1.00  0.00     0.034 C 
HETATM   12  C16 UNL     1      -6.110   8.748  15.290  1.00  0.00    -0.022 C 
HETATM   13  C17 UNL     1      -5.672   7.534  14.917  1.00  0.00    -0.059 C 
HETATM   14  C18 UNL     1      -4.173   7.262  14.781  1.00  0.00     0.057 C 
HETATM   15  C19 UNL     1      -3.912   6.149  13.762  1.00  0.00     0.024 C 
HETATM   16  C20 UNL     1      -4.823   5.425  13.102  1.00  0.00     0.116 C 
HETATM   17  C27 UNL     1      -6.266   5.628  13.399  1.00  0.00     0.194 C 
HETATM   18  O8  UNL     1      -7.102   5.139  12.636  1.00  0.00    -0.289 OA
HETATM   19  C28 UNL     1      -6.629   6.342  14.710  1.00  0.00     0.044 C 
HETATM   20  C29 UNL     1      -8.128   6.718  14.628  1.00  0.00     0.028 C 
HETATM   21  C30 UNL     1      -6.470   5.321  15.859  1.00  0.00     0.028 C 
HETATM   22  C31 UNL     1      -3.270   8.555  14.489  1.00  0.00     0.032 C 
HETATM   23  C32 UNL     1      -3.258   8.805  12.955  1.00  0.00     0.025 C 
HETATM   24  C33 UNL     1      -1.798   8.200  14.936  1.00  0.00     0.137 C 
HETATM   25  O9  UNL     1      -1.420   7.028  15.009  1.00  0.00    -0.297 OA
HETATM   26  C34 UNL     1      -0.773   9.270  15.311  1.00  0.00     0.089 C 
HETATM   27  C35 UNL     1      -1.384  10.611  15.680  1.00  0.00    -0.021 C 
HETATM   28  C36 UNL     1      -1.393  11.511  14.394  1.00  0.00     0.017 C 
HETATM   29  O10 UNL     1      -1.510  13.136  18.302  1.00  0.00    -0.376 OA
ENDROOT
BRANCH  16  30
HETATM   30  O2  UNL     1      -4.441   4.557  12.097  1.00  0.00    -0.314 OA
BRANCH  30  31
HETATM   31  C21 UNL     1      -3.608   3.467  12.537  1.00  0.00     0.298 C 
HETATM   32  O3  UNL     1      -2.377   4.009  13.046  1.00  0.00    -0.348 OA
HETATM   33  C22 UNL     1      -1.364   4.288  12.064  1.00  0.00     0.179 C 
HETATM   34  C24 UNL     1      -0.920   3.012  11.320  1.00  0.00     0.180 C 
HETATM   35  C25 UNL     1      -1.971   1.896  11.427  1.00  0.00     0.183 C 
HETATM   36  C26 UNL     1      -3.390   2.461  11.378  1.00  0.00     0.205 C 
BRANCH  33  37
HETATM   37  C23 UNL     1      -1.779   5.412  11.099  1.00  0.00     0.198 C 
BRANCH  37  38
HETATM   38  O4  UNL     1      -0.717   6.344  10.916  1.00  0.00    -0.398 OA
HETATM   39  H32 UNL     1      -1.044   7.022  10.298  1.00  0.00     0.209 HD
ENDBRANCH  37  38
ENDBRANCH  33  37
BRANCH  34  40
HETATM   40  O5  UNL     1       0.297   2.515  11.913  1.00  0.00    -0.390 OA
HETATM   41  H34 UNL     1       0.980   2.568  11.221  1.00  0.00     0.210 HD
ENDBRANCH  34  40
BRANCH  35  42
HETATM   42  O6  UNL     1      -1.806   0.978  10.330  1.00  0.00    -0.390 OA
HETATM   43  H36 UNL     1      -2.533   0.331  10.453  1.00  0.00     0.210 HD
ENDBRANCH  35  42
BRANCH  36  44
HETATM   44  O7  UNL     1      -4.308   1.352  11.442  1.00  0.00    -0.388 OA
HETATM   45  H38 UNL     1      -5.198   1.736  11.282  1.00  0.00     0.210 HD
ENDBRANCH  36  44
ENDBRANCH  30  31
ENDBRANCH  16  30
BRANCH   3  46
HETATM   46  O1  UNL     1       1.367  11.751  15.574  1.00  0.00    -0.390 OA
HETATM   47  H14 UNL     1       1.686  10.830  15.528  1.00  0.00     0.210 HD
ENDBRANCH   3  46
BRANCH   1  48
HETATM   48  C4  UNL     1      -0.505  15.298  18.329  1.00  0.00     0.007 C 
HETATM   49  C2  UNL     1      -0.959  16.063  17.311  1.00  0.00    -0.089 C 
HETATM   50  C1  UNL     1      -1.276  15.566  15.927  1.00  0.00     0.042 C 
HETATM   51  C3  UNL     1      -1.204  17.543  17.507  1.00  0.00     0.042 C 
ENDBRANCH   1  48
TORSDOF 9
ENDMDL
MODEL 5
REMARK minimizedAffinity -7.49462557
REMARK CNNscore 0.275454253
REMARK CNNaffinity 6.22976828
REMARK  9 active torsions:
REMARK  status: ('A' for Active; 'I' for Inactive)
REMARK    1  A    between atoms: C4_4  and  C5_5 
REMARK    2  A    between atoms: C7_7  and  O1_9 
REMARK    3  A    between atoms: C20_21  and  O2_22 
REMARK    4  A    between atoms: O2_22  and  C21_23 
REMARK    5  A    between atoms: C22_25  and  C23_26 
REMARK    6  A    between atoms: C23_26  and  O4_27 
REMARK    7  A    between atoms: C24_28  and  O5_29 
REMARK    8  A    between atoms: C25_30  and  O6_31 
REMARK    9  A    between atoms: C26_32  and  O7_33 
ROOT
HETATM    1  C5  UNL     1     -12.280  -8.361  -1.863  1.00  0.00     0.147 C 
HETATM    2  C6  UNL     1     -10.949  -9.148  -1.906  1.00  0.00     0.074 C 
HETATM    3  C7  UNL     1     -10.020  -8.828  -0.718  1.00  0.00     0.064 C 
HETATM    4  C8  UNL     1      -9.340  -7.462  -0.945  1.00  0.00     0.046 C 
HETATM    5  C9  UNL     1     -10.839  -8.805   0.590  1.00  0.00     0.058 C 
HETATM    6  C10 UNL     1     -12.305  -9.208   0.357  1.00  0.00     0.131 C 
HETATM    7  C11 UNL     1     -12.934  -9.227   1.771  1.00  0.00     0.042 C 
HETATM    8  C12 UNL     1     -11.726  -9.188   2.775  1.00  0.00    -0.029 C 
HETATM    9  C13 UNL     1     -11.637  -7.708   3.305  1.00  0.00     0.016 C 
HETATM   10  C14 UNL     1     -11.807 -10.138   4.010  1.00  0.00     0.014 C 
HETATM   11  C15 UNL     1     -13.113  -9.957   4.803  1.00  0.00     0.034 C 
HETATM   12  C16 UNL     1     -13.018  -9.941   6.283  1.00  0.00    -0.022 C 
HETATM   13  C17 UNL     1     -11.902  -9.733   7.002  1.00  0.00    -0.059 C 
HETATM   14  C18 UNL     1     -10.558  -9.533   6.301  1.00  0.00     0.057 C 
HETATM   15  C19 UNL     1      -9.402  -9.978   7.203  1.00  0.00     0.024 C 
HETATM   16  C20 UNL     1      -9.481 -10.419   8.463  1.00  0.00     0.116 C 
HETATM   17  C27 UNL     1     -10.804 -10.438   9.144  1.00  0.00     0.194 C 
HETATM   18  O8  UNL     1     -10.914 -11.056  10.206  1.00  0.00    -0.289 OA
HETATM   19  C28 UNL     1     -11.928  -9.586   8.538  1.00  0.00     0.044 C 
HETATM   20  C29 UNL     1     -13.251 -10.024   9.211  1.00  0.00     0.028 C 
HETATM   21  C30 UNL     1     -11.670  -8.116   8.939  1.00  0.00     0.028 C 
HETATM   22  C31 UNL     1     -10.450 -10.182   4.838  1.00  0.00     0.032 C 
HETATM   23  C32 UNL     1     -10.028 -11.670   4.994  1.00  0.00     0.025 C 
HETATM   24  C33 UNL     1      -9.288  -9.425   4.082  1.00  0.00     0.137 C 
HETATM   25  O9  UNL     1      -8.398  -8.839   4.706  1.00  0.00    -0.297 OA
HETATM   26  C34 UNL     1      -9.204  -9.363   2.558  1.00  0.00     0.089 C 
HETATM   27  C35 UNL     1     -10.519  -9.648   1.853  1.00  0.00    -0.021 C 
HETATM   28  C36 UNL     1     -10.549 -11.172   1.480  1.00  0.00     0.017 C 
HETATM   29  O10 UNL     1     -12.892  -8.292  -0.554  1.00  0.00    -0.376 OA
ENDROOT
BRANCH  16  30
HETATM   30  O2  UNL     1      -8.369 -10.931   9.104  1.00  0.00    -0.314 OA
BRANCH  30  31
HETATM   31  C21 UNL     1      -7.235 -10.042   9.128  1.00  0.00     0.298 C 
HETATM   32  O3  UNL     1      -6.059 -10.810   9.437  1.00  0.00    -0.348 OA
HETATM   33  C22 UNL     1      -5.812 -11.041  10.834  1.00  0.00     0.179 C 
HETATM   34  C24 UNL     1      -5.598  -9.722  11.604  1.00  0.00     0.180 C 
HETATM   35  C25 UNL     1      -6.182  -8.520  10.846  1.00  0.00     0.183 C 
HETATM   36  C26 UNL     1      -7.482  -8.889  10.133  1.00  0.00     0.205 C 
BRANCH  33  37
HETATM   37  C23 UNL     1      -6.893 -11.925  11.480  1.00  0.00     0.198 C 
BRANCH  37  38
HETATM   38  O4  UNL     1      -6.406 -12.536  12.672  1.00  0.00    -0.398 OA
HETATM   39  H32 UNL     1      -7.136 -13.075  13.028  1.00  0.00     0.209 HD
ENDBRANCH  37  38
ENDBRANCH  33  37
BRANCH  34  40
HETATM   40  O5  UNL     1      -4.184  -9.487  11.759  1.00  0.00    -0.390 OA
HETATM   41  H34 UNL     1      -4.007  -9.505  12.717  1.00  0.00     0.210 HD
ENDBRANCH  34  40
BRANCH  35  42
HETATM   42  O6  UNL     1      -6.457  -7.456  11.777  1.00  0.00    -0.390 OA
HETATM   43  H36 UNL     1      -6.859  -6.755  11.221  1.00  0.00     0.210 HD
ENDBRANCH  35  42
BRANCH  36  44
HETATM   44  O7  UNL     1      -7.982  -7.703   9.485  1.00  0.00    -0.388 OA
HETATM   45  H38 UNL     1      -8.873  -7.941   9.148  1.00  0.00     0.210 HD
ENDBRANCH  36  44
ENDBRANCH  30  31
ENDBRANCH  16  30
BRANCH   3  46
HETATM   46  O1  UNL     1      -8.975  -9.802  -0.691  1.00  0.00    -0.390 OA
HETATM   47  H14 UNL     1      -8.224  -9.432  -0.191  1.00  0.00     0.210 HD
ENDBRANCH   3  46
BRANCH   1  48
HETATM   48  C4  UNL     1     -13.282  -8.981  -2.803  1.00  0.00     0.007 C 
HETATM   49  C2  UNL     1     -13.832  -8.431  -3.908  1.00  0.00    -0.089 C 
HETATM   50  C1  UNL     1     -13.551  -7.044  -4.418  1.00  0.00     0.042 C 
HETATM   51  C3  UNL     1     -14.808  -9.215  -4.758  1.00  0.00     0.042 C 
ENDBRANCH   1  48
TORSDOF 9
ENDMDL
MODEL 6
REMARK minimizedAffinity -8.58683491
REMARK CNNscore 0.274653614
REMARK CNNaffinity 6.45994616
REMARK  9 active torsions:
REMARK  status: ('A' for Active; 'I' for Inactive)
REMARK    1  A    between atoms: C4_4  and  C5_5 
REMARK    2  A    between atoms: C7_7  and  O1_9 
REMARK    3  A    between atoms: C20_21  and  O2_22 
REMARK    4  A    between atoms: O2_22  and  C21_23 
REMARK    5  A    between atoms: C22_25  and  C23_26 
REMARK    6  A    between atoms: C23_26  and  O4_27 
REMARK    7  A    between atoms: C24_28  and  O5_29 
REMARK    8  A    between atoms: C25_30  and  O6_31 
REMARK    9  A    between atoms: C26_32  and  O7_33 
ROOT
HETATM    1  C5  UNL     1       4.092   7.777  10.399  1.00  0.00     0.147 C 
HETATM    2  C6  UNL     1       4.557   6.664  11.368  1.00  0.00     0.074 C 
HETATM    3  C7  UNL     1       6.028   6.819  11.803  1.00  0.00     0.064 C 
HETATM    4  C8  UNL     1       6.957   6.356  10.661  1.00  0.00     0.046 C 
HETATM    5  C9  UNL     1       6.313   8.294  12.157  1.00  0.00     0.058 C 
HETATM    6  C10 UNL     1       5.043   9.158  12.082  1.00  0.00     0.131 C 
HETATM    7  C11 UNL     1       5.496  10.559  12.561  1.00  0.00     0.042 C 
HETATM    8  C12 UNL     1       6.903  10.348  13.226  1.00  0.00    -0.029 C 
HETATM    9  C13 UNL     1       7.968  10.838  12.175  1.00  0.00     0.016 C 
HETATM   10  C14 UNL     1       7.168  11.100  14.566  1.00  0.00     0.014 C 
HETATM   11  C15 UNL     1       6.898  12.610  14.453  1.00  0.00     0.034 C 
HETATM   12  C16 UNL     1       7.872  13.529  15.092  1.00  0.00    -0.022 C 
HETATM   13  C17 UNL     1       9.124  13.218  15.467  1.00  0.00    -0.059 C 
HETATM   14  C18 UNL     1       9.651  11.793  15.294  1.00  0.00     0.057 C 
HETATM   15  C19 UNL     1      10.739  11.486  16.328  1.00  0.00     0.024 C 
HETATM   16  C20 UNL     1      11.255  12.323  17.234  1.00  0.00     0.116 C 
HETATM   17  C27 UNL     1      10.814  13.744  17.244  1.00  0.00     0.194 C 
HETATM   18  O8  UNL     1      11.107  14.447  18.214  1.00  0.00    -0.289 OA
HETATM   19  C28 UNL     1      10.115  14.281  15.987  1.00  0.00     0.044 C 
HETATM   20  C29 UNL     1       9.474  15.639  16.362  1.00  0.00     0.028 C 
HETATM   21  C30 UNL     1      11.205  14.560  14.928  1.00  0.00     0.028 C 
HETATM   22  C31 UNL     1       8.526  10.650  15.263  1.00  0.00     0.032 C 
HETATM   23  C32 UNL     1       8.204  10.242  16.728  1.00  0.00     0.025 C 
HETATM   24  C33 UNL     1       9.159   9.399  14.537  1.00  0.00     0.137 C 
HETATM   25  O9  UNL     1      10.382   9.243  14.489  1.00  0.00    -0.297 OA
HETATM   26  C34 UNL     1       8.309   8.331  13.851  1.00  0.00     0.089 C 
HETATM   27  C35 UNL     1       6.902   8.786  13.506  1.00  0.00    -0.021 C 
HETATM   28  C36 UNL     1       5.950   8.351  14.676  1.00  0.00     0.017 C 
HETATM   29  O10 UNL     1       4.532   9.107  10.759  1.00  0.00    -0.376 OA
ENDROOT
BRANCH  16  30
HETATM   30  O2  UNL     1      12.125  11.864  18.204  1.00  0.00    -0.314 OA
BRANCH  30  31
HETATM   31  C21 UNL     1      13.139  12.812  18.590  1.00  0.00     0.298 C 
HETATM   32  O3  UNL     1      13.729  13.362  17.399  1.00  0.00    -0.348 OA
HETATM   33  C22 UNL     1      14.786  12.586  16.809  1.00  0.00     0.179 C 
HETATM   34  C24 UNL     1      15.983  12.426  17.768  1.00  0.00     0.180 C 
HETATM   35  C25 UNL     1      15.579  12.672  19.229  1.00  0.00     0.183 C 
HETATM   36  C26 UNL     1      14.179  12.132  19.518  1.00  0.00     0.205 C 
BRANCH  33  37
HETATM   37  C23 UNL     1      14.287  11.235  16.268  1.00  0.00     0.198 C 
BRANCH  37  38
HETATM   38  O4  UNL     1      15.365  10.468  15.739  1.00  0.00    -0.398 OA
HETATM   39  H32 UNL     1      14.981   9.631  15.419  1.00  0.00     0.209 HD
ENDBRANCH  37  38
ENDBRANCH  33  37
BRANCH  34  40
HETATM   40  O5  UNL     1      16.994  13.398  17.431  1.00  0.00    -0.390 OA
HETATM   41  H34 UNL     1      17.777  12.892  17.151  1.00  0.00     0.210 HD
ENDBRANCH  34  40
BRANCH  35  42
HETATM   42  O6  UNL     1      16.514  12.008  20.102  1.00  0.00    -0.390 OA
HETATM   43  H36 UNL     1      16.161  12.182  21.000  1.00  0.00     0.210 HD
ENDBRANCH  35  42
BRANCH  36  44
HETATM   44  O7  UNL     1      13.895  12.366  20.912  1.00  0.00    -0.388 OA
HETATM   45  H38 UNL     1      13.050  11.898  21.091  1.00  0.00     0.210 HD
ENDBRANCH  36  44
ENDBRANCH  30  31
ENDBRANCH  16  30
BRANCH   3  46
HETATM   46  O1  UNL     1       6.265   5.938  12.901  1.00  0.00    -0.390 OA
HETATM   47  H14 UNL     1       7.225   5.771  12.959  1.00  0.00     0.210 HD
ENDBRANCH   3  46
BRANCH   1  48
HETATM   48  C4  UNL     1       2.587   7.800  10.317  1.00  0.00     0.007 C 
HETATM   49  C2  UNL     1       1.820   7.972   9.217  1.00  0.00    -0.089 C 
HETATM   50  C1  UNL     1       2.339   8.195   7.823  1.00  0.00     0.042 C 
HETATM   51  C3  UNL     1       0.310   7.938   9.315  1.00  0.00     0.042 C 
ENDBRANCH   1  48
TORSDOF 9
ENDMDL
MODEL 7
REMARK minimizedAffinity -9.17606544
REMARK CNNscore 0.2579391
REMARK CNNaffinity 6.56898117
REMARK  9 active torsions:
REMARK  status: ('A' for Active; 'I' for Inactive)
REMARK    1  A    between atoms: C4_4  and  C5_5 
REMARK    2  A    between atoms: C7_7  and  O1_9 
REMARK    3  A    between atoms: C20_21  and  O2_22 
REMARK    4  A    between atoms: O2_22  and  C21_23 
REMARK    5  A    between atoms: C22_25  and  C23_26 
REMARK    6  A    between atoms: C23_26  and  O4_27 
REMARK    7  A    between atoms: C24_28  and  O5_29 
REMARK    8  A    between atoms: C25_30  and  O6_31 
REMARK    9  A    between atoms: C26_32  and  O7_33 
ROOT
HETATM    1  C5  UNL     1      -5.517   7.012  13.647  1.00  0.00     0.147 C 
HETATM    2  C6  UNL     1      -4.835   5.976  14.572  1.00  0.00     0.074 C 
HETATM    3  C7  UNL     1      -3.321   5.845  14.317  1.00  0.00     0.064 C 
HETATM    4  C8  UNL     1      -3.080   5.015  13.039  1.00  0.00     0.046 C 
HETATM    5  C9  UNL     1      -2.695   7.248  14.167  1.00  0.00     0.058 C 
HETATM    6  C10 UNL     1      -3.724   8.365  14.418  1.00  0.00     0.131 C 
HETATM    7  C11 UNL     1      -2.905   9.675  14.328  1.00  0.00     0.042 C 
HETATM    8  C12 UNL     1      -1.397   9.241  14.388  1.00  0.00    -0.029 C 
HETATM    9  C13 UNL     1      -0.857   9.310  12.910  1.00  0.00     0.016 C 
HETATM   10  C14 UNL     1      -0.453  10.099  15.285  1.00  0.00     0.014 C 
HETATM   11  C15 UNL     1      -0.521  11.597  14.942  1.00  0.00     0.034 C 
HETATM   12  C16 UNL     1       0.758  12.347  14.892  1.00  0.00    -0.022 C 
HETATM   13  C17 UNL     1       1.985  11.811  14.783  1.00  0.00    -0.059 C 
HETATM   14  C18 UNL     1       2.165  10.292  14.749  1.00  0.00     0.057 C 
HETATM   15  C19 UNL     1       3.543   9.895  15.287  1.00  0.00     0.024 C 
HETATM   16  C20 UNL     1       4.526  10.712  15.679  1.00  0.00     0.116 C 
HETATM   17  C27 UNL     1       4.349  12.182  15.536  1.00  0.00     0.194 C 
HETATM   18  O8  UNL     1       5.144  12.932  16.106  1.00  0.00    -0.289 OA
HETATM   19  C28 UNL     1       3.247  12.677  14.587  1.00  0.00     0.044 C 
HETATM   20  C29 UNL     1       3.048  14.187  14.862  1.00  0.00     0.028 C 
HETATM   21  C30 UNL     1       3.775  12.535  13.142  1.00  0.00     0.028 C 
HETATM   22  C31 UNL     1       0.991   9.453  15.449  1.00  0.00     0.032 C 
HETATM   23  C32 UNL     1       1.305   9.350  16.968  1.00  0.00     0.025 C 
HETATM   24  C33 UNL     1       1.042   7.995  14.843  1.00  0.00     0.137 C 
HETATM   25  O9  UNL     1       2.077   7.552  14.337  1.00  0.00    -0.297 OA
HETATM   26  C34 UNL     1      -0.171   7.066  14.836  1.00  0.00     0.089 C 
HETATM   27  C35 UNL     1      -1.500   7.781  15.001  1.00  0.00    -0.021 C 
HETATM   28  C36 UNL     1      -1.879   7.757  16.524  1.00  0.00     0.017 C 
HETATM   29  O10 UNL     1      -4.774   8.241  13.473  1.00  0.00    -0.376 OA
ENDROOT
BRANCH  16  30
HETATM   30  O2  UNL     1       5.661  10.211  16.286  1.00  0.00    -0.314 OA
BRANCH  30  31
HETATM   31  C21 UNL     1       6.338   9.188  15.530  1.00  0.00     0.298 C 
HETATM   32  O3  UNL     1       7.171   8.432  16.427  1.00  0.00    -0.348 OA
HETATM   33  C22 UNL     1       8.470   8.989  16.694  1.00  0.00     0.179 C 
HETATM   34  C24 UNL     1       9.320   9.098  15.411  1.00  0.00     0.180 C 
HETATM   35  C25 UNL     1       8.449   9.076  14.147  1.00  0.00     0.183 C 
HETATM   36  C26 UNL     1       7.135   9.826  14.363  1.00  0.00     0.205 C 
BRANCH  33  37
HETATM   37  C23 UNL     1       8.388  10.323  17.455  1.00  0.00     0.198 C 
BRANCH  37  38
HETATM   38  O4  UNL     1       7.468  10.235  18.540  1.00  0.00    -0.398 OA
HETATM   39  H32 UNL     1       7.467  11.105  18.977  1.00  0.00     0.209 HD
ENDBRANCH  37  38
ENDBRANCH  33  37
BRANCH  34  40
HETATM   40  O5  UNL     1      10.214   7.969  15.338  1.00  0.00    -0.390 OA
HETATM   41  H34 UNL     1      11.117   8.331  15.381  1.00  0.00     0.210 HD
ENDBRANCH  34  40
BRANCH  35  42
HETATM   42  O6  UNL     1       9.161   9.706  13.065  1.00  0.00    -0.390 OA
HETATM   43  H36 UNL     1       8.524   9.685  12.320  1.00  0.00     0.210 HD
ENDBRANCH  35  42
BRANCH  36  44
HETATM   44  O7  UNL     1       6.399   9.794  13.124  1.00  0.00    -0.388 OA
HETATM   45  H38 UNL     1       5.628  10.386  13.259  1.00  0.00     0.210 HD
ENDBRANCH  36  44
ENDBRANCH  30  31
ENDBRANCH  16  30
BRANCH   3  46
HETATM   46  O1  UNL     1      -2.748   5.104  15.395  1.00  0.00    -0.390 OA
HETATM   47  H14 UNL     1      -1.900   4.728  15.093  1.00  0.00     0.210 HD
ENDBRANCH   3  46
BRANCH   1  48
HETATM   48  C4  UNL     1      -6.878   7.374  14.185  1.00  0.00     0.007 C 
HETATM   49  C2  UNL     1      -7.472   6.920  15.312  1.00  0.00    -0.089 C 
HETATM   50  C1  UNL     1      -6.872   5.924  16.267  1.00  0.00     0.042 C 
HETATM   51  C3  UNL     1      -8.842   7.416  15.718  1.00  0.00     0.042 C 
ENDBRANCH   1  48
TORSDOF 9
ENDMDL
MODEL 8
REMARK minimizedAffinity -8.24960232
REMARK CNNscore 0.255866498
REMARK CNNaffinity 6.34977531
REMARK  9 active torsions:
REMARK  status: ('A' for Active; 'I' for Inactive)
REMARK    1  A    between atoms: C4_4  and  C5_5 
REMARK    2  A    between atoms: C7_7  and  O1_9 
REMARK    3  A    between atoms: C20_21  and  O2_22 
REMARK    4  A    between atoms: O2_22  and  C21_23 
REMARK    5  A    between atoms: C22_25  and  C23_26 
REMARK    6  A    between atoms: C23_26  and  O4_27 
REMARK    7  A    between atoms: C24_28  and  O5_29 
REMARK    8  A    between atoms: C25_30  and  O6_31 
REMARK    9  A    between atoms: C26_32  and  O7_33 
ROOT
HETATM    1  C5  UNL     1       4.049   7.776  10.169  1.00  0.00     0.147 C 
HETATM    2  C6  UNL     1       4.444   6.795  11.299  1.00  0.00     0.074 C 
HETATM    3  C7  UNL     1       5.929   6.900  11.697  1.00  0.00     0.064 C 
HETATM    4  C8  UNL     1       6.800   6.192  10.638  1.00  0.00     0.046 C 
HETATM    5  C9  UNL     1       6.333   8.385  11.813  1.00  0.00     0.058 C 
HETATM    6  C10 UNL     1       5.132   9.324  11.609  1.00  0.00     0.131 C 
HETATM    7  C11 UNL     1       5.699  10.742  11.859  1.00  0.00     0.042 C 
HETATM    8  C12 UNL     1       7.097  10.528  12.542  1.00  0.00    -0.029 C 
HETATM    9  C13 UNL     1       8.179  10.762  11.422  1.00  0.00     0.016 C 
HETATM   10  C14 UNL     1       7.443  11.457  13.746  1.00  0.00     0.014 C 
HETATM   11  C15 UNL     1       7.288  12.948  13.398  1.00  0.00     0.034 C 
HETATM   12  C16 UNL     1       8.340  13.876  13.880  1.00  0.00    -0.022 C 
HETATM   13  C17 UNL     1       9.571  13.530  14.293  1.00  0.00    -0.059 C 
HETATM   14  C18 UNL     1       9.984  12.059  14.344  1.00  0.00     0.057 C 
HETATM   15  C19 UNL     1      11.063  11.832  15.408  1.00  0.00     0.024 C 
HETATM   16  C20 UNL     1      11.657  12.758  16.169  1.00  0.00     0.116 C 
HETATM   17  C27 UNL     1      11.327  14.193  15.957  1.00  0.00     0.194 C 
HETATM   18  O8  UNL     1      11.689  15.014  16.802  1.00  0.00    -0.289 OA
HETATM   19  C28 UNL     1      10.649  14.580  14.634  1.00  0.00     0.044 C 
HETATM   20  C29 UNL     1      10.122  16.026  14.793  1.00  0.00     0.028 C 
HETATM   21  C30 UNL     1      11.740  14.603  13.539  1.00  0.00     0.028 C 
HETATM   22  C31 UNL     1       8.773  11.017  14.498  1.00  0.00     0.032 C 
HETATM   23  C32 UNL     1       8.447  10.870  16.011  1.00  0.00     0.025 C 
HETATM   24  C33 UNL     1       9.296   9.622  13.976  1.00  0.00     0.137 C 
HETATM   25  O9  UNL     1      10.503   9.364  13.947  1.00  0.00    -0.297 OA
HETATM   26  C34 UNL     1       8.355   8.530  13.471  1.00  0.00     0.089 C 
HETATM   27  C35 UNL     1       6.981   9.034  13.065  1.00  0.00    -0.021 C 
HETATM   28  C36 UNL     1       6.018   8.864  14.293  1.00  0.00     0.017 C 
HETATM   29  O10 UNL     1       4.596   9.107  10.313  1.00  0.00    -0.376 OA
ENDROOT
BRANCH  16  30
HETATM   30  O2  UNL     1      12.505  12.390  17.195  1.00  0.00    -0.314 OA
BRANCH  30  31
HETATM   31  C21 UNL     1      13.724  11.757  16.761  1.00  0.00     0.298 C 
HETATM   32  O3  UNL     1      14.324  11.097  17.890  1.00  0.00    -0.348 OA
HETATM   33  C22 UNL     1      15.143  11.923  18.736  1.00  0.00     0.179 C 
HETATM   34  C24 UNL     1      16.349  12.506  17.972  1.00  0.00     0.180 C 
HETATM   35  C25 UNL     1      16.121  12.494  16.453  1.00  0.00     0.183 C 
HETATM   36  C26 UNL     1      14.664  12.801  16.106  1.00  0.00     0.205 C 
BRANCH  33  37
HETATM   37  C23 UNL     1      14.327  13.010  19.456  1.00  0.00     0.198 C 
BRANCH  37  38
HETATM   38  O4  UNL     1      13.524  12.445  20.489  1.00  0.00    -0.398 OA
HETATM   39  H32 UNL     1      13.040  13.182  20.902  1.00  0.00     0.209 HD
ENDBRANCH  37  38
ENDBRANCH  33  37
BRANCH  34  40
HETATM   40  O5  UNL     1      17.514  11.698  18.238  1.00  0.00    -0.390 OA
HETATM   41  H34 UNL     1      18.148  12.277  18.698  1.00  0.00     0.210 HD
ENDBRANCH  34  40
BRANCH  35  42
HETATM   42  O6  UNL     1      16.958  13.491  15.836  1.00  0.00    -0.390 OA
HETATM   43  H36 UNL     1      16.720  13.443  14.886  1.00  0.00     0.210 HD
ENDBRANCH  35  42
BRANCH  36  44
HETATM   44  O7  UNL     1      14.546  12.811  14.670  1.00  0.00    -0.388 OA
HETATM   45  H38 UNL     1      13.637  13.133  14.482  1.00  0.00     0.210 HD
ENDBRANCH  36  44
ENDBRANCH  30  31
ENDBRANCH  16  30
BRANCH   3  46
HETATM   46  O1  UNL     1       6.117   6.186  12.919  1.00  0.00    -0.390 OA
HETATM   47  H14 UNL     1       7.061   5.955  12.998  1.00  0.00     0.210 HD
ENDBRANCH   3  46
BRANCH   1  48
HETATM   48  C4  UNL     1       2.549   7.904  10.091  1.00  0.00     0.007 C 
HETATM   49  C2  UNL     1       1.774   7.907   8.984  1.00  0.00    -0.089 C 
HETATM   50  C1  UNL     1       2.279   7.794   7.571  1.00  0.00     0.042 C 
HETATM   51  C3  UNL     1       0.269   8.017   9.094  1.00  0.00     0.042 C 
ENDBRANCH   1  48
TORSDOF 9
ENDMDL
MODEL 9
REMARK minimizedAffinity -7.76781416
REMARK CNNscore 0.248943999
REMARK CNNaffinity 6.68161535
REMARK  9 active torsions:
REMARK  status: ('A' for Active; 'I' for Inactive)
REMARK    1  A    between atoms: C4_4  and  C5_5 
REMARK    2  A    between atoms: C7_7  and  O1_9 
REMARK    3  A    between atoms: C20_21  and  O2_22 
REMARK    4  A    between atoms: O2_22  and  C21_23 
REMARK    5  A    between atoms: C22_25  and  C23_26 
REMARK    6  A    between atoms: C23_26  and  O4_27 
REMARK    7  A    between atoms: C24_28  and  O5_29 
REMARK    8  A    between atoms: C25_30  and  O6_31 
REMARK    9  A    between atoms: C26_32  and  O7_33 
ROOT
HETATM    1  C5  UNL     1      -4.335   3.847  11.782  1.00  0.00     0.147 C 
HETATM    2  C6  UNL     1      -2.969   3.365  12.324  1.00  0.00     0.074 C 
HETATM    3  C7  UNL     1      -1.855   4.421  12.178  1.00  0.00     0.064 C 
HETATM    4  C8  UNL     1      -1.374   4.467  10.713  1.00  0.00     0.046 C 
HETATM    5  C9  UNL     1      -2.391   5.804  12.607  1.00  0.00     0.058 C 
HETATM    6  C10 UNL     1      -3.827   5.719  13.153  1.00  0.00     0.131 C 
HETATM    7  C11 UNL     1      -4.151   7.158  13.621  1.00  0.00     0.042 C 
HETATM    8  C12 UNL     1      -2.776   7.915  13.656  1.00  0.00    -0.029 C 
HETATM    9  C13 UNL     1      -2.729   8.809  12.361  1.00  0.00     0.016 C 
HETATM   10  C14 UNL     1      -2.510   8.837  14.886  1.00  0.00     0.014 C 
HETATM   11  C15 UNL     1      -3.640   9.857  15.108  1.00  0.00     0.034 C 
HETATM   12  C16 UNL     1      -3.250  11.247  15.451  1.00  0.00    -0.022 C 
HETATM   13  C17 UNL     1      -2.037  11.796  15.266  1.00  0.00    -0.059 C 
HETATM   14  C18 UNL     1      -0.889  10.961  14.698  1.00  0.00     0.057 C 
HETATM   15  C19 UNL     1       0.463  11.498  15.177  1.00  0.00     0.024 C 
HETATM   16  C20 UNL     1       0.685  12.582  15.928  1.00  0.00     0.116 C 
HETATM   17  C27 UNL     1      -0.464  13.445  16.314  1.00  0.00     0.194 C 
HETATM   18  O8  UNL     1      -0.296  14.298  17.188  1.00  0.00    -0.289 OA
HETATM   19  C28 UNL     1      -1.767  13.295  15.515  1.00  0.00     0.044 C 
HETATM   20  C29 UNL     1      -2.876  14.034  16.301  1.00  0.00     0.028 C 
HETATM   21  C30 UNL     1      -1.580  14.036  14.172  1.00  0.00     0.028 C 
HETATM   22  C31 UNL     1      -1.016   9.380  14.934  1.00  0.00     0.032 C 
HETATM   23  C32 UNL     1      -0.426   9.047  16.333  1.00  0.00     0.025 C 
HETATM   24  C33 UNL     1      -0.112   8.677  13.847  1.00  0.00     0.137 C 
HETATM   25  O9  UNL     1       0.823   9.279  13.310  1.00  0.00    -0.297 OA
HETATM   26  C34 UNL     1      -0.345   7.237  13.391  1.00  0.00     0.089 C 
HETATM   27  C35 UNL     1      -1.740   6.713  13.683  1.00  0.00    -0.021 C 
HETATM   28  C36 UNL     1      -1.694   5.945  15.052  1.00  0.00     0.017 C 
HETATM   29  O10 UNL     1      -4.674   5.208  12.137  1.00  0.00    -0.376 OA
ENDROOT
BRANCH  16  30
HETATM   30  O2  UNL     1       1.948  12.861  16.411  1.00  0.00    -0.314 OA
BRANCH  30  31
HETATM   31  C21 UNL     1       2.982  12.867  15.408  1.00  0.00     0.298 C 
HETATM   32  O3  UNL     1       4.248  12.647  16.053  1.00  0.00    -0.348 OA
HETATM   33  C22 UNL     1       4.881  13.815  16.604  1.00  0.00     0.179 C 
HETATM   34  C24 UNL     1       5.204  14.858  15.515  1.00  0.00     0.180 C 
HETATM   35  C25 UNL     1       4.354  14.645  14.253  1.00  0.00     0.183 C 
HETATM   36  C26 UNL     1       2.938  14.192  14.605  1.00  0.00     0.205 C 
BRANCH  33  37
HETATM   37  C23 UNL     1       4.080  14.418  17.771  1.00  0.00     0.198 C 
BRANCH  37  38
HETATM   38  O4  UNL     1       4.323  15.817  17.887  1.00  0.00    -0.398 OA
HETATM   39  H32 UNL     1       3.788  16.132  18.637  1.00  0.00     0.209 HD
ENDBRANCH  37  38
ENDBRANCH  33  37
BRANCH  34  40
HETATM   40  O5  UNL     1       6.587  14.729  15.129  1.00  0.00    -0.390 OA
HETATM   41  H34 UNL     1       7.018  15.568  15.371  1.00  0.00     0.210 HD
ENDBRANCH  34  40
BRANCH  35  42
HETATM   42  O6  UNL     1       4.269  15.882  13.519  1.00  0.00    -0.390 OA
HETATM   43  H36 UNL     1       3.684  15.668  12.763  1.00  0.00     0.210 HD
ENDBRANCH  35  42
BRANCH  36  44
HETATM   44  O7  UNL     1       2.200  14.056  13.374  1.00  0.00    -0.388 OA
HETATM   45  H38 UNL     1       1.270  13.889  13.641  1.00  0.00     0.210 HD
ENDBRANCH  36  44
ENDBRANCH  30  31
ENDBRANCH  16  30
BRANCH   3  46
HETATM   46  O1  UNL     1      -0.736   4.002  12.960  1.00  0.00    -0.390 OA
HETATM   47  H14 UNL     1       0.061   4.451  12.620  1.00  0.00     0.210 HD
ENDBRANCH   3  46
BRANCH   1  48
HETATM   48  C4  UNL     1      -5.440   2.955  12.289  1.00  0.00     0.007 C 
HETATM   49  C2  UNL     1      -6.730   3.286  12.525  1.00  0.00    -0.089 C 
HETATM   50  C1  UNL     1      -7.323   4.655  12.335  1.00  0.00     0.042 C 
HETATM   51  C3  UNL     1      -7.717   2.247  13.009  1.00  0.00     0.042 C 
ENDBRANCH   1  48
TORSDOF 9
ENDMDL
