MODEL 1
REMARK minimizedAffinity -7.48377848
REMARK CNNscore 0.850835979
REMARK CNNaffinity 7.08057976
REMARK  6 active torsions:
REMARK  status: ('A' for Active; 'I' for Inactive)
REMARK    1  A    between atoms: C15_15  and  C17_17 
REMARK    2  A    between atoms: C17_17  and  O2_19 
REMARK    3  A    between atoms: C26_28  and  C27_29 
REMARK    4  A    between atoms: C27_29  and  O3_30 
REMARK    5  A    between atoms: C28_31  and  O4_32 
REMARK    6  A    between atoms: C30_34  and  O5_35 
ROOT
HETATM    1  C1  UNL     1      -4.564  52.433 -10.965  1.00  0.00     0.016 C 
HETATM    2  C2  UNL     1      -3.279  51.650 -10.619  1.00  0.00     0.055 C 
HETATM    3  C3  UNL     1      -1.959  52.473 -10.756  1.00  0.00     0.002 C 
HETATM    4  C4  UNL     1      -2.094  53.906 -10.206  1.00  0.00     0.013 C 
HETATM    5  C5  UNL     1      -0.810  54.733 -10.217  1.00  0.00     0.007 C 
HETATM    6  C6  UNL     1       0.343  54.033  -9.465  1.00  0.00     0.003 C 
HETATM    7  C7  UNL     1       0.686  52.639 -10.137  1.00  0.00    -0.027 C 
HETATM    8  C8  UNL     1       1.200  52.825 -11.598  1.00  0.00     0.016 C 
HETATM    9  C9  UNL     1       1.903  51.986  -9.402  1.00  0.00     0.011 C 
HETATM   10  C10 UNL     1       3.076  52.934  -9.080  1.00  0.00     0.011 C 
HETATM   11  C11 UNL     1       2.655  54.192  -8.261  1.00  0.00    -0.032 C 
HETATM   12  C12 UNL     1       2.108  53.644  -6.901  1.00  0.00     0.016 C 
HETATM   13  C13 UNL     1       3.904  55.147  -7.983  1.00  0.00     0.004 C 
HETATM   14  C14 UNL     1       5.015  54.423  -7.162  1.00  0.00     0.026 C 
HETATM   15  C15 UNL     1       6.210  55.295  -6.709  1.00  0.00     0.042 C 
HETATM   16  C16 UNL     1       7.149  55.593  -7.894  1.00  0.00     0.026 C 
HETATM   17  C18 UNL     1       5.721  56.608  -6.053  1.00  0.00     0.021 C 
HETATM   18  C19 UNL     1       4.197  56.731  -5.992  1.00  0.00     0.011 C 
HETATM   19  C20 UNL     1       3.517  56.555  -7.377  1.00  0.00    -0.040 C 
HETATM   20  C21 UNL     1       4.012  57.727  -8.271  1.00  0.00     0.015 C 
HETATM   21  C22 UNL     1       1.994  56.759  -7.181  1.00  0.00     0.010 C 
HETATM   22  C23 UNL     1       1.051  56.191  -8.248  1.00  0.00     0.011 C 
HETATM   23  C24 UNL     1       1.566  54.986  -9.098  1.00  0.00    -0.032 C 
HETATM   24  C25 UNL     1       2.144  55.595 -10.406  1.00  0.00     0.016 C 
HETATM   25  C26 UNL     1      -0.704  51.699 -10.073  1.00  0.00     0.025 C 
HETATM   26  C28 UNL     1      -0.533  50.314 -10.797  1.00  0.00     0.135 C 
HETATM   27  C29 UNL     1      -1.854  49.591 -11.089  1.00  0.00     0.101 C 
HETATM   28  C30 UNL     1      -2.957  50.520 -11.608  1.00  0.00     0.168 C 
HETATM   29  O6  UNL     1      -2.452  51.211 -12.758  1.00  0.00    -0.354 OA
HETATM   30  C31 UNL     1      -1.902  52.466 -12.309  1.00  0.00     0.182 C 
ENDROOT
BRANCH  15  31
HETATM   31  C17 UNL     1       7.067  54.519  -5.699  1.00  0.00     0.148 C 
HETATM   32  O1  UNL     1       6.797  53.445  -5.183  1.00  0.00    -0.649 OA
BRANCH  31  33
HETATM   33  O2  UNL     1       8.188  55.169  -5.320  1.00  0.00    -0.776 OA
HETATM   34  H26 UNL     1       8.592  54.572  -4.654  1.00  0.00     0.167 HD
ENDBRANCH  31  33
ENDBRANCH  15  31
BRANCH  25  35
HETATM   35  C27 UNL     1      -1.022  51.412  -8.538  1.00  0.00     0.177 C 
BRANCH  35  36
HETATM   36  O3  UNL     1      -1.666  52.473  -7.843  1.00  0.00    -0.400 OA
HETATM   37  H43 UNL     1      -1.983  52.106  -6.996  1.00  0.00     0.209 HD
ENDBRANCH  35  36
ENDBRANCH  25  35
BRANCH  26  38
HETATM   38  O4  UNL     1       0.349  49.462 -10.067  1.00  0.00    -0.394 OA
HETATM   39  H45 UNL     1       0.271  48.563 -10.443  1.00  0.00     0.210 HD
ENDBRANCH  26  38
BRANCH  28  40
HETATM   40  O5  UNL     1      -4.050  49.701 -11.978  1.00  0.00    -0.365 OA
HETATM   41  H48 UNL     1      -4.874  50.110 -11.667  1.00  0.00     0.213 HD
ENDBRANCH  28  40
TORSDOF 6
ENDMDL
MODEL 2
REMARK minimizedAffinity -7.92305088
REMARK CNNscore 0.698352158
REMARK CNNaffinity 6.99925804
REMARK  6 active torsions:
REMARK  status: ('A' for Active; 'I' for Inactive)
REMARK    1  A    between atoms: C15_15  and  C17_17 
REMARK    2  A    between atoms: C17_17  and  O2_19 
REMARK    3  A    between atoms: C26_28  and  C27_29 
REMARK    4  A    between atoms: C27_29  and  O3_30 
REMARK    5  A    between atoms: C28_31  and  O4_32 
REMARK    6  A    between atoms: C30_34  and  O5_35 
ROOT
HETATM    1  C1  UNL     1       2.936  58.554  -6.771  1.00  0.00     0.016 C 
HETATM    2  C2  UNL     1       3.462  57.376  -7.620  1.00  0.00     0.055 C 
HETATM    3  C3  UNL     1       2.542  56.115  -7.622  1.00  0.00     0.002 C 
HETATM    4  C4  UNL     1       1.047  56.472  -7.740  1.00  0.00     0.013 C 
HETATM    5  C5  UNL     1       0.098  55.280  -7.850  1.00  0.00     0.007 C 
HETATM    6  C6  UNL     1       0.466  54.345  -9.024  1.00  0.00     0.003 C 
HETATM    7  C7  UNL     1       1.926  53.758  -8.836  1.00  0.00    -0.027 C 
HETATM    8  C8  UNL     1       2.020  52.869  -7.557  1.00  0.00     0.016 C 
HETATM    9  C9  UNL     1       2.245  52.760  -9.999  1.00  0.00     0.011 C 
HETATM   10  C10 UNL     1       1.116  51.773 -10.360  1.00  0.00     0.011 C 
HETATM   11  C11 UNL     1      -0.237  52.469 -10.699  1.00  0.00    -0.032 C 
HETATM   12  C12 UNL     1       0.047  53.343 -11.967  1.00  0.00     0.016 C 
HETATM   13  C13 UNL     1      -1.371  51.397 -11.038  1.00  0.00     0.004 C 
HETATM   14  C14 UNL     1      -0.990  50.522 -12.271  1.00  0.00     0.026 C 
HETATM   15  C15 UNL     1      -2.078  49.546 -12.780  1.00  0.00     0.042 C 
HETATM   16  C16 UNL     1      -2.206  48.333 -11.840  1.00  0.00     0.026 C 
HETATM   17  C18 UNL     1      -3.439  50.266 -12.936  1.00  0.00     0.021 C 
HETATM   18  C19 UNL     1      -3.391  51.751 -12.571  1.00  0.00     0.011 C 
HETATM   19  C20 UNL     1      -2.824  52.010 -11.150  1.00  0.00    -0.040 C 
HETATM   20  C21 UNL     1      -3.811  51.349 -10.146  1.00  0.00     0.015 C 
HETATM   21  C22 UNL     1      -2.886  53.536 -10.890  1.00  0.00     0.010 C 
HETATM   22  C23 UNL     1      -1.981  54.115  -9.797  1.00  0.00     0.011 C 
HETATM   23  C24 UNL     1      -0.683  53.323  -9.440  1.00  0.00    -0.032 C 
HETATM   24  C25 UNL     1      -1.042  52.437  -8.213  1.00  0.00     0.016 C 
HETATM   25  C26 UNL     1       2.985  55.061  -8.777  1.00  0.00     0.025 C 
HETATM   26  C28 UNL     1       4.468  54.624  -8.494  1.00  0.00     0.135 C 
HETATM   27  C29 UNL     1       5.390  55.772  -8.066  1.00  0.00     0.101 C 
HETATM   28  C30 UNL     1       4.741  56.735  -7.065  1.00  0.00     0.168 C 
HETATM   29  O6  UNL     1       4.277  55.967  -5.947  1.00  0.00    -0.354 OA
HETATM   30  C31 UNL     1       2.896  55.630  -6.190  1.00  0.00     0.182 C 
ENDROOT
BRANCH  15  31
HETATM   31  C17 UNL     1      -1.660  48.965 -14.138  1.00  0.00     0.148 C 
HETATM   32  O1  UNL     1      -0.725  48.209 -14.355  1.00  0.00    -0.649 OA
BRANCH  31  33
HETATM   33  O2  UNL     1      -2.389  49.424 -15.176  1.00  0.00    -0.776 OA
HETATM   34  H26 UNL     1      -1.978  49.000 -15.960  1.00  0.00     0.167 HD
ENDBRANCH  31  33
ENDBRANCH  15  31
BRANCH  25  35
HETATM   35  C27 UNL     1       2.949  55.776 -10.200  1.00  0.00     0.177 C 
BRANCH  35  36
HETATM   36  O3  UNL     1       3.501  55.022 -11.273  1.00  0.00    -0.400 OA
HETATM   37  H43 UNL     1       3.238  55.469 -12.099  1.00  0.00     0.209 HD
ENDBRANCH  35  36
ENDBRANCH  25  35
BRANCH  26  38
HETATM   38  O4  UNL     1       5.020  53.936  -9.617  1.00  0.00    -0.394 OA
HETATM   39  H45 UNL     1       5.983  53.859  -9.472  1.00  0.00     0.210 HD
ENDBRANCH  26  38
BRANCH  28  40
HETATM   40  O5  UNL     1       5.746  57.638  -6.646  1.00  0.00    -0.365 OA
HETATM   41  H48 UNL     1       5.378  58.537  -6.622  1.00  0.00     0.213 HD
ENDBRANCH  28  40
TORSDOF 6
ENDMDL
MODEL 3
REMARK minimizedAffinity -7.6706171
REMARK CNNscore 0.688888192
REMARK CNNaffinity 6.39697456
REMARK  6 active torsions:
REMARK  status: ('A' for Active; 'I' for Inactive)
REMARK    1  A    between atoms: C15_15  and  C17_17 
REMARK    2  A    between atoms: C17_17  and  O2_19 
REMARK    3  A    between atoms: C26_28  and  C27_29 
REMARK    4  A    between atoms: C27_29  and  O3_30 
REMARK    5  A    between atoms: C28_31  and  O4_32 
REMARK    6  A    between atoms: C30_34  and  O5_35 
ROOT
HETATM    1  C1  UNL     1       0.698  49.772 -15.831  1.00  0.00     0.016 C 
HETATM    2  C2  UNL     1      -0.048  50.067 -14.511  1.00  0.00     0.055 C 
HETATM    3  C3  UNL     1       0.877  50.447 -13.313  1.00  0.00     0.002 C 
HETATM    4  C4  UNL     1       2.015  51.403 -13.721  1.00  0.00     0.013 C 
HETATM    5  C5  UNL     1       2.897  51.894 -12.575  1.00  0.00     0.007 C 
HETATM    6  C6  UNL     1       2.078  52.570 -11.454  1.00  0.00     0.003 C 
HETATM    7  C7  UNL     1       1.036  51.552 -10.830  1.00  0.00    -0.027 C 
HETATM    8  C8  UNL     1       1.757  50.349 -10.146  1.00  0.00     0.016 C 
HETATM    9  C9  UNL     1       0.271  52.238  -9.650  1.00  0.00     0.011 C 
HETATM   10  C10 UNL     1       1.142  53.058  -8.677  1.00  0.00     0.011 C 
HETATM   11  C11 UNL     1       2.000  54.154  -9.379  1.00  0.00    -0.032 C 
HETATM   12  C12 UNL     1       0.972  55.138 -10.032  1.00  0.00     0.016 C 
HETATM   13  C13 UNL     1       2.899  54.949  -8.326  1.00  0.00     0.004 C 
HETATM   14  C14 UNL     1       2.030  55.673  -7.253  1.00  0.00     0.026 C 
HETATM   15  C15 UNL     1       2.786  56.594  -6.266  1.00  0.00     0.042 C 
HETATM   16  C16 UNL     1       3.552  55.762  -5.220  1.00  0.00     0.026 C 
HETATM   17  C18 UNL     1       3.747  57.545  -7.020  1.00  0.00     0.021 C 
HETATM   18  C19 UNL     1       3.715  57.368  -8.540  1.00  0.00     0.011 C 
HETATM   19  C20 UNL     1       3.973  55.903  -8.986  1.00  0.00    -0.040 C 
HETATM   20  C21 UNL     1       5.419  55.546  -8.537  1.00  0.00     0.015 C 
HETATM   21  C22 UNL     1       3.972  55.877 -10.535  1.00  0.00     0.010 C 
HETATM   22  C23 UNL     1       3.732  54.532 -11.230  1.00  0.00     0.011 C 
HETATM   23  C24 UNL     1       2.942  53.442 -10.439  1.00  0.00    -0.032 C 
HETATM   24  C25 UNL     1       4.012  52.532  -9.771  1.00  0.00     0.016 C 
HETATM   25  C26 UNL     1       0.021  51.053 -12.072  1.00  0.00     0.025 C 
HETATM   26  C28 UNL     1      -1.010  49.959 -11.611  1.00  0.00     0.135 C 
HETATM   27  C29 UNL     1      -1.693  49.214 -12.764  1.00  0.00     0.101 C 
HETATM   28  C30 UNL     1      -0.736  48.838 -13.900  1.00  0.00     0.168 C 
HETATM   29  O6  UNL     1       0.349  48.088 -13.338  1.00  0.00    -0.354 OA
HETATM   30  C31 UNL     1       1.413  49.015 -13.037  1.00  0.00     0.182 C 
ENDROOT
BRANCH  15  31
HETATM   31  C17 UNL     1       1.782  57.431  -5.462  1.00  0.00     0.148 C 
HETATM   32  O1  UNL     1       2.040  58.237  -4.580  1.00  0.00    -0.649 OA
BRANCH  31  33
HETATM   33  O2  UNL     1       0.491  57.157  -5.745  1.00  0.00    -0.776 OA
HETATM   34  H26 UNL     1      -0.013  57.731  -5.130  1.00  0.00     0.167 HD
ENDBRANCH  31  33
ENDBRANCH  15  31
BRANCH  25  35
HETATM   35  C27 UNL     1      -0.805  52.325 -12.560  1.00  0.00     0.177 C 
BRANCH  35  36
HETATM   36  O3  UNL     1      -0.033  53.348 -13.181  1.00  0.00    -0.400 OA
HETATM   37  H43 UNL     1      -0.663  53.958 -13.608  1.00  0.00     0.209 HD
ENDBRANCH  35  36
ENDBRANCH  25  35
BRANCH  26  38
HETATM   38  O4  UNL     1      -1.986  50.516 -10.731  1.00  0.00    -0.394 OA
HETATM   39  H45 UNL     1      -2.702  49.859 -10.629  1.00  0.00     0.210 HD
ENDBRANCH  26  38
BRANCH  28  40
HETATM   40  O5  UNL     1      -1.463  48.030 -14.806  1.00  0.00    -0.365 OA
HETATM   41  H48 UNL     1      -1.256  48.304 -15.715  1.00  0.00     0.213 HD
ENDBRANCH  28  40
TORSDOF 6
ENDMDL
MODEL 4
REMARK minimizedAffinity -7.78805494
REMARK CNNscore 0.656393766
REMARK CNNaffinity 6.65225458
REMARK  6 active torsions:
REMARK  status: ('A' for Active; 'I' for Inactive)
REMARK    1  A    between atoms: C15_15  and  C17_17 
REMARK    2  A    between atoms: C17_17  and  O2_19 
REMARK    3  A    between atoms: C26_28  and  C27_29 
REMARK    4  A    between atoms: C27_29  and  O3_30 
REMARK    5  A    between atoms: C28_31  and  O4_32 
REMARK    6  A    between atoms: C30_34  and  O5_35 
ROOT
HETATM    1  C1  UNL     1      -5.429  48.303 -33.799  1.00  0.00     0.016 C 
HETATM    2  C2  UNL     1      -5.759  46.901 -33.242  1.00  0.00     0.055 C 
HETATM    3  C3  UNL     1      -6.540  46.906 -31.891  1.00  0.00     0.002 C 
HETATM    4  C4  UNL     1      -7.652  47.972 -31.851  1.00  0.00     0.013 C 
HETATM    5  C5  UNL     1      -8.520  47.963 -30.595  1.00  0.00     0.007 C 
HETATM    6  C6  UNL     1      -9.166  46.583 -30.339  1.00  0.00     0.003 C 
HETATM    7  C7  UNL     1      -8.052  45.473 -30.139  1.00  0.00    -0.027 C 
HETATM    8  C8  UNL     1      -7.183  45.763 -28.875  1.00  0.00     0.016 C 
HETATM    9  C9  UNL     1      -8.730  44.101 -29.810  1.00  0.00     0.011 C 
HETATM   10  C10 UNL     1      -9.881  44.155 -28.785  1.00  0.00     0.011 C 
HETATM   11  C11 UNL     1     -11.013  45.156 -29.170  1.00  0.00    -0.032 C 
HETATM   12  C12 UNL     1     -11.606  44.621 -30.516  1.00  0.00     0.016 C 
HETATM   13  C13 UNL     1     -12.161  45.186 -28.060  1.00  0.00     0.004 C 
HETATM   14  C14 UNL     1     -12.832  43.790 -27.883  1.00  0.00     0.026 C 
HETATM   15  C15 UNL     1     -14.056  43.733 -26.938  1.00  0.00     0.042 C 
HETATM   16  C16 UNL     1     -13.613  43.811 -25.465  1.00  0.00     0.026 C 
HETATM   17  C18 UNL     1     -15.064  44.860 -27.268  1.00  0.00     0.021 C 
HETATM   18  C19 UNL     1     -14.632  45.743 -28.441  1.00  0.00     0.011 C 
HETATM   19  C20 UNL     1     -13.214  46.349 -28.255  1.00  0.00    -0.040 C 
HETATM   20  C21 UNL     1     -13.285  47.281 -27.012  1.00  0.00     0.015 C 
HETATM   21  C22 UNL     1     -12.929  47.260 -29.475  1.00  0.00     0.010 C 
HETATM   22  C23 UNL     1     -11.468  47.600 -29.791  1.00  0.00     0.011 C 
HETATM   23  C24 UNL     1     -10.373  46.600 -29.300  1.00  0.00    -0.032 C 
HETATM   24  C25 UNL     1      -9.862  47.153 -27.939  1.00  0.00     0.016 C 
HETATM   25  C26 UNL     1      -7.129  45.432 -31.541  1.00  0.00     0.025 C 
HETATM   26  C28 UNL     1      -5.919  44.434 -31.442  1.00  0.00     0.135 C 
HETATM   27  C29 UNL     1      -4.852  44.632 -32.526  1.00  0.00     0.101 C 
HETATM   28  C30 UNL     1      -4.524  46.103 -32.800  1.00  0.00     0.168 C 
HETATM   29  O6  UNL     1      -4.153  46.715 -31.558  1.00  0.00    -0.354 OA
HETATM   30  C31 UNL     1      -5.340  47.307 -30.990  1.00  0.00     0.182 C 
ENDROOT
BRANCH  15  31
HETATM   31  C17 UNL     1     -14.759  42.375 -27.078  1.00  0.00     0.148 C 
HETATM   32  O1  UNL     1     -15.875  42.172 -27.533  1.00  0.00    -0.649 OA
BRANCH  31  33
HETATM   33  O2  UNL     1     -14.059  41.342 -26.565  1.00  0.00    -0.776 OA
HETATM   34  H26 UNL     1     -14.651  40.570 -26.692  1.00  0.00     0.167 HD
ENDBRANCH  31  33
ENDBRANCH  15  31
BRANCH  25  35
HETATM   35  C27 UNL     1      -8.074  44.938 -32.725  1.00  0.00     0.177 C 
BRANCH  35  36
HETATM   36  O3  UNL     1      -7.445  44.112 -33.699  1.00  0.00    -0.400 OA
HETATM   37  H43 UNL     1      -8.156  43.718 -34.239  1.00  0.00     0.209 HD
ENDBRANCH  35  36
ENDBRANCH  25  35
BRANCH  26  38
HETATM   38  O4  UNL     1      -6.372  43.081 -31.431  1.00  0.00    -0.394 OA
HETATM   39  H45 UNL     1      -5.593  42.507 -31.564  1.00  0.00     0.210 HD
ENDBRANCH  26  38
BRANCH  28  40
HETATM   40  O5  UNL     1      -3.429  46.125 -33.696  1.00  0.00    -0.365 OA
HETATM   41  H48 UNL     1      -3.587  46.800 -34.377  1.00  0.00     0.213 HD
ENDBRANCH  28  40
TORSDOF 6
ENDMDL
MODEL 5
REMARK minimizedAffinity -6.97502375
REMARK CNNscore 0.605626881
REMARK CNNaffinity 6.1620698
REMARK  6 active torsions:
REMARK  status: ('A' for Active; 'I' for Inactive)
REMARK    1  A    between atoms: C15_15  and  C17_17 
REMARK    2  A    between atoms: C17_17  and  O2_19 
REMARK    3  A    between atoms: C26_28  and  C27_29 
REMARK    4  A    between atoms: C27_29  and  O3_30 
REMARK    5  A    between atoms: C28_31  and  O4_32 
REMARK    6  A    between atoms: C30_34  and  O5_35 
ROOT
HETATM    1  C1  UNL     1      -5.682  48.808 -30.746  1.00  0.00     0.016 C 
HETATM    2  C2  UNL     1      -6.375  47.509 -30.281  1.00  0.00     0.055 C 
HETATM    3  C3  UNL     1      -7.681  47.154 -31.060  1.00  0.00     0.002 C 
HETATM    4  C4  UNL     1      -7.550  47.393 -32.577  1.00  0.00     0.013 C 
HETATM    5  C5  UNL     1      -8.759  46.970 -33.410  1.00  0.00     0.007 C 
HETATM    6  C6  UNL     1      -9.137  45.490 -33.185  1.00  0.00     0.003 C 
HETATM    7  C7  UNL     1      -9.510  45.232 -31.666  1.00  0.00    -0.027 C 
HETATM    8  C8  UNL     1     -10.772  46.048 -31.246  1.00  0.00     0.016 C 
HETATM    9  C9  UNL     1      -9.958  43.744 -31.480  1.00  0.00     0.011 C 
HETATM   10  C10 UNL     1     -10.916  43.196 -32.557  1.00  0.00     0.011 C 
HETATM   11  C11 UNL     1     -10.371  43.342 -34.010  1.00  0.00    -0.032 C 
HETATM   12  C12 UNL     1      -9.066  42.478 -34.058  1.00  0.00     0.016 C 
HETATM   13  C13 UNL     1     -11.417  42.783 -35.080  1.00  0.00     0.004 C 
HETATM   14  C14 UNL     1     -11.717  41.268 -34.859  1.00  0.00     0.026 C 
HETATM   15  C15 UNL     1     -12.605  40.583 -35.925  1.00  0.00     0.042 C 
HETATM   16  C16 UNL     1     -14.079  40.997 -35.755  1.00  0.00     0.026 C 
HETATM   17  C18 UNL     1     -12.106  40.907 -37.353  1.00  0.00     0.021 C 
HETATM   18  C19 UNL     1     -10.864  41.800 -37.380  1.00  0.00     0.011 C 
HETATM   19  C20 UNL     1     -11.046  43.118 -36.579  1.00  0.00    -0.040 C 
HETATM   20  C21 UNL     1     -12.173  43.921 -37.289  1.00  0.00     0.015 C 
HETATM   21  C22 UNL     1      -9.746  43.947 -36.737  1.00  0.00     0.010 C 
HETATM   22  C23 UNL     1      -9.462  45.040 -35.700  1.00  0.00     0.011 C 
HETATM   23  C24 UNL     1     -10.110  44.881 -34.288  1.00  0.00    -0.032 C 
HETATM   24  C25 UNL     1     -11.424  45.714 -34.320  1.00  0.00     0.016 C 
HETATM   25  C26 UNL     1      -8.164  45.635 -30.746  1.00  0.00     0.025 C 
HETATM   26  C28 UNL     1      -8.429  45.518 -29.201  1.00  0.00     0.135 C 
HETATM   27  C29 UNL     1      -7.380  46.218 -28.329  1.00  0.00     0.101 C 
HETATM   28  C30 UNL     1      -6.959  47.591 -28.864  1.00  0.00     0.168 C 
HETATM   29  O6  UNL     1      -8.141  48.384 -29.031  1.00  0.00    -0.354 OA
HETATM   30  C31 UNL     1      -8.585  48.227 -30.394  1.00  0.00     0.182 C 
ENDROOT
BRANCH  15  31
HETATM   31  C17 UNL     1     -12.585  39.062 -35.720  1.00  0.00     0.148 C 
HETATM   32  O1  UNL     1     -13.010  38.214 -36.489  1.00  0.00    -0.649 OA
BRANCH  31  33
HETATM   33  O2  UNL     1     -12.104  38.679 -34.518  1.00  0.00    -0.776 OA
HETATM   34  H26 UNL     1     -12.196  37.703 -34.527  1.00  0.00     0.167 HD
ENDBRANCH  31  33
ENDBRANCH  15  31
BRANCH  25  35
HETATM   35  C27 UNL     1      -7.000  44.613 -31.120  1.00  0.00     0.177 C 
BRANCH  35  36
HETATM   36  O3  UNL     1      -6.867  43.498 -30.246  1.00  0.00    -0.400 OA
HETATM   37  H43 UNL     1      -6.276  42.860 -30.688  1.00  0.00     0.209 HD
ENDBRANCH  35  36
ENDBRANCH  25  35
BRANCH  26  38
HETATM   38  O4  UNL     1      -8.570  44.152 -28.809  1.00  0.00    -0.394 OA
HETATM   39  H45 UNL     1      -8.538  44.119 -27.833  1.00  0.00     0.210 HD
ENDBRANCH  26  38
BRANCH  28  40
HETATM   40  O5  UNL     1      -6.118  48.177 -27.889  1.00  0.00    -0.365 OA
HETATM   41  H48 UNL     1      -5.360  48.594 -28.330  1.00  0.00     0.213 HD
ENDBRANCH  28  40
TORSDOF 6
ENDMDL
MODEL 6
REMARK minimizedAffinity -6.9394846
REMARK CNNscore 0.544926524
REMARK CNNaffinity 6.24541855
REMARK  6 active torsions:
REMARK  status: ('A' for Active; 'I' for Inactive)
REMARK    1  A    between atoms: C15_15  and  C17_17 
REMARK    2  A    between atoms: C17_17  and  O2_19 
REMARK    3  A    between atoms: C26_28  and  C27_29 
REMARK    4  A    between atoms: C27_29  and  O3_30 
REMARK    5  A    between atoms: C28_31  and  O4_32 
REMARK    6  A    between atoms: C30_34  and  O5_35 
ROOT
HETATM    1  C1  UNL     1     -12.306  44.933 -20.525  1.00  0.00     0.016 C 
HETATM    2  C2  UNL     1     -11.593  45.860 -19.516  1.00  0.00     0.055 C 
HETATM    3  C3  UNL     1     -10.036  45.751 -19.521  1.00  0.00     0.002 C 
HETATM    4  C4  UNL     1      -9.451  45.658 -20.944  1.00  0.00     0.013 C 
HETATM    5  C5  UNL     1      -7.927  45.650 -21.024  1.00  0.00     0.007 C 
HETATM    6  C6  UNL     1      -7.297  46.874 -20.323  1.00  0.00     0.003 C 
HETATM    7  C7  UNL     1      -7.679  46.896 -18.785  1.00  0.00    -0.027 C 
HETATM    8  C8  UNL     1      -7.102  45.653 -18.039  1.00  0.00     0.016 C 
HETATM    9  C9  UNL     1      -6.971  48.103 -18.085  1.00  0.00     0.011 C 
HETATM   10  C10 UNL     1      -5.490  48.317 -18.459  1.00  0.00     0.011 C 
HETATM   11  C11 UNL     1      -5.248  48.458 -19.993  1.00  0.00    -0.032 C 
HETATM   12  C12 UNL     1      -6.032  49.742 -20.425  1.00  0.00     0.016 C 
HETATM   13  C13 UNL     1      -3.697  48.650 -20.319  1.00  0.00     0.004 C 
HETATM   14  C14 UNL     1      -3.119  49.934 -19.650  1.00  0.00     0.026 C 
HETATM   15  C15 UNL     1      -1.660  50.300 -20.015  1.00  0.00     0.042 C 
HETATM   16  C16 UNL     1      -0.667  49.365 -19.299  1.00  0.00     0.026 C 
HETATM   17  C18 UNL     1      -1.445  50.258 -21.547  1.00  0.00     0.021 C 
HETATM   18  C19 UNL     1      -2.706  49.886 -22.332  1.00  0.00     0.011 C 
HETATM   19  C20 UNL     1      -3.345  48.553 -21.858  1.00  0.00    -0.040 C 
HETATM   20  C21 UNL     1      -2.307  47.431 -22.146  1.00  0.00     0.015 C 
HETATM   21  C22 UNL     1      -4.568  48.270 -22.767  1.00  0.00     0.010 C 
HETATM   22  C23 UNL     1      -5.639  47.305 -22.247  1.00  0.00     0.011 C 
HETATM   23  C24 UNL     1      -5.773  47.139 -20.700  1.00  0.00    -0.032 C 
HETATM   24  C25 UNL     1      -4.932  45.885 -20.326  1.00  0.00     0.016 C 
HETATM   25  C26 UNL     1      -9.354  46.968 -18.687  1.00  0.00     0.025 C 
HETATM   26  C28 UNL     1      -9.878  46.898 -17.207  1.00  0.00     0.135 C 
HETATM   27  C29 UNL     1     -11.375  46.587 -17.085  1.00  0.00     0.101 C 
HETATM   28  C30 UNL     1     -11.852  45.495 -18.048  1.00  0.00     0.168 C 
HETATM   29  O6  UNL     1     -11.039  44.333 -17.841  1.00  0.00    -0.354 OA
HETATM   30  C31 UNL     1      -9.948  44.387 -18.783  1.00  0.00     0.182 C 
ENDROOT
BRANCH  15  31
HETATM   31  C17 UNL     1      -1.333  51.709 -19.502  1.00  0.00     0.148 C 
HETATM   32  O1  UNL     1      -0.315  52.350 -19.719  1.00  0.00    -0.649 OA
BRANCH  31  33
HETATM   33  O2  UNL     1      -2.266  52.218 -18.671  1.00  0.00    -0.776 OA
HETATM   34  H26 UNL     1      -1.896  53.086 -18.403  1.00  0.00     0.167 HD
ENDBRANCH  31  33
ENDBRANCH  15  31
BRANCH  25  35
HETATM   35  C27 UNL     1      -9.813  48.364 -19.302  1.00  0.00     0.177 C 
BRANCH  35  36
HETATM   36  O3  UNL     1      -9.181  49.511 -18.745  1.00  0.00    -0.400 OA
HETATM   37  H43 UNL     1      -9.388  50.262 -19.331  1.00  0.00     0.209 HD
ENDBRANCH  35  36
ENDBRANCH  25  35
BRANCH  26  38
HETATM   38  O4  UNL     1      -9.559  48.094 -16.495  1.00  0.00    -0.394 OA
HETATM   39  H45 UNL     1     -10.065  48.084 -15.659  1.00  0.00     0.210 HD
ENDBRANCH  26  38
BRANCH  28  40
HETATM   40  O5  UNL     1     -13.197  45.208 -17.717  1.00  0.00    -0.365 OA
HETATM   41  H48 UNL     1     -13.716  45.123 -18.535  1.00  0.00     0.213 HD
ENDBRANCH  28  40
TORSDOF 6
ENDMDL
MODEL 7
REMARK minimizedAffinity -8.53895473
REMARK CNNscore 0.524610937
REMARK CNNaffinity 6.34260368
REMARK  6 active torsions:
REMARK  status: ('A' for Active; 'I' for Inactive)
REMARK    1  A    between atoms: C15_15  and  C17_17 
REMARK    2  A    between atoms: C17_17  and  O2_19 
REMARK    3  A    between atoms: C26_28  and  C27_29 
REMARK    4  A    between atoms: C27_29  and  O3_30 
REMARK    5  A    between atoms: C28_31  and  O4_32 
REMARK    6  A    between atoms: C30_34  and  O5_35 
ROOT
HETATM    1  C1  UNL     1      -4.184  45.429 -31.896  1.00  0.00     0.016 C 
HETATM    2  C2  UNL     1      -5.153  46.520 -31.390  1.00  0.00     0.055 C 
HETATM    3  C3  UNL     1      -6.654  46.093 -31.360  1.00  0.00     0.002 C 
HETATM    4  C4  UNL     1      -6.852  44.658 -30.833  1.00  0.00     0.013 C 
HETATM    5  C5  UNL     1      -8.305  44.213 -30.683  1.00  0.00     0.007 C 
HETATM    6  C6  UNL     1      -9.122  45.172 -29.790  1.00  0.00     0.003 C 
HETATM    7  C7  UNL     1      -9.148  46.630 -30.412  1.00  0.00    -0.027 C 
HETATM    8  C8  UNL     1      -9.866  46.644 -31.797  1.00  0.00     0.016 C 
HETATM    9  C9  UNL     1     -10.041  47.564 -29.528  1.00  0.00     0.011 C 
HETATM   10  C10 UNL     1     -11.381  46.959 -29.062  1.00  0.00     0.011 C 
HETATM   11  C11 UNL     1     -11.226  45.606 -28.304  1.00  0.00    -0.032 C 
HETATM   12  C12 UNL     1     -10.388  45.936 -27.024  1.00  0.00     0.016 C 
HETATM   13  C13 UNL     1     -12.646  45.018 -27.872  1.00  0.00     0.004 C 
HETATM   14  C14 UNL     1     -13.407  45.987 -26.916  1.00  0.00     0.026 C 
HETATM   15  C15 UNL     1     -14.732  45.457 -26.317  1.00  0.00     0.042 C 
HETATM   16  C16 UNL     1     -15.852  45.468 -27.374  1.00  0.00     0.026 C 
HETATM   17  C18 UNL     1     -14.546  44.038 -25.729  1.00  0.00     0.021 C 
HETATM   18  C19 UNL     1     -13.118  43.503 -25.861  1.00  0.00     0.011 C 
HETATM   19  C20 UNL     1     -12.589  43.537 -27.321  1.00  0.00    -0.040 C 
HETATM   20  C21 UNL     1     -13.491  42.576 -28.147  1.00  0.00     0.015 C 
HETATM   21  C22 UNL     1     -11.168  42.919 -27.319  1.00  0.00     0.010 C 
HETATM   22  C23 UNL     1     -10.243  43.247 -28.496  1.00  0.00     0.011 C 
HETATM   23  C24 UNL     1     -10.506  44.576 -29.272  1.00  0.00    -0.032 C 
HETATM   24  C25 UNL     1     -11.383  44.194 -30.498  1.00  0.00     0.016 C 
HETATM   25  C26 UNL     1      -7.556  47.154 -30.523  1.00  0.00     0.025 C 
HETATM   26  C28 UNL     1      -7.426  48.558 -31.218  1.00  0.00     0.135 C 
HETATM   27  C29 UNL     1      -6.004  48.904 -31.674  1.00  0.00     0.101 C 
HETATM   28  C30 UNL     1      -5.270  47.729 -32.329  1.00  0.00     0.168 C 
HETATM   29  O6  UNL     1      -6.080  47.244 -33.407  1.00  0.00    -0.354 OA
HETATM   30  C31 UNL     1      -6.895  46.170 -32.893  1.00  0.00     0.182 C 
ENDROOT
BRANCH  15  31
HETATM   31  C17 UNL     1     -15.213  46.401 -25.206  1.00  0.00     0.148 C 
HETATM   32  O1  UNL     1     -16.317  46.411 -24.681  1.00  0.00    -0.649 OA
BRANCH  31  33
HETATM   33  O2  UNL     1     -14.312  47.343 -24.860  1.00  0.00    -0.776 OA
HETATM   34  H26 UNL     1     -14.778  47.880 -24.184  1.00  0.00     0.167 HD
ENDBRANCH  31  33
ENDBRANCH  15  31
BRANCH  25  35
HETATM   35  C27 UNL     1      -6.988  47.289 -29.040  1.00  0.00     0.177 C 
BRANCH  35  36
HETATM   36  O3  UNL     1      -6.235  48.468 -28.784  1.00  0.00    -0.400 OA
HETATM   37  H43 UNL     1      -6.124  48.530 -27.816  1.00  0.00     0.209 HD
ENDBRANCH  35  36
ENDBRANCH  25  35
BRANCH  26  38
HETATM   38  O4  UNL     1      -7.946  49.591 -30.381  1.00  0.00    -0.394 OA
HETATM   39  H45 UNL     1      -7.671  50.448 -30.763  1.00  0.00     0.210 HD
ENDBRANCH  26  38
BRANCH  28  40
HETATM   40  O5  UNL     1      -4.047  48.232 -32.833  1.00  0.00    -0.365 OA
HETATM   41  H48 UNL     1      -3.335  47.604 -32.629  1.00  0.00     0.213 HD
ENDBRANCH  28  40
TORSDOF 6
ENDMDL
MODEL 8
REMARK minimizedAffinity -8.20018005
REMARK CNNscore 0.524314106
REMARK CNNaffinity 6.19246626
REMARK  6 active torsions:
REMARK  status: ('A' for Active; 'I' for Inactive)
REMARK    1  A    between atoms: C15_15  and  C17_17 
REMARK    2  A    between atoms: C17_17  and  O2_19 
REMARK    3  A    between atoms: C26_28  and  C27_29 
REMARK    4  A    between atoms: C27_29  and  O3_30 
REMARK    5  A    between atoms: C28_31  and  O4_32 
REMARK    6  A    between atoms: C30_34  and  O5_35 
ROOT
HETATM    1  C1  UNL     1      -7.416  44.925 -32.182  1.00  0.00     0.016 C 
HETATM    2  C2  UNL     1      -7.735  46.030 -31.151  1.00  0.00     0.055 C 
HETATM    3  C3  UNL     1      -9.238  46.121 -30.740  1.00  0.00     0.002 C 
HETATM    4  C4  UNL     1      -9.880  44.736 -30.527  1.00  0.00     0.013 C 
HETATM    5  C5  UNL     1     -11.322  44.756 -30.025  1.00  0.00     0.007 C 
HETATM    6  C6  UNL     1     -11.477  45.565 -28.719  1.00  0.00     0.003 C 
HETATM    7  C7  UNL     1     -11.044  47.074 -28.940  1.00  0.00    -0.027 C 
HETATM    8  C8  UNL     1     -11.971  47.783 -29.977  1.00  0.00     0.016 C 
HETATM    9  C9  UNL     1     -11.279  47.888 -27.624  1.00  0.00     0.011 C 
HETATM   10  C10 UNL     1     -12.618  47.623 -26.906  1.00  0.00     0.011 C 
HETATM   11  C11 UNL     1     -12.864  46.120 -26.577  1.00  0.00    -0.032 C 
HETATM   12  C12 UNL     1     -11.715  45.712 -25.595  1.00  0.00     0.016 C 
HETATM   13  C13 UNL     1     -14.275  45.907 -25.860  1.00  0.00     0.004 C 
HETATM   14  C14 UNL     1     -14.362  46.685 -24.512  1.00  0.00     0.026 C 
HETATM   15  C15 UNL     1     -15.629  46.438 -23.659  1.00  0.00     0.042 C 
HETATM   16  C16 UNL     1     -16.846  47.162 -24.265  1.00  0.00     0.026 C 
HETATM   17  C18 UNL     1     -15.910  44.923 -23.511  1.00  0.00     0.021 C 
HETATM   18  C19 UNL     1     -14.881  44.038 -24.216  1.00  0.00     0.011 C 
HETATM   19  C20 UNL     1     -14.703  44.392 -25.718  1.00  0.00    -0.040 C 
HETATM   20  C21 UNL     1     -16.067  44.108 -26.409  1.00  0.00     0.015 C 
HETATM   21  C22 UNL     1     -13.685  43.390 -26.319  1.00  0.00     0.010 C 
HETATM   22  C23 UNL     1     -12.976  43.782 -27.620  1.00  0.00     0.011 C 
HETATM   23  C24 UNL     1     -12.840  45.305 -27.937  1.00  0.00    -0.032 C 
HETATM   24  C25 UNL     1     -14.034  45.660 -28.868  1.00  0.00     0.016 C 
HETATM   25  C26 UNL     1      -9.439  47.067 -29.433  1.00  0.00     0.025 C 
HETATM   26  C28 UNL     1      -8.906  48.503 -29.785  1.00  0.00     0.135 C 
HETATM   27  C29 UNL     1      -7.595  48.509 -30.580  1.00  0.00     0.101 C 
HETATM   28  C30 UNL     1      -7.551  47.455 -31.692  1.00  0.00     0.168 C 
HETATM   29  O6  UNL     1      -8.695  47.648 -32.533  1.00  0.00    -0.354 OA
HETATM   30  C31 UNL     1      -9.745  46.784 -32.050  1.00  0.00     0.182 C 
ENDROOT
BRANCH  15  31
HETATM   31  C17 UNL     1     -15.445  47.052 -22.264  1.00  0.00     0.148 C 
HETATM   32  O1  UNL     1     -14.559  47.815 -21.911  1.00  0.00    -0.649 OA
BRANCH  31  33
HETATM   33  O2  UNL     1     -16.339  46.614 -21.352  1.00  0.00    -0.776 OA
HETATM   34  H26 UNL     1     -16.065  47.058 -20.521  1.00  0.00     0.167 HD
ENDBRANCH  31  33
ENDBRANCH  15  31
BRANCH  25  35
HETATM   35  C27 UNL     1      -8.567  46.504 -28.224  1.00  0.00     0.177 C 
BRANCH  35  36
HETATM   36  O3  UNL     1      -7.405  47.264 -27.909  1.00  0.00    -0.400 OA
HETATM   37  H43 UNL     1      -7.082  46.943 -27.046  1.00  0.00     0.209 HD
ENDBRANCH  35  36
ENDBRANCH  25  35
BRANCH  26  38
HETATM   38  O4  UNL     1      -8.777  49.301 -28.609  1.00  0.00    -0.394 OA
HETATM   39  H45 UNL     1      -8.268  50.101 -28.848  1.00  0.00     0.210 HD
ENDBRANCH  26  38
BRANCH  28  40
HETATM   40  O5  UNL     1      -6.365  47.680 -32.431  1.00  0.00    -0.365 OA
HETATM   41  H48 UNL     1      -5.940  46.827 -32.620  1.00  0.00     0.213 HD
ENDBRANCH  28  40
TORSDOF 6
ENDMDL
MODEL 9
REMARK minimizedAffinity -10.0542469
REMARK CNNscore 0.455752075
REMARK CNNaffinity 6.90769339
REMARK  6 active torsions:
REMARK  status: ('A' for Active; 'I' for Inactive)
REMARK    1  A    between atoms: C15_15  and  C17_17 
REMARK    2  A    between atoms: C17_17  and  O2_19 
REMARK    3  A    between atoms: C26_28  and  C27_29 
REMARK    4  A    between atoms: C27_29  and  O3_30 
REMARK    5  A    between atoms: C28_31  and  O4_32 
REMARK    6  A    between atoms: C30_34  and  O5_35 
ROOT
HETATM    1  C1  UNL     1      -5.802  46.975 -17.127  1.00  0.00     0.016 C 
HETATM    2  C2  UNL     1      -4.602  47.937 -17.271  1.00  0.00     0.055 C 
HETATM    3  C3  UNL     1      -3.875  47.867 -18.651  1.00  0.00     0.002 C 
HETATM    4  C4  UNL     1      -4.857  47.765 -19.834  1.00  0.00     0.013 C 
HETATM    5  C5  UNL     1      -4.215  47.794 -21.219  1.00  0.00     0.007 C 
HETATM    6  C6  UNL     1      -3.334  49.045 -21.430  1.00  0.00     0.003 C 
HETATM    7  C7  UNL     1      -2.154  49.083 -20.373  1.00  0.00    -0.027 C 
HETATM    8  C8  UNL     1      -1.192  47.867 -20.552  1.00  0.00     0.016 C 
HETATM    9  C9  UNL     1      -1.235  50.319 -20.653  1.00  0.00     0.011 C 
HETATM   10  C10 UNL     1      -0.880  50.564 -22.134  1.00  0.00     0.011 C 
HETATM   11  C11 UNL     1      -2.126  50.686 -23.063  1.00  0.00    -0.032 C 
HETATM   12  C12 UNL     1      -2.908  51.943 -22.553  1.00  0.00     0.016 C 
HETATM   13  C13 UNL     1      -1.695  50.912 -24.584  1.00  0.00     0.004 C 
HETATM   14  C14 UNL     1      -0.867  52.221 -24.762  1.00  0.00     0.026 C 
HETATM   15  C15 UNL     1      -0.517  52.617 -26.217  1.00  0.00     0.042 C 
HETATM   16  C16 UNL     1       0.604  51.720 -26.773  1.00  0.00     0.026 C 
HETATM   17  C18 UNL     1      -1.770  52.556 -27.124  1.00  0.00     0.021 C 
HETATM   18  C19 UNL     1      -3.042  52.140 -26.383  1.00  0.00     0.011 C 
HETATM   19  C20 UNL     1      -2.887  50.799 -25.615  1.00  0.00    -0.040 C 
HETATM   20  C21 UNL     1      -2.627  49.699 -26.684  1.00  0.00     0.015 C 
HETATM   21  C22 UNL     1      -4.254  50.470 -24.964  1.00  0.00     0.010 C 
HETATM   22  C23 UNL     1      -4.271  49.486 -23.789  1.00  0.00     0.011 C 
HETATM   23  C24 UNL     1      -2.961  49.343 -22.949  1.00  0.00    -0.032 C 
HETATM   24  C25 UNL     1      -2.205  48.117 -23.536  1.00  0.00     0.016 C 
HETATM   25  C26 UNL     1      -2.852  49.114 -18.845  1.00  0.00     0.025 C 
HETATM   26  C28 UNL     1      -1.787  49.055 -17.691  1.00  0.00     0.135 C 
HETATM   27  C29 UNL     1      -2.370  48.708 -16.316  1.00  0.00     0.101 C 
HETATM   28  C30 UNL     1      -3.416  47.589 -16.360  1.00  0.00     0.168 C 
HETATM   29  O6  UNL     1      -2.822  46.451 -16.999  1.00  0.00    -0.354 OA
HETATM   30  C31 UNL     1      -3.146  46.518 -18.403  1.00  0.00     0.182 C 
ENDROOT
BRANCH  15  31
HETATM   31  C17 UNL     1       0.052  54.042 -26.245  1.00  0.00     0.148 C 
HETATM   32  O1  UNL     1       0.607  54.628 -25.327  1.00  0.00    -0.649 OA
BRANCH  31  33
HETATM   33  O2  UNL     1      -0.175  54.699 -27.402  1.00  0.00    -0.776 OA
HETATM   34  H26 UNL     1       0.205  55.590 -27.246  1.00  0.00     0.167 HD
ENDBRANCH  31  33
ENDBRANCH  15  31
BRANCH  25  35
HETATM   35  C27 UNL     1      -3.647  50.488 -18.707  1.00  0.00     0.177 C 
BRANCH  35  36
HETATM   36  O3  UNL     1      -2.941  51.533 -18.047  1.00  0.00    -0.400 OA
HETATM   37  H43 UNL     1      -3.440  52.356 -18.207  1.00  0.00     0.209 HD
ENDBRANCH  35  36
ENDBRANCH  25  35
BRANCH  26  38
HETATM   38  O4  UNL     1      -1.040  50.269 -17.622  1.00  0.00    -0.394 OA
HETATM   39  H45 UNL     1      -0.538  50.261 -16.784  1.00  0.00     0.210 HD
ENDBRANCH  26  38
BRANCH  28  40
HETATM   40  O5  UNL     1      -3.745  47.273 -15.021  1.00  0.00    -0.365 OA
HETATM   41  H48 UNL     1      -4.707  47.161 -14.947  1.00  0.00     0.213 HD
ENDBRANCH  28  40
TORSDOF 6
ENDMDL
