MODEL 1
REMARK minimizedAffinity -8.75150013
REMARK  12 active torsions:
REMARK  status: ('A' for Active; 'I' for Inactive)
REMARK    1  A    between atoms: C2_2  and  C17_19 
REMARK    2  A    between atoms: C3_3  and  C4_4 
REMARK    3  A    between atoms: C4_4  and  C5_5 
REMARK    4  A    between atoms: C5_5  and  C6_6 
REMARK    5  A    between atoms: C12_12  and  O1_13 
REMARK    6  A    between atoms: C17_19  and  C18_20 
REMARK    7  A    between atoms: C19_21  and  C20_22 
REMARK    8  A    between atoms: C20_22  and  C22_24 
REMARK    9  A    between atoms: C22_24  and  C23_26 
REMARK   10  A    between atoms: C23_26  and  O4_27 
REMARK   11  A    between atoms: C23_26  and  C24_28 
REMARK   12  A    between atoms: C24_28  and  C25_29 
ROOT
HETATM    1  C1  UNL     1      -0.669  10.296  14.597  1.00  0.00     0.043 C 
HETATM    2  C2  UNL     1      -0.435   9.247  13.544  1.00  0.00    -0.084 C 
HETATM    3  C3  UNL     1      -1.421   8.541  12.952  1.00  0.00    -0.024 C 
ENDROOT
BRANCH   3   4
HETATM    4  C4  UNL     1      -2.904   8.721  13.129  1.00  0.00     0.030 C 
BRANCH   4   5
HETATM    5  C5  UNL     1      -3.775   7.466  12.986  1.00  0.00     0.042 C 
BRANCH   5   6
HETATM    6  C6  UNL     1      -3.736   6.395  14.107  1.00  0.00     0.065 C 
HETATM    7  C7  UNL     1      -3.721   7.056  15.496  1.00  0.00     0.046 C 
HETATM    8  C8  UNL     1      -2.561   5.412  14.025  1.00  0.00     0.043 C 
HETATM    9  C9  UNL     1      -2.626   4.582  12.754  1.00  0.00     0.044 C 
HETATM   10  C10 UNL     1      -4.012   4.046  12.550  1.00  0.00    -0.021 A 
HETATM   11  C11 UNL     1      -4.218   2.973  11.672  1.00  0.00     0.046 A 
HETATM   12  C16 UNL     1      -5.108   4.623  13.207  1.00  0.00     0.082 A 
HETATM   13  C12 UNL     1      -5.502   2.475  11.480  1.00  0.00     0.066 A 
HETATM   14  C13 UNL     1      -6.586   3.031  12.144  1.00  0.00     0.046 A 
HETATM   15  C14 UNL     1      -6.401   4.111  13.017  1.00  0.00    -0.025 A 
HETATM   16  C15 UNL     1      -7.580   4.703  13.737  1.00  0.00     0.051 C 
HETATM   17  O2  UNL     1      -4.997   5.686  14.063  1.00  0.00    -0.340 OA
BRANCH  13  18
HETATM   18  O1  UNL     1      -5.742   1.430  10.635  1.00  0.00    -0.361 OA
HETATM   19  H17 UNL     1      -4.892   1.113  10.283  1.00  0.00     0.217 HD
ENDBRANCH  13  18
ENDBRANCH   5   6
ENDBRANCH   4   5
ENDBRANCH   3   4
BRANCH   2  20
HETATM   20  C17 UNL     1       1.025   8.993  13.195  1.00  0.00     0.060 C 
BRANCH  20  21
HETATM   21  C18 UNL     1       1.316   7.522  13.095  1.00  0.00    -0.026 C 
HETATM   22  C19 UNL     1       2.303   6.876  12.446  1.00  0.00    -0.019 C 
BRANCH  22  23
HETATM   23  C20 UNL     1       3.422   7.401  11.577  1.00  0.00     0.076 C 
HETATM   24  C21 UNL     1       4.568   8.082  12.328  1.00  0.00     0.022 C 
BRANCH  23  25
HETATM   25  C22 UNL     1       3.921   6.286  10.645  1.00  0.00     0.162 C 
HETATM   26  O3  UNL     1       5.099   5.907  10.635  1.00  0.00    -0.294 OA
BRANCH  25  27
HETATM   27  C23 UNL     1       2.885   5.553   9.769  1.00  0.00     0.188 C 
BRANCH  27  28
HETATM   28  O4  UNL     1       3.020   4.140   9.899  1.00  0.00    -0.388 OA
HETATM   29  H31 UNL     1       3.748   3.988  10.538  1.00  0.00     0.210 HD
ENDBRANCH  27  28
BRANCH  27  30
HETATM   30  C24 UNL     1       2.883   5.941   8.283  1.00  0.00     0.043 C 
BRANCH  30  31
HETATM   31  C25 UNL     1       2.174   7.240   7.831  1.00  0.00    -0.020 C 
HETATM   32  C26 UNL     1       1.651   7.189   6.392  1.00  0.00     0.009 C 
HETATM   33  C27 UNL     1       3.007   8.501   8.051  1.00  0.00     0.009 C 
ENDBRANCH  30  31
ENDBRANCH  27  30
ENDBRANCH  25  27
ENDBRANCH  23  25
ENDBRANCH  22  23
ENDBRANCH  20  21
ENDBRANCH   2  20
TORSDOF 12
ENDMDL
MODEL 2
REMARK minimizedAffinity -8.71273994
REMARK  12 active torsions:
REMARK  status: ('A' for Active; 'I' for Inactive)
REMARK    1  A    between atoms: C2_2  and  C17_19 
REMARK    2  A    between atoms: C3_3  and  C4_4 
REMARK    3  A    between atoms: C4_4  and  C5_5 
REMARK    4  A    between atoms: C5_5  and  C6_6 
REMARK    5  A    between atoms: C12_12  and  O1_13 
REMARK    6  A    between atoms: C17_19  and  C18_20 
REMARK    7  A    between atoms: C19_21  and  C20_22 
REMARK    8  A    between atoms: C20_22  and  C22_24 
REMARK    9  A    between atoms: C22_24  and  C23_26 
REMARK   10  A    between atoms: C23_26  and  O4_27 
REMARK   11  A    between atoms: C23_26  and  C24_28 
REMARK   12  A    between atoms: C24_28  and  C25_29 
ROOT
HETATM    1  C1  UNL     1      -4.486   4.656  12.401  1.00  0.00     0.043 C 
HETATM    2  C2  UNL     1      -3.594   5.738  12.949  1.00  0.00    -0.084 C 
HETATM    3  C3  UNL     1      -4.028   6.968  13.293  1.00  0.00    -0.024 C 
ENDROOT
BRANCH   3   4
HETATM    4  C4  UNL     1      -5.447   7.464  13.308  1.00  0.00     0.030 C 
BRANCH   4   5
HETATM    5  C5  UNL     1      -5.981   7.994  14.644  1.00  0.00     0.042 C 
BRANCH   5   6
HETATM    6  C6  UNL     1      -7.447   7.682  15.043  1.00  0.00     0.065 C 
HETATM    7  C7  UNL     1      -8.235   8.980  15.291  1.00  0.00     0.046 C 
HETATM    8  C8  UNL     1      -7.606   6.775  16.269  1.00  0.00     0.043 C 
HETATM    9  C9  UNL     1      -7.016   5.398  16.016  1.00  0.00     0.044 C 
HETATM   10  C10 UNL     1      -7.465   4.874  14.684  1.00  0.00    -0.021 A 
HETATM   11  C11 UNL     1      -7.356   3.504  14.406  1.00  0.00     0.046 A 
HETATM   12  C16 UNL     1      -7.968   5.741  13.704  1.00  0.00     0.082 A 
HETATM   13  C12 UNL     1      -7.771   3.015  13.173  1.00  0.00     0.066 A 
HETATM   14  C13 UNL     1      -8.287   3.869  12.207  1.00  0.00     0.046 A 
HETATM   15  C14 UNL     1      -8.394   5.241  12.463  1.00  0.00    -0.025 A 
HETATM   16  C15 UNL     1      -8.960   6.157  11.415  1.00  0.00     0.051 C 
HETATM   17  O2  UNL     1      -8.087   7.093  13.886  1.00  0.00    -0.340 OA
BRANCH  13  18
HETATM   18  O1  UNL     1      -7.682   1.688  12.866  1.00  0.00    -0.361 OA
HETATM   19  H17 UNL     1      -7.354   1.209  13.647  1.00  0.00     0.217 HD
ENDBRANCH  13  18
ENDBRANCH   5   6
ENDBRANCH   4   5
ENDBRANCH   3   4
BRANCH   2  20
HETATM   20  C17 UNL     1      -2.122   5.366  13.066  1.00  0.00     0.060 C 
BRANCH  20  21
HETATM   21  C18 UNL     1      -1.554   4.955  11.736  1.00  0.00    -0.026 C 
HETATM   22  C19 UNL     1      -0.360   5.232  11.182  1.00  0.00    -0.019 C 
BRANCH  22  23
HETATM   23  C20 UNL     1       0.792   6.070  11.685  1.00  0.00     0.076 C 
HETATM   24  C21 UNL     1       1.080   5.952  13.184  1.00  0.00     0.022 C 
BRANCH  23  25
HETATM   25  C22 UNL     1       2.041   5.800  10.833  1.00  0.00     0.162 C 
HETATM   26  O3  UNL     1       2.310   4.679  10.383  1.00  0.00    -0.294 OA
BRANCH  25  27
HETATM   27  C23 UNL     1       2.930   7.000  10.446  1.00  0.00     0.188 C 
BRANCH  27  28
HETATM   28  O4  UNL     1       2.586   8.153  11.210  1.00  0.00    -0.388 OA
HETATM   29  H31 UNL     1       1.862   7.882  11.812  1.00  0.00     0.210 HD
ENDBRANCH  27  28
BRANCH  27  30
HETATM   30  C24 UNL     1       2.952   7.353   8.952  1.00  0.00     0.043 C 
BRANCH  30  31
HETATM   31  C25 UNL     1       1.660   7.209   8.112  1.00  0.00    -0.020 C 
HETATM   32  C26 UNL     1       1.908   7.155   6.602  1.00  0.00     0.009 C 
HETATM   33  C27 UNL     1       0.596   8.255   8.439  1.00  0.00     0.009 C 
ENDBRANCH  30  31
ENDBRANCH  27  30
ENDBRANCH  25  27
ENDBRANCH  23  25
ENDBRANCH  22  23
ENDBRANCH  20  21
ENDBRANCH   2  20
TORSDOF 12
ENDMDL
MODEL 3
REMARK minimizedAffinity -8.68943214
REMARK  12 active torsions:
REMARK  status: ('A' for Active; 'I' for Inactive)
REMARK    1  A    between atoms: C2_2  and  C17_19 
REMARK    2  A    between atoms: C3_3  and  C4_4 
REMARK    3  A    between atoms: C4_4  and  C5_5 
REMARK    4  A    between atoms: C5_5  and  C6_6 
REMARK    5  A    between atoms: C12_12  and  O1_13 
REMARK    6  A    between atoms: C17_19  and  C18_20 
REMARK    7  A    between atoms: C19_21  and  C20_22 
REMARK    8  A    between atoms: C20_22  and  C22_24 
REMARK    9  A    between atoms: C22_24  and  C23_26 
REMARK   10  A    between atoms: C23_26  and  O4_27 
REMARK   11  A    between atoms: C23_26  and  C24_28 
REMARK   12  A    between atoms: C24_28  and  C25_29 
ROOT
HETATM    1  C1  UNL     1      -1.141   9.850  13.881  1.00  0.00     0.043 C 
HETATM    2  C2  UNL     1      -1.622   9.028  12.715  1.00  0.00    -0.084 C 
HETATM    3  C3  UNL     1      -2.887   8.576  12.583  1.00  0.00    -0.024 C 
ENDROOT
BRANCH   3   4
HETATM    4  C4  UNL     1      -4.060   8.876  13.474  1.00  0.00     0.030 C 
BRANCH   4   5
HETATM    5  C5  UNL     1      -5.261   7.926  13.379  1.00  0.00     0.042 C 
BRANCH   5   6
HETATM    6  C6  UNL     1      -5.484   6.885  14.507  1.00  0.00     0.065 C 
HETATM    7  C7  UNL     1      -6.297   7.494  15.662  1.00  0.00     0.046 C 
HETATM    8  C8  UNL     1      -4.203   6.271  15.085  1.00  0.00     0.043 C 
HETATM    9  C9  UNL     1      -3.446   5.482  14.031  1.00  0.00     0.044 C 
HETATM   10  C10 UNL     1      -4.382   4.585  13.275  1.00  0.00    -0.021 A 
HETATM   11  C11 UNL     1      -3.866   3.516  12.529  1.00  0.00     0.046 A 
HETATM   12  C16 UNL     1      -5.764   4.820  13.285  1.00  0.00     0.082 A 
HETATM   13  C12 UNL     1      -4.731   2.685  11.828  1.00  0.00     0.066 A 
HETATM   14  C13 UNL     1      -6.102   2.902  11.851  1.00  0.00     0.046 A 
HETATM   15  C14 UNL     1      -6.634   3.972  12.582  1.00  0.00    -0.025 A 
HETATM   16  C15 UNL     1      -8.120   4.196  12.608  1.00  0.00     0.051 C 
HETATM   17  O2  UNL     1      -6.346   5.853  13.970  1.00  0.00    -0.340 OA
BRANCH  13  18
HETATM   18  O1  UNL     1      -4.268   1.633  11.091  1.00  0.00    -0.361 OA
HETATM   19  H17 UNL     1      -3.303   1.572  11.208  1.00  0.00     0.217 HD
ENDBRANCH  13  18
ENDBRANCH   5   6
ENDBRANCH   4   5
ENDBRANCH   3   4
BRANCH   2  20
HETATM   20  C17 UNL     1      -0.561   8.696  11.675  1.00  0.00     0.060 C 
BRANCH  20  21
HETATM   21  C18 UNL     1       0.824   8.860  12.235  1.00  0.00    -0.026 C 
HETATM   22  C19 UNL     1       1.735   7.930  12.579  1.00  0.00    -0.019 C 
BRANCH  22  23
HETATM   23  C20 UNL     1       1.663   6.421  12.553  1.00  0.00     0.076 C 
HETATM   24  C21 UNL     1       0.454   5.812  13.267  1.00  0.00     0.022 C 
BRANCH  23  25
HETATM   25  C22 UNL     1       1.793   5.921  11.106  1.00  0.00     0.162 C 
HETATM   26  O3  UNL     1       0.837   5.445  10.479  1.00  0.00    -0.294 OA
BRANCH  25  27
HETATM   27  C23 UNL     1       3.142   6.120  10.387  1.00  0.00     0.188 C 
BRANCH  27  28
HETATM   28  O4  UNL     1       4.228   6.005  11.304  1.00  0.00    -0.388 OA
HETATM   29  H31 UNL     1       3.832   5.811  12.180  1.00  0.00     0.210 HD
ENDBRANCH  27  28
BRANCH  27  30
HETATM   30  C24 UNL     1       3.278   7.421   9.582  1.00  0.00     0.043 C 
BRANCH  30  31
HETATM   31  C25 UNL     1       2.542   7.564   8.228  1.00  0.00    -0.020 C 
HETATM   32  C26 UNL     1       1.165   8.225   8.340  1.00  0.00     0.009 C 
HETATM   33  C27 UNL     1       2.443   6.258   7.443  1.00  0.00     0.009 C 
ENDBRANCH  30  31
ENDBRANCH  27  30
ENDBRANCH  25  27
ENDBRANCH  23  25
ENDBRANCH  22  23
ENDBRANCH  20  21
ENDBRANCH   2  20
TORSDOF 12
ENDMDL
MODEL 4
REMARK minimizedAffinity -8.54811382
REMARK  12 active torsions:
REMARK  status: ('A' for Active; 'I' for Inactive)
REMARK    1  A    between atoms: C2_2  and  C17_19 
REMARK    2  A    between atoms: C3_3  and  C4_4 
REMARK    3  A    between atoms: C4_4  and  C5_5 
REMARK    4  A    between atoms: C5_5  and  C6_6 
REMARK    5  A    between atoms: C12_12  and  O1_13 
REMARK    6  A    between atoms: C17_19  and  C18_20 
REMARK    7  A    between atoms: C19_21  and  C20_22 
REMARK    8  A    between atoms: C20_22  and  C22_24 
REMARK    9  A    between atoms: C22_24  and  C23_26 
REMARK   10  A    between atoms: C23_26  and  O4_27 
REMARK   11  A    between atoms: C23_26  and  C24_28 
REMARK   12  A    between atoms: C24_28  and  C25_29 
ROOT
HETATM    1  C1  UNL     1      -3.640   7.300  15.040  1.00  0.00     0.043 C 
HETATM    2  C2  UNL     1      -4.030   6.804  13.673  1.00  0.00    -0.084 C 
HETATM    3  C3  UNL     1      -3.191   6.154  12.840  1.00  0.00    -0.024 C 
ENDROOT
BRANCH   3   4
HETATM    4  C4  UNL     1      -1.783   5.709  13.127  1.00  0.00     0.030 C 
BRANCH   4   5
HETATM    5  C5  UNL     1      -0.762   5.868  11.993  1.00  0.00     0.042 C 
BRANCH   5   6
HETATM    6  C6  UNL     1       0.442   6.824  12.197  1.00  0.00     0.065 C 
HETATM    7  C7  UNL     1       0.985   6.723  13.633  1.00  0.00     0.046 C 
HETATM    8  C8  UNL     1       0.157   8.300  11.889  1.00  0.00     0.043 C 
HETATM    9  C9  UNL     1      -0.198   8.497  10.425  1.00  0.00     0.044 C 
HETATM   10  C10 UNL     1       0.774   7.765   9.547  1.00  0.00    -0.021 A 
HETATM   11  C11 UNL     1       0.869   8.099   8.189  1.00  0.00     0.046 A 
HETATM   12  C16 UNL     1       1.570   6.732  10.063  1.00  0.00     0.082 A 
HETATM   13  C12 UNL     1       1.768   7.421   7.373  1.00  0.00     0.066 A 
HETATM   14  C13 UNL     1       2.571   6.412   7.886  1.00  0.00     0.046 A 
HETATM   15  C14 UNL     1       2.482   6.057   9.238  1.00  0.00    -0.025 A 
HETATM   16  C15 UNL     1       3.360   4.968   9.786  1.00  0.00     0.051 C 
HETATM   17  O2  UNL     1       1.523   6.330  11.371  1.00  0.00    -0.340 OA
BRANCH  13  18
HETATM   18  O1  UNL     1       1.890   7.719   6.047  1.00  0.00    -0.361 OA
HETATM   19  H17 UNL     1       1.310   8.472   5.842  1.00  0.00     0.217 HD
ENDBRANCH  13  18
ENDBRANCH   5   6
ENDBRANCH   4   5
ENDBRANCH   3   4
BRANCH   2  20
HETATM   20  C17 UNL     1      -5.461   7.114  13.256  1.00  0.00     0.060 C 
BRANCH  20  21
HETATM   21  C18 UNL     1      -6.264   7.645  14.410  1.00  0.00    -0.026 C 
HETATM   22  C19 UNL     1      -7.464   7.257  14.882  1.00  0.00    -0.019 C 
BRANCH  22  23
HETATM   23  C20 UNL     1      -8.417   6.191  14.397  1.00  0.00     0.076 C 
HETATM   24  C21 UNL     1      -9.066   6.463  13.038  1.00  0.00     0.022 C 
BRANCH  23  25
HETATM   25  C22 UNL     1      -7.728   4.819  14.444  1.00  0.00     0.162 C 
HETATM   26  O3  UNL     1      -7.370   4.290  15.505  1.00  0.00    -0.294 OA
BRANCH  25  27
HETATM   27  C23 UNL     1      -7.572   4.038  13.123  1.00  0.00     0.188 C 
BRANCH  27  28
HETATM   28  O4  UNL     1      -8.543   2.999  13.030  1.00  0.00    -0.388 OA
HETATM   29  H31 UNL     1      -9.086   3.052  13.844  1.00  0.00     0.210 HD
ENDBRANCH  27  28
BRANCH  27  30
HETATM   30  C24 UNL     1      -6.172   3.467  12.853  1.00  0.00     0.043 C 
BRANCH  30  31
HETATM   31  C25 UNL     1      -5.819   2.938  11.443  1.00  0.00    -0.020 C 
HETATM   32  C26 UNL     1      -5.970   1.421  11.297  1.00  0.00     0.009 C 
HETATM   33  C27 UNL     1      -4.448   3.387  10.944  1.00  0.00     0.009 C 
ENDBRANCH  30  31
ENDBRANCH  27  30
ENDBRANCH  25  27
ENDBRANCH  23  25
ENDBRANCH  22  23
ENDBRANCH  20  21
ENDBRANCH   2  20
TORSDOF 12
ENDMDL
MODEL 5
REMARK minimizedAffinity -8.48166561
REMARK  12 active torsions:
REMARK  status: ('A' for Active; 'I' for Inactive)
REMARK    1  A    between atoms: C2_2  and  C17_19 
REMARK    2  A    between atoms: C3_3  and  C4_4 
REMARK    3  A    between atoms: C4_4  and  C5_5 
REMARK    4  A    between atoms: C5_5  and  C6_6 
REMARK    5  A    between atoms: C12_12  and  O1_13 
REMARK    6  A    between atoms: C17_19  and  C18_20 
REMARK    7  A    between atoms: C19_21  and  C20_22 
REMARK    8  A    between atoms: C20_22  and  C22_24 
REMARK    9  A    between atoms: C22_24  and  C23_26 
REMARK   10  A    between atoms: C23_26  and  O4_27 
REMARK   11  A    between atoms: C23_26  and  C24_28 
REMARK   12  A    between atoms: C24_28  and  C25_29 
ROOT
HETATM    1  C1  UNL     1      -0.248   8.592  16.025  1.00  0.00     0.043 C 
HETATM    2  C2  UNL     1      -1.030   8.473  14.744  1.00  0.00    -0.084 C 
HETATM    3  C3  UNL     1      -2.173   7.766  14.623  1.00  0.00    -0.024 C 
ENDROOT
BRANCH   3   4
HETATM    4  C4  UNL     1      -2.934   7.068  15.716  1.00  0.00     0.030 C 
BRANCH   4   5
HETATM    5  C5  UNL     1      -4.371   6.638  15.393  1.00  0.00     0.042 C 
BRANCH   5   6
HETATM    6  C6  UNL     1      -5.004   7.087  14.050  1.00  0.00     0.065 C 
HETATM    7  C7  UNL     1      -4.298   8.340  13.503  1.00  0.00     0.046 C 
HETATM    8  C8  UNL     1      -6.511   7.364  14.104  1.00  0.00     0.043 C 
HETATM    9  C9  UNL     1      -7.290   6.106  14.450  1.00  0.00     0.044 C 
HETATM   10  C10 UNL     1      -6.811   4.950  13.622  1.00  0.00    -0.021 A 
HETATM   11  C11 UNL     1      -7.613   3.806  13.500  1.00  0.00     0.046 A 
HETATM   12  C16 UNL     1      -5.561   4.990  12.989  1.00  0.00     0.082 A 
HETATM   13  C12 UNL     1      -7.172   2.733  12.734  1.00  0.00     0.066 A 
HETATM   14  C13 UNL     1      -5.942   2.777  12.091  1.00  0.00     0.046 A 
HETATM   15  C14 UNL     1      -5.124   3.907  12.210  1.00  0.00    -0.025 A 
HETATM   16  C15 UNL     1      -3.797   3.949  11.504  1.00  0.00     0.051 C 
HETATM   17  O2  UNL     1      -4.709   6.058  13.075  1.00  0.00    -0.340 OA
BRANCH  13  18
HETATM   18  O1  UNL     1      -7.924   1.603  12.591  1.00  0.00    -0.361 OA
HETATM   19  H17 UNL     1      -8.772   1.734  13.049  1.00  0.00     0.217 HD
ENDBRANCH  13  18
ENDBRANCH   5   6
ENDBRANCH   4   5
ENDBRANCH   3   4
BRANCH   2  20
HETATM   20  C17 UNL     1      -0.425   9.192  13.547  1.00  0.00     0.060 C 
BRANCH  20  21
HETATM   21  C18 UNL     1      -0.720   8.464  12.265  1.00  0.00    -0.026 C 
HETATM   22  C19 UNL     1      -0.133   7.376  11.732  1.00  0.00    -0.019 C 
BRANCH  22  23
HETATM   23  C20 UNL     1       1.033   6.546  12.216  1.00  0.00     0.076 C 
HETATM   24  C21 UNL     1       0.736   5.637  13.411  1.00  0.00     0.022 C 
BRANCH  23  25
HETATM   25  C22 UNL     1       1.642   5.772  11.038  1.00  0.00     0.162 C 
HETATM   26  O3  UNL     1       1.060   4.826  10.491  1.00  0.00    -0.294 OA
BRANCH  25  27
HETATM   27  C23 UNL     1       2.984   6.266  10.460  1.00  0.00     0.188 C 
BRANCH  27  28
HETATM   28  O4  UNL     1       3.336   7.535  11.006  1.00  0.00    -0.388 OA
HETATM   29  H31 UNL     1       2.624   7.772  11.637  1.00  0.00     0.210 HD
ENDBRANCH  27  28
BRANCH  27  30
HETATM   30  C24 UNL     1       3.065   6.320   8.927  1.00  0.00     0.043 C 
BRANCH  30  31
HETATM   31  C25 UNL     1       2.355   7.463   8.163  1.00  0.00    -0.020 C 
HETATM   32  C26 UNL     1       1.826   7.050   6.786  1.00  0.00     0.009 C 
HETATM   33  C27 UNL     1       3.190   8.737   8.052  1.00  0.00     0.009 C 
ENDBRANCH  30  31
ENDBRANCH  27  30
ENDBRANCH  25  27
ENDBRANCH  23  25
ENDBRANCH  22  23
ENDBRANCH  20  21
ENDBRANCH   2  20
TORSDOF 12
ENDMDL
MODEL 6
REMARK minimizedAffinity -8.47846794
REMARK  12 active torsions:
REMARK  status: ('A' for Active; 'I' for Inactive)
REMARK    1  A    between atoms: C2_2  and  C17_19 
REMARK    2  A    between atoms: C3_3  and  C4_4 
REMARK    3  A    between atoms: C4_4  and  C5_5 
REMARK    4  A    between atoms: C5_5  and  C6_6 
REMARK    5  A    between atoms: C12_12  and  O1_13 
REMARK    6  A    between atoms: C17_19  and  C18_20 
REMARK    7  A    between atoms: C19_21  and  C20_22 
REMARK    8  A    between atoms: C20_22  and  C22_24 
REMARK    9  A    between atoms: C22_24  and  C23_26 
REMARK   10  A    between atoms: C23_26  and  O4_27 
REMARK   11  A    between atoms: C23_26  and  C24_28 
REMARK   12  A    between atoms: C24_28  and  C25_29 
ROOT
HETATM    1  C1  UNL     1       0.422   7.609  13.845  1.00  0.00     0.043 C 
HETATM    2  C2  UNL     1      -0.027   7.735  12.414  1.00  0.00    -0.084 C 
HETATM    3  C3  UNL     1      -1.291   8.029  12.045  1.00  0.00    -0.024 C 
ENDROOT
BRANCH   3   4
HETATM    4  C4  UNL     1      -2.443   8.388  12.941  1.00  0.00     0.030 C 
BRANCH   4   5
HETATM    5  C5  UNL     1      -3.605   7.389  13.007  1.00  0.00     0.042 C 
BRANCH   5   6
HETATM    6  C6  UNL     1      -3.592   6.294  14.106  1.00  0.00     0.065 C 
HETATM    7  C7  UNL     1      -3.516   6.925  15.507  1.00  0.00     0.046 C 
HETATM    8  C8  UNL     1      -2.465   5.261  13.978  1.00  0.00     0.043 C 
HETATM    9  C9  UNL     1      -2.596   4.460  12.693  1.00  0.00     0.044 C 
HETATM   10  C10 UNL     1      -4.010   3.993  12.510  1.00  0.00    -0.021 A 
HETATM   11  C11 UNL     1      -4.285   2.949  11.615  1.00  0.00     0.046 A 
HETATM   12  C16 UNL     1      -5.064   4.606  13.203  1.00  0.00     0.082 A 
HETATM   13  C12 UNL     1      -5.594   2.514  11.443  1.00  0.00     0.066 A 
HETATM   14  C13 UNL     1      -6.637   3.106  12.142  1.00  0.00     0.046 A 
HETATM   15  C14 UNL     1      -6.383   4.158  13.032  1.00  0.00    -0.025 A 
HETATM   16  C15 UNL     1      -7.518   4.788  13.789  1.00  0.00     0.051 C 
HETATM   17  O2  UNL     1      -4.885   5.644  14.076  1.00  0.00    -0.340 OA
BRANCH  13  18
HETATM   18  O1  UNL     1      -5.900   1.500  10.583  1.00  0.00    -0.361 OA
HETATM   19  H17 UNL     1      -5.074   1.150  10.206  1.00  0.00     0.217 HD
ENDBRANCH  13  18
ENDBRANCH   5   6
ENDBRANCH   4   5
ENDBRANCH   3   4
BRANCH   2  20
HETATM   20  C17 UNL     1       1.051   7.471  11.372  1.00  0.00     0.060 C 
BRANCH  20  21
HETATM   21  C18 UNL     1       0.502   7.583   9.977  1.00  0.00    -0.026 C 
HETATM   22  C19 UNL     1       1.136   7.536   8.790  1.00  0.00    -0.019 C 
BRANCH  22  23
HETATM   23  C20 UNL     1       2.603   7.390   8.460  1.00  0.00     0.076 C 
HETATM   24  C21 UNL     1       3.548   8.277   9.274  1.00  0.00     0.022 C 
BRANCH  23  25
HETATM   25  C22 UNL     1       3.004   5.908   8.524  1.00  0.00     0.162 C 
HETATM   26  O3  UNL     1       2.965   5.165   7.534  1.00  0.00    -0.294 OA
BRANCH  25  27
HETATM   27  C23 UNL     1       3.569   5.364   9.851  1.00  0.00     0.188 C 
BRANCH  27  28
HETATM   28  O4  UNL     1       2.578   4.621  10.558  1.00  0.00    -0.388 OA
HETATM   29  H31 UNL     1       1.772   4.634  10.001  1.00  0.00     0.210 HD
ENDBRANCH  27  28
BRANCH  27  30
HETATM   30  C24 UNL     1       4.195   6.413  10.783  1.00  0.00     0.043 C 
BRANCH  30  31
HETATM   31  C25 UNL     1       5.729   6.442  10.981  1.00  0.00    -0.020 C 
HETATM   32  C26 UNL     1       6.410   5.094  10.728  1.00  0.00     0.009 C 
HETATM   33  C27 UNL     1       6.162   7.012  12.330  1.00  0.00     0.009 C 
ENDBRANCH  30  31
ENDBRANCH  27  30
ENDBRANCH  25  27
ENDBRANCH  23  25
ENDBRANCH  22  23
ENDBRANCH  20  21
ENDBRANCH   2  20
TORSDOF 12
ENDMDL
MODEL 7
REMARK minimizedAffinity -8.4714756
REMARK  12 active torsions:
REMARK  status: ('A' for Active; 'I' for Inactive)
REMARK    1  A    between atoms: C2_2  and  C17_19 
REMARK    2  A    between atoms: C3_3  and  C4_4 
REMARK    3  A    between atoms: C4_4  and  C5_5 
REMARK    4  A    between atoms: C5_5  and  C6_6 
REMARK    5  A    between atoms: C12_12  and  O1_13 
REMARK    6  A    between atoms: C17_19  and  C18_20 
REMARK    7  A    between atoms: C19_21  and  C20_22 
REMARK    8  A    between atoms: C20_22  and  C22_24 
REMARK    9  A    between atoms: C22_24  and  C23_26 
REMARK   10  A    between atoms: C23_26  and  O4_27 
REMARK   11  A    between atoms: C23_26  and  C24_28 
REMARK   12  A    between atoms: C24_28  and  C25_29 
ROOT
HETATM    1  C1  UNL     1      -2.726   8.930  12.790  1.00  0.00     0.043 C 
HETATM    2  C2  UNL     1      -2.902   7.448  12.990  1.00  0.00    -0.084 C 
HETATM    3  C3  UNL     1      -4.089   6.859  13.244  1.00  0.00    -0.024 C 
ENDROOT
BRANCH   3   4
HETATM    4  C4  UNL     1      -5.444   7.510  13.271  1.00  0.00     0.030 C 
BRANCH   4   5
HETATM    5  C5  UNL     1      -5.941   8.018  14.630  1.00  0.00     0.042 C 
BRANCH   5   6
HETATM    6  C6  UNL     1      -7.404   7.723  15.051  1.00  0.00     0.065 C 
HETATM    7  C7  UNL     1      -8.175   9.029  15.308  1.00  0.00     0.046 C 
HETATM    8  C8  UNL     1      -7.556   6.820  16.282  1.00  0.00     0.043 C 
HETATM    9  C9  UNL     1      -6.984   5.436  16.024  1.00  0.00     0.044 C 
HETATM   10  C10 UNL     1      -7.458   4.913  14.700  1.00  0.00    -0.021 A 
HETATM   11  C11 UNL     1      -7.368   3.542  14.424  1.00  0.00     0.046 A 
HETATM   12  C16 UNL     1      -7.966   5.784  13.725  1.00  0.00     0.082 A 
HETATM   13  C12 UNL     1      -7.806   3.054  13.198  1.00  0.00     0.066 A 
HETATM   14  C13 UNL     1      -8.328   3.911  12.238  1.00  0.00     0.046 A 
HETATM   15  C14 UNL     1      -8.415   5.285  12.492  1.00  0.00    -0.025 A 
HETATM   16  C15 UNL     1      -8.988   6.205  11.449  1.00  0.00     0.051 C 
HETATM   17  O2  UNL     1      -8.068   7.137  13.905  1.00  0.00    -0.340 OA
BRANCH  13  18
HETATM   18  O1  UNL     1      -7.736   1.726  12.894  1.00  0.00    -0.361 OA
HETATM   19  H17 UNL     1      -7.402   1.245  13.671  1.00  0.00     0.217 HD
ENDBRANCH  13  18
ENDBRANCH   5   6
ENDBRANCH   4   5
ENDBRANCH   3   4
BRANCH   2  20
HETATM   20  C17 UNL     1      -1.621   6.628  12.920  1.00  0.00     0.060 C 
BRANCH  20  21
HETATM   21  C18 UNL     1      -0.417   7.509  12.738  1.00  0.00    -0.026 C 
HETATM   22  C19 UNL     1       0.299   7.779  11.631  1.00  0.00    -0.019 C 
BRANCH  22  23
HETATM   23  C20 UNL     1       0.161   7.266  10.216  1.00  0.00     0.076 C 
HETATM   24  C21 UNL     1       0.033   8.346   9.139  1.00  0.00     0.022 C 
BRANCH  23  25
HETATM   25  C22 UNL     1       1.296   6.276   9.911  1.00  0.00     0.162 C 
HETATM   26  O3  UNL     1       1.426   5.205  10.518  1.00  0.00    -0.294 OA
BRANCH  25  27
HETATM   27  C23 UNL     1       2.240   6.595   8.734  1.00  0.00     0.188 C 
BRANCH  27  28
HETATM   28  O4  UNL     1       2.907   5.417   8.285  1.00  0.00    -0.388 OA
HETATM   29  H31 UNL     1       2.578   4.682   8.845  1.00  0.00     0.210 HD
ENDBRANCH  27  28
BRANCH  27  30
HETATM   30  C24 UNL     1       3.268   7.707   8.992  1.00  0.00     0.043 C 
BRANCH  30  31
HETATM   31  C25 UNL     1       4.023   7.754  10.342  1.00  0.00    -0.020 C 
HETATM   32  C26 UNL     1       4.999   8.927  10.462  1.00  0.00     0.009 C 
HETATM   33  C27 UNL     1       4.718   6.443  10.701  1.00  0.00     0.009 C 
ENDBRANCH  30  31
ENDBRANCH  27  30
ENDBRANCH  25  27
ENDBRANCH  23  25
ENDBRANCH  22  23
ENDBRANCH  20  21
ENDBRANCH   2  20
TORSDOF 12
ENDMDL
MODEL 8
REMARK minimizedAffinity -8.42894268
REMARK  12 active torsions:
REMARK  status: ('A' for Active; 'I' for Inactive)
REMARK    1  A    between atoms: C2_2  and  C17_19 
REMARK    2  A    between atoms: C3_3  and  C4_4 
REMARK    3  A    between atoms: C4_4  and  C5_5 
REMARK    4  A    between atoms: C5_5  and  C6_6 
REMARK    5  A    between atoms: C12_12  and  O1_13 
REMARK    6  A    between atoms: C17_19  and  C18_20 
REMARK    7  A    between atoms: C19_21  and  C20_22 
REMARK    8  A    between atoms: C20_22  and  C22_24 
REMARK    9  A    between atoms: C22_24  and  C23_26 
REMARK   10  A    between atoms: C23_26  and  O4_27 
REMARK   11  A    between atoms: C23_26  and  C24_28 
REMARK   12  A    between atoms: C24_28  and  C25_29 
ROOT
HETATM    1  C1  UNL     1      -2.216   8.591  12.762  1.00  0.00     0.043 C 
HETATM    2  C2  UNL     1      -2.434   7.102  12.732  1.00  0.00    -0.084 C 
HETATM    3  C3  UNL     1      -1.504   6.212  12.327  1.00  0.00    -0.024 C 
ENDROOT
BRANCH   3   4
HETATM    4  C4  UNL     1      -0.079   6.495  11.941  1.00  0.00     0.030 C 
BRANCH   4   5
HETATM    5  C5  UNL     1       0.294   6.281  10.468  1.00  0.00     0.042 C 
BRANCH   5   6
HETATM    6  C6  UNL     1       0.994   7.431   9.698  1.00  0.00     0.065 C 
HETATM    7  C7  UNL     1      -0.041   8.404   9.107  1.00  0.00     0.046 C 
HETATM    8  C8  UNL     1       1.933   6.979   8.572  1.00  0.00     0.043 C 
HETATM    9  C9  UNL     1       3.097   6.170   9.118  1.00  0.00     0.044 C 
HETATM   10  C10 UNL     1       3.698   6.856  10.309  1.00  0.00    -0.021 A 
HETATM   11  C11 UNL     1       4.984   6.498  10.740  1.00  0.00     0.046 A 
HETATM   12  C16 UNL     1       2.979   7.832  11.014  1.00  0.00     0.082 A 
HETATM   13  C12 UNL     1       5.543   7.132  11.843  1.00  0.00     0.066 A 
HETATM   14  C13 UNL     1       4.841   8.112  12.531  1.00  0.00     0.046 A 
HETATM   15  C14 UNL     1       3.551   8.475  12.123  1.00  0.00    -0.025 A 
HETATM   16  C15 UNL     1       2.802   9.542  12.869  1.00  0.00     0.051 C 
HETATM   17  O2  UNL     1       1.712   8.223  10.673  1.00  0.00    -0.340 OA
BRANCH  13  18
HETATM   18  O1  UNL     1       6.792   6.812  12.291  1.00  0.00    -0.361 OA
HETATM   19  H17 UNL     1       7.180   6.154  11.688  1.00  0.00     0.217 HD
ENDBRANCH  13  18
ENDBRANCH   5   6
ENDBRANCH   4   5
ENDBRANCH   3   4
BRANCH   2  20
HETATM   20  C17 UNL     1      -3.819   6.642  13.169  1.00  0.00     0.060 C 
BRANCH  20  21
HETATM   21  C18 UNL     1      -3.791   5.225  13.672  1.00  0.00    -0.026 C 
HETATM   22  C19 UNL     1      -4.148   4.081  13.059  1.00  0.00    -0.019 C 
BRANCH  22  23
HETATM   23  C20 UNL     1      -4.724   3.836  11.684  1.00  0.00     0.076 C 
HETATM   24  C21 UNL     1      -3.705   3.468  10.604  1.00  0.00     0.022 C 
BRANCH  23  25
HETATM   25  C22 UNL     1      -5.866   2.812  11.776  1.00  0.00     0.162 C 
HETATM   26  O3  UNL     1      -5.819   1.712  11.210  1.00  0.00    -0.294 OA
BRANCH  25  27
HETATM   27  C23 UNL     1      -7.062   3.137  12.693  1.00  0.00     0.188 C 
BRANCH  27  28
HETATM   28  O4  UNL     1      -8.028   2.088  12.658  1.00  0.00    -0.388 OA
HETATM   29  H31 UNL     1      -7.672   1.403  12.055  1.00  0.00     0.210 HD
ENDBRANCH  27  28
BRANCH  27  30
HETATM   30  C24 UNL     1      -7.750   4.485  12.430  1.00  0.00     0.043 C 
BRANCH  30  31
HETATM   31  C25 UNL     1      -7.757   5.569  13.534  1.00  0.00    -0.020 C 
HETATM   32  C26 UNL     1      -7.354   5.045  14.916  1.00  0.00     0.009 C 
HETATM   33  C27 UNL     1      -9.068   6.347  13.621  1.00  0.00     0.009 C 
ENDBRANCH  30  31
ENDBRANCH  27  30
ENDBRANCH  25  27
ENDBRANCH  23  25
ENDBRANCH  22  23
ENDBRANCH  20  21
ENDBRANCH   2  20
TORSDOF 12
ENDMDL
MODEL 9
REMARK minimizedAffinity -8.23681068
REMARK  12 active torsions:
REMARK  status: ('A' for Active; 'I' for Inactive)
REMARK    1  A    between atoms: C2_2  and  C17_19 
REMARK    2  A    between atoms: C3_3  and  C4_4 
REMARK    3  A    between atoms: C4_4  and  C5_5 
REMARK    4  A    between atoms: C5_5  and  C6_6 
REMARK    5  A    between atoms: C12_12  and  O1_13 
REMARK    6  A    between atoms: C17_19  and  C18_20 
REMARK    7  A    between atoms: C19_21  and  C20_22 
REMARK    8  A    between atoms: C20_22  and  C22_24 
REMARK    9  A    between atoms: C22_24  and  C23_26 
REMARK   10  A    between atoms: C23_26  and  O4_27 
REMARK   11  A    between atoms: C23_26  and  C24_28 
REMARK   12  A    between atoms: C24_28  and  C25_29 
ROOT
HETATM    1  C1  UNL     1      -3.469   1.578  11.765  1.00  0.00     0.043 C 
HETATM    2  C2  UNL     1      -4.462   2.708  11.715  1.00  0.00    -0.084 C 
HETATM    3  C3  UNL     1      -4.158   3.991  12.002  1.00  0.00    -0.024 C 
ENDROOT
BRANCH   3   4
HETATM    4  C4  UNL     1      -2.801   4.560  12.310  1.00  0.00     0.030 C 
BRANCH   4   5
HETATM    5  C5  UNL     1      -2.745   6.040  12.707  1.00  0.00     0.042 C 
BRANCH   5   6
HETATM    6  C6  UNL     1      -1.452   6.593  13.359  1.00  0.00     0.065 C 
HETATM    7  C7  UNL     1      -1.278   6.043  14.785  1.00  0.00     0.046 C 
HETATM    8  C8  UNL     1      -1.356   8.123  13.415  1.00  0.00     0.043 C 
HETATM    9  C9  UNL     1      -1.325   8.724  12.020  1.00  0.00     0.044 C 
HETATM   10  C10 UNL     1      -0.347   7.984  11.154  1.00  0.00    -0.021 A 
HETATM   11  C11 UNL     1       0.117   8.577   9.971  1.00  0.00     0.046 A 
HETATM   12  C16 UNL     1       0.087   6.697  11.500  1.00  0.00     0.082 A 
HETATM   13  C12 UNL     1       1.022   7.894   9.167  1.00  0.00     0.066 A 
HETATM   14  C13 UNL     1       1.469   6.627   9.517  1.00  0.00     0.046 A 
HETATM   15  C14 UNL     1       1.008   6.015  10.689  1.00  0.00    -0.025 A 
HETATM   16  C15 UNL     1       1.502   4.647  11.064  1.00  0.00     0.051 C 
HETATM   17  O2  UNL     1      -0.334   6.040  12.625  1.00  0.00    -0.340 OA
BRANCH  13  18
HETATM   18  O1  UNL     1       1.497   8.438   8.009  1.00  0.00    -0.361 OA
HETATM   19  H17 UNL     1       1.142   9.339   7.919  1.00  0.00     0.217 HD
ENDBRANCH  13  18
ENDBRANCH   5   6
ENDBRANCH   4   5
ENDBRANCH   3   4
BRANCH   2  20
HETATM   20  C17 UNL     1      -5.883   2.305  11.344  1.00  0.00     0.060 C 
BRANCH  20  21
HETATM   21  C18 UNL     1      -6.782   2.295  12.549  1.00  0.00    -0.026 C 
HETATM   22  C19 UNL     1      -7.356   3.318  13.209  1.00  0.00    -0.019 C 
BRANCH  22  23
HETATM   23  C20 UNL     1      -7.266   4.810  12.989  1.00  0.00     0.076 C 
HETATM   24  C21 UNL     1      -8.511   5.456  12.376  1.00  0.00     0.022 C 
BRANCH  23  25
HETATM   25  C22 UNL     1      -6.838   5.501  14.292  1.00  0.00     0.162 C 
HETATM   26  O3  UNL     1      -5.651   5.610  14.628  1.00  0.00    -0.294 OA
BRANCH  25  27
HETATM   27  C23 UNL     1      -7.929   6.167  15.154  1.00  0.00     0.188 C 
BRANCH  27  28
HETATM   28  O4  UNL     1      -8.548   5.214  16.015  1.00  0.00    -0.388 OA
HETATM   29  H31 UNL     1      -8.104   4.357  15.846  1.00  0.00     0.210 HD
ENDBRANCH  27  28
BRANCH  27  30
HETATM   30  C24 UNL     1      -9.005   6.942  14.378  1.00  0.00     0.043 C 
BRANCH  30  31
HETATM   31  C25 UNL     1     -10.324   7.335  15.084  1.00  0.00    -0.020 C 
HETATM   32  C26 UNL     1     -11.529   7.415  14.141  1.00  0.00     0.009 C 
HETATM   33  C27 UNL     1     -10.217   8.608  15.920  1.00  0.00     0.009 C 
ENDBRANCH  30  31
ENDBRANCH  27  30
ENDBRANCH  25  27
ENDBRANCH  23  25
ENDBRANCH  22  23
ENDBRANCH  20  21
ENDBRANCH   2  20
TORSDOF 12
ENDMDL
