MODEL 1
REMARK minimizedAffinity -7.96579695
REMARK CNNscore 0.405984402
REMARK CNNaffinity 6.86700821
REMARK  11 active torsions:
REMARK  status: ('A' for Active; 'I' for Inactive)
REMARK    1  A    between atoms: C3_4  and  O2_5 
REMARK    2  A    between atoms: O2_5  and  C4_6 
REMARK    3  A    between atoms: C7_9  and  C8_10 
REMARK    4  A    between atoms: N1_11  and  C9_13 
REMARK    5  A    between atoms: C9_13  and  C10_14 
REMARK    6  A    between atoms: C10_14  and  C11_15 
REMARK    7  A    between atoms: C22_26  and  C23_27 
REMARK    8  A    between atoms: C29_35  and  O5_36 
REMARK    9  A    between atoms: C33_40  and  O6_41 
REMARK   10  A    between atoms: C36_44  and  O7_45 
REMARK   11  A    between atoms: C37_46  and  O8_47 
ROOT
HETATM    1  C4  UNL     1       1.940  50.531 -13.183  1.00  0.00     0.127 C 
HETATM    2  C5  UNL     1       0.770  51.515 -13.105  1.00  0.00     0.033 C 
HETATM    3  C6  UNL     1       1.099  52.713 -12.221  1.00  0.00     0.021 C 
HETATM    4  C7  UNL     1       1.502  52.352 -10.754  1.00  0.00     0.026 C 
HETATM    5  C17 UNL     1       2.774  53.212 -10.353  1.00  0.00     0.009 C 
HETATM    6  C18 UNL     1       2.548  54.740 -10.406  1.00  0.00     0.007 C 
HETATM    7  C19 UNL     1       3.820  55.526 -10.097  1.00  0.00     0.013 C 
HETATM    8  C20 UNL     1       4.416  55.190  -8.701  1.00  0.00    -0.005 C 
HETATM    9  C21 UNL     1       3.483  55.765  -7.612  1.00  0.00     0.019 C 
HETATM   10  C22 UNL     1       5.873  55.765  -8.637  1.00  0.00     0.028 C 
HETATM   11  C27 UNL     1       6.735  54.673  -9.316  1.00  0.00     0.013 C 
HETATM   12  C28 UNL     1       5.883  53.400  -9.418  1.00  0.00     0.040 C 
HETATM   13  C29 UNL     1       4.622  53.654  -8.577  1.00  0.00     0.070 C 
HETATM   14  C30 UNL     1       3.384  52.804  -8.990  1.00  0.00     0.026 C 
HETATM   15  C31 UNL     1       3.714  51.302  -8.977  1.00  0.00     0.011 C 
HETATM   16  C32 UNL     1       2.489  50.460  -9.283  1.00  0.00     0.039 C 
HETATM   17  C33 UNL     1       1.799  50.813 -10.616  1.00  0.00     0.073 C 
HETATM   18  C34 UNL     1       2.621  50.301 -11.818  1.00  0.00     0.071 C 
ENDROOT
BRANCH   1  19
HETATM   19  O2  UNL     1       1.555  49.253 -13.701  1.00  0.00    -0.356 OA
BRANCH  19  20
HETATM   20  C3  UNL     1       0.970  49.289 -15.001  1.00  0.00     0.263 C 
HETATM   21  O1  UNL     1       1.069  50.590 -15.568  1.00  0.00    -0.354 OA
HETATM   22  C2  UNL     1       0.741  50.592 -16.969  1.00  0.00     0.151 C 
HETATM   23  C1  UNL     1       0.730  52.050 -17.420  1.00  0.00     0.042 C 
HETATM   24  C37 UNL     1      -0.573  49.817 -17.242  1.00  0.00     0.175 C 
HETATM   25  C36 UNL     1      -1.361  49.591 -15.944  1.00  0.00     0.154 C 
HETATM   26  C35 UNL     1      -0.513  48.924 -14.864  1.00  0.00     0.095 C 
BRANCH  24  27
HETATM   27  O8  UNL     1      -1.405  50.466 -18.201  1.00  0.00    -0.390 OA
HETATM   28  H51 UNL     1      -1.963  51.091 -17.693  1.00  0.00     0.210 HD
ENDBRANCH  24  27
BRANCH  25  29
HETATM   29  O7  UNL     1      -1.846  50.859 -15.476  1.00  0.00    -0.393 OA
HETATM   30  H49 UNL     1      -1.065  51.359 -15.142  1.00  0.00     0.210 HD
ENDBRANCH  25  29
ENDBRANCH  19  20
ENDBRANCH   1  19
BRANCH  17  31
HETATM   31  O6  UNL     1       0.560  50.081 -10.615  1.00  0.00    -0.389 OA
HETATM   32  H43 UNL     1       0.755  49.136 -10.458  1.00  0.00     0.210 HD
ENDBRANCH  17  31
BRANCH   4  33
HETATM   33  C8  UNL     1       0.317  52.684  -9.827  1.00  0.00     0.068 C 
HETATM   34  N1  UNL     1       0.139  52.071  -8.705  1.00  0.00    -0.401 N 
ATOM     35  H1  UNL     1       0.766  51.339  -8.371  1.00  0.00     0.158 HD
BRANCH  34  36
HETATM   36  C9  UNL     1      -1.040  52.514  -7.950  1.00  0.00     0.123 C 
BRANCH  36  37
HETATM   37  C10 UNL     1      -2.261  51.695  -8.388  1.00  0.00     0.058 C 
BRANCH  37  38
HETATM   38  C11 UNL     1      -2.821  52.107  -9.729  1.00  0.00    -0.057 A 
HETATM   39  C12 UNL     1      -2.846  51.202 -10.799  1.00  0.00     0.007 A 
HETATM   40  C13 UNL     1      -3.356  51.589 -12.042  1.00  0.00     0.001 A 
HETATM   41  C14 UNL     1      -3.843  52.883 -12.225  1.00  0.00     0.000 A 
HETATM   42  C15 UNL     1      -3.821  53.790 -11.168  1.00  0.00     0.001 A 
HETATM   43  C16 UNL     1      -3.310  53.406  -9.928  1.00  0.00     0.007 A 
ENDBRANCH  37  38
ENDBRANCH  36  37
ENDBRANCH  34  36
ENDBRANCH   4  33
BRANCH  13  44
HETATM   44  O5  UNL     1       4.963  53.306  -7.229  1.00  0.00    -0.389 OA
HETATM   45  H37 UNL     1       4.168  53.386  -6.675  1.00  0.00     0.210 HD
ENDBRANCH  13  44
BRANCH  10  46
HETATM   46  C23 UNL     1       6.392  56.171  -7.277  1.00  0.00    -0.045 A 
HETATM   47  C24 UNL     1       5.983  57.155  -6.473  1.00  0.00     0.087 A 
HETATM   48  C25 UNL     1       6.806  57.100  -5.267  1.00  0.00     0.283 A 
HETATM   49  O3  UNL     1       6.722  57.868  -4.327  1.00  0.00    -0.260 OA
HETATM   50  O4  UNL     1       7.677  56.060  -5.368  1.00  0.00    -0.314 OA
HETATM   51  C26 UNL     1       7.472  55.398  -6.614  1.00  0.00     0.213 A 
ENDBRANCH  10  46
TORSDOF 11
ENDMDL
MODEL 2
REMARK minimizedAffinity -12.0522289
REMARK CNNscore 0.321761191
REMARK CNNaffinity 7.50656652
REMARK  11 active torsions:
REMARK  status: ('A' for Active; 'I' for Inactive)
REMARK    1  A    between atoms: C3_4  and  O2_5 
REMARK    2  A    between atoms: O2_5  and  C4_6 
REMARK    3  A    between atoms: C7_9  and  C8_10 
REMARK    4  A    between atoms: N1_11  and  C9_13 
REMARK    5  A    between atoms: C9_13  and  C10_14 
REMARK    6  A    between atoms: C10_14  and  C11_15 
REMARK    7  A    between atoms: C22_26  and  C23_27 
REMARK    8  A    between atoms: C29_35  and  O5_36 
REMARK    9  A    between atoms: C33_40  and  O6_41 
REMARK   10  A    between atoms: C36_44  and  O7_45 
REMARK   11  A    between atoms: C37_46  and  O8_47 
ROOT
HETATM    1  C4  UNL     1      -6.344  48.153 -24.099  1.00  0.00     0.127 C 
HETATM    2  C5  UNL     1      -5.192  48.269 -25.101  1.00  0.00     0.033 C 
HETATM    3  C6  UNL     1      -3.864  48.544 -24.405  1.00  0.00     0.021 C 
HETATM    4  C7  UNL     1      -3.845  49.834 -23.522  1.00  0.00     0.026 C 
HETATM    5  C17 UNL     1      -3.140  49.492 -22.142  1.00  0.00     0.009 C 
HETATM    6  C18 UNL     1      -1.678  49.005 -22.280  1.00  0.00     0.007 C 
HETATM    7  C19 UNL     1      -1.070  48.606 -20.939  1.00  0.00     0.013 C 
HETATM    8  C20 UNL     1      -1.081  49.763 -19.901  1.00  0.00    -0.005 C 
HETATM    9  C21 UNL     1      -0.060  50.834 -20.341  1.00  0.00     0.019 C 
HETATM   10  C22 UNL     1      -0.774  49.158 -18.486  1.00  0.00     0.028 C 
HETATM   11  C27 UNL     1      -2.149  48.645 -17.995  1.00  0.00     0.013 C 
HETATM   12  C28 UNL     1      -3.228  49.256 -18.900  1.00  0.00     0.040 C 
HETATM   13  C29 UNL     1      -2.524  50.321 -19.755  1.00  0.00     0.070 C 
HETATM   14  C30 UNL     1      -3.230  50.639 -21.107  1.00  0.00     0.026 C 
HETATM   15  C31 UNL     1      -4.695  51.047 -20.885  1.00  0.00     0.011 C 
HETATM   16  C32 UNL     1      -5.364  51.453 -22.185  1.00  0.00     0.039 C 
HETATM   17  C33 UNL     1      -5.303  50.377 -23.288  1.00  0.00     0.073 C 
HETATM   18  C34 UNL     1      -6.279  49.219 -22.986  1.00  0.00     0.071 C 
ENDROOT
BRANCH   1  19
HETATM   19  O2  UNL     1      -7.630  48.246 -24.720  1.00  0.00    -0.356 OA
BRANCH  19  20
HETATM   20  C3  UNL     1      -7.734  47.583 -25.979  1.00  0.00     0.263 C 
HETATM   21  O1  UNL     1      -6.707  48.010 -26.866  1.00  0.00    -0.354 OA
HETATM   22  C2  UNL     1      -6.619  47.169 -28.030  1.00  0.00     0.151 C 
HETATM   23  C1  UNL     1      -5.601  47.815 -28.967  1.00  0.00     0.042 C 
HETATM   24  C37 UNL     1      -8.015  46.925 -28.656  1.00  0.00     0.175 C 
HETATM   25  C36 UNL     1      -9.045  47.927 -28.118  1.00  0.00     0.154 C 
HETATM   26  C35 UNL     1      -9.093  47.941 -26.593  1.00  0.00     0.095 C 
BRANCH  24  27
HETATM   27  O8  UNL     1      -7.996  46.976 -30.081  1.00  0.00    -0.390 OA
HETATM   28  H51 UNL     1      -8.133  47.917 -30.317  1.00  0.00     0.210 HD
ENDBRANCH  24  27
BRANCH  25  29
HETATM   29  O7  UNL     1      -8.714  49.234 -28.612  1.00  0.00    -0.393 OA
HETATM   30  H49 UNL     1      -7.900  49.522 -28.137  1.00  0.00     0.210 HD
ENDBRANCH  25  29
ENDBRANCH  19  20
ENDBRANCH   1  19
BRANCH  17  31
HETATM   31  O6  UNL     1      -5.776  51.022 -24.483  1.00  0.00    -0.389 OA
HETATM   32  H43 UNL     1      -6.652  51.415 -24.302  1.00  0.00     0.210 HD
ENDBRANCH  17  31
BRANCH   4  33
HETATM   33  C8  UNL     1      -3.055  50.925 -24.270  1.00  0.00     0.068 C 
HETATM   34  N1  UNL     1      -3.184  51.105 -25.542  1.00  0.00    -0.401 N 
ATOM     35  H1  UNL     1      -3.809  50.543 -26.118  1.00  0.00     0.158 HD
BRANCH  34  36
HETATM   36  C9  UNL     1      -2.355  52.187 -26.090  1.00  0.00     0.123 C 
BRANCH  36  37
HETATM   37  C10 UNL     1      -1.637  51.688 -27.351  1.00  0.00     0.058 C 
BRANCH  37  38
HETATM   38  C11 UNL     1      -0.133  51.637 -27.215  1.00  0.00    -0.057 A 
HETATM   39  C12 UNL     1       0.462  51.337 -25.982  1.00  0.00     0.007 A 
HETATM   40  C13 UNL     1       1.854  51.299 -25.858  1.00  0.00     0.001 A 
HETATM   41  C14 UNL     1       2.661  51.565 -26.963  1.00  0.00     0.000 A 
HETATM   42  C15 UNL     1       2.080  51.867 -28.192  1.00  0.00     0.001 A 
HETATM   43  C16 UNL     1       0.690  51.906 -28.318  1.00  0.00     0.007 A 
ENDBRANCH  37  38
ENDBRANCH  36  37
ENDBRANCH  34  36
ENDBRANCH   4  33
BRANCH  13  44
HETATM   44  O5  UNL     1      -2.516  51.522 -18.972  1.00  0.00    -0.389 OA
HETATM   45  H37 UNL     1      -2.140  52.241 -19.507  1.00  0.00     0.210 HD
ENDBRANCH  13  44
BRANCH  10  46
HETATM   46  C23 UNL     1      -0.084  50.059 -17.489  1.00  0.00    -0.045 A 
HETATM   47  C24 UNL     1       0.225  51.354 -17.588  1.00  0.00     0.087 A 
HETATM   48  C25 UNL     1       0.864  51.744 -16.333  1.00  0.00     0.283 A 
HETATM   49  O3  UNL     1       1.296  52.854 -16.084  1.00  0.00    -0.260 OA
HETATM   50  O4  UNL     1       0.900  50.672 -15.497  1.00  0.00    -0.314 OA
HETATM   51  C26 UNL     1       0.299  49.554 -16.147  1.00  0.00     0.213 A 
ENDBRANCH  10  46
TORSDOF 11
ENDMDL
MODEL 3
REMARK minimizedAffinity -7.96573782
REMARK CNNscore 0.291147053
REMARK CNNaffinity 6.3548665
REMARK  11 active torsions:
REMARK  status: ('A' for Active; 'I' for Inactive)
REMARK    1  A    between atoms: C3_4  and  O2_5 
REMARK    2  A    between atoms: O2_5  and  C4_6 
REMARK    3  A    between atoms: C7_9  and  C8_10 
REMARK    4  A    between atoms: N1_11  and  C9_13 
REMARK    5  A    between atoms: C9_13  and  C10_14 
REMARK    6  A    between atoms: C10_14  and  C11_15 
REMARK    7  A    between atoms: C22_26  and  C23_27 
REMARK    8  A    between atoms: C29_35  and  O5_36 
REMARK    9  A    between atoms: C33_40  and  O6_41 
REMARK   10  A    between atoms: C36_44  and  O7_45 
REMARK   11  A    between atoms: C37_46  and  O8_47 
ROOT
HETATM    1  C4  UNL     1       3.593  51.802 -11.299  1.00  0.00     0.127 C 
HETATM    2  C5  UNL     1       2.632  52.930 -11.684  1.00  0.00     0.033 C 
HETATM    3  C6  UNL     1       2.844  54.169 -10.823  1.00  0.00     0.021 C 
HETATM    4  C7  UNL     1       2.690  53.930  -9.285  1.00  0.00     0.026 C 
HETATM    5  C17 UNL     1       3.884  54.661  -8.538  1.00  0.00     0.009 C 
HETATM    6  C18 UNL     1       3.933  56.190  -8.764  1.00  0.00     0.007 C 
HETATM    7  C19 UNL     1       5.144  56.837  -8.099  1.00  0.00     0.013 C 
HETATM    8  C20 UNL     1       5.196  56.590  -6.564  1.00  0.00    -0.005 C 
HETATM    9  C21 UNL     1       4.067  57.401  -5.892  1.00  0.00     0.019 C 
HETATM   10  C22 UNL     1       6.627  56.978  -6.052  1.00  0.00     0.028 C 
HETATM   11  C27 UNL     1       7.477  55.714  -6.328  1.00  0.00     0.013 C 
HETATM   12  C28 UNL     1       6.513  54.557  -6.626  1.00  0.00     0.040 C 
HETATM   13  C29 UNL     1       5.105  55.065  -6.277  1.00  0.00     0.070 C 
HETATM   14  C30 UNL     1       3.948  54.338  -7.025  1.00  0.00     0.026 C 
HETATM   15  C31 UNL     1       4.014  52.818  -6.803  1.00  0.00     0.011 C 
HETATM   16  C32 UNL     1       2.836  52.110  -7.447  1.00  0.00     0.039 C 
HETATM   17  C33 UNL     1       2.678  52.392  -8.954  1.00  0.00     0.073 C 
HETATM   18  C34 UNL     1       3.752  51.645  -9.773  1.00  0.00     0.071 C 
ENDROOT
BRANCH   1  19
HETATM   19  O2  UNL     1       3.199  50.533 -11.831  1.00  0.00    -0.356 OA
BRANCH  19  20
HETATM   20  C3  UNL     1       2.849  50.548 -13.214  1.00  0.00     0.263 C 
HETATM   21  O1  UNL     1       3.437  51.663 -13.875  1.00  0.00    -0.354 OA
HETATM   22  C2  UNL     1       3.332  51.555 -15.306  1.00  0.00     0.151 C 
HETATM   23  C1  UNL     1       3.850  52.868 -15.888  1.00  0.00     0.042 C 
HETATM   24  C37 UNL     1       1.894  51.174 -15.739  1.00  0.00     0.175 C 
HETATM   25  C36 UNL     1       0.897  51.387 -14.592  1.00  0.00     0.154 C 
HETATM   26  C35 UNL     1       1.324  50.665 -13.317  1.00  0.00     0.095 C 
BRANCH  24  27
HETATM   27  O8  UNL     1       1.458  51.892 -16.892  1.00  0.00    -0.390 OA
HETATM   28  H51 UNL     1       1.061  52.722 -16.556  1.00  0.00     0.210 HD
ENDBRANCH  24  27
BRANCH  25  29
HETATM   29  O7  UNL     1       0.777  52.796 -14.344  1.00  0.00    -0.393 OA
HETATM   30  H49 UNL     1       1.619  53.085 -13.921  1.00  0.00     0.210 HD
ENDBRANCH  25  29
ENDBRANCH  19  20
ENDBRANCH   1  19
BRANCH  17  31
HETATM   31  O6  UNL     1       1.406  51.830  -9.321  1.00  0.00    -0.389 OA
HETATM   32  H43 UNL     1       1.387  50.892  -9.045  1.00  0.00     0.210 HD
ENDBRANCH  17  31
BRANCH   4  33
HETATM   33  C8  UNL     1       1.338  54.516  -8.834  1.00  0.00     0.068 C 
HETATM   34  N1  UNL     1       0.451  54.910  -9.685  1.00  0.00    -0.401 N 
ATOM     35  H1  UNL     1       0.591  54.856 -10.694  1.00  0.00     0.158 HD
BRANCH  34  36
HETATM   36  C9  UNL     1      -0.778  55.442  -9.081  1.00  0.00     0.123 C 
BRANCH  36  37
HETATM   37  C10 UNL     1      -1.929  55.331 -10.088  1.00  0.00     0.058 C 
BRANCH  37  38
HETATM   38  C11 UNL     1      -2.592  53.974 -10.108  1.00  0.00    -0.057 A 
HETATM   39  C12 UNL     1      -2.166  52.960  -9.240  1.00  0.00     0.007 A 
HETATM   40  C13 UNL     1      -2.777  51.702  -9.267  1.00  0.00     0.001 A 
HETATM   41  C14 UNL     1      -3.815  51.448 -10.163  1.00  0.00     0.000 A 
HETATM   42  C15 UNL     1      -4.244  52.449 -11.031  1.00  0.00     0.001 A 
HETATM   43  C16 UNL     1      -3.635  53.704 -11.007  1.00  0.00     0.007 A 
ENDBRANCH  37  38
ENDBRANCH  36  37
ENDBRANCH  34  36
ENDBRANCH   4  33
BRANCH  13  44
HETATM   44  O5  UNL     1       4.933  54.833  -4.872  1.00  0.00    -0.389 OA
HETATM   45  H37 UNL     1       4.025  55.078  -4.625  1.00  0.00     0.210 HD
ENDBRANCH  13  44
BRANCH  10  46
HETATM   46  C23 UNL     1       6.737  57.468  -4.626  1.00  0.00    -0.045 A 
HETATM   47  C24 UNL     1       6.337  58.625  -4.096  1.00  0.00     0.087 A 
HETATM   48  C25 UNL     1       6.661  58.583  -2.671  1.00  0.00     0.283 A 
HETATM   49  O3  UNL     1       6.455  59.484  -1.880  1.00  0.00    -0.260 OA
HETATM   50  O4  UNL     1       7.227  57.382  -2.377  1.00  0.00    -0.314 OA
HETATM   51  C26 UNL     1       7.300  56.597  -3.565  1.00  0.00     0.213 A 
ENDBRANCH  10  46
TORSDOF 11
ENDMDL
MODEL 4
REMARK minimizedAffinity -10.0097437
REMARK CNNscore 0.266137272
REMARK CNNaffinity 6.78999853
REMARK  11 active torsions:
REMARK  status: ('A' for Active; 'I' for Inactive)
REMARK    1  A    between atoms: C3_4  and  O2_5 
REMARK    2  A    between atoms: O2_5  and  C4_6 
REMARK    3  A    between atoms: C7_9  and  C8_10 
REMARK    4  A    between atoms: N1_11  and  C9_13 
REMARK    5  A    between atoms: C9_13  and  C10_14 
REMARK    6  A    between atoms: C10_14  and  C11_15 
REMARK    7  A    between atoms: C22_26  and  C23_27 
REMARK    8  A    between atoms: C29_35  and  O5_36 
REMARK    9  A    between atoms: C33_40  and  O6_41 
REMARK   10  A    between atoms: C36_44  and  O7_45 
REMARK   11  A    between atoms: C37_46  and  O8_47 
ROOT
HETATM    1  C4  UNL     1      -7.825  48.357 -23.452  1.00  0.00     0.127 C 
HETATM    2  C5  UNL     1      -6.838  47.582 -24.329  1.00  0.00     0.033 C 
HETATM    3  C6  UNL     1      -5.481  47.430 -23.651  1.00  0.00     0.021 C 
HETATM    4  C7  UNL     1      -4.793  48.778 -23.255  1.00  0.00     0.026 C 
HETATM    5  C17 UNL     1      -4.215  48.637 -21.785  1.00  0.00     0.009 C 
HETATM    6  C18 UNL     1      -3.162  47.516 -21.621  1.00  0.00     0.007 C 
HETATM    7  C19 UNL     1      -2.698  47.361 -20.176  1.00  0.00     0.013 C 
HETATM    8  C20 UNL     1      -2.086  48.666 -19.592  1.00  0.00    -0.005 C 
HETATM    9  C21 UNL     1      -0.726  48.925 -20.276  1.00  0.00     0.019 C 
HETATM   10  C22 UNL     1      -1.979  48.505 -18.036  1.00  0.00     0.028 C 
HETATM   11  C27 UNL     1      -3.388  48.885 -17.523  1.00  0.00     0.013 C 
HETATM   12  C28 UNL     1      -4.134  49.579 -18.673  1.00  0.00     0.040 C 
HETATM   13  C29 UNL     1      -3.090  49.839 -19.771  1.00  0.00     0.070 C 
HETATM   14  C30 UNL     1      -3.678  49.969 -21.208  1.00  0.00     0.026 C 
HETATM   15  C31 UNL     1      -4.764  51.056 -21.266  1.00  0.00     0.011 C 
HETATM   16  C32 UNL     1      -5.275  51.258 -22.680  1.00  0.00     0.039 C 
HETATM   17  C33 UNL     1      -5.810  49.975 -23.347  1.00  0.00     0.073 C 
HETATM   18  C34 UNL     1      -7.182  49.577 -22.761  1.00  0.00     0.071 C 
ENDROOT
BRANCH   1  19
HETATM   19  O2  UNL     1      -8.969  48.818 -24.178  1.00  0.00    -0.356 OA
BRANCH  19  20
HETATM   20  C3  UNL     1      -9.301  48.037 -25.325  1.00  0.00     0.263 C 
HETATM   21  O1  UNL     1      -9.005  48.743 -26.525  1.00  0.00    -0.354 OA
HETATM   22  C2  UNL     1      -9.068  47.889 -27.680  1.00  0.00     0.151 C 
HETATM   23  C1  UNL     1      -8.890  48.784 -28.904  1.00  0.00     0.042 C 
HETATM   24  C37 UNL     1     -10.364  47.037 -27.681  1.00  0.00     0.175 C 
HETATM   25  C36 UNL     1     -11.390  47.593 -26.685  1.00  0.00     0.154 C 
HETATM   26  C35 UNL     1     -10.807  47.750 -25.284  1.00  0.00     0.095 C 
BRANCH  24  27
HETATM   27  O8  UNL     1     -10.956  46.938 -28.975  1.00  0.00    -0.390 OA
HETATM   28  H51 UNL     1     -11.550  47.713 -29.057  1.00  0.00     0.210 HD
ENDBRANCH  24  27
BRANCH  25  29
HETATM   29  O7  UNL     1     -11.859  48.861 -27.169  1.00  0.00    -0.393 OA
HETATM   30  H49 UNL     1     -11.118  49.502 -27.057  1.00  0.00     0.210 HD
ENDBRANCH  25  29
ENDBRANCH  19  20
ENDBRANCH   1  19
BRANCH  17  31
HETATM   31  O6  UNL     1      -6.028  50.319 -24.726  1.00  0.00    -0.389 OA
HETATM   32  H43 UNL     1      -6.605  51.107 -24.766  1.00  0.00     0.210 HD
ENDBRANCH  17  31
BRANCH   4  33
HETATM   33  C8  UNL     1      -3.653  49.055 -24.254  1.00  0.00     0.068 C 
HETATM   34  N1  UNL     1      -3.606  48.477 -25.407  1.00  0.00    -0.401 N 
ATOM     35  H1  UNL     1      -4.312  47.812 -25.721  1.00  0.00     0.158 HD
BRANCH  34  36
HETATM   36  C9  UNL     1      -2.450  48.857 -26.231  1.00  0.00     0.123 C 
BRANCH  36  37
HETATM   37  C10 UNL     1      -2.429  50.381 -26.405  1.00  0.00     0.058 C 
BRANCH  37  38
HETATM   38  C11 UNL     1      -1.073  50.933 -26.777  1.00  0.00    -0.057 A 
HETATM   39  C12 UNL     1      -0.917  51.730 -27.919  1.00  0.00     0.007 A 
HETATM   40  C13 UNL     1       0.342  52.232 -28.265  1.00  0.00     0.001 A 
HETATM   41  C14 UNL     1       1.453  51.938 -27.475  1.00  0.00     0.000 A 
HETATM   42  C15 UNL     1       1.308  51.145 -26.340  1.00  0.00     0.001 A 
HETATM   43  C16 UNL     1       0.053  50.642 -25.993  1.00  0.00     0.007 A 
ENDBRANCH  37  38
ENDBRANCH  36  37
ENDBRANCH  34  36
ENDBRANCH   4  33
BRANCH  13  44
HETATM   44  O5  UNL     1      -2.462  51.085 -19.439  1.00  0.00    -0.389 OA
HETATM   45  H37 UNL     1      -1.842  51.321 -20.151  1.00  0.00     0.210 HD
ENDBRANCH  13  44
BRANCH  10  46
HETATM   46  C23 UNL     1      -0.869  49.263 -17.343  1.00  0.00    -0.045 A 
HETATM   47  C24 UNL     1      -0.308  49.043 -16.152  1.00  0.00     0.087 A 
HETATM   48  C25 UNL     1       0.733  50.052 -15.971  1.00  0.00     0.283 A 
HETATM   49  O3  UNL     1       1.435  50.163 -14.983  1.00  0.00    -0.260 OA
HETATM   50  O4  UNL     1       0.788  50.841 -17.077  1.00  0.00    -0.314 OA
HETATM   51  C26 UNL     1      -0.190  50.399 -18.015  1.00  0.00     0.213 A 
ENDBRANCH  10  46
TORSDOF 11
ENDMDL
MODEL 5
REMARK minimizedAffinity -8.53524303
REMARK CNNscore 0.264200538
REMARK CNNaffinity 6.57590818
REMARK  11 active torsions:
REMARK  status: ('A' for Active; 'I' for Inactive)
REMARK    1  A    between atoms: C3_4  and  O2_5 
REMARK    2  A    between atoms: O2_5  and  C4_6 
REMARK    3  A    between atoms: C7_9  and  C8_10 
REMARK    4  A    between atoms: N1_11  and  C9_13 
REMARK    5  A    between atoms: C9_13  and  C10_14 
REMARK    6  A    between atoms: C10_14  and  C11_15 
REMARK    7  A    between atoms: C22_26  and  C23_27 
REMARK    8  A    between atoms: C29_35  and  O5_36 
REMARK    9  A    between atoms: C33_40  and  O6_41 
REMARK   10  A    between atoms: C36_44  and  O7_45 
REMARK   11  A    between atoms: C37_46  and  O8_47 
ROOT
HETATM    1  C4  UNL     1       0.439  50.902 -14.975  1.00  0.00     0.127 C 
HETATM    2  C5  UNL     1      -0.913  51.033 -14.268  1.00  0.00     0.033 C 
HETATM    3  C6  UNL     1      -0.839  51.988 -13.083  1.00  0.00     0.021 C 
HETATM    4  C7  UNL     1       0.218  51.602 -11.997  1.00  0.00     0.026 C 
HETATM    5  C17 UNL     1       1.015  52.909 -11.579  1.00  0.00     0.009 C 
HETATM    6  C18 UNL     1       0.130  54.028 -10.983  1.00  0.00     0.007 C 
HETATM    7  C19 UNL     1       0.923  55.295 -10.677  1.00  0.00     0.013 C 
HETATM    8  C20 UNL     1       2.097  55.049  -9.686  1.00  0.00    -0.005 C 
HETATM    9  C21 UNL     1       1.513  54.763  -8.286  1.00  0.00     0.019 C 
HETATM   10  C22 UNL     1       3.040  56.303  -9.721  1.00  0.00     0.028 C 
HETATM   11  C27 UNL     1       3.957  56.045 -10.941  1.00  0.00     0.013 C 
HETATM   12  C28 UNL     1       3.800  54.572 -11.343  1.00  0.00     0.040 C 
HETATM   13  C29 UNL     1       2.998  53.899 -10.217  1.00  0.00     0.070 C 
HETATM   14  C30 UNL     1       2.219  52.621 -10.649  1.00  0.00     0.026 C 
HETATM   15  C31 UNL     1       3.160  51.590 -11.294  1.00  0.00     0.011 C 
HETATM   16  C32 UNL     1       2.431  50.303 -11.631  1.00  0.00     0.039 C 
HETATM   17  C33 UNL     1       1.198  50.495 -12.537  1.00  0.00     0.073 C 
HETATM   18  C34 UNL     1       1.622  50.797 -13.990  1.00  0.00     0.071 C 
ENDROOT
BRANCH   1  19
HETATM   19  O2  UNL     1       0.498  49.773 -15.853  1.00  0.00    -0.356 OA
BRANCH  19  20
HETATM   20  C3  UNL     1       0.139  50.050 -17.205  1.00  0.00     0.263 C 
HETATM   21  O1  UNL     1       0.173  51.449 -17.465  1.00  0.00    -0.354 OA
HETATM   22  C2  UNL     1       0.087  51.735 -18.872  1.00  0.00     0.151 C 
HETATM   23  C1  UNL     1      -0.025  53.252 -19.009  1.00  0.00     0.042 C 
HETATM   24  C37 UNL     1      -1.061  50.936 -19.541  1.00  0.00     0.175 C 
HETATM   25  C36 UNL     1      -2.021  50.364 -18.489  1.00  0.00     0.154 C 
HETATM   26  C35 UNL     1      -1.292  49.545 -17.428  1.00  0.00     0.095 C 
BRANCH  24  27
HETATM   27  O8  UNL     1      -1.793  51.713 -20.487  1.00  0.00    -0.390 OA
HETATM   28  H51 UNL     1      -2.499  52.161 -19.976  1.00  0.00     0.210 HD
ENDBRANCH  24  27
BRANCH  25  29
HETATM   29  O7  UNL     1      -2.727  51.452 -17.872  1.00  0.00    -0.393 OA
HETATM   30  H49 UNL     1      -2.079  51.927 -17.301  1.00  0.00     0.210 HD
ENDBRANCH  25  29
ENDBRANCH  19  20
ENDBRANCH   1  19
BRANCH  17  31
HETATM   31  O6  UNL     1       0.528  49.223 -12.552  1.00  0.00    -0.389 OA
HETATM   32  H43 UNL     1       1.168  48.534 -12.821  1.00  0.00     0.210 HD
ENDBRANCH  17  31
BRANCH   4  33
HETATM   33  C8  UNL     1      -0.524  51.016 -10.781  1.00  0.00     0.068 C 
HETATM   34  N1  UNL     1      -1.532  50.222 -10.919  1.00  0.00    -0.401 N 
ATOM     35  H1  UNL     1      -1.892  49.939 -11.830  1.00  0.00     0.158 HD
BRANCH  34  36
HETATM   36  C9  UNL     1      -2.120  49.759  -9.654  1.00  0.00     0.123 C 
BRANCH  36  37
HETATM   37  C10 UNL     1      -3.457  50.475  -9.423  1.00  0.00     0.058 C 
BRANCH  37  38
HETATM   38  C11 UNL     1      -4.665  49.612  -9.701  1.00  0.00    -0.057 A 
HETATM   39  C12 UNL     1      -4.650  48.244  -9.396  1.00  0.00     0.007 A 
HETATM   40  C13 UNL     1      -5.767  47.448  -9.663  1.00  0.00     0.001 A 
HETATM   41  C14 UNL     1      -6.905  48.009 -10.240  1.00  0.00     0.000 A 
HETATM   42  C15 UNL     1      -6.929  49.367 -10.548  1.00  0.00     0.001 A 
HETATM   43  C16 UNL     1      -5.815  50.164 -10.284  1.00  0.00     0.007 A 
ENDBRANCH  37  38
ENDBRANCH  36  37
ENDBRANCH  34  36
ENDBRANCH   4  33
BRANCH  13  44
HETATM   44  O5  UNL     1       3.953  53.515  -9.220  1.00  0.00    -0.389 OA
HETATM   45  H37 UNL     1       3.491  53.021  -8.520  1.00  0.00     0.210 HD
ENDBRANCH  13  44
BRANCH  10  46
HETATM   46  C23 UNL     1       3.805  56.621  -8.458  1.00  0.00    -0.045 A 
HETATM   47  C24 UNL     1       3.440  57.363  -7.410  1.00  0.00     0.087 A 
HETATM   48  C25 UNL     1       4.541  57.328  -6.450  1.00  0.00     0.283 A 
HETATM   49  O3  UNL     1       4.559  57.916  -5.385  1.00  0.00    -0.260 OA
HETATM   50  O4  UNL     1       5.535  56.539  -6.939  1.00  0.00    -0.314 OA
HETATM   51  C26 UNL     1       5.144  56.030  -8.212  1.00  0.00     0.213 A 
ENDBRANCH  10  46
TORSDOF 11
ENDMDL
MODEL 6
REMARK minimizedAffinity -8.66307068
REMARK CNNscore 0.25010854
REMARK CNNaffinity 6.60006285
REMARK  11 active torsions:
REMARK  status: ('A' for Active; 'I' for Inactive)
REMARK    1  A    between atoms: C3_4  and  O2_5 
REMARK    2  A    between atoms: O2_5  and  C4_6 
REMARK    3  A    between atoms: C7_9  and  C8_10 
REMARK    4  A    between atoms: N1_11  and  C9_13 
REMARK    5  A    between atoms: C9_13  and  C10_14 
REMARK    6  A    between atoms: C10_14  and  C11_15 
REMARK    7  A    between atoms: C22_26  and  C23_27 
REMARK    8  A    between atoms: C29_35  and  O5_36 
REMARK    9  A    between atoms: C33_40  and  O6_41 
REMARK   10  A    between atoms: C36_44  and  O7_45 
REMARK   11  A    between atoms: C37_46  and  O8_47 
ROOT
HETATM    1  C4  UNL     1      -3.161  51.123  -9.998  1.00  0.00     0.127 C 
HETATM    2  C5  UNL     1      -2.355  50.454 -11.114  1.00  0.00     0.033 C 
HETATM    3  C6  UNL     1      -0.868  50.768 -11.002  1.00  0.00     0.021 C 
HETATM    4  C7  UNL     1      -0.519  52.292 -11.025  1.00  0.00     0.026 C 
HETATM    5  C17 UNL     1       0.545  52.584  -9.885  1.00  0.00     0.009 C 
HETATM    6  C18 UNL     1       1.872  51.804 -10.041  1.00  0.00     0.007 C 
HETATM    7  C19 UNL     1       2.830  52.050  -8.879  1.00  0.00     0.013 C 
HETATM    8  C20 UNL     1       3.189  53.552  -8.697  1.00  0.00    -0.005 C 
HETATM    9  C21 UNL     1       4.088  53.993  -9.872  1.00  0.00     0.019 C 
HETATM   10  C22 UNL     1       3.870  53.728  -7.294  1.00  0.00     0.028 C 
HETATM   11  C27 UNL     1       2.679  53.849  -6.314  1.00  0.00     0.013 C 
HETATM   12  C28 UNL     1       1.413  54.105  -7.144  1.00  0.00     0.040 C 
HETATM   13  C29 UNL     1       1.886  54.391  -8.579  1.00  0.00     0.070 C 
HETATM   14  C30 UNL     1       0.828  54.093  -9.683  1.00  0.00     0.026 C 
HETATM   15  C31 UNL     1      -0.481  54.852  -9.415  1.00  0.00     0.011 C 
HETATM   16  C32 UNL     1      -1.485  54.646 -10.535  1.00  0.00     0.039 C 
HETATM   17  C33 UNL     1      -1.811  53.167 -10.824  1.00  0.00     0.073 C 
HETATM   18  C34 UNL     1      -2.712  52.573  -9.721  1.00  0.00     0.071 C 
ENDROOT
BRANCH   1  19
HETATM   19  O2  UNL     1      -4.567  51.144 -10.265  1.00  0.00    -0.356 OA
BRANCH  19  20
HETATM   20  C3  UNL     1      -5.152  49.861 -10.479  1.00  0.00     0.263 C 
HETATM   21  O1  UNL     1      -6.569  49.957 -10.580  1.00  0.00    -0.354 OA
HETATM   22  C2  UNL     1      -7.157  48.738 -11.065  1.00  0.00     0.151 C 
HETATM   23  C1  UNL     1      -8.672  48.911 -10.980  1.00  0.00     0.042 C 
HETATM   24  C37 UNL     1      -6.601  47.504 -10.310  1.00  0.00     0.175 C 
HETATM   25  C36 UNL     1      -5.882  47.924  -9.021  1.00  0.00     0.154 C 
HETATM   26  C35 UNL     1      -4.806  48.974  -9.276  1.00  0.00     0.095 C 
BRANCH  24  27
HETATM   27  O8  UNL     1      -7.611  46.544 -10.005  1.00  0.00    -0.390 OA
HETATM   28  H51 UNL     1      -7.986  46.815  -9.142  1.00  0.00     0.210 HD
ENDBRANCH  24  27
BRANCH  25  29
HETATM   29  O7  UNL     1      -6.857  48.432  -8.097  1.00  0.00    -0.393 OA
HETATM   30  H49 UNL     1      -7.153  49.306  -8.444  1.00  0.00     0.210 HD
ENDBRANCH  25  29
ENDBRANCH  19  20
ENDBRANCH   1  19
BRANCH  17  31
HETATM   31  O6  UNL     1      -2.583  53.173 -12.038  1.00  0.00    -0.389 OA
HETATM   32  H43 UNL     1      -3.344  53.776 -11.923  1.00  0.00     0.210 HD
ENDBRANCH  17  31
BRANCH   4  33
HETATM   33  C8  UNL     1       0.069  52.637 -12.407  1.00  0.00     0.068 C 
HETATM   34  N1  UNL     1       0.135  51.762 -13.354  1.00  0.00    -0.401 N 
ATOM     35  H1  UNL     1      -0.195  50.803 -13.244  1.00  0.00     0.158 HD
BRANCH  34  36
HETATM   36  C9  UNL     1       0.725  52.261 -14.603  1.00  0.00     0.123 C 
BRANCH  36  37
HETATM   37  C10 UNL     1       1.081  51.074 -15.507  1.00  0.00     0.058 C 
BRANCH  37  38
HETATM   38  C11 UNL     1       0.645  51.249 -16.942  1.00  0.00    -0.057 A 
HETATM   39  C12 UNL     1      -0.072  50.239 -17.598  1.00  0.00     0.007 A 
HETATM   40  C13 UNL     1      -0.466  50.402 -18.929  1.00  0.00     0.001 A 
HETATM   41  C14 UNL     1      -0.145  51.572 -19.616  1.00  0.00     0.000 A 
HETATM   42  C15 UNL     1       0.569  52.580 -18.974  1.00  0.00     0.001 A 
HETATM   43  C16 UNL     1       0.965  52.420 -17.646  1.00  0.00     0.007 A 
ENDBRANCH  37  38
ENDBRANCH  36  37
ENDBRANCH  34  36
ENDBRANCH   4  33
BRANCH  13  44
HETATM   44  O5  UNL     1       2.189  55.791  -8.629  1.00  0.00    -0.389 OA
HETATM   45  H37 UNL     1       2.426  56.026  -9.542  1.00  0.00     0.210 HD
ENDBRANCH  13  44
BRANCH  10  46
HETATM   46  C23 UNL     1       4.872  54.851  -7.154  1.00  0.00    -0.045 A 
HETATM   47  C24 UNL     1       4.709  56.074  -6.647  1.00  0.00     0.087 A 
HETATM   48  C25 UNL     1       6.000  56.753  -6.730  1.00  0.00     0.283 A 
HETATM   49  O3  UNL     1       6.212  57.898  -6.376  1.00  0.00    -0.260 OA
HETATM   50  O4  UNL     1       6.918  55.904  -7.265  1.00  0.00    -0.314 OA
HETATM   51  C26 UNL     1       6.289  54.657  -7.551  1.00  0.00     0.213 A 
ENDBRANCH  10  46
TORSDOF 11
ENDMDL
MODEL 7
REMARK minimizedAffinity -9.284729
REMARK CNNscore 0.240297437
REMARK CNNaffinity 6.61616182
REMARK  11 active torsions:
REMARK  status: ('A' for Active; 'I' for Inactive)
REMARK    1  A    between atoms: C3_4  and  O2_5 
REMARK    2  A    between atoms: O2_5  and  C4_6 
REMARK    3  A    between atoms: C7_9  and  C8_10 
REMARK    4  A    between atoms: N1_11  and  C9_13 
REMARK    5  A    between atoms: C9_13  and  C10_14 
REMARK    6  A    between atoms: C10_14  and  C11_15 
REMARK    7  A    between atoms: C22_26  and  C23_27 
REMARK    8  A    between atoms: C29_35  and  O5_36 
REMARK    9  A    between atoms: C33_40  and  O6_41 
REMARK   10  A    between atoms: C36_44  and  O7_45 
REMARK   11  A    between atoms: C37_46  and  O8_47 
ROOT
HETATM    1  C4  UNL     1       0.588  50.872 -15.072  1.00  0.00     0.127 C 
HETATM    2  C5  UNL     1      -0.737  50.900 -14.305  1.00  0.00     0.033 C 
HETATM    3  C6  UNL     1      -0.667  51.819 -13.092  1.00  0.00     0.021 C 
HETATM    4  C7  UNL     1       0.457  51.462 -12.065  1.00  0.00     0.026 C 
HETATM    5  C17 UNL     1       1.194  52.801 -11.637  1.00  0.00     0.009 C 
HETATM    6  C18 UNL     1       0.272  53.845 -10.966  1.00  0.00     0.007 C 
HETATM    7  C19 UNL     1       1.003  55.147 -10.649  1.00  0.00     0.013 C 
HETATM    8  C20 UNL     1       2.231  54.941  -9.718  1.00  0.00    -0.005 C 
HETATM    9  C21 UNL     1       1.727  54.576  -8.305  1.00  0.00     0.019 C 
HETATM   10  C22 UNL     1       3.097  56.249  -9.749  1.00  0.00     0.028 C 
HETATM   11  C27 UNL     1       3.973  56.086 -11.014  1.00  0.00     0.013 C 
HETATM   12  C28 UNL     1       3.884  54.619 -11.460  1.00  0.00     0.040 C 
HETATM   13  C29 UNL     1       3.173  53.864 -10.326  1.00  0.00     0.070 C 
HETATM   14  C30 UNL     1       2.452  52.556 -10.768  1.00  0.00     0.026 C 
HETATM   15  C31 UNL     1       3.423  51.604 -11.487  1.00  0.00     0.011 C 
HETATM   16  C32 UNL     1       2.756  50.287 -11.837  1.00  0.00     0.039 C 
HETATM   17  C33 UNL     1       1.476  50.434 -12.683  1.00  0.00     0.073 C 
HETATM   18  C34 UNL     1       1.817  50.807 -14.142  1.00  0.00     0.071 C 
ENDROOT
BRANCH   1  19
HETATM   19  O2  UNL     1       0.674  49.777 -15.990  1.00  0.00    -0.356 OA
BRANCH  19  20
HETATM   20  C3  UNL     1       0.236  50.074 -17.314  1.00  0.00     0.263 C 
HETATM   21  O1  UNL     1       0.246  51.477 -17.552  1.00  0.00    -0.354 OA
HETATM   22  C2  UNL     1       0.077  51.786 -18.947  1.00  0.00     0.151 C 
HETATM   23  C1  UNL     1      -0.052  53.304 -19.052  1.00  0.00     0.042 C 
HETATM   24  C37 UNL     1      -1.102  50.989 -19.562  1.00  0.00     0.175 C 
HETATM   25  C36 UNL     1      -1.996  50.393 -18.467  1.00  0.00     0.154 C 
HETATM   26  C35 UNL     1      -1.202  49.562 -17.464  1.00  0.00     0.095 C 
BRANCH  24  27
HETATM   27  O8  UNL     1      -1.892  51.776 -20.451  1.00  0.00    -0.390 OA
HETATM   28  H51 UNL     1      -2.570  52.211 -19.893  1.00  0.00     0.210 HD
ENDBRANCH  24  27
BRANCH  25  29
HETATM   29  O7  UNL     1      -2.673  51.466 -17.793  1.00  0.00    -0.393 OA
HETATM   30  H49 UNL     1      -1.996  51.935 -17.252  1.00  0.00     0.210 HD
ENDBRANCH  25  29
ENDBRANCH  19  20
ENDBRANCH   1  19
BRANCH  17  31
HETATM   31  O6  UNL     1       0.881  49.125 -12.714  1.00  0.00    -0.389 OA
HETATM   32  H43 UNL     1       1.547  48.485 -13.033  1.00  0.00     0.210 HD
ENDBRANCH  17  31
BRANCH   4  33
HETATM   33  C8  UNL     1      -0.196  50.795 -10.840  1.00  0.00     0.068 C 
HETATM   34  N1  UNL     1       0.038  51.205  -9.638  1.00  0.00    -0.401 N 
ATOM     35  H1  UNL     1       0.660  51.986  -9.433  1.00  0.00     0.158 HD
BRANCH  34  36
HETATM   36  C9  UNL     1      -0.667  50.453  -8.591  1.00  0.00     0.123 C 
BRANCH  36  37
HETATM   37  C10 UNL     1      -1.829  51.299  -8.053  1.00  0.00     0.058 C 
BRANCH  37  38
HETATM   38  C11 UNL     1      -2.682  51.919  -9.134  1.00  0.00    -0.057 A 
HETATM   39  C12 UNL     1      -3.564  51.131  -9.886  1.00  0.00     0.007 A 
HETATM   40  C13 UNL     1      -4.346  51.707 -10.892  1.00  0.00     0.001 A 
HETATM   41  C14 UNL     1      -4.251  53.073 -11.155  1.00  0.00     0.000 A 
HETATM   42  C15 UNL     1      -3.376  53.864 -10.415  1.00  0.00     0.001 A 
HETATM   43  C16 UNL     1      -2.594  53.291  -9.411  1.00  0.00     0.007 A 
ENDBRANCH  37  38
ENDBRANCH  36  37
ENDBRANCH  34  36
ENDBRANCH   4  33
BRANCH  13  44
HETATM   44  O5  UNL     1       4.192  53.506  -9.383  1.00  0.00    -0.389 OA
HETATM   45  H37 UNL     1       3.791  52.963  -8.682  1.00  0.00     0.210 HD
ENDBRANCH  13  44
BRANCH  10  46
HETATM   46  C23 UNL     1       3.897  56.572  -8.509  1.00  0.00    -0.045 A 
HETATM   47  C24 UNL     1       5.109  56.148  -8.148  1.00  0.00     0.087 A 
HETATM   48  C25 UNL     1       5.427  56.780  -6.869  1.00  0.00     0.283 A 
HETATM   49  O3  UNL     1       6.449  56.600  -6.235  1.00  0.00    -0.260 OA
HETATM   50  O4  UNL     1       4.400  57.593  -6.506  1.00  0.00    -0.314 OA
HETATM   51  C26 UNL     1       3.384  57.537  -7.504  1.00  0.00     0.213 A 
ENDBRANCH  10  46
TORSDOF 11
ENDMDL
MODEL 8
REMARK minimizedAffinity -11.0643511
REMARK CNNscore 0.234833643
REMARK CNNaffinity 7.2505517
REMARK  11 active torsions:
REMARK  status: ('A' for Active; 'I' for Inactive)
REMARK    1  A    between atoms: C3_4  and  O2_5 
REMARK    2  A    between atoms: O2_5  and  C4_6 
REMARK    3  A    between atoms: C7_9  and  C8_10 
REMARK    4  A    between atoms: N1_11  and  C9_13 
REMARK    5  A    between atoms: C9_13  and  C10_14 
REMARK    6  A    between atoms: C10_14  and  C11_15 
REMARK    7  A    between atoms: C22_26  and  C23_27 
REMARK    8  A    between atoms: C29_35  and  O5_36 
REMARK    9  A    between atoms: C33_40  and  O6_41 
REMARK   10  A    between atoms: C36_44  and  O7_45 
REMARK   11  A    between atoms: C37_46  and  O8_47 
ROOT
HETATM    1  C4  UNL     1      -5.835  48.343 -24.026  1.00  0.00     0.127 C 
HETATM    2  C5  UNL     1      -4.607  48.418 -24.937  1.00  0.00     0.033 C 
HETATM    3  C6  UNL     1      -3.342  48.744 -24.152  1.00  0.00     0.021 C 
HETATM    4  C7  UNL     1      -3.402  50.079 -23.339  1.00  0.00     0.026 C 
HETATM    5  C17 UNL     1      -2.809  49.817 -21.892  1.00  0.00     0.009 C 
HETATM    6  C18 UNL     1      -1.338  49.339 -21.886  1.00  0.00     0.007 C 
HETATM    7  C19 UNL     1      -0.838  49.018 -20.480  1.00  0.00     0.013 C 
HETATM    8  C20 UNL     1      -0.941  50.228 -19.509  1.00  0.00    -0.005 C 
HETATM    9  C21 UNL     1       0.106  51.286 -19.922  1.00  0.00     0.019 C 
HETATM   10  C22 UNL     1      -0.745  49.700 -18.044  1.00  0.00     0.028 C 
HETATM   11  C27 UNL     1      -2.152  49.199 -17.638  1.00  0.00     0.013 C 
HETATM   12  C28 UNL     1      -3.158  49.749 -18.659  1.00  0.00     0.040 C 
HETATM   13  C29 UNL     1      -2.395  50.777 -19.509  1.00  0.00     0.070 C 
HETATM   14  C30 UNL     1      -2.990  51.016 -20.929  1.00  0.00     0.026 C 
HETATM   15  C31 UNL     1      -4.472  51.419 -20.847  1.00  0.00     0.011 C 
HETATM   16  C32 UNL     1      -5.036  51.748 -22.217  1.00  0.00     0.039 C 
HETATM   17  C33 UNL     1      -4.879  50.617 -23.252  1.00  0.00     0.073 C 
HETATM   18  C34 UNL     1      -5.868  49.466 -22.970  1.00  0.00     0.071 C 
ENDROOT
BRANCH   1  19
HETATM   19  O2  UNL     1      -7.067  48.389 -24.753  1.00  0.00    -0.356 OA
BRANCH  19  20
HETATM   20  C3  UNL     1      -7.884  47.227 -24.616  1.00  0.00     0.263 C 
HETATM   21  O1  UNL     1      -8.444  46.848 -25.869  1.00  0.00    -0.354 OA
HETATM   22  C2  UNL     1      -9.039  45.540 -25.816  1.00  0.00     0.151 C 
HETATM   23  C1  UNL     1      -9.735  45.316 -27.157  1.00  0.00     0.042 C 
HETATM   24  C37 UNL     1      -9.955  45.386 -24.575  1.00  0.00     0.175 C 
HETATM   25  C36 UNL     1     -10.283  46.753 -23.959  1.00  0.00     0.154 C 
HETATM   26  C35 UNL     1      -9.027  47.562 -23.649  1.00  0.00     0.095 C 
BRANCH  24  27
HETATM   27  O8  UNL     1     -11.165  44.689 -24.868  1.00  0.00    -0.390 OA
HETATM   28  H51 UNL     1     -11.802  45.372 -25.165  1.00  0.00     0.210 HD
ENDBRANCH  24  27
BRANCH  25  29
HETATM   29  O7  UNL     1     -11.124  47.477 -24.870  1.00  0.00    -0.393 OA
HETATM   30  H49 UNL     1     -10.558  47.742 -25.632  1.00  0.00     0.210 HD
ENDBRANCH  25  29
ENDBRANCH  19  20
ENDBRANCH   1  19
BRANCH  17  31
HETATM   31  O6  UNL     1      -5.257  51.193 -24.514  1.00  0.00    -0.389 OA
HETATM   32  H43 UNL     1      -6.148  51.586 -24.425  1.00  0.00     0.210 HD
ENDBRANCH  17  31
BRANCH   4  33
HETATM   33  C8  UNL     1      -2.562  51.138 -24.078  1.00  0.00     0.068 C 
HETATM   34  N1  UNL     1      -1.958  52.088 -23.447  1.00  0.00    -0.401 N 
ATOM     35  H1  UNL     1      -2.001  52.191 -22.433  1.00  0.00     0.158 HD
BRANCH  34  36
HETATM   36  C9  UNL     1      -1.203  53.008 -24.308  1.00  0.00     0.123 C 
BRANCH  36  37
HETATM   37  C10 UNL     1       0.267  52.574 -24.349  1.00  0.00     0.058 C 
BRANCH  37  38
HETATM   38  C11 UNL     1       0.773  52.267 -25.739  1.00  0.00    -0.057 A 
HETATM   39  C12 UNL     1       2.076  51.791 -25.935  1.00  0.00     0.007 A 
HETATM   40  C13 UNL     1       2.543  51.516 -27.224  1.00  0.00     0.001 A 
HETATM   41  C14 UNL     1       1.713  51.718 -28.326  1.00  0.00     0.000 A 
HETATM   42  C15 UNL     1       0.417  52.193 -28.142  1.00  0.00     0.001 A 
HETATM   43  C16 UNL     1      -0.051  52.469 -26.856  1.00  0.00     0.007 A 
ENDBRANCH  37  38
ENDBRANCH  36  37
ENDBRANCH  34  36
ENDBRANCH   4  33
BRANCH  13  44
HETATM   44  O5  UNL     1      -2.458  52.017 -18.793  1.00  0.00    -0.389 OA
HETATM   45  H37 UNL     1      -2.045  52.711 -19.334  1.00  0.00     0.210 HD
ENDBRANCH  13  44
BRANCH  10  46
HETATM   46  C23 UNL     1      -0.144  50.660 -17.043  1.00  0.00    -0.045 A 
HETATM   47  C24 UNL     1      -0.299  50.711 -15.719  1.00  0.00     0.087 A 
HETATM   48  C25 UNL     1       0.521  51.816 -15.229  1.00  0.00     0.283 A 
HETATM   49  O3  UNL     1       0.602  52.165 -14.066  1.00  0.00    -0.260 OA
HETATM   50  O4  UNL     1       1.172  52.389 -16.277  1.00  0.00    -0.314 OA
HETATM   51  C26 UNL     1       0.820  51.703 -17.476  1.00  0.00     0.213 A 
ENDBRANCH  10  46
TORSDOF 11
ENDMDL
MODEL 9
REMARK minimizedAffinity -8.88023758
REMARK CNNscore 0.209383354
REMARK CNNaffinity 6.55233526
REMARK  11 active torsions:
REMARK  status: ('A' for Active; 'I' for Inactive)
REMARK    1  A    between atoms: C3_4  and  O2_5 
REMARK    2  A    between atoms: O2_5  and  C4_6 
REMARK    3  A    between atoms: C7_9  and  C8_10 
REMARK    4  A    between atoms: N1_11  and  C9_13 
REMARK    5  A    between atoms: C9_13  and  C10_14 
REMARK    6  A    between atoms: C10_14  and  C11_15 
REMARK    7  A    between atoms: C22_26  and  C23_27 
REMARK    8  A    between atoms: C29_35  and  O5_36 
REMARK    9  A    between atoms: C33_40  and  O6_41 
REMARK   10  A    between atoms: C36_44  and  O7_45 
REMARK   11  A    between atoms: C37_46  and  O8_47 
ROOT
HETATM    1  C4  UNL     1      -6.477  48.086 -24.484  1.00  0.00     0.127 C 
HETATM    2  C5  UNL     1      -5.074  48.561 -24.870  1.00  0.00     0.033 C 
HETATM    3  C6  UNL     1      -4.100  48.448 -23.704  1.00  0.00     0.021 C 
HETATM    4  C7  UNL     1      -4.522  49.237 -22.421  1.00  0.00     0.026 C 
HETATM    5  C17 UNL     1      -4.294  48.306 -21.157  1.00  0.00     0.009 C 
HETATM    6  C18 UNL     1      -2.828  47.854 -20.959  1.00  0.00     0.007 C 
HETATM    7  C19 UNL     1      -2.671  46.892 -19.784  1.00  0.00     0.013 C 
HETATM    8  C20 UNL     1      -3.161  47.496 -18.437  1.00  0.00    -0.005 C 
HETATM    9  C21 UNL     1      -2.174  48.602 -18.002  1.00  0.00     0.019 C 
HETATM   10  C22 UNL     1      -3.288  46.332 -17.393  1.00  0.00     0.028 C 
HETATM   11  C27 UNL     1      -4.683  45.727 -17.679  1.00  0.00     0.013 C 
HETATM   12  C28 UNL     1      -5.451  46.717 -18.566  1.00  0.00     0.040 C 
HETATM   13  C29 UNL     1      -4.619  48.009 -18.593  1.00  0.00     0.070 C 
HETATM   14  C30 UNL     1      -4.855  48.907 -19.845  1.00  0.00     0.026 C 
HETATM   15  C31 UNL     1      -6.344  49.252 -20.006  1.00  0.00     0.011 C 
HETATM   16  C32 UNL     1      -6.572  50.205 -21.166  1.00  0.00     0.039 C 
HETATM   17  C33 UNL     1      -6.023  49.699 -22.515  1.00  0.00     0.073 C 
HETATM   18  C34 UNL     1      -6.911  48.572 -23.086  1.00  0.00     0.071 C 
ENDROOT
BRANCH   1  19
HETATM   19  O2  UNL     1      -7.478  48.497 -25.421  1.00  0.00    -0.356 OA
BRANCH  19  20
HETATM   20  C3  UNL     1      -7.891  47.484 -26.336  1.00  0.00     0.263 C 
HETATM   21  O1  UNL     1      -7.167  47.577 -27.558  1.00  0.00    -0.354 OA
HETATM   22  C2  UNL     1      -7.359  46.417 -28.386  1.00  0.00     0.151 C 
HETATM   23  C1  UNL     1      -6.669  46.702 -29.717  1.00  0.00     0.042 C 
HETATM   24  C37 UNL     1      -8.861  46.047 -28.498  1.00  0.00     0.175 C 
HETATM   25  C36 UNL     1      -9.751  47.207 -28.032  1.00  0.00     0.154 C 
HETATM   26  C35 UNL     1      -9.381  47.691 -26.633  1.00  0.00     0.095 C 
BRANCH  24  27
HETATM   27  O8  UNL     1      -9.234  45.657 -29.819  1.00  0.00    -0.390 OA
HETATM   28  H51 UNL     1      -9.475  46.485 -30.284  1.00  0.00     0.210 HD
ENDBRANCH  24  27
BRANCH  25  29
HETATM   29  O7  UNL     1      -9.631  48.285 -28.974  1.00  0.00    -0.393 OA
HETATM   30  H49 UNL     1      -8.733  48.672 -28.852  1.00  0.00     0.210 HD
ENDBRANCH  25  29
ENDBRANCH  19  20
ENDBRANCH   1  19
BRANCH  17  31
HETATM   31  O6  UNL     1      -6.130  50.814 -23.417  1.00  0.00    -0.389 OA
HETATM   32  H43 UNL     1      -7.054  51.135 -23.411  1.00  0.00     0.210 HD
ENDBRANCH  17  31
BRANCH   4  33
HETATM   33  C8  UNL     1      -3.649  50.503 -22.318  1.00  0.00     0.068 C 
HETATM   34  N1  UNL     1      -3.006  50.969 -23.335  1.00  0.00    -0.401 N 
ATOM     35  H1  UNL     1      -3.038  50.532 -24.256  1.00  0.00     0.158 HD
BRANCH  34  36
HETATM   36  C9  UNL     1      -2.223  52.181 -23.057  1.00  0.00     0.123 C 
BRANCH  36  37
HETATM   37  C10 UNL     1      -0.758  51.796 -22.819  1.00  0.00     0.058 C 
BRANCH  37  38
HETATM   38  C11 UNL     1      -0.259  52.129 -21.433  1.00  0.00    -0.057 A 
HETATM   39  C12 UNL     1       0.629  53.195 -21.231  1.00  0.00     0.007 A 
HETATM   40  C13 UNL     1       1.095  53.494 -19.948  1.00  0.00     0.001 A 
HETATM   41  C14 UNL     1       0.681  52.730 -18.857  1.00  0.00     0.000 A 
HETATM   42  C15 UNL     1      -0.199  51.668 -19.047  1.00  0.00     0.001 A 
HETATM   43  C16 UNL     1      -0.665  51.366 -20.328  1.00  0.00     0.007 A 
ENDBRANCH  37  38
ENDBRANCH  36  37
ENDBRANCH  34  36
ENDBRANCH   4  33
BRANCH  13  44
HETATM   44  O5  UNL     1      -5.009  48.760 -17.436  1.00  0.00    -0.389 OA
HETATM   45  H37 UNL     1      -4.555  49.620 -17.454  1.00  0.00     0.210 HD
ENDBRANCH  13  44
BRANCH  10  46
HETATM   46  C23 UNL     1      -3.080  46.688 -15.939  1.00  0.00    -0.045 A 
HETATM   47  C24 UNL     1      -3.973  46.777 -14.952  1.00  0.00     0.087 A 
HETATM   48  C25 UNL     1      -3.243  47.132 -13.738  1.00  0.00     0.283 A 
HETATM   49  O3  UNL     1      -3.749  47.319 -12.647  1.00  0.00    -0.260 OA
HETATM   50  O4  UNL     1      -1.917  47.222 -14.024  1.00  0.00    -0.314 OA
HETATM   51  C26 UNL     1      -1.717  46.937 -15.406  1.00  0.00     0.213 A 
ENDBRANCH  10  46
TORSDOF 11
ENDMDL
