MODEL 1
REMARK minimizedAffinity -7.87109947
REMARK  13 active torsions:
REMARK  status: ('A' for Active; 'I' for Inactive)
REMARK    1  A    between atoms: C2_2  and  C3_3 
REMARK    2  A    between atoms: C3_3  and  C4_4 
REMARK    3  A    between atoms: C4_4  and  C5_5 
REMARK    4  A    between atoms: C5_5  and  C6_6 
REMARK    5  A    between atoms: C6_6  and  C7_7 
REMARK    6  A    between atoms: C7_7  and  C8_8 
REMARK    7  A    between atoms: C8_8  and  C9_9 
REMARK    8  A    between atoms: C9_9  and  C10_10 
REMARK    9  A    between atoms: C10_10  and  C11_11 
REMARK   10  A    between atoms: C11_11  and  C12_12 
REMARK   11  A    between atoms: C12_12  and  C13_13 
REMARK   12  A    between atoms: C13_13  and  O2_15 
REMARK   13  A    between atoms: O2_15  and  C14_16 
ROOT
HETATM    1  C14 UNL     1      -2.064  49.296 -19.089  1.00  0.00     0.140 C 
HETATM    2  C15 UNL     1      -2.285  50.792 -18.772  1.00  0.00     0.034 C 
HETATM    3  C16 UNL     1      -2.974  51.402 -20.005  1.00  0.00     0.008 C 
HETATM    4  C17 UNL     1      -3.303  50.195 -20.878  1.00  0.00     0.001 C 
HETATM    5  C18 UNL     1      -3.588  50.409 -22.367  1.00  0.00    -0.004 C 
HETATM    6  C19 UNL     1      -4.761  51.384 -22.592  1.00  0.00     0.010 C 
HETATM    7  C20 UNL     1      -5.105  51.580 -24.075  1.00  0.00     0.035 C 
HETATM    8  C21 UNL     1      -4.311  50.641 -24.950  1.00  0.00    -0.068 C 
HETATM    9  C22 UNL     1      -3.536  51.142 -25.929  1.00  0.00     0.053 C 
HETATM   10  C23 UNL     1      -2.541  50.298 -26.627  1.00  0.00     0.149 C 
HETATM   11  O3  UNL     1      -1.930  50.747 -27.591  1.00  0.00    -0.293 OA
HETATM   12  C24 UNL     1      -2.245  48.947 -26.033  1.00  0.00     0.084 C 
HETATM   13  C25 UNL     1      -3.539  48.303 -25.562  1.00  0.00     0.022 C 
HETATM   14  C26 UNL     1      -4.346  49.161 -24.544  1.00  0.00    -0.016 C 
HETATM   15  C27 UNL     1      -5.810  48.648 -24.657  1.00  0.00     0.020 C 
HETATM   16  C28 UNL     1      -3.913  49.025 -23.024  1.00  0.00     0.002 C 
HETATM   17  C29 UNL     1      -2.837  47.955 -22.707  1.00  0.00     0.007 C 
HETATM   18  C30 UNL     1      -2.481  47.867 -21.211  1.00  0.00     0.012 C 
HETATM   19  C31 UNL     1      -2.118  49.241 -20.633  1.00  0.00    -0.013 C 
HETATM   20  C32 UNL     1      -0.770  49.714 -21.238  1.00  0.00     0.018 C 
ENDROOT
BRANCH   1  21
HETATM   21  O2  UNL     1      -0.816  48.814 -18.587  1.00  0.00    -0.315 OA
BRANCH  21  22
HETATM   22  C13 UNL     1      -0.421  49.342 -17.396  1.00  0.00     0.259 C 
HETATM   23  O1  UNL     1      -0.138  48.700 -16.394  1.00  0.00    -0.265 OA
BRANCH  22  24
HETATM   24  C12 UNL     1      -0.402  50.850 -17.475  1.00  0.00     0.111 C 
BRANCH  24  25
HETATM   25  C11 UNL     1       0.919  51.431 -16.976  1.00  0.00     0.010 C 
BRANCH  25  26
HETATM   26  C10 UNL     1       1.485  52.565 -17.840  1.00  0.00     0.000 C 
BRANCH  26  27
HETATM   27  C9  UNL     1       0.601  53.013 -19.009  1.00  0.00     0.000 C 
BRANCH  27  28
HETATM   28  C8  UNL     1       1.333  53.289 -20.327  1.00  0.00     0.000 C 
BRANCH  28  29
HETATM   29  C7  UNL     1       0.946  52.382 -21.501  1.00  0.00     0.000 C 
BRANCH  29  30
HETATM   30  C6  UNL     1       0.577  53.159 -22.767  1.00  0.00     0.000 C 
BRANCH  30  31
HETATM   31  C5  UNL     1      -0.496  52.463 -23.612  1.00  0.00     0.000 C 
BRANCH  31  32
HETATM   32  C4  UNL     1       0.086  51.662 -24.781  1.00  0.00     0.000 C 
BRANCH  32  33
HETATM   33  C3  UNL     1       1.530  52.081 -25.075  1.00  0.00    -0.000 C 
BRANCH  33  34
HETATM   34  C2  UNL     1       2.062  51.528 -26.399  1.00  0.00    -0.005 C 
HETATM   35  C1  UNL     1       1.149  51.810 -27.583  1.00  0.00     0.005 C 
ENDBRANCH  33  34
ENDBRANCH  32  33
ENDBRANCH  31  32
ENDBRANCH  30  31
ENDBRANCH  29  30
ENDBRANCH  28  29
ENDBRANCH  27  28
ENDBRANCH  26  27
ENDBRANCH  25  26
ENDBRANCH  24  25
ENDBRANCH  22  24
ENDBRANCH  21  22
ENDBRANCH   1  21
TORSDOF 13
ENDMDL
MODEL 2
REMARK minimizedAffinity -7.78092289
REMARK  13 active torsions:
REMARK  status: ('A' for Active; 'I' for Inactive)
REMARK    1  A    between atoms: C2_2  and  C3_3 
REMARK    2  A    between atoms: C3_3  and  C4_4 
REMARK    3  A    between atoms: C4_4  and  C5_5 
REMARK    4  A    between atoms: C5_5  and  C6_6 
REMARK    5  A    between atoms: C6_6  and  C7_7 
REMARK    6  A    between atoms: C7_7  and  C8_8 
REMARK    7  A    between atoms: C8_8  and  C9_9 
REMARK    8  A    between atoms: C9_9  and  C10_10 
REMARK    9  A    between atoms: C10_10  and  C11_11 
REMARK   10  A    between atoms: C11_11  and  C12_12 
REMARK   11  A    between atoms: C12_12  and  C13_13 
REMARK   12  A    between atoms: C13_13  and  O2_15 
REMARK   13  A    between atoms: O2_15  and  C14_16 
ROOT
HETATM    1  C14 UNL     1       0.210  52.084 -21.307  1.00  0.00     0.140 C 
HETATM    2  C15 UNL     1       0.769  53.458 -20.875  1.00  0.00     0.034 C 
HETATM    3  C16 UNL     1       0.937  53.398 -19.346  1.00  0.00     0.008 C 
HETATM    4  C17 UNL     1       0.667  51.936 -19.003  1.00  0.00     0.001 C 
HETATM    5  C18 UNL     1       0.305  51.565 -17.562  1.00  0.00    -0.004 C 
HETATM    6  C19 UNL     1       1.395  52.005 -16.566  1.00  0.00     0.010 C 
HETATM    7  C20 UNL     1       1.086  51.601 -15.117  1.00  0.00     0.035 C 
HETATM    8  C21 UNL     1      -0.142  50.725 -15.044  1.00  0.00    -0.068 C 
HETATM    9  C22 UNL     1      -1.179  51.101 -14.275  1.00  0.00     0.053 C 
HETATM   10  C23 UNL     1      -2.494  50.430 -14.379  1.00  0.00     0.149 C 
HETATM   11  O3  UNL     1      -3.388  50.714 -13.589  1.00  0.00    -0.293 OA
HETATM   12  C24 UNL     1      -2.703  49.500 -15.544  1.00  0.00     0.084 C 
HETATM   13  C25 UNL     1      -1.446  48.673 -15.768  1.00  0.00     0.022 C 
HETATM   14  C26 UNL     1      -0.158  49.518 -15.991  1.00  0.00    -0.016 C 
HETATM   15  C27 UNL     1       1.016  48.570 -15.610  1.00  0.00     0.020 C 
HETATM   16  C28 UNL     1       0.098  50.015 -17.476  1.00  0.00     0.002 C 
HETATM   17  C29 UNL     1      -0.880  49.489 -18.556  1.00  0.00     0.007 C 
HETATM   18  C30 UNL     1      -0.559  49.998 -19.975  1.00  0.00     0.012 C 
HETATM   19  C31 UNL     1      -0.423  51.526 -20.012  1.00  0.00    -0.013 C 
HETATM   20  C32 UNL     1      -1.811  52.172 -19.766  1.00  0.00     0.018 C 
ENDROOT
BRANCH   1  21
HETATM   21  O2  UNL     1      -0.753  52.198 -22.358  1.00  0.00    -0.315 OA
BRANCH  21  22
HETATM   22  C13 UNL     1      -0.238  52.323 -23.612  1.00  0.00     0.259 C 
HETATM   23  O1  UNL     1       0.412  53.276 -24.019  1.00  0.00    -0.265 OA
BRANCH  22  24
HETATM   24  C12 UNL     1      -0.604  51.121 -24.449  1.00  0.00     0.111 C 
BRANCH  24  25
HETATM   25  C11 UNL     1       0.158  51.092 -25.771  1.00  0.00     0.010 C 
BRANCH  25  26
HETATM   26  C10 UNL     1      -0.727  51.170 -27.021  1.00  0.00     0.000 C 
BRANCH  26  27
HETATM   27  C9  UNL     1      -2.057  51.914 -26.847  1.00  0.00     0.000 C 
BRANCH  27  28
HETATM   28  C8  UNL     1      -3.302  51.029 -26.728  1.00  0.00     0.000 C 
BRANCH  28  29
HETATM   29  C7  UNL     1      -3.315  49.781 -27.618  1.00  0.00     0.000 C 
BRANCH  29  30
HETATM   30  C6  UNL     1      -3.301  48.473 -26.824  1.00  0.00     0.000 C 
BRANCH  30  31
HETATM   31  C5  UNL     1      -3.107  48.683 -25.318  1.00  0.00     0.000 C 
BRANCH  31  32
HETATM   32  C4  UNL     1      -4.393  48.477 -24.512  1.00  0.00     0.000 C 
BRANCH  32  33
HETATM   33  C3  UNL     1      -4.110  48.488 -23.007  1.00  0.00    -0.000 C 
BRANCH  33  34
HETATM   34  C2  UNL     1      -2.617  48.547 -22.673  1.00  0.00    -0.005 C 
HETATM   35  C1  UNL     1      -2.103  47.295 -21.978  1.00  0.00     0.005 C 
ENDBRANCH  33  34
ENDBRANCH  32  33
ENDBRANCH  31  32
ENDBRANCH  30  31
ENDBRANCH  29  30
ENDBRANCH  28  29
ENDBRANCH  27  28
ENDBRANCH  26  27
ENDBRANCH  25  26
ENDBRANCH  24  25
ENDBRANCH  22  24
ENDBRANCH  21  22
ENDBRANCH   1  21
TORSDOF 13
ENDMDL
MODEL 3
REMARK minimizedAffinity -7.76664305
REMARK  13 active torsions:
REMARK  status: ('A' for Active; 'I' for Inactive)
REMARK    1  A    between atoms: C2_2  and  C3_3 
REMARK    2  A    between atoms: C3_3  and  C4_4 
REMARK    3  A    between atoms: C4_4  and  C5_5 
REMARK    4  A    between atoms: C5_5  and  C6_6 
REMARK    5  A    between atoms: C6_6  and  C7_7 
REMARK    6  A    between atoms: C7_7  and  C8_8 
REMARK    7  A    between atoms: C8_8  and  C9_9 
REMARK    8  A    between atoms: C9_9  and  C10_10 
REMARK    9  A    between atoms: C10_10  and  C11_11 
REMARK   10  A    between atoms: C11_11  and  C12_12 
REMARK   11  A    between atoms: C12_12  and  C13_13 
REMARK   12  A    between atoms: C13_13  and  O2_15 
REMARK   13  A    between atoms: O2_15  and  C14_16 
ROOT
HETATM    1  C14 UNL     1      -0.475  51.325 -20.858  1.00  0.00     0.140 C 
HETATM    2  C15 UNL     1       0.049  52.774 -20.733  1.00  0.00     0.034 C 
HETATM    3  C16 UNL     1       0.402  52.982 -19.249  1.00  0.00     0.008 C 
HETATM    4  C17 UNL     1       0.263  51.591 -18.639  1.00  0.00     0.001 C 
HETATM    5  C18 UNL     1       0.098  51.458 -17.122  1.00  0.00    -0.004 C 
HETATM    6  C19 UNL     1       1.272  52.104 -16.359  1.00  0.00     0.010 C 
HETATM    7  C20 UNL     1       1.162  51.942 -14.837  1.00  0.00     0.035 C 
HETATM    8  C21 UNL     1       0.007  51.045 -14.464  1.00  0.00    -0.068 C 
HETATM    9  C22 UNL     1      -0.951  51.506 -13.640  1.00  0.00     0.053 C 
HETATM   10  C23 UNL     1      -2.227  50.777 -13.464  1.00  0.00     0.149 C 
HETATM   11  O3  UNL     1      -3.035  51.156 -12.623  1.00  0.00    -0.293 OA
HETATM   12  C24 UNL     1      -2.517  49.654 -14.423  1.00  0.00     0.084 C 
HETATM   13  C25 UNL     1      -1.250  48.850 -14.667  1.00  0.00     0.022 C 
HETATM   14  C26 UNL     1      -0.050  49.694 -15.189  1.00  0.00    -0.016 C 
HETATM   15  C27 UNL     1       1.215  48.871 -14.810  1.00  0.00     0.020 C 
HETATM   16  C28 UNL     1      -0.004  49.939 -16.756  1.00  0.00     0.002 C 
HETATM   17  C29 UNL     1      -1.071  49.199 -17.601  1.00  0.00     0.007 C 
HETATM   18  C30 UNL     1      -0.953  49.470 -19.113  1.00  0.00     0.012 C 
HETATM   19  C31 UNL     1      -0.914  50.972 -19.419  1.00  0.00    -0.013 C 
HETATM   20  C32 UNL     1      -2.298  51.598 -19.106  1.00  0.00     0.018 C 
ENDROOT
BRANCH   1  21
HETATM   21  O2  UNL     1      -1.562  51.220 -21.781  1.00  0.00    -0.315 OA
BRANCH  21  22
HETATM   22  C13 UNL     1      -1.314  51.694 -23.033  1.00  0.00     0.259 C 
HETATM   23  O1  UNL     1      -0.277  51.528 -23.661  1.00  0.00    -0.265 OA
BRANCH  22  24
HETATM   24  C12 UNL     1      -2.499  52.482 -23.537  1.00  0.00     0.111 C 
BRANCH  24  25
HETATM   25  C11 UNL     1      -3.814  51.970 -22.955  1.00  0.00     0.010 C 
BRANCH  25  26
HETATM   26  C10 UNL     1      -4.677  51.166 -23.934  1.00  0.00     0.000 C 
BRANCH  26  27
HETATM   27  C9  UNL     1      -4.612  49.642 -23.778  1.00  0.00     0.000 C 
BRANCH  27  28
HETATM   28  C8  UNL     1      -3.353  48.970 -24.336  1.00  0.00     0.000 C 
BRANCH  28  29
HETATM   29  C7  UNL     1      -3.457  48.465 -25.779  1.00  0.00     0.000 C 
BRANCH  29  30
HETATM   30  C6  UNL     1      -2.412  49.084 -26.712  1.00  0.00     0.000 C 
BRANCH  30  31
HETATM   31  C5  UNL     1      -2.520  50.609 -26.813  1.00  0.00     0.000 C 
BRANCH  31  32
HETATM   32  C4  UNL     1      -1.299  51.256 -27.475  1.00  0.00     0.000 C 
BRANCH  32  33
HETATM   33  C3  UNL     1      -0.006  50.857 -26.759  1.00  0.00    -0.000 C 
BRANCH  33  34
HETATM   34  C2  UNL     1       1.099  51.911 -26.876  1.00  0.00    -0.005 C 
HETATM   35  C1  UNL     1       2.494  51.356 -26.629  1.00  0.00     0.005 C 
ENDBRANCH  33  34
ENDBRANCH  32  33
ENDBRANCH  31  32
ENDBRANCH  30  31
ENDBRANCH  29  30
ENDBRANCH  28  29
ENDBRANCH  27  28
ENDBRANCH  26  27
ENDBRANCH  25  26
ENDBRANCH  24  25
ENDBRANCH  22  24
ENDBRANCH  21  22
ENDBRANCH   1  21
TORSDOF 13
ENDMDL
MODEL 4
REMARK minimizedAffinity -7.72698259
REMARK  13 active torsions:
REMARK  status: ('A' for Active; 'I' for Inactive)
REMARK    1  A    between atoms: C2_2  and  C3_3 
REMARK    2  A    between atoms: C3_3  and  C4_4 
REMARK    3  A    between atoms: C4_4  and  C5_5 
REMARK    4  A    between atoms: C5_5  and  C6_6 
REMARK    5  A    between atoms: C6_6  and  C7_7 
REMARK    6  A    between atoms: C7_7  and  C8_8 
REMARK    7  A    between atoms: C8_8  and  C9_9 
REMARK    8  A    between atoms: C9_9  and  C10_10 
REMARK    9  A    between atoms: C10_10  and  C11_11 
REMARK   10  A    between atoms: C11_11  and  C12_12 
REMARK   11  A    between atoms: C12_12  and  C13_13 
REMARK   12  A    between atoms: C13_13  and  O2_15 
REMARK   13  A    between atoms: O2_15  and  C14_16 
ROOT
HETATM    1  C14 UNL     1      -0.664  50.790 -20.853  1.00  0.00     0.140 C 
HETATM    2  C15 UNL     1       0.012  52.168 -21.037  1.00  0.00     0.034 C 
HETATM    3  C16 UNL     1       0.562  52.571 -19.657  1.00  0.00     0.008 C 
HETATM    4  C17 UNL     1       0.362  51.323 -18.802  1.00  0.00     0.001 C 
HETATM    5  C18 UNL     1       0.372  51.457 -17.277  1.00  0.00    -0.004 C 
HETATM    6  C19 UNL     1       1.687  52.074 -16.764  1.00  0.00     0.010 C 
HETATM    7  C20 UNL     1       1.749  52.175 -15.233  1.00  0.00     0.035 C 
HETATM    8  C21 UNL     1       0.565  51.491 -14.592  1.00  0.00    -0.068 C 
HETATM    9  C22 UNL     1      -0.236  52.189 -13.767  1.00  0.00     0.053 C 
HETATM   10  C23 UNL     1      -1.545  51.653 -13.335  1.00  0.00     0.149 C 
HETATM   11  O3  UNL     1      -2.204  52.256 -12.494  1.00  0.00    -0.293 OA
HETATM   12  C24 UNL     1      -2.060  50.431 -14.049  1.00  0.00     0.084 C 
HETATM   13  C25 UNL     1      -0.917  49.456 -14.279  1.00  0.00     0.022 C 
HETATM   14  C26 UNL     1       0.288  50.057 -15.062  1.00  0.00    -0.016 C 
HETATM   15  C27 UNL     1       1.502  49.163 -14.679  1.00  0.00     0.020 C 
HETATM   16  C28 UNL     1       0.166  50.039 -16.644  1.00  0.00     0.002 C 
HETATM   17  C29 UNL     1      -1.064  49.303 -17.232  1.00  0.00     0.007 C 
HETATM   18  C30 UNL     1      -1.105  49.310 -18.772  1.00  0.00     0.012 C 
HETATM   19  C31 UNL     1      -0.956  50.729 -19.337  1.00  0.00    -0.013 C 
HETATM   20  C32 UNL     1      -2.224  51.554 -18.996  1.00  0.00     0.018 C 
ENDROOT
BRANCH   1  21
HETATM   21  O2  UNL     1      -1.859  50.666 -21.626  1.00  0.00    -0.315 OA
BRANCH  21  22
HETATM   22  C13 UNL     1      -1.929  49.564 -22.423  1.00  0.00     0.259 C 
HETATM   23  O1  UNL     1      -1.663  48.422 -22.078  1.00  0.00    -0.265 OA
BRANCH  22  24
HETATM   24  C12 UNL     1      -2.365  49.954 -23.815  1.00  0.00     0.111 C 
BRANCH  24  25
HETATM   25  C11 UNL     1      -3.845  49.669 -24.052  1.00  0.00     0.010 C 
BRANCH  25  26
HETATM   26  C10 UNL     1      -4.127  48.536 -25.047  1.00  0.00     0.000 C 
BRANCH  26  27
HETATM   27  C9  UNL     1      -3.221  48.498 -26.282  1.00  0.00     0.000 C 
BRANCH  27  28
HETATM   28  C8  UNL     1      -3.684  49.344 -27.472  1.00  0.00     0.000 C 
BRANCH  28  29
HETATM   29  C7  UNL     1      -2.855  50.602 -27.753  1.00  0.00     0.000 C 
BRANCH  29  30
HETATM   30  C6  UNL     1      -1.474  50.574 -27.091  1.00  0.00     0.000 C 
BRANCH  30  31
HETATM   31  C5  UNL     1      -0.627  51.812 -27.408  1.00  0.00     0.000 C 
BRANCH  31  32
HETATM   32  C4  UNL     1       0.879  51.555 -27.295  1.00  0.00     0.000 C 
BRANCH  32  33
HETATM   33  C3  UNL     1       1.380  51.824 -25.873  1.00  0.00    -0.000 C 
BRANCH  33  34
HETATM   34  C2  UNL     1       0.301  52.392 -24.948  1.00  0.00    -0.005 C 
HETATM   35  C1  UNL     1       0.700  53.700 -24.284  1.00  0.00     0.005 C 
ENDBRANCH  33  34
ENDBRANCH  32  33
ENDBRANCH  31  32
ENDBRANCH  30  31
ENDBRANCH  29  30
ENDBRANCH  28  29
ENDBRANCH  27  28
ENDBRANCH  26  27
ENDBRANCH  25  26
ENDBRANCH  24  25
ENDBRANCH  22  24
ENDBRANCH  21  22
ENDBRANCH   1  21
TORSDOF 13
ENDMDL
MODEL 5
REMARK minimizedAffinity -7.67017889
REMARK  13 active torsions:
REMARK  status: ('A' for Active; 'I' for Inactive)
REMARK    1  A    between atoms: C2_2  and  C3_3 
REMARK    2  A    between atoms: C3_3  and  C4_4 
REMARK    3  A    between atoms: C4_4  and  C5_5 
REMARK    4  A    between atoms: C5_5  and  C6_6 
REMARK    5  A    between atoms: C6_6  and  C7_7 
REMARK    6  A    between atoms: C7_7  and  C8_8 
REMARK    7  A    between atoms: C8_8  and  C9_9 
REMARK    8  A    between atoms: C9_9  and  C10_10 
REMARK    9  A    between atoms: C10_10  and  C11_11 
REMARK   10  A    between atoms: C11_11  and  C12_12 
REMARK   11  A    between atoms: C12_12  and  C13_13 
REMARK   12  A    between atoms: C13_13  and  O2_15 
REMARK   13  A    between atoms: O2_15  and  C14_16 
ROOT
HETATM    1  C14 UNL     1      -3.960  49.061 -23.532  1.00  0.00     0.140 C 
HETATM    2  C15 UNL     1      -4.757  48.849 -24.839  1.00  0.00     0.034 C 
HETATM    3  C16 UNL     1      -3.925  49.488 -25.965  1.00  0.00     0.008 C 
HETATM    4  C17 UNL     1      -2.605  49.847 -25.290  1.00  0.00     0.001 C 
HETATM    5  C18 UNL     1      -1.692  50.885 -25.948  1.00  0.00    -0.004 C 
HETATM    6  C19 UNL     1      -1.299  50.477 -27.381  1.00  0.00     0.010 C 
HETATM    7  C20 UNL     1      -0.341  51.473 -28.050  1.00  0.00     0.035 C 
HETATM    8  C21 UNL     1       0.112  52.534 -27.076  1.00  0.00    -0.068 C 
HETATM    9  C22 UNL     1      -0.098  53.831 -27.365  1.00  0.00     0.053 C 
HETATM   10  C23 UNL     1       0.076  54.882 -26.338  1.00  0.00     0.149 C 
HETATM   11  O3  UNL     1      -0.010  56.064 -26.655  1.00  0.00    -0.293 OA
HETATM   12  C24 UNL     1       0.238  54.432 -24.910  1.00  0.00     0.084 C 
HETATM   13  C25 UNL     1       1.145  53.213 -24.860  1.00  0.00     0.022 C 
HETATM   14  C26 UNL     1       0.661  52.021 -25.738  1.00  0.00    -0.016 C 
HETATM   15  C27 UNL     1       1.940  51.180 -26.014  1.00  0.00     0.020 C 
HETATM   16  C28 UNL     1      -0.406  51.056 -25.070  1.00  0.00     0.002 C 
HETATM   17  C29 UNL     1      -0.740  51.323 -23.581  1.00  0.00     0.007 C 
HETATM   18  C30 UNL     1      -1.768  50.335 -22.995  1.00  0.00     0.012 C 
HETATM   19  C31 UNL     1      -3.030  50.250 -23.864  1.00  0.00    -0.013 C 
HETATM   20  C32 UNL     1      -3.808  51.588 -23.773  1.00  0.00     0.018 C 
ENDROOT
BRANCH   1  21
HETATM   21  O2  UNL     1      -4.810  49.351 -22.420  1.00  0.00    -0.315 OA
BRANCH  21  22
HETATM   22  C13 UNL     1      -5.399  48.271 -21.837  1.00  0.00     0.259 C 
HETATM   23  O1  UNL     1      -6.572  48.200 -21.498  1.00  0.00    -0.265 OA
BRANCH  22  24
HETATM   24  C12 UNL     1      -4.388  47.166 -21.643  1.00  0.00     0.111 C 
BRANCH  24  25
HETATM   25  C11 UNL     1      -3.394  47.491 -20.531  1.00  0.00     0.010 C 
BRANCH  25  26
HETATM   26  C10 UNL     1      -1.920  47.338 -20.927  1.00  0.00     0.000 C 
BRANCH  26  27
HETATM   27  C9  UNL     1      -0.941  48.276 -20.212  1.00  0.00     0.000 C 
BRANCH  27  28
HETATM   28  C8  UNL     1      -1.280  48.606 -18.755  1.00  0.00     0.000 C 
BRANCH  28  29
HETATM   29  C7  UNL     1      -1.018  50.053 -18.325  1.00  0.00     0.000 C 
BRANCH  29  30
HETATM   30  C6  UNL     1       0.194  50.198 -17.401  1.00  0.00     0.000 C 
BRANCH  30  31
HETATM   31  C5  UNL     1       0.464  51.647 -16.981  1.00  0.00     0.000 C 
BRANCH  31  32
HETATM   32  C4  UNL     1       0.776  52.568 -18.165  1.00  0.00     0.000 C 
BRANCH  32  33
HETATM   33  C3  UNL     1       0.174  52.023 -19.463  1.00  0.00    -0.000 C 
BRANCH  33  34
HETATM   34  C2  UNL     1       0.844  52.583 -20.721  1.00  0.00    -0.005 C 
HETATM   35  C1  UNL     1       0.994  54.097 -20.704  1.00  0.00     0.005 C 
ENDBRANCH  33  34
ENDBRANCH  32  33
ENDBRANCH  31  32
ENDBRANCH  30  31
ENDBRANCH  29  30
ENDBRANCH  28  29
ENDBRANCH  27  28
ENDBRANCH  26  27
ENDBRANCH  25  26
ENDBRANCH  24  25
ENDBRANCH  22  24
ENDBRANCH  21  22
ENDBRANCH   1  21
TORSDOF 13
ENDMDL
MODEL 6
REMARK minimizedAffinity -7.64932203
REMARK  13 active torsions:
REMARK  status: ('A' for Active; 'I' for Inactive)
REMARK    1  A    between atoms: C2_2  and  C3_3 
REMARK    2  A    between atoms: C3_3  and  C4_4 
REMARK    3  A    between atoms: C4_4  and  C5_5 
REMARK    4  A    between atoms: C5_5  and  C6_6 
REMARK    5  A    between atoms: C6_6  and  C7_7 
REMARK    6  A    between atoms: C7_7  and  C8_8 
REMARK    7  A    between atoms: C8_8  and  C9_9 
REMARK    8  A    between atoms: C9_9  and  C10_10 
REMARK    9  A    between atoms: C10_10  and  C11_11 
REMARK   10  A    between atoms: C11_11  and  C12_12 
REMARK   11  A    between atoms: C12_12  and  C13_13 
REMARK   12  A    between atoms: C13_13  and  O2_15 
REMARK   13  A    between atoms: O2_15  and  C14_16 
ROOT
HETATM    1  C14 UNL     1      -0.689  51.475 -21.222  1.00  0.00     0.140 C 
HETATM    2  C15 UNL     1      -0.205  52.910 -20.915  1.00  0.00     0.034 C 
HETATM    3  C16 UNL     1       0.148  52.940 -19.417  1.00  0.00     0.008 C 
HETATM    4  C17 UNL     1       0.051  51.479 -18.987  1.00  0.00     0.001 C 
HETATM    5  C18 UNL     1      -0.103  51.151 -17.500  1.00  0.00    -0.004 C 
HETATM    6  C19 UNL     1       1.056  51.728 -16.662  1.00  0.00     0.010 C 
HETATM    7  C20 UNL     1       0.958  51.372 -15.172  1.00  0.00     0.035 C 
HETATM    8  C21 UNL     1      -0.171  50.402 -14.915  1.00  0.00    -0.068 C 
HETATM    9  C22 UNL     1      -1.138  50.729 -14.039  1.00  0.00     0.053 C 
HETATM   10  C23 UNL     1      -2.391  49.947 -13.955  1.00  0.00     0.149 C 
HETATM   11  O3  UNL     1      -3.206  50.194 -13.072  1.00  0.00    -0.293 OA
HETATM   12  C24 UNL     1      -2.655  48.946 -15.048  1.00  0.00     0.084 C 
HETATM   13  C25 UNL     1      -1.366  48.216 -15.392  1.00  0.00     0.022 C 
HETATM   14  C26 UNL     1      -0.193  49.153 -15.805  1.00  0.00    -0.016 C 
HETATM   15  C27 UNL     1       1.097  48.325 -15.534  1.00  0.00     0.020 C 
HETATM   16  C28 UNL     1      -0.160  49.595 -17.329  1.00  0.00     0.002 C 
HETATM   17  C29 UNL     1      -1.210  48.938 -18.259  1.00  0.00     0.007 C 
HETATM   18  C30 UNL     1      -1.106  49.401 -19.725  1.00  0.00     0.012 C 
HETATM   19  C31 UNL     1      -1.111  50.931 -19.838  1.00  0.00    -0.013 C 
HETATM   20  C32 UNL     1      -2.511  51.472 -19.448  1.00  0.00     0.018 C 
ENDROOT
BRANCH   1  21
HETATM   21  O2  UNL     1      -1.776  51.457 -22.150  1.00  0.00    -0.315 OA
BRANCH  21  22
HETATM   22  C13 UNL     1      -1.502  51.966 -23.383  1.00  0.00     0.259 C 
HETATM   23  O1  UNL     1      -2.099  52.889 -23.917  1.00  0.00    -0.265 OA
BRANCH  22  24
HETATM   24  C12 UNL     1      -0.359  51.210 -24.016  1.00  0.00     0.111 C 
BRANCH  24  25
HETATM   25  C11 UNL     1       0.652  52.147 -24.672  1.00  0.00     0.010 C 
BRANCH  25  26
HETATM   26  C10 UNL     1       1.392  51.549 -25.874  1.00  0.00     0.000 C 
BRANCH  26  27
HETATM   27  C9  UNL     1       1.160  52.256 -27.215  1.00  0.00     0.000 C 
BRANCH  27  28
HETATM   28  C8  UNL     1      -0.174  51.949 -27.905  1.00  0.00     0.000 C 
BRANCH  28  29
HETATM   29  C7  UNL     1      -1.328  52.900 -27.567  1.00  0.00     0.000 C 
BRANCH  29  30
HETATM   30  C6  UNL     1      -2.582  52.175 -27.073  1.00  0.00     0.000 C 
BRANCH  30  31
HETATM   31  C5  UNL     1      -2.758  50.782 -27.689  1.00  0.00     0.000 C 
BRANCH  31  32
HETATM   32  C4  UNL     1      -2.369  49.649 -26.736  1.00  0.00     0.000 C 
BRANCH  32  33
HETATM   33  C3  UNL     1      -3.357  48.483 -26.830  1.00  0.00    -0.000 C 
BRANCH  33  34
HETATM   34  C2  UNL     1      -4.254  48.349 -25.597  1.00  0.00    -0.005 C 
HETATM   35  C1  UNL     1      -3.726  49.094 -24.381  1.00  0.00     0.005 C 
ENDBRANCH  33  34
ENDBRANCH  32  33
ENDBRANCH  31  32
ENDBRANCH  30  31
ENDBRANCH  29  30
ENDBRANCH  28  29
ENDBRANCH  27  28
ENDBRANCH  26  27
ENDBRANCH  25  26
ENDBRANCH  24  25
ENDBRANCH  22  24
ENDBRANCH  21  22
ENDBRANCH   1  21
TORSDOF 13
ENDMDL
MODEL 7
REMARK minimizedAffinity -7.57507086
REMARK  13 active torsions:
REMARK  status: ('A' for Active; 'I' for Inactive)
REMARK    1  A    between atoms: C2_2  and  C3_3 
REMARK    2  A    between atoms: C3_3  and  C4_4 
REMARK    3  A    between atoms: C4_4  and  C5_5 
REMARK    4  A    between atoms: C5_5  and  C6_6 
REMARK    5  A    between atoms: C6_6  and  C7_7 
REMARK    6  A    between atoms: C7_7  and  C8_8 
REMARK    7  A    between atoms: C8_8  and  C9_9 
REMARK    8  A    between atoms: C9_9  and  C10_10 
REMARK    9  A    between atoms: C10_10  and  C11_11 
REMARK   10  A    between atoms: C11_11  and  C12_12 
REMARK   11  A    between atoms: C12_12  and  C13_13 
REMARK   12  A    between atoms: C13_13  and  O2_15 
REMARK   13  A    between atoms: O2_15  and  C14_16 
ROOT
HETATM    1  C14 UNL     1      -0.302  51.384 -21.204  1.00  0.00     0.140 C 
HETATM    2  C15 UNL     1       0.085  52.864 -20.983  1.00  0.00     0.034 C 
HETATM    3  C16 UNL     1       0.320  53.031 -19.471  1.00  0.00     0.008 C 
HETATM    4  C17 UNL     1       0.262  51.607 -18.929  1.00  0.00     0.001 C 
HETATM    5  C18 UNL     1       0.010  51.389 -17.435  1.00  0.00    -0.004 C 
HETATM    6  C19 UNL     1       1.070  52.095 -16.566  1.00  0.00     0.010 C 
HETATM    7  C20 UNL     1       0.875  51.853 -15.063  1.00  0.00     0.035 C 
HETATM    8  C21 UNL     1      -0.220  50.845 -14.809  1.00  0.00    -0.068 C 
HETATM    9  C22 UNL     1      -1.267  51.186 -14.036  1.00  0.00     0.053 C 
HETATM   10  C23 UNL     1      -2.483  50.344 -13.979  1.00  0.00     0.149 C 
HETATM   11  O3  UNL     1      -3.375  50.615 -13.181  1.00  0.00    -0.293 OA
HETATM   12  C24 UNL     1      -2.611  49.247 -15.001  1.00  0.00     0.084 C 
HETATM   13  C25 UNL     1      -1.265  48.565 -15.189  1.00  0.00     0.022 C 
HETATM   14  C26 UNL     1      -0.111  49.530 -15.591  1.00  0.00    -0.016 C 
HETATM   15  C27 UNL     1       1.193  48.799 -15.159  1.00  0.00     0.020 C 
HETATM   16  C28 UNL     1       0.017  49.851 -17.140  1.00  0.00     0.002 C 
HETATM   17  C29 UNL     1      -0.924  49.065 -18.086  1.00  0.00     0.007 C 
HETATM   18  C30 UNL     1      -0.731  49.415 -19.575  1.00  0.00     0.012 C 
HETATM   19  C31 UNL     1      -0.802  50.928 -19.815  1.00  0.00    -0.013 C 
HETATM   20  C32 UNL     1      -2.254  51.420 -19.574  1.00  0.00     0.018 C 
ENDROOT
BRANCH   1  21
HETATM   21  O2  UNL     1      -1.312  51.232 -22.204  1.00  0.00    -0.315 OA
BRANCH  21  22
HETATM   22  C13 UNL     1      -1.063  51.858 -23.387  1.00  0.00     0.259 C 
HETATM   23  O1  UNL     1       0.019  51.894 -23.956  1.00  0.00    -0.265 OA
BRANCH  22  24
HETATM   24  C12 UNL     1      -2.316  52.529 -23.896  1.00  0.00     0.111 C 
BRANCH  24  25
HETATM   25  C11 UNL     1      -3.509  52.285 -22.975  1.00  0.00     0.010 C 
BRANCH  25  26
HETATM   26  C10 UNL     1      -4.856  52.151 -23.696  1.00  0.00     0.000 C 
BRANCH  26  27
HETATM   27  C9  UNL     1      -5.689  50.920 -23.322  1.00  0.00     0.000 C 
BRANCH  27  28
HETATM   28  C8  UNL     1      -5.314  49.620 -24.043  1.00  0.00     0.000 C 
BRANCH  28  29
HETATM   29  C7  UNL     1      -4.347  48.701 -23.289  1.00  0.00     0.000 C 
BRANCH  29  30
HETATM   30  C6  UNL     1      -3.007  48.518 -24.006  1.00  0.00     0.000 C 
BRANCH  30  31
HETATM   31  C5  UNL     1      -2.900  49.326 -25.303  1.00  0.00     0.000 C 
BRANCH  31  32
HETATM   32  C4  UNL     1      -2.971  48.456 -26.562  1.00  0.00     0.000 C 
BRANCH  32  33
HETATM   33  C3  UNL     1      -3.890  49.081 -27.615  1.00  0.00    -0.000 C 
BRANCH  33  34
HETATM   34  C2  UNL     1      -4.788  48.058 -28.317  1.00  0.00    -0.005 C 
HETATM   35  C1  UNL     1      -6.058  47.736 -27.544  1.00  0.00     0.005 C 
ENDBRANCH  33  34
ENDBRANCH  32  33
ENDBRANCH  31  32
ENDBRANCH  30  31
ENDBRANCH  29  30
ENDBRANCH  28  29
ENDBRANCH  27  28
ENDBRANCH  26  27
ENDBRANCH  25  26
ENDBRANCH  24  25
ENDBRANCH  22  24
ENDBRANCH  21  22
ENDBRANCH   1  21
TORSDOF 13
ENDMDL
MODEL 8
REMARK minimizedAffinity -7.43852758
REMARK  13 active torsions:
REMARK  status: ('A' for Active; 'I' for Inactive)
REMARK    1  A    between atoms: C2_2  and  C3_3 
REMARK    2  A    between atoms: C3_3  and  C4_4 
REMARK    3  A    between atoms: C4_4  and  C5_5 
REMARK    4  A    between atoms: C5_5  and  C6_6 
REMARK    5  A    between atoms: C6_6  and  C7_7 
REMARK    6  A    between atoms: C7_7  and  C8_8 
REMARK    7  A    between atoms: C8_8  and  C9_9 
REMARK    8  A    between atoms: C9_9  and  C10_10 
REMARK    9  A    between atoms: C10_10  and  C11_11 
REMARK   10  A    between atoms: C11_11  and  C12_12 
REMARK   11  A    between atoms: C12_12  and  C13_13 
REMARK   12  A    between atoms: C13_13  and  O2_15 
REMARK   13  A    between atoms: O2_15  and  C14_16 
ROOT
HETATM    1  C14 UNL     1      -0.145  51.570 -21.121  1.00  0.00     0.140 C 
HETATM    2  C15 UNL     1       0.365  53.004 -20.852  1.00  0.00     0.034 C 
HETATM    3  C16 UNL     1       0.598  53.105 -19.334  1.00  0.00     0.008 C 
HETATM    4  C17 UNL     1       0.414  51.675 -18.837  1.00  0.00     0.001 C 
HETATM    5  C18 UNL     1       0.129  51.436 -17.351  1.00  0.00    -0.004 C 
HETATM    6  C19 UNL     1       1.237  52.022 -16.454  1.00  0.00     0.010 C 
HETATM    7  C20 UNL     1       1.007  51.753 -14.960  1.00  0.00     0.035 C 
HETATM    8  C21 UNL     1      -0.172  50.835 -14.745  1.00  0.00    -0.068 C 
HETATM    9  C22 UNL     1      -1.194  51.241 -13.969  1.00  0.00     0.053 C 
HETATM   10  C23 UNL     1      -2.478  50.505 -13.947  1.00  0.00     0.149 C 
HETATM   11  O3  UNL     1      -3.351  50.827 -13.148  1.00  0.00    -0.293 OA
HETATM   12  C24 UNL     1      -2.689  49.453 -15.004  1.00  0.00     0.084 C 
HETATM   13  C25 UNL     1      -1.404  48.665 -15.202  1.00  0.00     0.022 C 
HETATM   14  C26 UNL     1      -0.168  49.540 -15.566  1.00  0.00    -0.016 C 
HETATM   15  C27 UNL     1       1.065  48.688 -15.147  1.00  0.00     0.020 C 
HETATM   16  C28 UNL     1       0.002  49.895 -17.103  1.00  0.00     0.002 C 
HETATM   17  C29 UNL     1      -0.993  49.220 -18.080  1.00  0.00     0.007 C 
HETATM   18  C30 UNL     1      -0.756  49.597 -19.556  1.00  0.00     0.012 C 
HETATM   19  C31 UNL     1      -0.696  51.117 -19.750  1.00  0.00    -0.013 C 
HETATM   20  C32 UNL     1      -2.102  51.723 -19.505  1.00  0.00     0.018 C 
ENDROOT
BRANCH   1  21
HETATM   21  O2  UNL     1      -1.154  51.534 -22.133  1.00  0.00    -0.315 OA
BRANCH  21  22
HETATM   22  C13 UNL     1      -0.698  51.550 -23.415  1.00  0.00     0.259 C 
HETATM   23  O1  UNL     1       0.313  52.120 -23.801  1.00  0.00    -0.265 OA
BRANCH  22  24
HETATM   24  C12 UNL     1      -1.635  50.776 -24.312  1.00  0.00     0.111 C 
BRANCH  24  25
HETATM   25  C11 UNL     1      -2.795  50.164 -23.532  1.00  0.00     0.010 C 
BRANCH  25  26
HETATM   26  C10 UNL     1      -3.190  48.751 -23.979  1.00  0.00     0.000 C 
BRANCH  26  27
HETATM   27  C9  UNL     1      -3.061  48.468 -25.480  1.00  0.00     0.000 C 
BRANCH  27  28
HETATM   28  C8  UNL     1      -4.372  48.475 -26.272  1.00  0.00     0.000 C 
BRANCH  28  29
HETATM   29  C7  UNL     1      -4.224  48.448 -27.797  1.00  0.00     0.000 C 
BRANCH  29  30
HETATM   30  C6  UNL     1      -5.480  47.949 -28.517  1.00  0.00     0.000 C 
BRANCH  30  31
HETATM   31  C5  UNL     1      -5.455  48.208 -30.027  1.00  0.00     0.000 C 
BRANCH  31  32
HETATM   32  C4  UNL     1      -6.377  47.271 -30.813  1.00  0.00     0.000 C 
BRANCH  32  33
HETATM   33  C3  UNL     1      -7.740  47.921 -31.066  1.00  0.00    -0.000 C 
BRANCH  33  34
HETATM   34  C2  UNL     1      -8.799  47.526 -30.033  1.00  0.00    -0.005 C 
HETATM   35  C1  UNL     1     -10.176  48.104 -30.326  1.00  0.00     0.005 C 
ENDBRANCH  33  34
ENDBRANCH  32  33
ENDBRANCH  31  32
ENDBRANCH  30  31
ENDBRANCH  29  30
ENDBRANCH  28  29
ENDBRANCH  27  28
ENDBRANCH  26  27
ENDBRANCH  25  26
ENDBRANCH  24  25
ENDBRANCH  22  24
ENDBRANCH  21  22
ENDBRANCH   1  21
TORSDOF 13
ENDMDL
MODEL 9
REMARK minimizedAffinity -7.40874577
REMARK  13 active torsions:
REMARK  status: ('A' for Active; 'I' for Inactive)
REMARK    1  A    between atoms: C2_2  and  C3_3 
REMARK    2  A    between atoms: C3_3  and  C4_4 
REMARK    3  A    between atoms: C4_4  and  C5_5 
REMARK    4  A    between atoms: C5_5  and  C6_6 
REMARK    5  A    between atoms: C6_6  and  C7_7 
REMARK    6  A    between atoms: C7_7  and  C8_8 
REMARK    7  A    between atoms: C8_8  and  C9_9 
REMARK    8  A    between atoms: C9_9  and  C10_10 
REMARK    9  A    between atoms: C10_10  and  C11_11 
REMARK   10  A    between atoms: C11_11  and  C12_12 
REMARK   11  A    between atoms: C12_12  and  C13_13 
REMARK   12  A    between atoms: C13_13  and  O2_15 
REMARK   13  A    between atoms: O2_15  and  C14_16 
ROOT
HETATM    1  C14 UNL     1      -5.551  48.430 -29.528  1.00  0.00     0.140 C 
HETATM    2  C15 UNL     1      -5.372  48.386 -31.062  1.00  0.00     0.034 C 
HETATM    3  C16 UNL     1      -6.719  47.920 -31.644  1.00  0.00     0.008 C 
HETATM    4  C17 UNL     1      -7.659  47.922 -30.443  1.00  0.00     0.001 C 
HETATM    5  C18 UNL     1      -8.956  47.110 -30.513  1.00  0.00    -0.004 C 
HETATM    6  C19 UNL     1      -9.838  47.541 -31.701  1.00  0.00     0.010 C 
HETATM    7  C20 UNL     1     -11.170  46.780 -31.768  1.00  0.00     0.035 C 
HETATM    8  C21 UNL     1     -11.362  45.904 -30.554  1.00  0.00    -0.068 C 
HETATM    9  C22 UNL     1     -11.563  44.583 -30.714  1.00  0.00     0.053 C 
HETATM   10  C23 UNL     1     -11.484  43.651 -29.568  1.00  0.00     0.149 C 
HETATM   11  O3  UNL     1     -11.784  42.471 -29.720  1.00  0.00    -0.293 OA
HETATM   12  C24 UNL     1     -10.919  44.188 -28.280  1.00  0.00     0.084 C 
HETATM   13  C25 UNL     1     -11.449  45.592 -28.037  1.00  0.00     0.022 C 
HETATM   14  C26 UNL     1     -11.162  46.591 -29.197  1.00  0.00    -0.016 C 
HETATM   15  C27 UNL     1     -12.236  47.706 -29.041  1.00  0.00     0.020 C 
HETATM   16  C28 UNL     1      -9.741  47.296 -29.170  1.00  0.00     0.002 C 
HETATM   17  C29 UNL     1      -8.858  47.020 -27.927  1.00  0.00     0.007 C 
HETATM   18  C30 UNL     1      -7.502  47.751 -27.963  1.00  0.00     0.012 C 
HETATM   19  C31 UNL     1      -6.752  47.490 -29.275  1.00  0.00    -0.013 C 
HETATM   20  C32 UNL     1      -6.298  46.008 -29.322  1.00  0.00     0.018 C 
ENDROOT
BRANCH   1  21
HETATM   21  O2  UNL     1      -4.382  47.990 -28.833  1.00  0.00    -0.315 OA
BRANCH  21  22
HETATM   22  C13 UNL     1      -3.926  48.831 -27.864  1.00  0.00     0.259 C 
HETATM   23  O1  UNL     1      -3.312  49.871 -28.059  1.00  0.00    -0.265 OA
BRANCH  22  24
HETATM   24  C12 UNL     1      -4.266  48.286 -26.498  1.00  0.00     0.111 C 
BRANCH  24  25
HETATM   25  C11 UNL     1      -3.900  49.264 -25.385  1.00  0.00     0.010 C 
BRANCH  25  26
HETATM   26  C10 UNL     1      -3.591  48.609 -24.034  1.00  0.00     0.000 C 
BRANCH  26  27
HETATM   27  C9  UNL     1      -2.874  49.500 -23.013  1.00  0.00     0.000 C 
BRANCH  27  28
HETATM   28  C8  UNL     1      -1.797  50.429 -23.583  1.00  0.00     0.000 C 
BRANCH  28  29
HETATM   29  C7  UNL     1      -0.963  51.189 -22.546  1.00  0.00     0.000 C 
BRANCH  29  30
HETATM   30  C6  UNL     1       0.043  52.157 -23.174  1.00  0.00     0.000 C 
BRANCH  30  31
HETATM   31  C5  UNL     1      -0.149  52.333 -24.685  1.00  0.00     0.000 C 
BRANCH  31  32
HETATM   32  C4  UNL     1      -0.419  51.014 -25.414  1.00  0.00     0.000 C 
BRANCH  32  33
HETATM   33  C3  UNL     1       0.410  50.911 -26.697  1.00  0.00    -0.000 C 
BRANCH  33  34
HETATM   34  C2  UNL     1       1.339  52.109 -26.914  1.00  0.00    -0.005 C 
HETATM   35  C1  UNL     1       2.770  51.713 -27.245  1.00  0.00     0.005 C 
ENDBRANCH  33  34
ENDBRANCH  32  33
ENDBRANCH  31  32
ENDBRANCH  30  31
ENDBRANCH  29  30
ENDBRANCH  28  29
ENDBRANCH  27  28
ENDBRANCH  26  27
ENDBRANCH  25  26
ENDBRANCH  24  25
ENDBRANCH  22  24
ENDBRANCH  21  22
ENDBRANCH   1  21
TORSDOF 13
ENDMDL
