MODEL 1
REMARK minimizedAffinity -11.1246252
REMARK CNNscore 0.725868702
REMARK CNNaffinity 6.93951845
REMARK  13 active torsions:
REMARK  status: ('A' for Active; 'I' for Inactive)
REMARK    1  A    between atoms: C19_21  and  O3_22 
REMARK    2  A    between atoms: C19_21  and  C20_23 
REMARK    3  A    between atoms: C20_23  and  C21_25 
REMARK    4  A    between atoms: C21_25  and  O5_26 
REMARK    5  A    between atoms: O5_26  and  C22_27 
REMARK    6  A    between atoms: C22_27  and  C23_29 
REMARK    7  A    between atoms: C23_29  and  C24_30 
REMARK    8  A    between atoms: C24_30  and  C25_31 
REMARK       I    between atoms: C25_31  and  N1_33 
REMARK    9  A    between atoms: N1_33  and  C26_34 
REMARK   10  A    between atoms: C26_34  and  C27_35 
REMARK   11  A    between atoms: C26_34  and  C36_45 
REMARK   12  A    between atoms: C27_35  and  C28_36 
REMARK   13  A    between atoms: C36_45  and  O9_47 
ROOT
HETATM    1  C21 UNL     1       0.426  10.759  15.113  1.00  0.00     0.260 C 
ENDROOT
BRANCH   1   2
HETATM    2  C20 UNL     1      -0.884  10.751  14.329  1.00  0.00     0.185 C 
HETATM    3  O4  UNL     1      -1.587  11.765  14.263  1.00  0.00    -0.292 OA
BRANCH   2   4
HETATM    4  C19 UNL     1      -1.290   9.423  13.639  1.00  0.00     0.128 C 
HETATM    5  C14 UNL     1      -2.571   8.734  14.212  1.00  0.00     0.005 C 
HETATM    6  C13 UNL     1      -3.930   9.229  13.688  1.00  0.00     0.091 C 
HETATM    7  C15 UNL     1      -2.599   8.825  15.766  1.00  0.00     0.019 C 
HETATM    8  C16 UNL     1      -2.349   7.281  13.688  1.00  0.00     0.002 C 
HETATM    9  C12 UNL     1      -5.025   8.236  14.077  1.00  0.00     0.133 C 
HETATM   10  C11 UNL     1      -4.803   6.791  13.606  1.00  0.00     0.072 C 
HETATM   11  O2  UNL     1      -6.023   8.608  14.686  1.00  0.00    -0.297 OA
HETATM   12  C2  UNL     1      -5.948   5.765  13.866  1.00  0.00    -0.009 C 
HETATM   13  C10 UNL     1      -3.434   6.303  14.172  1.00  0.00     0.003 C 
HETATM   14  C1  UNL     1      -6.125   5.480  15.376  1.00  0.00     0.021 C 
HETATM   15  C3  UNL     1      -7.292   6.248  13.256  1.00  0.00     0.022 C 
HETATM   16  C7  UNL     1      -5.570   4.460  13.146  1.00  0.00    -0.067 C 
HETATM   17  C4  UNL     1      -8.400   5.197  13.327  1.00  0.00     0.084 C 
HETATM   18  C5  UNL     1      -7.942   3.842  12.843  1.00  0.00     0.149 C 
HETATM   19  O1  UNL     1      -8.738   2.946  12.568  1.00  0.00    -0.293 OA
HETATM   20  C6  UNL     1      -6.490   3.585  12.703  1.00  0.00     0.053 C 
HETATM   21  C8  UNL     1      -4.110   4.217  12.830  1.00  0.00     0.035 C 
HETATM   22  C9  UNL     1      -3.150   4.825  13.846  1.00  0.00     0.010 C 
HETATM   23  C17 UNL     1      -0.896   6.998  14.047  1.00  0.00     0.009 C 
HETATM   24  C18 UNL     1      -0.183   8.351  13.868  1.00  0.00     0.047 C 
BRANCH   4  25
HETATM   25  O3  UNL     1      -1.378   9.576  12.219  1.00  0.00    -0.381 OA
HETATM   26  H25 UNL     1      -2.175  10.080  11.985  1.00  0.00     0.211 HD
ENDBRANCH   4  25
ENDBRANCH   2   4
ENDBRANCH   1   2
BRANCH   1  27
HETATM   27  O5  UNL     1       0.218  10.556  16.512  1.00  0.00    -0.314 OA
BRANCH  27  28
HETATM   28  C22 UNL     1       0.533  11.639  17.273  1.00  0.00     0.259 C 
HETATM   29  O6  UNL     1       0.904  12.712  16.813  1.00  0.00    -0.265 OA
BRANCH  28  30
HETATM   30  C23 UNL     1       0.312  11.378  18.738  1.00  0.00     0.120 C 
BRANCH  30  31
HETATM   31  C24 UNL     1       1.498  11.797  19.596  1.00  0.00     0.112 C 
BRANCH  31  32
HETATM   32  C25 UNL     1       2.299  10.601  20.061  1.00  0.00     0.218 C 
HETATM   33  O7  UNL     1       2.677   9.705  19.317  1.00  0.00    -0.274 OA
HETATM   34  N1  UNL     1       2.560  10.629  21.411  1.00  0.00    -0.346 N 
HETATM   35  H32 UNL     1       1.965  11.201  21.994  1.00  0.00     0.163 HD
BRANCH  34  36
HETATM   36  C26 UNL     1       3.288   9.537  22.068  1.00  0.00     0.186 C 
BRANCH  36  37
HETATM   37  C27 UNL     1       4.287  10.073  23.105  1.00  0.00     0.077 C 
BRANCH  37  38
HETATM   38  C28 UNL     1       4.437  11.564  23.050  1.00  0.00    -0.028 A 
HETATM   39  C29 UNL     1       3.407  12.486  23.023  1.00  0.00     0.096 A 
HETATM   40  N2  UNL     1       3.953  13.740  23.017  1.00  0.00    -0.365 N 
HETATM   41  C30 UNL     1       5.327  13.662  23.028  1.00  0.00     0.042 A 
HETATM   42  H37 UNL     1       3.430  14.604  23.015  1.00  0.00     0.165 HD
HETATM   43  C31 UNL     1       6.287  14.683  23.033  1.00  0.00     0.030 A 
HETATM   44  C35 UNL     1       5.662  12.309  23.036  1.00  0.00    -0.002 A 
HETATM   45  C32 UNL     1       7.632  14.306  23.045  1.00  0.00     0.002 A 
HETATM   46  C33 UNL     1       8.001  12.963  23.049  1.00  0.00     0.001 A 
HETATM   47  C34 UNL     1       7.028  11.956  23.045  1.00  0.00     0.014 A 
ENDBRANCH  37  38
ENDBRANCH  36  37
BRANCH  36  48
HETATM   48  C36 UNL     1       2.330   8.581  22.782  1.00  0.00     0.163 C 
HETATM   49  O8  UNL     1       1.627   7.737  22.246  1.00  0.00    -0.648 OA
BRANCH  48  50
HETATM   50  O9  UNL     1       2.350   8.670  24.131  1.00  0.00    -0.775 OA
HETATM   51  H42 UNL     1       1.668   8.024  24.414  1.00  0.00     0.167 HD
ENDBRANCH  48  50
ENDBRANCH  36  48
ENDBRANCH  34  36
ENDBRANCH  31  32
ENDBRANCH  30  31
ENDBRANCH  28  30
ENDBRANCH  27  28
ENDBRANCH   1  27
TORSDOF 13
ENDMDL
MODEL 2
REMARK minimizedAffinity -9.31416607
REMARK CNNscore 0.528096795
REMARK CNNaffinity 7.68922663
REMARK  13 active torsions:
REMARK  status: ('A' for Active; 'I' for Inactive)
REMARK    1  A    between atoms: C19_21  and  O3_22 
REMARK    2  A    between atoms: C19_21  and  C20_23 
REMARK    3  A    between atoms: C20_23  and  C21_25 
REMARK    4  A    between atoms: C21_25  and  O5_26 
REMARK    5  A    between atoms: O5_26  and  C22_27 
REMARK    6  A    between atoms: C22_27  and  C23_29 
REMARK    7  A    between atoms: C23_29  and  C24_30 
REMARK    8  A    between atoms: C24_30  and  C25_31 
REMARK       I    between atoms: C25_31  and  N1_33 
REMARK    9  A    between atoms: N1_33  and  C26_34 
REMARK   10  A    between atoms: C26_34  and  C27_35 
REMARK   11  A    between atoms: C26_34  and  C36_45 
REMARK   12  A    between atoms: C27_35  and  C28_36 
REMARK   13  A    between atoms: C36_45  and  O9_47 
ROOT
HETATM    1  C21 UNL     1       0.098   5.058  13.150  1.00  0.00     0.260 C 
ENDROOT
BRANCH   1   2
HETATM    2  C20 UNL     1       0.569   6.490  12.906  1.00  0.00     0.185 C 
HETATM    3  O4  UNL     1       1.738   6.725  12.584  1.00  0.00    -0.292 OA
BRANCH   2   4
HETATM    4  C19 UNL     1      -0.475   7.622  13.092  1.00  0.00     0.128 C 
HETATM    5  C14 UNL     1      -0.670   8.119  14.562  1.00  0.00     0.005 C 
HETATM    6  C13 UNL     1       0.320   9.172  15.085  1.00  0.00     0.091 C 
HETATM    7  C15 UNL     1      -0.661   6.921  15.556  1.00  0.00     0.019 C 
HETATM    8  C16 UNL     1      -2.071   8.794  14.430  1.00  0.00     0.002 C 
HETATM    9  C12 UNL     1      -0.216   9.786  16.379  1.00  0.00     0.133 C 
HETATM   10  C11 UNL     1      -1.613  10.418  16.278  1.00  0.00     0.072 C 
HETATM   11  O2  UNL     1       0.464   9.797  17.399  1.00  0.00    -0.297 OA
HETATM   12  C2  UNL     1      -2.155  11.168  17.534  1.00  0.00    -0.009 C 
HETATM   13  C10 UNL     1      -2.604   9.324  15.773  1.00  0.00     0.003 C 
HETATM   14  C1  UNL     1      -2.436  10.195  18.702  1.00  0.00     0.021 C 
HETATM   15  C3  UNL     1      -1.176  12.282  17.995  1.00  0.00     0.022 C 
HETATM   16  C7  UNL     1      -3.465  11.862  17.126  1.00  0.00    -0.067 C 
HETATM   17  C4  UNL     1      -1.745  13.164  19.107  1.00  0.00     0.084 C 
HETATM   18  C5  UNL     1      -3.144  13.643  18.806  1.00  0.00     0.149 C 
HETATM   19  O1  UNL     1      -3.666  14.564  19.432  1.00  0.00    -0.293 OA
HETATM   20  C6  UNL     1      -3.912  12.977  17.729  1.00  0.00     0.053 C 
HETATM   21  C8  UNL     1      -4.215  11.322  15.927  1.00  0.00     0.035 C 
HETATM   22  C9  UNL     1      -4.061   9.818  15.730  1.00  0.00     0.010 C 
HETATM   23  C17 UNL     1      -2.892   7.752  13.678  1.00  0.00     0.009 C 
HETATM   24  C18 UNL     1      -1.892   7.100  12.706  1.00  0.00     0.047 C 
BRANCH   4  25
HETATM   25  O3  UNL     1      -0.223   8.718  12.206  1.00  0.00    -0.381 OA
HETATM   26  H25 UNL     1       0.552   9.220  12.507  1.00  0.00     0.211 HD
ENDBRANCH   4  25
ENDBRANCH   2   4
ENDBRANCH   1   2
BRANCH   1  27
HETATM   27  O5  UNL     1      -1.110   4.761  12.447  1.00  0.00    -0.314 OA
BRANCH  27  28
HETATM   28  C22 UNL     1      -0.945   3.867  11.435  1.00  0.00     0.259 C 
HETATM   29  O6  UNL     1       0.123   3.332  11.162  1.00  0.00    -0.265 OA
BRANCH  28  30
HETATM   30  C23 UNL     1      -2.243   3.569  10.733  1.00  0.00     0.120 C 
BRANCH  30  31
HETATM   31  C24 UNL     1      -3.088   2.539  11.469  1.00  0.00     0.112 C 
BRANCH  31  32
HETATM   32  C25 UNL     1      -4.047   3.195  12.438  1.00  0.00     0.218 C 
HETATM   33  O7  UNL     1      -3.691   3.808  13.436  1.00  0.00    -0.274 OA
HETATM   34  N1  UNL     1      -5.363   3.031  12.076  1.00  0.00    -0.346 N 
HETATM   35  H32 UNL     1      -5.588   2.269  11.451  1.00  0.00     0.163 HD
BRANCH  34  36
HETATM   36  C26 UNL     1      -6.452   3.555  12.908  1.00  0.00     0.186 C 
BRANCH  36  37
HETATM   37  C27 UNL     1      -6.787   5.009  12.542  1.00  0.00     0.077 C 
BRANCH  37  38
HETATM   38  C28 UNL     1      -7.017   5.873  13.745  1.00  0.00    -0.028 A 
HETATM   39  C29 UNL     1      -6.067   6.234  14.682  1.00  0.00     0.096 A 
HETATM   40  N2  UNL     1      -6.659   7.060  15.599  1.00  0.00    -0.365 N 
HETATM   41  C30 UNL     1      -7.987   7.242  15.289  1.00  0.00     0.042 A 
HETATM   42  H37 UNL     1      -6.191   7.487  16.386  1.00  0.00     0.165 HD
HETATM   43  C31 UNL     1      -8.967   8.004  15.938  1.00  0.00     0.030 A 
HETATM   44  C35 UNL     1      -8.246   6.500  14.137  1.00  0.00    -0.002 A 
HETATM   45  C32 UNL     1     -10.253   8.006  15.392  1.00  0.00     0.002 A 
HETATM   46  C33 UNL     1     -10.546   7.272  14.246  1.00  0.00     0.001 A 
HETATM   47  C34 UNL     1      -9.554   6.516  13.609  1.00  0.00     0.014 A 
ENDBRANCH  37  38
ENDBRANCH  36  37
BRANCH  36  48
HETATM   48  C36 UNL     1      -7.724   2.720  12.750  1.00  0.00     0.163 C 
HETATM   49  O8  UNL     1      -8.870   3.143  12.795  1.00  0.00    -0.648 OA
BRANCH  48  50
HETATM   50  O9  UNL     1      -7.508   1.415  12.468  1.00  0.00    -0.775 OA
HETATM   51  H42 UNL     1      -8.411   1.034  12.434  1.00  0.00     0.167 HD
ENDBRANCH  48  50
ENDBRANCH  36  48
ENDBRANCH  34  36
ENDBRANCH  31  32
ENDBRANCH  30  31
ENDBRANCH  28  30
ENDBRANCH  27  28
ENDBRANCH   1  27
TORSDOF 13
ENDMDL
MODEL 3
REMARK minimizedAffinity -9.92074013
REMARK CNNscore 0.481103718
REMARK CNNaffinity 7.6069622
REMARK  13 active torsions:
REMARK  status: ('A' for Active; 'I' for Inactive)
REMARK    1  A    between atoms: C19_21  and  O3_22 
REMARK    2  A    between atoms: C19_21  and  C20_23 
REMARK    3  A    between atoms: C20_23  and  C21_25 
REMARK    4  A    between atoms: C21_25  and  O5_26 
REMARK    5  A    between atoms: O5_26  and  C22_27 
REMARK    6  A    between atoms: C22_27  and  C23_29 
REMARK    7  A    between atoms: C23_29  and  C24_30 
REMARK    8  A    between atoms: C24_30  and  C25_31 
REMARK       I    between atoms: C25_31  and  N1_33 
REMARK    9  A    between atoms: N1_33  and  C26_34 
REMARK   10  A    between atoms: C26_34  and  C27_35 
REMARK   11  A    between atoms: C26_34  and  C36_45 
REMARK   12  A    between atoms: C27_35  and  C28_36 
REMARK   13  A    between atoms: C36_45  and  O9_47 
ROOT
HETATM    1  C21 UNL     1       0.097   5.744  13.651  1.00  0.00     0.260 C 
ENDROOT
BRANCH   1   2
HETATM    2  C20 UNL     1      -1.054   6.654  14.072  1.00  0.00     0.185 C 
HETATM    3  O4  UNL     1      -0.907   7.482  14.978  1.00  0.00    -0.292 OA
BRANCH   2   4
HETATM    4  C19 UNL     1      -2.402   6.485  13.326  1.00  0.00     0.128 C 
HETATM    5  C14 UNL     1      -3.679   6.548  14.226  1.00  0.00     0.005 C 
HETATM    6  C13 UNL     1      -4.232   7.942  14.565  1.00  0.00     0.091 C 
HETATM    7  C15 UNL     1      -3.450   5.788  15.564  1.00  0.00     0.019 C 
HETATM    8  C16 UNL     1      -4.702   5.837  13.286  1.00  0.00     0.002 C 
HETATM    9  C12 UNL     1      -5.643   7.811  15.140  1.00  0.00     0.133 C 
HETATM   10  C11 UNL     1      -6.653   7.076  14.246  1.00  0.00     0.072 C 
HETATM   11  O2  UNL     1      -5.928   8.309  16.224  1.00  0.00    -0.297 OA
HETATM   12  C2  UNL     1      -8.135   7.024  14.729  1.00  0.00    -0.009 C 
HETATM   13  C10 UNL     1      -6.084   5.657  13.940  1.00  0.00     0.003 C 
HETATM   14  C1  UNL     1      -8.292   6.157  15.999  1.00  0.00     0.021 C 
HETATM   15  C3  UNL     1      -8.698   8.449  14.986  1.00  0.00     0.022 C 
HETATM   16  C7  UNL     1      -8.969   6.411  13.591  1.00  0.00    -0.067 C 
HETATM   17  C4  UNL     1     -10.197   8.462  15.284  1.00  0.00     0.084 C 
HETATM   18  C5  UNL     1     -10.990   7.643  14.293  1.00  0.00     0.149 C 
HETATM   19  O1  UNL     1     -12.212   7.743  14.197  1.00  0.00    -0.293 OA
HETATM   20  C6  UNL     1     -10.273   6.688  13.418  1.00  0.00     0.053 C 
HETATM   21  C8  UNL     1      -8.256   5.552  12.569  1.00  0.00     0.035 C 
HETATM   22  C9  UNL     1      -7.063   4.787  13.130  1.00  0.00     0.010 C 
HETATM   23  C17 UNL     1      -3.947   4.597  12.821  1.00  0.00     0.009 C 
HETATM   24  C18 UNL     1      -2.483   5.060  12.701  1.00  0.00     0.047 C 
BRANCH   4  25
HETATM   25  O3  UNL     1      -2.506   7.387  12.219  1.00  0.00    -0.381 OA
HETATM   26  H25 UNL     1      -2.659   8.292  12.538  1.00  0.00     0.211 HD
ENDBRANCH   4  25
ENDBRANCH   2   4
ENDBRANCH   1   2
BRANCH   1  27
HETATM   27  O5  UNL     1       1.182   6.476  13.079  1.00  0.00    -0.314 OA
BRANCH  27  28
HETATM   28  C22 UNL     1       0.868   7.087  11.905  1.00  0.00     0.259 C 
HETATM   29  O6  UNL     1       0.259   6.542  10.992  1.00  0.00    -0.265 OA
BRANCH  28  30
HETATM   30  C23 UNL     1       1.306   8.527  11.887  1.00  0.00     0.120 C 
BRANCH  30  31
HETATM   31  C24 UNL     1       1.766   9.019  13.252  1.00  0.00     0.112 C 
BRANCH  31  32
HETATM   32  C25 UNL     1       3.272   8.973  13.381  1.00  0.00     0.218 C 
HETATM   33  O7  UNL     1       3.858   8.467  14.331  1.00  0.00    -0.274 OA
HETATM   34  N1  UNL     1       3.916   9.558  12.316  1.00  0.00    -0.346 N 
HETATM   35  H32 UNL     1       3.394  10.217  11.755  1.00  0.00     0.163 HD
BRANCH  34  36
HETATM   36  C26 UNL     1       5.380   9.655  12.271  1.00  0.00     0.186 C 
BRANCH  36  37
HETATM   37  C27 UNL     1       5.944   9.022  10.990  1.00  0.00     0.077 C 
BRANCH  37  38
HETATM   38  C28 UNL     1       5.180   7.807  10.557  1.00  0.00    -0.028 A 
HETATM   39  C29 UNL     1       5.327   6.529  11.065  1.00  0.00     0.096 A 
HETATM   40  N2  UNL     1       4.424   5.712  10.440  1.00  0.00    -0.365 N 
HETATM   41  C30 UNL     1       3.691   6.427   9.520  1.00  0.00     0.042 A 
HETATM   42  H37 UNL     1       4.300   4.728  10.629  1.00  0.00     0.165 HD
HETATM   43  C31 UNL     1       2.664   6.007   8.665  1.00  0.00     0.030 A 
HETATM   44  C35 UNL     1       4.151   7.743   9.561  1.00  0.00    -0.002 A 
HETATM   45  C32 UNL     1       2.090   6.964   7.824  1.00  0.00     0.002 A 
HETATM   46  C33 UNL     1       2.529   8.285   7.836  1.00  0.00     0.001 A 
HETATM   47  C34 UNL     1       3.557   8.688   8.699  1.00  0.00     0.014 A 
ENDBRANCH  37  38
ENDBRANCH  36  37
BRANCH  36  48
HETATM   48  C36 UNL     1       5.842  11.113  12.324  1.00  0.00     0.163 C 
HETATM   49  O8  UNL     1       5.329  12.050  11.732  1.00  0.00    -0.648 OA
BRANCH  48  50
HETATM   50  O9  UNL     1       6.872  11.344  13.170  1.00  0.00    -0.775 OA
HETATM   51  H42 UNL     1       7.053  12.301  13.055  1.00  0.00     0.167 HD
ENDBRANCH  48  50
ENDBRANCH  36  48
ENDBRANCH  34  36
ENDBRANCH  31  32
ENDBRANCH  30  31
ENDBRANCH  28  30
ENDBRANCH  27  28
ENDBRANCH   1  27
TORSDOF 13
ENDMDL
MODEL 4
REMARK minimizedAffinity -9.90428066
REMARK CNNscore 0.426087022
REMARK CNNaffinity 7.18507528
REMARK  13 active torsions:
REMARK  status: ('A' for Active; 'I' for Inactive)
REMARK    1  A    between atoms: C19_21  and  O3_22 
REMARK    2  A    between atoms: C19_21  and  C20_23 
REMARK    3  A    between atoms: C20_23  and  C21_25 
REMARK    4  A    between atoms: C21_25  and  O5_26 
REMARK    5  A    between atoms: O5_26  and  C22_27 
REMARK    6  A    between atoms: C22_27  and  C23_29 
REMARK    7  A    between atoms: C23_29  and  C24_30 
REMARK    8  A    between atoms: C24_30  and  C25_31 
REMARK       I    between atoms: C25_31  and  N1_33 
REMARK    9  A    between atoms: N1_33  and  C26_34 
REMARK   10  A    between atoms: C26_34  and  C27_35 
REMARK   11  A    between atoms: C26_34  and  C36_45 
REMARK   12  A    between atoms: C27_35  and  C28_36 
REMARK   13  A    between atoms: C36_45  and  O9_47 
ROOT
HETATM    1  C21 UNL     1       0.650  10.689  14.786  1.00  0.00     0.260 C 
ENDROOT
BRANCH   1   2
HETATM    2  C20 UNL     1      -0.802  10.643  14.316  1.00  0.00     0.185 C 
HETATM    3  O4  UNL     1      -1.565  11.591  14.529  1.00  0.00    -0.292 OA
BRANCH   2   4
HETATM    4  C19 UNL     1      -1.269   9.361  13.579  1.00  0.00     0.128 C 
HETATM    5  C14 UNL     1      -2.527   8.659  14.188  1.00  0.00     0.005 C 
HETATM    6  C13 UNL     1      -3.905   9.201  13.773  1.00  0.00     0.091 C 
HETATM    7  C15 UNL     1      -2.463   8.663  15.743  1.00  0.00     0.019 C 
HETATM    8  C16 UNL     1      -2.361   7.235  13.572  1.00  0.00     0.002 C 
HETATM    9  C12 UNL     1      -4.993   8.203  14.171  1.00  0.00     0.133 C 
HETATM   10  C11 UNL     1      -4.822   6.784  13.608  1.00  0.00     0.072 C 
HETATM   11  O2  UNL     1      -5.947   8.553  14.857  1.00  0.00    -0.297 OA
HETATM   12  C2  UNL     1      -5.967   5.760  13.879  1.00  0.00    -0.009 C 
HETATM   13  C10 UNL     1      -3.431   6.246  14.065  1.00  0.00     0.003 C 
HETATM   14  C1  UNL     1      -6.062   5.394  15.378  1.00  0.00     0.021 C 
HETATM   15  C3  UNL     1      -7.336   6.295  13.377  1.00  0.00     0.022 C 
HETATM   16  C7  UNL     1      -5.655   4.493  13.066  1.00  0.00    -0.067 C 
HETATM   17  C4  UNL     1      -8.456   5.257  13.454  1.00  0.00     0.084 C 
HETATM   18  C5  UNL     1      -8.050   3.925  12.870  1.00  0.00     0.149 C 
HETATM   19  O1  UNL     1      -8.875   3.056  12.594  1.00  0.00    -0.293 OA
HETATM   20  C6  UNL     1      -6.613   3.657  12.631  1.00  0.00     0.053 C 
HETATM   21  C8  UNL     1      -4.219   4.248  12.653  1.00  0.00     0.035 C 
HETATM   22  C9  UNL     1      -3.192   4.785  13.642  1.00  0.00     0.010 C 
HETATM   23  C17 UNL     1      -0.894   6.912  13.829  1.00  0.00     0.009 C 
HETATM   24  C18 UNL     1      -0.169   8.263  13.683  1.00  0.00     0.047 C 
BRANCH   4  25
HETATM   25  O3  UNL     1      -1.438   9.594  12.177  1.00  0.00    -0.381 OA
HETATM   26  H25 UNL     1      -2.238  10.122  12.019  1.00  0.00     0.211 HD
ENDBRANCH   4  25
ENDBRANCH   2   4
ENDBRANCH   1   2
BRANCH   1  27
HETATM   27  O5  UNL     1       0.784  10.326  16.161  1.00  0.00    -0.314 OA
BRANCH  27  28
HETATM   28  C22 UNL     1       1.930   9.647  16.437  1.00  0.00     0.259 C 
HETATM   29  O6  UNL     1       2.288   9.343  17.568  1.00  0.00    -0.265 OA
BRANCH  28  30
HETATM   30  C23 UNL     1       2.670   9.263  15.184  1.00  0.00     0.120 C 
BRANCH  30  31
HETATM   31  C24 UNL     1       4.113   9.750  15.180  1.00  0.00     0.112 C 
BRANCH  31  32
HETATM   32  C25 UNL     1       5.064   8.668  14.719  1.00  0.00     0.218 C 
HETATM   33  O7  UNL     1       5.702   7.953  15.482  1.00  0.00    -0.274 OA
HETATM   34  N1  UNL     1       5.134   8.571  13.349  1.00  0.00    -0.346 N 
HETATM   35  H32 UNL     1       4.847   9.373  12.805  1.00  0.00     0.163 HD
BRANCH  34  36
HETATM   36  C26 UNL     1       6.035   7.611  12.699  1.00  0.00     0.186 C 
BRANCH  36  37
HETATM   37  C27 UNL     1       5.585   7.306  11.262  1.00  0.00     0.077 C 
BRANCH  37  38
HETATM   38  C28 UNL     1       4.096   7.190  11.131  1.00  0.00    -0.028 A 
HETATM   39  C29 UNL     1       3.235   6.662  12.074  1.00  0.00     0.096 A 
HETATM   40  N2  UNL     1       1.956   6.772  11.598  1.00  0.00    -0.365 N 
HETATM   41  C30 UNL     1       1.960   7.355  10.352  1.00  0.00     0.042 A 
HETATM   42  H37 UNL     1       1.124   6.480  12.090  1.00  0.00     0.165 HD
HETATM   43  C31 UNL     1       0.893   7.667   9.500  1.00  0.00     0.030 A 
HETATM   44  C35 UNL     1       3.290   7.618  10.025  1.00  0.00    -0.002 A 
HETATM   45  C32 UNL     1       1.196   8.265   8.274  1.00  0.00     0.002 A 
HETATM   46  C33 UNL     1       2.514   8.537   7.915  1.00  0.00     0.001 A 
HETATM   47  C34 UNL     1       3.569   8.219   8.780  1.00  0.00     0.014 A 
ENDBRANCH  37  38
ENDBRANCH  36  37
BRANCH  36  48
HETATM   48  C36 UNL     1       7.469   8.141  12.646  1.00  0.00     0.163 C 
HETATM   49  O8  UNL     1       8.442   7.633  13.182  1.00  0.00    -0.648 OA
BRANCH  48  50
HETATM   50  O9  UNL     1       7.634   9.235  11.868  1.00  0.00    -0.775 OA
HETATM   51  H42 UNL     1       8.584   9.452  11.975  1.00  0.00     0.167 HD
ENDBRANCH  48  50
ENDBRANCH  36  48
ENDBRANCH  34  36
ENDBRANCH  31  32
ENDBRANCH  30  31
ENDBRANCH  28  30
ENDBRANCH  27  28
ENDBRANCH   1  27
TORSDOF 13
ENDMDL
MODEL 5
REMARK minimizedAffinity -10.2997923
REMARK CNNscore 0.376936525
REMARK CNNaffinity 6.51123857
REMARK  13 active torsions:
REMARK  status: ('A' for Active; 'I' for Inactive)
REMARK    1  A    between atoms: C19_21  and  O3_22 
REMARK    2  A    between atoms: C19_21  and  C20_23 
REMARK    3  A    between atoms: C20_23  and  C21_25 
REMARK    4  A    between atoms: C21_25  and  O5_26 
REMARK    5  A    between atoms: O5_26  and  C22_27 
REMARK    6  A    between atoms: C22_27  and  C23_29 
REMARK    7  A    between atoms: C23_29  and  C24_30 
REMARK    8  A    between atoms: C24_30  and  C25_31 
REMARK       I    between atoms: C25_31  and  N1_33 
REMARK    9  A    between atoms: N1_33  and  C26_34 
REMARK   10  A    between atoms: C26_34  and  C27_35 
REMARK   11  A    between atoms: C26_34  and  C36_45 
REMARK   12  A    between atoms: C27_35  and  C28_36 
REMARK   13  A    between atoms: C36_45  and  O9_47 
ROOT
HETATM    1  C21 UNL     1      -2.282  10.453  16.518  1.00  0.00     0.260 C 
ENDROOT
BRANCH   1   2
HETATM    2  C20 UNL     1      -3.189   9.286  16.134  1.00  0.00     0.185 C 
HETATM    3  O4  UNL     1      -4.416   9.373  16.256  1.00  0.00    -0.292 OA
BRANCH   2   4
HETATM    4  C19 UNL     1      -2.505   8.001  15.602  1.00  0.00     0.128 C 
HETATM    5  C14 UNL     1      -1.723   8.166  14.257  1.00  0.00     0.005 C 
HETATM    6  C13 UNL     1      -0.283   8.698  14.342  1.00  0.00     0.091 C 
HETATM    7  C15 UNL     1      -2.509   9.075  13.269  1.00  0.00     0.019 C 
HETATM    8  C16 UNL     1      -1.662   6.674  13.801  1.00  0.00     0.002 C 
HETATM    9  C12 UNL     1       0.431   8.467  13.010  1.00  0.00     0.133 C 
HETATM   10  C11 UNL     1       0.464   7.010  12.524  1.00  0.00     0.072 C 
HETATM   11  O2  UNL     1       0.970   9.396  12.417  1.00  0.00    -0.297 OA
HETATM   12  C2  UNL     1       1.288   6.701  11.236  1.00  0.00    -0.009 C 
HETATM   13  C10 UNL     1      -1.007   6.502  12.419  1.00  0.00     0.003 C 
HETATM   14  C1  UNL     1       0.646   7.338   9.982  1.00  0.00     0.021 C 
HETATM   15  C3  UNL     1       2.760   7.174  11.377  1.00  0.00     0.022 C 
HETATM   16  C7  UNL     1       1.321   5.173  11.067  1.00  0.00    -0.067 C 
HETATM   17  C4  UNL     1       3.651   6.731  10.216  1.00  0.00     0.084 C 
HETATM   18  C5  UNL     1       3.491   5.265   9.892  1.00  0.00     0.149 C 
HETATM   19  O1  UNL     1       4.298   4.662   9.187  1.00  0.00    -0.293 OA
HETATM   20  C6  UNL     1       2.321   4.535  10.435  1.00  0.00     0.053 C 
HETATM   21  C8  UNL     1       0.236   4.357  11.739  1.00  0.00     0.035 C 
HETATM   22  C9  UNL     1      -1.103   5.078  11.841  1.00  0.00     0.010 C 
HETATM   23  C17 UNL     1      -3.094   6.190  13.996  1.00  0.00     0.009 C 
HETATM   24  C18 UNL     1      -3.586   6.935  15.251  1.00  0.00     0.047 C 
BRANCH   4  25
HETATM   25  O3  UNL     1      -1.685   7.390  16.603  1.00  0.00    -0.381 OA
HETATM   26  H25 UNL     1      -0.875   7.910  16.736  1.00  0.00     0.211 HD
ENDBRANCH   4  25
ENDBRANCH   2   4
ENDBRANCH   1   2
BRANCH   1  27
HETATM   27  O5  UNL     1      -1.638  10.243  17.776  1.00  0.00    -0.314 OA
BRANCH  27  28
HETATM   28  C22 UNL     1      -0.651  11.142  18.040  1.00  0.00     0.259 C 
HETATM   29  O6  UNL     1      -0.242  11.965  17.230  1.00  0.00    -0.265 OA
BRANCH  28  30
HETATM   30  C23 UNL     1      -0.167  11.041  19.461  1.00  0.00     0.120 C 
BRANCH  30  31
HETATM   31  C24 UNL     1       1.261  11.539  19.633  1.00  0.00     0.112 C 
BRANCH  31  32
HETATM   32  C25 UNL     1       2.184  10.434  20.099  1.00  0.00     0.218 C 
HETATM   33  O7  UNL     1       2.677   9.600  19.351  1.00  0.00    -0.274 OA
HETATM   34  N1  UNL     1       2.412  10.469  21.455  1.00  0.00    -0.346 N 
HETATM   35  H32 UNL     1       1.743  10.959  22.032  1.00  0.00     0.163 HD
BRANCH  34  36
HETATM   36  C26 UNL     1       3.245   9.456  22.112  1.00  0.00     0.186 C 
BRANCH  36  37
HETATM   37  C27 UNL     1       4.327  10.104  22.989  1.00  0.00     0.077 C 
BRANCH  37  38
HETATM   38  C28 UNL     1       4.241  11.601  23.008  1.00  0.00    -0.028 A 
HETATM   39  C29 UNL     1       3.079  12.349  23.049  1.00  0.00     0.096 A 
HETATM   40  N2  UNL     1       3.422  13.673  23.096  1.00  0.00    -0.365 N 
HETATM   41  C30 UNL     1       4.790  13.812  23.076  1.00  0.00     0.042 A 
HETATM   42  H37 UNL     1       2.769  14.442  23.149  1.00  0.00     0.165 HD
HETATM   43  C31 UNL     1       5.579  14.969  23.114  1.00  0.00     0.030 A 
HETATM   44  C35 UNL     1       5.333  12.529  23.009  1.00  0.00    -0.002 A 
HETATM   45  C32 UNL     1       6.966  14.809  23.081  1.00  0.00     0.002 A 
HETATM   46  C33 UNL     1       7.541  13.543  23.009  1.00  0.00     0.001 A 
HETATM   47  C34 UNL     1       6.737  12.396  22.972  1.00  0.00     0.014 A 
ENDBRANCH  37  38
ENDBRANCH  36  37
BRANCH  36  48
HETATM   48  C36 UNL     1       2.405   8.534  22.998  1.00  0.00     0.163 C 
HETATM   49  O8  UNL     1       2.359   8.558  24.219  1.00  0.00    -0.648 OA
BRANCH  48  50
HETATM   50  O9  UNL     1       1.607   7.679  22.319  1.00  0.00    -0.775 OA
HETATM   51  H42 UNL     1       1.176   7.155  23.028  1.00  0.00     0.167 HD
ENDBRANCH  48  50
ENDBRANCH  36  48
ENDBRANCH  34  36
ENDBRANCH  31  32
ENDBRANCH  30  31
ENDBRANCH  28  30
ENDBRANCH  27  28
ENDBRANCH   1  27
TORSDOF 13
ENDMDL
MODEL 6
REMARK minimizedAffinity -8.26786327
REMARK CNNscore 0.259171337
REMARK CNNaffinity 6.38789988
REMARK  13 active torsions:
REMARK  status: ('A' for Active; 'I' for Inactive)
REMARK    1  A    between atoms: C19_21  and  O3_22 
REMARK    2  A    between atoms: C19_21  and  C20_23 
REMARK    3  A    between atoms: C20_23  and  C21_25 
REMARK    4  A    between atoms: C21_25  and  O5_26 
REMARK    5  A    between atoms: O5_26  and  C22_27 
REMARK    6  A    between atoms: C22_27  and  C23_29 
REMARK    7  A    between atoms: C23_29  and  C24_30 
REMARK    8  A    between atoms: C24_30  and  C25_31 
REMARK       I    between atoms: C25_31  and  N1_33 
REMARK    9  A    between atoms: N1_33  and  C26_34 
REMARK   10  A    between atoms: C26_34  and  C27_35 
REMARK   11  A    between atoms: C26_34  and  C36_45 
REMARK   12  A    between atoms: C27_35  and  C28_36 
REMARK   13  A    between atoms: C36_45  and  O9_47 
ROOT
HETATM    1  C21 UNL     1      -1.979  12.358  15.279  1.00  0.00     0.260 C 
ENDROOT
BRANCH   1   2
HETATM    2  C20 UNL     1      -1.043  11.155  15.367  1.00  0.00     0.185 C 
HETATM    3  O4  UNL     1      -0.035  11.189  16.081  1.00  0.00    -0.292 OA
BRANCH   2   4
HETATM    4  C19 UNL     1      -1.407   9.909  14.518  1.00  0.00     0.128 C 
HETATM    5  C14 UNL     1      -2.659   9.109  15.006  1.00  0.00     0.005 C 
HETATM    6  C13 UNL     1      -4.038   9.615  14.553  1.00  0.00     0.091 C 
HETATM    7  C15 UNL     1      -2.676   9.004  16.558  1.00  0.00     0.019 C 
HETATM    8  C16 UNL     1      -2.389   7.741  14.303  1.00  0.00     0.002 C 
HETATM    9  C12 UNL     1      -5.094   8.543  14.819  1.00  0.00     0.133 C 
HETATM   10  C11 UNL     1      -4.824   7.177  14.170  1.00  0.00     0.072 C 
HETATM   11  O2  UNL     1      -6.099   8.799  15.474  1.00  0.00    -0.297 OA
HETATM   12  C2  UNL     1      -5.930   6.085  14.305  1.00  0.00    -0.009 C 
HETATM   13  C10 UNL     1      -3.435   6.672  14.666  1.00  0.00     0.003 C 
HETATM   14  C1  UNL     1      -6.085   5.608  15.768  1.00  0.00     0.021 C 
HETATM   15  C3  UNL     1      -7.296   6.592  13.765  1.00  0.00     0.022 C 
HETATM   16  C7  UNL     1      -5.513   4.895  13.426  1.00  0.00    -0.067 C 
HETATM   17  C4  UNL     1      -8.365   5.500  13.708  1.00  0.00     0.084 C 
HETATM   18  C5  UNL     1      -7.864   4.234  13.057  1.00  0.00     0.149 C 
HETATM   19  O1  UNL     1      -8.629   3.350  12.676  1.00  0.00    -0.293 OA
HETATM   20  C6  UNL     1      -6.404   4.049  12.881  1.00  0.00     0.053 C 
HETATM   21  C8  UNL     1      -4.047   4.746  13.077  1.00  0.00     0.035 C 
HETATM   22  C9  UNL     1      -3.101   5.257  14.157  1.00  0.00     0.010 C 
HETATM   23  C17 UNL     1      -0.924   7.468  14.619  1.00  0.00     0.009 C 
HETATM   24  C18 UNL     1      -0.260   8.858  14.607  1.00  0.00     0.047 C 
BRANCH   4  25
HETATM   25  O3  UNL     1      -1.513  10.235  13.128  1.00  0.00    -0.381 OA
HETATM   26  H25 UNL     1      -2.329  10.735  12.962  1.00  0.00     0.211 HD
ENDBRANCH   4  25
ENDBRANCH   2   4
ENDBRANCH   1   2
BRANCH   1  27
HETATM   27  O5  UNL     1      -1.611  13.252  14.227  1.00  0.00    -0.314 OA
BRANCH  27  28
HETATM   28  C22 UNL     1      -0.952  14.361  14.660  1.00  0.00     0.259 C 
HETATM   29  O6  UNL     1      -1.492  15.291  15.245  1.00  0.00    -0.265 OA
BRANCH  28  30
HETATM   30  C23 UNL     1       0.526  14.278  14.387  1.00  0.00     0.120 C 
BRANCH  30  31
HETATM   31  C24 UNL     1       1.358  15.030  15.415  1.00  0.00     0.112 C 
BRANCH  31  32
HETATM   32  C25 UNL     1       2.576  14.238  15.833  1.00  0.00     0.218 C 
HETATM   33  O7  UNL     1       3.715  14.498  15.465  1.00  0.00    -0.274 OA
HETATM   34  N1  UNL     1       2.269  13.195  16.674  1.00  0.00    -0.346 N 
HETATM   35  H32 UNL     1       1.318  12.853  16.673  1.00  0.00     0.163 HD
BRANCH  34  36
HETATM   36  C26 UNL     1       3.307  12.277  17.159  1.00  0.00     0.186 C 
BRANCH  36  37
HETATM   37  C27 UNL     1       2.799  11.428  18.334  1.00  0.00     0.077 C 
BRANCH  37  38
HETATM   38  C28 UNL     1       3.677  11.527  19.546  1.00  0.00    -0.028 A 
HETATM   39  C29 UNL     1       4.767  12.364  19.695  1.00  0.00     0.096 A 
HETATM   40  N2  UNL     1       5.276  12.188  20.953  1.00  0.00    -0.365 N 
HETATM   41  C30 UNL     1       4.547  11.240  21.633  1.00  0.00     0.042 A 
HETATM   42  H37 UNL     1       6.067  12.686  21.337  1.00  0.00     0.165 HD
HETATM   43  C31 UNL     1       4.701  10.750  22.937  1.00  0.00     0.030 A 
HETATM   44  C35 UNL     1       3.544  10.797  20.772  1.00  0.00    -0.002 A 
HETATM   45  C32 UNL     1       3.801   9.774  23.372  1.00  0.00     0.002 A 
HETATM   46  C33 UNL     1       2.790   9.307  22.536  1.00  0.00     0.001 A 
HETATM   47  C34 UNL     1       2.650   9.809  21.236  1.00  0.00     0.014 A 
ENDBRANCH  37  38
ENDBRANCH  36  37
BRANCH  36  48
HETATM   48  C36 UNL     1       3.771  11.328  16.053  1.00  0.00     0.163 C 
HETATM   49  O8  UNL     1       4.906  11.247  15.606  1.00  0.00    -0.648 OA
BRANCH  48  50
HETATM   50  O9  UNL     1       2.820  10.474  15.610  1.00  0.00    -0.775 OA
HETATM   51  H42 UNL     1       3.273   9.975  14.898  1.00  0.00     0.167 HD
ENDBRANCH  48  50
ENDBRANCH  36  48
ENDBRANCH  34  36
ENDBRANCH  31  32
ENDBRANCH  30  31
ENDBRANCH  28  30
ENDBRANCH  27  28
ENDBRANCH   1  27
TORSDOF 13
ENDMDL
MODEL 7
REMARK minimizedAffinity -9.24211788
REMARK CNNscore 0.23583959
REMARK CNNaffinity 7.3034997
REMARK  13 active torsions:
REMARK  status: ('A' for Active; 'I' for Inactive)
REMARK    1  A    between atoms: C19_21  and  O3_22 
REMARK    2  A    between atoms: C19_21  and  C20_23 
REMARK    3  A    between atoms: C20_23  and  C21_25 
REMARK    4  A    between atoms: C21_25  and  O5_26 
REMARK    5  A    between atoms: O5_26  and  C22_27 
REMARK    6  A    between atoms: C22_27  and  C23_29 
REMARK    7  A    between atoms: C23_29  and  C24_30 
REMARK    8  A    between atoms: C24_30  and  C25_31 
REMARK       I    between atoms: C25_31  and  N1_33 
REMARK    9  A    between atoms: N1_33  and  C26_34 
REMARK   10  A    between atoms: C26_34  and  C27_35 
REMARK   11  A    between atoms: C26_34  and  C36_45 
REMARK   12  A    between atoms: C27_35  and  C28_36 
REMARK   13  A    between atoms: C36_45  and  O9_47 
ROOT
HETATM    1  C21 UNL     1      -0.061   4.860  11.764  1.00  0.00     0.260 C 
ENDROOT
BRANCH   1   2
HETATM    2  C20 UNL     1      -0.912   3.596  11.675  1.00  0.00     0.185 C 
HETATM    3  O4  UNL     1      -0.393   2.477  11.753  1.00  0.00    -0.292 OA
BRANCH   2   4
HETATM    4  C19 UNL     1      -2.439   3.781  11.473  1.00  0.00     0.128 C 
HETATM    5  C14 UNL     1      -3.201   4.419  12.681  1.00  0.00     0.005 C 
HETATM    6  C13 UNL     1      -3.196   5.953  12.785  1.00  0.00     0.091 C 
HETATM    7  C15 UNL     1      -2.675   3.848  14.030  1.00  0.00     0.019 C 
HETATM    8  C16 UNL     1      -4.656   3.960  12.348  1.00  0.00     0.002 C 
HETATM    9  C12 UNL     1      -4.254   6.404  13.793  1.00  0.00     0.133 C 
HETATM   10  C11 UNL     1      -5.685   5.927  13.504  1.00  0.00     0.072 C 
HETATM   11  O2  UNL     1      -3.955   7.135  14.732  1.00  0.00    -0.297 OA
HETATM   12  C2  UNL     1      -6.821   6.462  14.429  1.00  0.00    -0.009 C 
HETATM   13  C10 UNL     1      -5.669   4.369  13.431  1.00  0.00     0.003 C 
HETATM   14  C1  UNL     1      -6.691   5.913  15.869  1.00  0.00     0.021 C 
HETATM   15  C3  UNL     1      -6.849   8.014  14.454  1.00  0.00     0.022 C 
HETATM   16  C7  UNL     1      -8.159   5.998  13.829  1.00  0.00    -0.067 C 
HETATM   17  C4  UNL     1      -8.055   8.586  15.200  1.00  0.00     0.084 C 
HETATM   18  C5  UNL     1      -9.354   7.942  14.776  1.00  0.00     0.149 C 
HETATM   19  O1  UNL     1     -10.445   8.436  15.051  1.00  0.00    -0.293 OA
HETATM   20  C6  UNL     1      -9.308   6.673  14.013  1.00  0.00     0.053 C 
HETATM   21  C8  UNL     1      -8.150   4.797  12.908  1.00  0.00     0.035 C 
HETATM   22  C9  UNL     1      -7.076   3.770  13.246  1.00  0.00     0.010 C 
HETATM   23  C17 UNL     1      -4.490   2.481  12.022  1.00  0.00     0.009 C 
HETATM   24  C18 UNL     1      -3.123   2.390  11.320  1.00  0.00     0.047 C 
BRANCH   4  25
HETATM   25  O3  UNL     1      -2.726   4.478  10.256  1.00  0.00    -0.381 OA
HETATM   26  H25 UNL     1      -2.503   5.419  10.348  1.00  0.00     0.211 HD
ENDBRANCH   4  25
ENDBRANCH   2   4
ENDBRANCH   1   2
BRANCH   1  27
HETATM   27  O5  UNL     1       0.099   5.493  10.493  1.00  0.00    -0.314 OA
BRANCH  27  28
HETATM   28  C22 UNL     1       1.193   6.297  10.418  1.00  0.00     0.259 C 
HETATM   29  O6  UNL     1       1.144   7.497  10.173  1.00  0.00    -0.265 OA
BRANCH  28  30
HETATM   30  C23 UNL     1       2.462   5.550  10.730  1.00  0.00     0.120 C 
BRANCH  30  31
HETATM   31  C24 UNL     1       3.685   6.161  10.062  1.00  0.00     0.112 C 
BRANCH  31  32
HETATM   32  C25 UNL     1       4.749   6.524  11.074  1.00  0.00     0.218 C 
HETATM   33  O7  UNL     1       5.913   6.149  11.000  1.00  0.00    -0.274 OA
HETATM   34  N1  UNL     1       4.271   7.323  12.086  1.00  0.00    -0.346 N 
HETATM   35  H32 UNL     1       3.274   7.321  12.255  1.00  0.00     0.163 HD
BRANCH  34  36
HETATM   36  C26 UNL     1       5.136   7.749  13.192  1.00  0.00     0.186 C 
BRANCH  36  37
HETATM   37  C27 UNL     1       5.758   9.126  12.917  1.00  0.00     0.077 C 
BRANCH  37  38
HETATM   38  C28 UNL     1       6.378   9.739  14.138  1.00  0.00    -0.028 A 
HETATM   39  C29 UNL     1       5.992  10.921  14.741  1.00  0.00     0.096 A 
HETATM   40  N2  UNL     1       6.773  11.114  15.848  1.00  0.00    -0.365 N 
HETATM   41  C30 UNL     1       7.675  10.084  15.980  1.00  0.00     0.042 A 
HETATM   42  H37 UNL     1       6.696  11.893  16.487  1.00  0.00     0.165 HD
HETATM   43  C31 UNL     1       8.655   9.865  16.957  1.00  0.00     0.030 A 
HETATM   44  C35 UNL     1       7.461   9.211  14.914  1.00  0.00    -0.002 A 
HETATM   45  C32 UNL     1       9.441   8.716  16.840  1.00  0.00     0.002 A 
HETATM   46  C33 UNL     1       9.256   7.825  15.785  1.00  0.00     0.001 A 
HETATM   47  C34 UNL     1       8.271   8.060  14.818  1.00  0.00     0.014 A 
ENDBRANCH  37  38
ENDBRANCH  36  37
BRANCH  36  48
HETATM   48  C36 UNL     1       4.356   7.834  14.506  1.00  0.00     0.163 C 
HETATM   49  O8  UNL     1       3.327   8.466  14.690  1.00  0.00    -0.648 OA
BRANCH  48  50
HETATM   50  O9  UNL     1       4.854   7.068  15.503  1.00  0.00    -0.775 OA
HETATM   51  H42 UNL     1       4.264   7.266  16.261  1.00  0.00     0.167 HD
ENDBRANCH  48  50
ENDBRANCH  36  48
ENDBRANCH  34  36
ENDBRANCH  31  32
ENDBRANCH  30  31
ENDBRANCH  28  30
ENDBRANCH  27  28
ENDBRANCH   1  27
TORSDOF 13
ENDMDL
MODEL 8
REMARK minimizedAffinity -9.82086372
REMARK CNNscore 0.209342852
REMARK CNNaffinity 6.50615692
REMARK  13 active torsions:
REMARK  status: ('A' for Active; 'I' for Inactive)
REMARK    1  A    between atoms: C19_21  and  O3_22 
REMARK    2  A    between atoms: C19_21  and  C20_23 
REMARK    3  A    between atoms: C20_23  and  C21_25 
REMARK    4  A    between atoms: C21_25  and  O5_26 
REMARK    5  A    between atoms: O5_26  and  C22_27 
REMARK    6  A    between atoms: C22_27  and  C23_29 
REMARK    7  A    between atoms: C23_29  and  C24_30 
REMARK    8  A    between atoms: C24_30  and  C25_31 
REMARK       I    between atoms: C25_31  and  N1_33 
REMARK    9  A    between atoms: N1_33  and  C26_34 
REMARK   10  A    between atoms: C26_34  and  C27_35 
REMARK   11  A    between atoms: C26_34  and  C36_45 
REMARK   12  A    between atoms: C27_35  and  C28_36 
REMARK   13  A    between atoms: C36_45  and  O9_47 
ROOT
HETATM    1  C21 UNL     1       2.307   8.257  10.644  1.00  0.00     0.260 C 
ENDROOT
BRANCH   1   2
HETATM    2  C20 UNL     1       3.664   7.684  10.244  1.00  0.00     0.185 C 
HETATM    3  O4  UNL     1       3.961   7.532   9.055  1.00  0.00    -0.292 OA
BRANCH   2   4
HETATM    4  C19 UNL     1       4.635   7.296  11.389  1.00  0.00     0.128 C 
HETATM    5  C14 UNL     1       5.404   8.487  12.048  1.00  0.00     0.005 C 
HETATM    6  C13 UNL     1       4.677   9.269  13.154  1.00  0.00     0.091 C 
HETATM    7  C15 UNL     1       5.869   9.509  10.970  1.00  0.00     0.019 C 
HETATM    8  C16 UNL     1       6.588   7.709  12.704  1.00  0.00     0.002 C 
HETATM    9  C12 UNL     1       5.676  10.146  13.909  1.00  0.00     0.133 C 
HETATM   10  C11 UNL     1       6.870   9.402  14.526  1.00  0.00     0.072 C 
HETATM   11  O2  UNL     1       5.485  11.351  14.035  1.00  0.00    -0.297 OA
HETATM   12  C2  UNL     1       7.852  10.229  15.412  1.00  0.00    -0.009 C 
HETATM   13  C10 UNL     1       7.608   8.641  13.382  1.00  0.00     0.003 C 
HETATM   14  C1  UNL     1       8.642  11.263  14.576  1.00  0.00     0.021 C 
HETATM   15  C3  UNL     1       7.105  10.943  16.571  1.00  0.00     0.022 C 
HETATM   16  C7  UNL     1       8.837   9.238  16.055  1.00  0.00    -0.067 C 
HETATM   17  C4  UNL     1       8.045  11.616  17.571  1.00  0.00     0.084 C 
HETATM   18  C5  UNL     1       9.166  10.706  18.014  1.00  0.00     0.149 C 
HETATM   19  O1  UNL     1       9.858  10.957  18.999  1.00  0.00    -0.293 OA
HETATM   20  C6  UNL     1       9.442   9.480  17.231  1.00  0.00     0.053 C 
HETATM   21  C8  UNL     1       9.039   7.897  15.383  1.00  0.00     0.035 C 
HETATM   22  C9  UNL     1       8.889   7.937  13.867  1.00  0.00     0.010 C 
HETATM   23  C17 UNL     1       7.067   6.792  11.585  1.00  0.00     0.009 C 
HETATM   24  C18 UNL     1       5.783   6.404  10.827  1.00  0.00     0.047 C 
BRANCH   4  25
HETATM   25  O3  UNL     1       3.984   6.492  12.379  1.00  0.00    -0.381 OA
HETATM   26  H25 UNL     1       3.384   7.039  12.912  1.00  0.00     0.211 HD
ENDBRANCH   4  25
ENDBRANCH   2   4
ENDBRANCH   1   2
BRANCH   1  27
HETATM   27  O5  UNL     1       1.222   7.496  10.110  1.00  0.00    -0.314 OA
BRANCH  27  28
HETATM   28  C22 UNL     1       0.961   6.357  10.806  1.00  0.00     0.259 C 
HETATM   29  O6  UNL     1       1.106   5.229  10.350  1.00  0.00    -0.265 OA
BRANCH  28  30
HETATM   30  C23 UNL     1       0.531   6.648  12.219  1.00  0.00     0.120 C 
BRANCH  30  31
HETATM   31  C24 UNL     1      -0.977   6.794  12.357  1.00  0.00     0.112 C 
BRANCH  31  32
HETATM   32  C25 UNL     1      -1.640   5.467  12.656  1.00  0.00     0.218 C 
HETATM   33  O7  UNL     1      -1.958   5.104  13.781  1.00  0.00    -0.274 OA
HETATM   34  N1  UNL     1      -1.851   4.712  11.526  1.00  0.00    -0.346 N 
HETATM   35  H32 UNL     1      -1.291   4.919  10.710  1.00  0.00     0.163 HD
BRANCH  34  36
HETATM   36  C26 UNL     1      -2.443   3.371  11.606  1.00  0.00     0.186 C 
BRANCH  36  37
HETATM   37  C27 UNL     1      -3.608   3.214  10.617  1.00  0.00     0.077 C 
BRANCH  37  38
HETATM   38  C28 UNL     1      -4.899   2.856  11.292  1.00  0.00    -0.028 A 
HETATM   39  C29 UNL     1      -5.632   1.703  11.085  1.00  0.00     0.096 A 
HETATM   40  N2  UNL     1      -6.720   1.731  11.915  1.00  0.00    -0.365 N 
HETATM   41  C30 UNL     1      -6.722   2.889  12.659  1.00  0.00     0.042 A 
HETATM   42  H37 UNL     1      -7.419   1.005  11.985  1.00  0.00     0.165 HD
HETATM   43  C31 UNL     1      -7.629   3.334  13.630  1.00  0.00     0.030 A 
HETATM   44  C35 UNL     1      -5.598   3.622  12.281  1.00  0.00    -0.002 A 
HETATM   45  C32 UNL     1      -7.378   4.569  14.232  1.00  0.00     0.002 A 
HETATM   46  C33 UNL     1      -6.267   5.329  13.875  1.00  0.00     0.001 A 
HETATM   47  C34 UNL     1      -5.370   4.868  12.902  1.00  0.00     0.014 A 
ENDBRANCH  37  38
ENDBRANCH  36  37
BRANCH  36  48
HETATM   48  C36 UNL     1      -1.408   2.287  11.298  1.00  0.00     0.163 C 
HETATM   49  O8  UNL     1      -1.651   1.149  10.926  1.00  0.00    -0.648 OA
BRANCH  48  50
HETATM   50  O9  UNL     1      -0.123   2.695  11.396  1.00  0.00    -0.775 OA
HETATM   51  H42 UNL     1       0.391   1.882  11.201  1.00  0.00     0.167 HD
ENDBRANCH  48  50
ENDBRANCH  36  48
ENDBRANCH  34  36
ENDBRANCH  31  32
ENDBRANCH  30  31
ENDBRANCH  28  30
ENDBRANCH  27  28
ENDBRANCH   1  27
TORSDOF 13
ENDMDL
MODEL 9
REMARK minimizedAffinity -10.0647373
REMARK CNNscore 0.184994444
REMARK CNNaffinity 6.91854858
REMARK  13 active torsions:
REMARK  status: ('A' for Active; 'I' for Inactive)
REMARK    1  A    between atoms: C19_21  and  O3_22 
REMARK    2  A    between atoms: C19_21  and  C20_23 
REMARK    3  A    between atoms: C20_23  and  C21_25 
REMARK    4  A    between atoms: C21_25  and  O5_26 
REMARK    5  A    between atoms: O5_26  and  C22_27 
REMARK    6  A    between atoms: C22_27  and  C23_29 
REMARK    7  A    between atoms: C23_29  and  C24_30 
REMARK    8  A    between atoms: C24_30  and  C25_31 
REMARK       I    between atoms: C25_31  and  N1_33 
REMARK    9  A    between atoms: N1_33  and  C26_34 
REMARK   10  A    between atoms: C26_34  and  C27_35 
REMARK   11  A    between atoms: C26_34  and  C36_45 
REMARK   12  A    between atoms: C27_35  and  C28_36 
REMARK   13  A    between atoms: C36_45  and  O9_47 
ROOT
HETATM    1  C21 UNL     1       3.887   6.558  11.251  1.00  0.00     0.260 C 
ENDROOT
BRANCH   1   2
HETATM    2  C20 UNL     1       2.634   7.430  11.261  1.00  0.00     0.185 C 
HETATM    3  O4  UNL     1       2.713   8.649  11.450  1.00  0.00    -0.292 OA
BRANCH   2   4
HETATM    4  C19 UNL     1       1.273   6.721  11.037  1.00  0.00     0.128 C 
HETATM    5  C14 UNL     1       0.223   6.908  12.181  1.00  0.00     0.005 C 
HETATM    6  C13 UNL     1      -0.628   8.188  12.151  1.00  0.00     0.091 C 
HETATM    7  C15 UNL     1       0.906   6.822  13.576  1.00  0.00     0.019 C 
HETATM    8  C16 UNL     1      -0.714   5.696  11.882  1.00  0.00     0.002 C 
HETATM    9  C12 UNL     1      -1.809   8.044  13.111  1.00  0.00     0.133 C 
HETATM   10  C11 UNL     1      -2.719   6.832  12.858  1.00  0.00     0.072 C 
HETATM   11  O2  UNL     1      -2.015   8.880  13.985  1.00  0.00    -0.297 OA
HETATM   12  C2  UNL     1      -4.008   6.707  13.727  1.00  0.00    -0.009 C 
HETATM   13  C10 UNL     1      -1.839   5.546  12.921  1.00  0.00     0.003 C 
HETATM   14  C1  UNL     1      -3.670   6.425  15.210  1.00  0.00     0.021 C 
HETATM   15  C3  UNL     1      -4.892   7.979  13.617  1.00  0.00     0.022 C 
HETATM   16  C7  UNL     1      -4.831   5.537  13.164  1.00  0.00    -0.067 C 
HETATM   17  C4  UNL     1      -6.250   7.832  14.305  1.00  0.00     0.084 C 
HETATM   18  C5  UNL     1      -6.950   6.547  13.933  1.00  0.00     0.149 C 
HETATM   19  O1  UNL     1      -8.145   6.368  14.158  1.00  0.00    -0.293 OA
HETATM   20  C6  UNL     1      -6.169   5.469  13.283  1.00  0.00     0.053 C 
HETATM   21  C8  UNL     1      -4.110   4.483  12.351  1.00  0.00     0.035 C 
HETATM   22  C9  UNL     1      -2.666   4.254  12.781  1.00  0.00     0.010 C 
HETATM   23  C17 UNL     1       0.260   4.540  11.687  1.00  0.00     0.009 C 
HETATM   24  C18 UNL     1       1.484   5.177  11.002  1.00  0.00     0.047 C 
BRANCH   4  25
HETATM   25  O3  UNL     1       0.712   7.053   9.762  1.00  0.00    -0.381 OA
HETATM   26  H25 UNL     1       0.371   7.963   9.774  1.00  0.00     0.211 HD
ENDBRANCH   4  25
ENDBRANCH   2   4
ENDBRANCH   1   2
BRANCH   1  27
HETATM   27  O5  UNL     1       4.868   7.036  10.330  1.00  0.00    -0.314 OA
BRANCH  27  28
HETATM   28  C22 UNL     1       6.116   7.130  10.863  1.00  0.00     0.259 C 
HETATM   29  O6  UNL     1       7.122   6.672  10.335  1.00  0.00    -0.265 OA
BRANCH  28  30
HETATM   30  C23 UNL     1       6.120   7.915  12.147  1.00  0.00     0.120 C 
BRANCH  30  31
HETATM   31  C24 UNL     1       6.676   9.321  11.976  1.00  0.00     0.112 C 
BRANCH  31  32
HETATM   32  C25 UNL     1       7.843   9.575  12.905  1.00  0.00     0.218 C 
HETATM   33  O7  UNL     1       8.925  10.012  12.532  1.00  0.00    -0.274 OA
HETATM   34  N1  UNL     1       7.558   9.266  14.214  1.00  0.00    -0.346 N 
HETATM   35  H32 UNL     1       6.793   8.630  14.391  1.00  0.00     0.163 HD
BRANCH  34  36
HETATM   36  C26 UNL     1       8.572   9.400  15.266  1.00  0.00     0.186 C 
BRANCH  36  37
HETATM   37  C27 UNL     1       8.508  10.782  15.933  1.00  0.00     0.077 C 
BRANCH  37  38
HETATM   38  C28 UNL     1       9.727  11.092  16.748  1.00  0.00    -0.028 A 
HETATM   39  C29 UNL     1      11.023  11.176  16.274  1.00  0.00     0.096 A 
HETATM   40  N2  UNL     1      11.841  11.518  17.317  1.00  0.00    -0.365 N 
HETATM   41  C30 UNL     1      11.108  11.651  18.474  1.00  0.00     0.042 A 
HETATM   42  H37 UNL     1      12.839  11.664  17.252  1.00  0.00     0.165 HD
HETATM   43  C31 UNL     1      11.523  11.992  19.768  1.00  0.00     0.030 A 
HETATM   44  C35 UNL     1       9.779  11.378  18.152  1.00  0.00    -0.002 A 
HETATM   45  C32 UNL     1      10.546  12.054  20.765  1.00  0.00     0.002 A 
HETATM   46  C33 UNL     1       9.210  11.783  20.479  1.00  0.00     0.001 A 
HETATM   47  C34 UNL     1       8.814  11.444  19.179  1.00  0.00     0.014 A 
ENDBRANCH  37  38
ENDBRANCH  36  37
BRANCH  36  48
HETATM   48  C36 UNL     1       8.390   8.339  16.352  1.00  0.00     0.163 C 
HETATM   49  O8  UNL     1       9.277   7.655  16.842  1.00  0.00    -0.648 OA
BRANCH  48  50
HETATM   50  O9  UNL     1       7.129   8.234  16.829  1.00  0.00    -0.775 OA
HETATM   51  H42 UNL     1       7.189   7.501  17.478  1.00  0.00     0.167 HD
ENDBRANCH  48  50
ENDBRANCH  36  48
ENDBRANCH  34  36
ENDBRANCH  31  32
ENDBRANCH  30  31
ENDBRANCH  28  30
ENDBRANCH  27  28
ENDBRANCH   1  27
TORSDOF 13
ENDMDL
