MODEL 1
REMARK minimizedAffinity -7.89773178
REMARK CNNscore 0.817643106
REMARK CNNaffinity 7.04463434
REMARK  6 active torsions:
REMARK  status: ('A' for Active; 'I' for Inactive)
REMARK    1  A    between atoms: O1_2  and  C2_3 
REMARK    2  A    between atoms: C17_20  and  C18_21 
REMARK    3  A    between atoms: C22_27  and  O6_28 
REMARK    4  A    between atoms: O6_28  and  C23_29 
REMARK    5  A    between atoms: C26_33  and  O8_34 
REMARK    6  A    between atoms: C31_40  and  O10_41 
ROOT
HETATM    1  C2  UNL     1       7.339  55.293  -3.564  1.00  0.00     0.190 C 
HETATM    2  C3  UNL     1       8.794  55.406  -3.081  1.00  0.00     0.064 C 
HETATM    3  C4  UNL     1       9.680  56.200  -4.035  1.00  0.00     0.174 C 
HETATM    4  O2  UNL     1       9.363  55.887  -5.380  1.00  0.00    -0.356 OA
HETATM    5  C5  UNL     1       8.078  56.385  -5.785  1.00  0.00     0.325 C 
HETATM    6  O3  UNL     1       7.736  55.726  -7.013  1.00  0.00    -0.344 OA
HETATM    7  C6  UNL     1       6.405  55.230  -7.050  1.00  0.00     0.177 C 
HETATM    8  C7  UNL     1       6.053  54.953  -8.482  1.00  0.00     0.011 C 
HETATM    9  C8  UNL     1       4.860  55.235  -9.040  1.00  0.00    -0.072 C 
HETATM   10  C9  UNL     1       4.608  54.952 -10.499  1.00  0.00     0.035 C 
HETATM   11  C10 UNL     1       3.362  54.092 -10.688  1.00  0.00     0.012 C 
HETATM   12  C11 UNL     1       2.116  54.709 -10.010  1.00  0.00     0.026 C 
HETATM   13  C12 UNL     1       2.405  54.961  -8.503  1.00  0.00     0.005 C 
HETATM   14  C13 UNL     1       1.156  55.513  -7.798  1.00  0.00     0.007 C 
HETATM   15  C14 UNL     1      -0.042  54.589  -7.981  1.00  0.00     0.013 C 
HETATM   16  C15 UNL     1      -0.419  54.347  -9.471  1.00  0.00    -0.003 C 
HETATM   17  C16 UNL     1      -1.051  55.640 -10.023  1.00  0.00     0.019 C 
HETATM   18  C17 UNL     1      -1.393  53.120  -9.541  1.00  0.00     0.058 C 
HETATM   19  C22 UNL     1      -0.433  51.899  -9.454  1.00  0.00     0.143 C 
HETATM   20  C25 UNL     1       0.948  52.369  -9.943  1.00  0.00     0.072 C 
HETATM   21  C26 UNL     1       0.829  53.869 -10.271  1.00  0.00     0.072 C 
HETATM   22  C27 UNL     1       3.691  55.842  -8.255  1.00  0.00    -0.014 C 
HETATM   23  C28 UNL     1       3.499  57.304  -8.728  1.00  0.00     0.020 C 
HETATM   24  C29 UNL     1       4.003  55.866  -6.727  1.00  0.00     0.049 C 
HETATM   25  C30 UNL     1       5.450  56.248  -6.420  1.00  0.00     0.159 C 
HETATM   26  O9  UNL     1       5.624  56.260  -5.000  1.00  0.00    -0.341 OA
HETATM   27  C31 UNL     1       7.000  56.381  -4.616  1.00  0.00     0.240 C 
ENDROOT
BRANCH  18  28
HETATM   28  C18 UNL     1      -2.418  53.042 -10.651  1.00  0.00    -0.043 A 
HETATM   29  C19 UNL     1      -2.174  52.553 -11.869  1.00  0.00     0.087 A 
HETATM   30  C20 UNL     1      -3.371  52.760 -12.677  1.00  0.00     0.283 A 
HETATM   31  O4  UNL     1      -3.491  52.435 -13.844  1.00  0.00    -0.260 OA
HETATM   32  O5  UNL     1      -4.305  53.395 -11.925  1.00  0.00    -0.314 OA
HETATM   33  C21 UNL     1      -3.806  53.561 -10.593  1.00  0.00     0.214 A 
ENDBRANCH  18  28
BRANCH  19  34
HETATM   34  O6  UNL     1      -0.859  50.758 -10.213  1.00  0.00    -0.316 OA
BRANCH  34  35
HETATM   35  C23 UNL     1      -1.136  49.642  -9.481  1.00  0.00     0.255 C 
HETATM   36  C24 UNL     1      -2.055  49.984  -8.349  1.00  0.00     0.126 C 
HETATM   37  O7  UNL     1      -0.675  48.527  -9.686  1.00  0.00    -0.266 OA
ENDBRANCH  34  35
ENDBRANCH  19  34
BRANCH  21  38
HETATM   38  O8  UNL     1       0.535  53.971 -11.670  1.00  0.00    -0.389 OA
HETATM   39  H35 UNL     1       1.240  53.537 -12.181  1.00  0.00     0.210 HD
ENDBRANCH  21  38
BRANCH  27  40
HETATM   40  O10 UNL     1       7.054  57.655  -3.947  1.00  0.00    -0.360 OA
HETATM   41  H42 UNL     1       6.206  57.692  -3.473  1.00  0.00     0.213 HD
ENDBRANCH  27  40
BRANCH   1  42
HETATM   42  O1  UNL     1       7.093  53.985  -4.111  1.00  0.00    -0.385 OA
HETATM   43  C1  UNL     1       7.751  52.945  -3.399  1.00  0.00     0.202 C 
ENDBRANCH   1  42
TORSDOF 6
ENDMDL
MODEL 2
REMARK minimizedAffinity -8.90650558
REMARK CNNscore 0.706771612
REMARK CNNaffinity 6.68598032
REMARK  6 active torsions:
REMARK  status: ('A' for Active; 'I' for Inactive)
REMARK    1  A    between atoms: O1_2  and  C2_3 
REMARK    2  A    between atoms: C17_20  and  C18_21 
REMARK    3  A    between atoms: C22_27  and  O6_28 
REMARK    4  A    between atoms: O6_28  and  C23_29 
REMARK    5  A    between atoms: C26_33  and  O8_34 
REMARK    6  A    between atoms: C31_40  and  O10_41 
ROOT
HETATM    1  C2  UNL     1      -7.425  42.730 -18.904  1.00  0.00     0.190 C 
HETATM    2  C3  UNL     1      -8.667  41.968 -18.416  1.00  0.00     0.064 C 
HETATM    3  C4  UNL     1      -9.956  42.440 -19.079  1.00  0.00     0.174 C 
HETATM    4  O2  UNL     1      -9.955  43.850 -19.217  1.00  0.00    -0.356 OA
HETATM    5  C5  UNL     1      -9.007  44.318 -20.191  1.00  0.00     0.325 C 
HETATM    6  O3  UNL     1      -8.859  45.731 -19.993  1.00  0.00    -0.344 OA
HETATM    7  C6  UNL     1      -7.509  46.174 -19.984  1.00  0.00     0.177 C 
HETATM    8  C7  UNL     1      -7.507  47.660 -20.187  1.00  0.00     0.011 C 
HETATM    9  C8  UNL     1      -6.631  48.320 -20.970  1.00  0.00    -0.072 C 
HETATM   10  C9  UNL     1      -6.728  49.815 -21.141  1.00  0.00     0.035 C 
HETATM   11  C10 UNL     1      -5.404  50.496 -20.808  1.00  0.00     0.012 C 
HETATM   12  C11 UNL     1      -4.224  49.911 -21.619  1.00  0.00     0.026 C 
HETATM   13  C12 UNL     1      -4.140  48.374 -21.395  1.00  0.00     0.005 C 
HETATM   14  C13 UNL     1      -2.932  47.785 -22.141  1.00  0.00     0.007 C 
HETATM   15  C14 UNL     1      -1.635  48.472 -21.732  1.00  0.00     0.013 C 
HETATM   16  C15 UNL     1      -1.635  50.006 -21.989  1.00  0.00    -0.003 C 
HETATM   17  C16 UNL     1      -1.539  50.238 -23.511  1.00  0.00     0.019 C 
HETATM   18  C17 UNL     1      -0.434  50.640 -21.204  1.00  0.00     0.058 C 
HETATM   19  C22 UNL     1      -0.983  50.755 -19.752  1.00  0.00     0.143 C 
HETATM   20  C25 UNL     1      -2.517  50.800 -19.846  1.00  0.00     0.072 C 
HETATM   21  C26 UNL     1      -2.887  50.661 -21.335  1.00  0.00     0.072 C 
HETATM   22  C27 UNL     1      -5.490  47.624 -21.720  1.00  0.00    -0.014 C 
HETATM   23  C28 UNL     1      -5.822  47.646 -23.233  1.00  0.00     0.020 C 
HETATM   24  C29 UNL     1      -5.362  46.134 -21.276  1.00  0.00     0.049 C 
HETATM   25  C30 UNL     1      -6.715  45.453 -21.077  1.00  0.00     0.159 C 
HETATM   26  O9  UNL     1      -6.486  44.094 -20.693  1.00  0.00    -0.341 OA
HETATM   27  C31 UNL     1      -7.684  43.437 -20.261  1.00  0.00     0.240 C 
ENDROOT
BRANCH  18  28
HETATM   28  C18 UNL     1       0.227  51.893 -21.733  1.00  0.00    -0.043 A 
HETATM   29  C19 UNL     1       0.952  52.733 -20.992  1.00  0.00     0.087 A 
HETATM   30  C20 UNL     1       1.313  53.868 -21.835  1.00  0.00     0.283 A 
HETATM   31  O4  UNL     1       1.971  54.825 -21.472  1.00  0.00    -0.260 OA
HETATM   32  O5  UNL     1       0.773  53.691 -23.067  1.00  0.00    -0.314 OA
HETATM   33  C21 UNL     1       0.111  52.421 -23.114  1.00  0.00     0.214 A 
ENDBRANCH  18  28
BRANCH  19  34
HETATM   34  O6  UNL     1      -0.502  51.898 -19.029  1.00  0.00    -0.316 OA
BRANCH  34  35
HETATM   35  C23 UNL     1       0.274  51.617 -17.944  1.00  0.00     0.255 C 
HETATM   36  C24 UNL     1      -0.046  50.250 -17.423  1.00  0.00     0.126 C 
HETATM   37  O7  UNL     1       1.087  52.378 -17.438  1.00  0.00    -0.266 OA
ENDBRANCH  34  35
ENDBRANCH  19  34
BRANCH  21  38
HETATM   38  O8  UNL     1      -3.028  51.988 -21.858  1.00  0.00    -0.389 OA
HETATM   39  H35 UNL     1      -3.710  52.464 -21.351  1.00  0.00     0.210 HD
ENDBRANCH  21  38
BRANCH  27  40
HETATM   40  O10 UNL     1      -7.880  42.407 -21.248  1.00  0.00    -0.360 OA
HETATM   41  H42 UNL     1      -6.974  42.116 -21.447  1.00  0.00     0.213 HD
ENDBRANCH  27  40
BRANCH   1  42
HETATM   42  O1  UNL     1      -7.009  43.694 -17.920  1.00  0.00    -0.385 OA
HETATM   43  C1  UNL     1      -7.471  43.393 -16.609  1.00  0.00     0.202 C 
ENDBRANCH   1  42
TORSDOF 6
ENDMDL
MODEL 3
REMARK minimizedAffinity -7.53141308
REMARK CNNscore 0.678878844
REMARK CNNaffinity 6.17046022
REMARK  6 active torsions:
REMARK  status: ('A' for Active; 'I' for Inactive)
REMARK    1  A    between atoms: O1_2  and  C2_3 
REMARK    2  A    between atoms: C17_20  and  C18_21 
REMARK    3  A    between atoms: C22_27  and  O6_28 
REMARK    4  A    between atoms: O6_28  and  C23_29 
REMARK    5  A    between atoms: C26_33  and  O8_34 
REMARK    6  A    between atoms: C31_40  and  O10_41 
ROOT
HETATM    1  C2  UNL     1      -2.195  51.822 -10.190  1.00  0.00     0.190 C 
HETATM    2  C3  UNL     1      -3.687  51.804 -10.556  1.00  0.00     0.064 C 
HETATM    3  C4  UNL     1      -4.189  53.143 -11.085  1.00  0.00     0.174 C 
HETATM    4  O2  UNL     1      -3.615  54.211 -10.353  1.00  0.00    -0.356 OA
HETATM    5  C5  UNL     1      -2.210  54.372 -10.603  1.00  0.00     0.325 C 
HETATM    6  O3  UNL     1      -1.692  55.230  -9.575  1.00  0.00    -0.344 OA
HETATM    7  C6  UNL     1      -0.483  54.766  -8.990  1.00  0.00     0.177 C 
HETATM    8  C7  UNL     1       0.150  55.913  -8.262  1.00  0.00     0.011 C 
HETATM    9  C8  UNL     1       1.471  56.182  -8.267  1.00  0.00    -0.072 C 
HETATM   10  C9  UNL     1       2.014  57.381  -7.532  1.00  0.00     0.035 C 
HETATM   11  C10 UNL     1       3.122  56.979  -6.563  1.00  0.00     0.012 C 
HETATM   12  C11 UNL     1       4.251  56.185  -7.260  1.00  0.00     0.026 C 
HETATM   13  C12 UNL     1       3.656  54.944  -7.983  1.00  0.00     0.005 C 
HETATM   14  C13 UNL     1       4.773  54.106  -8.627  1.00  0.00     0.007 C 
HETATM   15  C14 UNL     1       5.822  53.695  -7.602  1.00  0.00     0.013 C 
HETATM   16  C15 UNL     1       6.500  54.899  -6.887  1.00  0.00    -0.003 C 
HETATM   17  C16 UNL     1       7.436  55.593  -7.896  1.00  0.00     0.019 C 
HETATM   18  C17 UNL     1       7.262  54.361  -5.626  1.00  0.00     0.058 C 
HETATM   19  C22 UNL     1       6.132  54.206  -4.568  1.00  0.00     0.143 C 
HETATM   20  C25 UNL     1       4.995  55.161  -4.971  1.00  0.00     0.072 C 
HETATM   21  C26 UNL     1       5.419  55.844  -6.285  1.00  0.00     0.072 C 
HETATM   22  C27 UNL     1       2.500  55.308  -8.994  1.00  0.00    -0.014 C 
HETATM   23  C28 UNL     1       3.021  56.094 -10.222  1.00  0.00     0.020 C 
HETATM   24  C29 UNL     1       1.842  53.990  -9.509  1.00  0.00     0.049 C 
HETATM   25  C30 UNL     1       0.440  54.205 -10.076  1.00  0.00     0.159 C 
HETATM   26  O9  UNL     1      -0.060  52.947 -10.536  1.00  0.00    -0.341 OA
HETATM   27  C31 UNL     1      -1.453  53.000 -10.873  1.00  0.00     0.240 C 
ENDROOT
BRANCH  18  28
HETATM   28  C18 UNL     1       8.496  55.085  -5.134  1.00  0.00    -0.043 A 
HETATM   29  C19 UNL     1       8.762  56.370  -5.377  1.00  0.00     0.087 A 
HETATM   30  C20 UNL     1      10.088  56.657  -4.838  1.00  0.00     0.283 A 
HETATM   31  O4  UNL     1      10.645  57.737  -4.893  1.00  0.00    -0.260 OA
HETATM   32  O5  UNL     1      10.599  55.521  -4.300  1.00  0.00    -0.314 OA
HETATM   33  C21 UNL     1       9.623  54.476  -4.388  1.00  0.00     0.214 A 
ENDBRANCH  18  28
BRANCH  19  34
HETATM   34  O6  UNL     1       6.545  54.475  -3.220  1.00  0.00    -0.316 OA
BRANCH  34  35
HETATM   35  C23 UNL     1       6.171  55.690  -2.729  1.00  0.00     0.255 C 
HETATM   36  C24 UNL     1       7.303  56.308  -1.968  1.00  0.00     0.126 C 
HETATM   37  O7  UNL     1       5.063  56.195  -2.852  1.00  0.00    -0.266 OA
ENDBRANCH  34  35
ENDBRANCH  19  34
BRANCH  21  38
HETATM   38  O8  UNL     1       6.048  57.083  -5.930  1.00  0.00    -0.389 OA
HETATM   39  H35 UNL     1       5.425  57.625  -5.416  1.00  0.00     0.210 HD
ENDBRANCH  21  38
BRANCH  27  40
HETATM   40  O10 UNL     1      -1.467  52.749 -12.291  1.00  0.00    -0.360 OA
HETATM   41  H42 UNL     1      -0.760  52.092 -12.407  1.00  0.00     0.213 HD
ENDBRANCH  27  40
BRANCH   1  42
HETATM   42  O1  UNL     1      -2.031  51.899  -8.762  1.00  0.00    -0.385 OA
HETATM   43  C1  UNL     1      -1.938  50.625  -8.137  1.00  0.00     0.202 C 
ENDBRANCH   1  42
TORSDOF 6
ENDMDL
MODEL 4
REMARK minimizedAffinity -8.48917198
REMARK CNNscore 0.625719428
REMARK CNNaffinity 6.65376902
REMARK  6 active torsions:
REMARK  status: ('A' for Active; 'I' for Inactive)
REMARK    1  A    between atoms: O1_2  and  C2_3 
REMARK    2  A    between atoms: C17_20  and  C18_21 
REMARK    3  A    between atoms: C22_27  and  O6_28 
REMARK    4  A    between atoms: O6_28  and  C23_29 
REMARK    5  A    between atoms: C26_33  and  O8_34 
REMARK    6  A    between atoms: C31_40  and  O10_41 
ROOT
HETATM    1  C2  UNL     1      -8.146  43.062 -23.786  1.00  0.00     0.190 C 
HETATM    2  C3  UNL     1      -9.303  42.058 -23.670  1.00  0.00     0.064 C 
HETATM    3  C4  UNL     1     -10.639  42.719 -23.352  1.00  0.00     0.174 C 
HETATM    4  O2  UNL     1     -10.462  43.764 -22.411  1.00  0.00    -0.356 OA
HETATM    5  C5  UNL     1      -9.764  44.896 -22.953  1.00  0.00     0.325 C 
HETATM    6  O3  UNL     1      -9.354  45.711 -21.846  1.00  0.00    -0.344 OA
HETATM    7  C6  UNL     1      -8.004  46.149 -21.919  1.00  0.00     0.177 C 
HETATM    8  C7  UNL     1      -7.834  47.291 -20.963  1.00  0.00     0.011 C 
HETATM    9  C8  UNL     1      -7.121  48.404 -21.226  1.00  0.00    -0.072 C 
HETATM   10  C9  UNL     1      -7.034  49.518 -20.215  1.00  0.00     0.035 C 
HETATM   11  C10 UNL     1      -5.583  49.873 -19.907  1.00  0.00     0.012 C 
HETATM   12  C11 UNL     1      -4.778  50.208 -21.185  1.00  0.00     0.026 C 
HETATM   13  C12 UNL     1      -4.869  49.025 -22.191  1.00  0.00     0.005 C 
HETATM   14  C13 UNL     1      -4.021  49.312 -23.440  1.00  0.00     0.007 C 
HETATM   15  C14 UNL     1      -2.572  49.612 -23.074  1.00  0.00     0.013 C 
HETATM   16  C15 UNL     1      -2.411  50.827 -22.115  1.00  0.00    -0.003 C 
HETATM   17  C16 UNL     1      -2.709  52.112 -22.913  1.00  0.00     0.019 C 
HETATM   18  C17 UNL     1      -0.958  50.804 -21.526  1.00  0.00     0.058 C 
HETATM   19  C22 UNL     1      -1.056  49.753 -20.383  1.00  0.00     0.143 C 
HETATM   20  C25 UNL     1      -2.531  49.684 -19.951  1.00  0.00     0.072 C 
HETATM   21  C26 UNL     1      -3.317  50.646 -20.861  1.00  0.00     0.072 C 
HETATM   22  C27 UNL     1      -6.353  48.616 -22.537  1.00  0.00    -0.014 C 
HETATM   23  C28 UNL     1      -7.086  49.707 -23.355  1.00  0.00     0.020 C 
HETATM   24  C29 UNL     1      -6.334  47.307 -23.385  1.00  0.00     0.049 C 
HETATM   25  C30 UNL     1      -7.665  46.558 -23.355  1.00  0.00     0.159 C 
HETATM   26  O9  UNL     1      -7.547  45.392 -24.176  1.00  0.00    -0.341 OA
HETATM   27  C31 UNL     1      -8.663  44.503 -24.032  1.00  0.00     0.240 C 
ENDROOT
BRANCH  18  28
HETATM   28  C18 UNL     1      -0.289  52.103 -21.137  1.00  0.00    -0.043 A 
HETATM   29  C19 UNL     1       0.708  52.671 -21.820  1.00  0.00     0.087 A 
HETATM   30  C20 UNL     1       1.153  53.838 -21.065  1.00  0.00     0.283 A 
HETATM   31  O4  UNL     1       2.053  54.585 -21.400  1.00  0.00    -0.260 OA
HETATM   32  O5  UNL     1       0.420  53.931 -19.926  1.00  0.00    -0.314 OA
HETATM   33  C21 UNL     1      -0.571  52.897 -19.917  1.00  0.00     0.214 A 
ENDBRANCH  18  28
BRANCH  19  34
HETATM   34  O6  UNL     1      -0.226  50.037 -19.247  1.00  0.00    -0.316 OA
BRANCH  34  35
HETATM   35  C23 UNL     1      -0.877  50.103 -18.052  1.00  0.00     0.255 C 
HETATM   36  C24 UNL     1      -0.402  49.009 -17.145  1.00  0.00     0.126 C 
HETATM   37  O7  UNL     1      -1.752  50.909 -17.764  1.00  0.00    -0.266 OA
ENDBRANCH  34  35
ENDBRANCH  19  34
BRANCH  21  38
HETATM   38  O8  UNL     1      -3.396  51.903 -20.175  1.00  0.00    -0.389 OA
HETATM   39  H35 UNL     1      -3.829  51.773 -19.314  1.00  0.00     0.210 HD
ENDBRANCH  21  38
BRANCH  27  40
HETATM   40  O10 UNL     1      -9.279  44.521 -25.333  1.00  0.00    -0.360 OA
HETATM   41  H42 UNL     1      -8.520  44.571 -25.937  1.00  0.00     0.213 HD
ENDBRANCH  27  40
BRANCH   1  42
HETATM   42  O1  UNL     1      -7.331  43.027 -22.601  1.00  0.00    -0.385 OA
HETATM   43  C1  UNL     1      -7.347  41.765 -21.945  1.00  0.00     0.202 C 
ENDBRANCH   1  42
TORSDOF 6
ENDMDL
MODEL 5
REMARK minimizedAffinity -6.62021589
REMARK CNNscore 0.606441915
REMARK CNNaffinity 6.44646692
REMARK  6 active torsions:
REMARK  status: ('A' for Active; 'I' for Inactive)
REMARK    1  A    between atoms: O1_2  and  C2_3 
REMARK    2  A    between atoms: C17_20  and  C18_21 
REMARK    3  A    between atoms: C22_27  and  O6_28 
REMARK    4  A    between atoms: O6_28  and  C23_29 
REMARK    5  A    between atoms: C26_33  and  O8_34 
REMARK    6  A    between atoms: C31_40  and  O10_41 
ROOT
HETATM    1  C2  UNL     1       6.982  55.765  -3.679  1.00  0.00     0.190 C 
HETATM    2  C3  UNL     1       8.070  56.638  -3.035  1.00  0.00     0.064 C 
HETATM    3  C4  UNL     1       7.928  58.118  -3.374  1.00  0.00     0.174 C 
HETATM    4  O2  UNL     1       7.546  58.281  -4.729  1.00  0.00    -0.356 OA
HETATM    5  C5  UNL     1       6.201  57.850  -4.990  1.00  0.00     0.325 C 
HETATM    6  O3  UNL     1       6.058  57.743  -6.413  1.00  0.00    -0.344 OA
HETATM    7  C6  UNL     1       5.426  56.545  -6.842  1.00  0.00     0.177 C 
HETATM    8  C7  UNL     1       4.974  56.740  -8.259  1.00  0.00     0.011 C 
HETATM    9  C8  UNL     1       3.793  56.312  -8.746  1.00  0.00    -0.072 C 
HETATM   10  C9  UNL     1       3.408  56.584 -10.178  1.00  0.00     0.035 C 
HETATM   11  C10 UNL     1       3.033  55.296 -10.904  1.00  0.00     0.012 C 
HETATM   12  C11 UNL     1       1.928  54.507 -10.163  1.00  0.00     0.026 C 
HETATM   13  C12 UNL     1       2.372  54.222  -8.701  1.00  0.00     0.005 C 
HETATM   14  C13 UNL     1       1.314  53.381  -7.968  1.00  0.00     0.007 C 
HETATM   15  C14 UNL     1       1.017  52.086  -8.715  1.00  0.00     0.013 C 
HETATM   16  C15 UNL     1       0.508  52.309 -10.168  1.00  0.00    -0.003 C 
HETATM   17  C16 UNL     1      -0.931  52.858 -10.095  1.00  0.00     0.019 C 
HETATM   18  C17 UNL     1       0.596  50.945 -10.938  1.00  0.00     0.058 C 
HETATM   19  C22 UNL     1       2.096  50.862 -11.341  1.00  0.00     0.143 C 
HETATM   20  C25 UNL     1       2.641  52.300 -11.375  1.00  0.00     0.072 C 
HETATM   21  C26 UNL     1       1.491  53.232 -10.947  1.00  0.00     0.072 C 
HETATM   22  C27 UNL     1       2.778  55.525  -7.908  1.00  0.00    -0.014 C 
HETATM   23  C28 UNL     1       1.563  56.445  -7.633  1.00  0.00     0.020 C 
HETATM   24  C29 UNL     1       3.393  55.114  -6.535  1.00  0.00     0.049 C 
HETATM   25  C30 UNL     1       4.254  56.212  -5.915  1.00  0.00     0.159 C 
HETATM   26  O9  UNL     1       4.749  55.744  -4.657  1.00  0.00    -0.341 OA
HETATM   27  C31 UNL     1       5.751  56.607  -4.105  1.00  0.00     0.240 C 
ENDROOT
BRANCH  18  28
HETATM   28  C18 UNL     1      -0.378  50.655 -12.058  1.00  0.00    -0.043 A 
HETATM   29  C19 UNL     1      -1.305  49.695 -12.020  1.00  0.00     0.087 A 
HETATM   30  C20 UNL     1      -1.959  49.660 -13.325  1.00  0.00     0.283 A 
HETATM   31  O4  UNL     1      -2.852  48.895 -13.638  1.00  0.00    -0.260 OA
HETATM   32  O5  UNL     1      -1.388  50.593 -14.128  1.00  0.00    -0.314 OA
HETATM   33  C21 UNL     1      -0.407  51.322 -13.382  1.00  0.00     0.214 A 
ENDBRANCH  18  28
BRANCH  19  34
HETATM   34  O6  UNL     1       2.334  50.218 -12.601  1.00  0.00    -0.316 OA
BRANCH  34  35
HETATM   35  C23 UNL     1       3.437  49.419 -12.648  1.00  0.00     0.255 C 
HETATM   36  C24 UNL     1       4.326  49.833 -13.780  1.00  0.00     0.126 C 
HETATM   37  O7  UNL     1       3.659  48.473 -11.904  1.00  0.00    -0.266 OA
ENDBRANCH  34  35
ENDBRANCH  19  34
BRANCH  21  38
HETATM   38  O8  UNL     1       0.841  53.675 -12.146  1.00  0.00    -0.389 OA
HETATM   39  H35 UNL     1       1.488  54.126 -12.716  1.00  0.00     0.210 HD
ENDBRANCH  21  38
BRANCH  27  40
HETATM   40  O10 UNL     1       5.139  57.109  -2.902  1.00  0.00    -0.360 OA
HETATM   41  H42 UNL     1       4.639  56.343  -2.571  1.00  0.00     0.213 HD
ENDBRANCH  27  40
BRANCH   1  42
HETATM   42  O1  UNL     1       7.512  55.060  -4.815  1.00  0.00    -0.385 OA
HETATM   43  C1  UNL     1       8.931  54.960  -4.803  1.00  0.00     0.202 C 
ENDBRANCH   1  42
TORSDOF 6
ENDMDL
MODEL 6
REMARK minimizedAffinity -6.82247162
REMARK CNNscore 0.561205566
REMARK CNNaffinity 6.35334969
REMARK  6 active torsions:
REMARK  status: ('A' for Active; 'I' for Inactive)
REMARK    1  A    between atoms: O1_2  and  C2_3 
REMARK    2  A    between atoms: C17_20  and  C18_21 
REMARK    3  A    between atoms: C22_27  and  O6_28 
REMARK    4  A    between atoms: O6_28  and  C23_29 
REMARK    5  A    between atoms: C26_33  and  O8_34 
REMARK    6  A    between atoms: C31_40  and  O10_41 
ROOT
HETATM    1  C2  UNL     1      -0.707  50.347 -13.393  1.00  0.00     0.190 C 
HETATM    2  C3  UNL     1      -1.672  49.274 -13.920  1.00  0.00     0.064 C 
HETATM    3  C4  UNL     1      -3.096  49.444 -13.401  1.00  0.00     0.174 C 
HETATM    4  O2  UNL     1      -3.083  49.828 -12.038  1.00  0.00    -0.356 OA
HETATM    5  C5  UNL     1      -2.599  51.166 -11.836  1.00  0.00     0.325 C 
HETATM    6  O3  UNL     1      -2.314  51.307 -10.437  1.00  0.00    -0.344 OA
HETATM    7  C6  UNL     1      -1.061  51.918 -10.162  1.00  0.00     0.177 C 
HETATM    8  C7  UNL     1      -1.071  52.374  -8.734  1.00  0.00     0.011 C 
HETATM    9  C8  UNL     1      -0.564  53.548  -8.306  1.00  0.00    -0.072 C 
HETATM   10  C9  UNL     1      -0.650  53.938  -6.853  1.00  0.00     0.035 C 
HETATM   11  C10 UNL     1       0.724  54.290  -6.293  1.00  0.00     0.012 C 
HETATM   12  C11 UNL     1       1.436  55.381  -7.129  1.00  0.00     0.026 C 
HETATM   13  C12 UNL     1       1.529  54.930  -8.614  1.00  0.00     0.005 C 
HETATM   14  C13 UNL     1       2.292  55.972  -9.448  1.00  0.00     0.007 C 
HETATM   15  C14 UNL     1       3.674  56.247  -8.868  1.00  0.00     0.013 C 
HETATM   16  C15 UNL     1       3.643  56.760  -7.400  1.00  0.00    -0.003 C 
HETATM   17  C16 UNL     1       3.114  58.209  -7.409  1.00  0.00     0.019 C 
HETATM   18  C17 UNL     1       5.089  56.648  -6.805  1.00  0.00     0.058 C 
HETATM   19  C22 UNL     1       5.195  55.147  -6.411  1.00  0.00     0.143 C 
HETATM   20  C25 UNL     1       3.762  54.629  -6.198  1.00  0.00     0.072 C 
HETATM   21  C26 UNL     1       2.805  55.795  -6.510  1.00  0.00     0.072 C 
HETATM   22  C27 UNL     1       0.131  54.548  -9.238  1.00  0.00    -0.014 C 
HETATM   23  C28 UNL     1      -0.794  55.779  -9.401  1.00  0.00     0.020 C 
HETATM   24  C29 UNL     1       0.358  53.924 -10.650  1.00  0.00     0.049 C 
HETATM   25  C30 UNL     1      -0.824  53.083 -11.127  1.00  0.00     0.159 C 
HETATM   26  O9  UNL     1      -0.524  52.579 -12.431  1.00  0.00    -0.341 OA
HETATM   27  C31 UNL     1      -1.468  51.593 -12.870  1.00  0.00     0.240 C 
ENDROOT
BRANCH  18  28
HETATM   28  C18 UNL     1       5.533  57.618  -5.732  1.00  0.00    -0.043 A 
HETATM   29  C19 UNL     1       4.731  58.116  -4.789  1.00  0.00     0.087 A 
HETATM   30  C20 UNL     1       5.500  59.095  -4.026  1.00  0.00     0.283 A 
HETATM   31  O4  UNL     1       5.071  59.744  -3.091  1.00  0.00    -0.260 OA
HETATM   32  O5  UNL     1       6.750  59.177  -4.549  1.00  0.00    -0.314 OA
HETATM   33  C21 UNL     1       6.882  58.220  -5.607  1.00  0.00     0.214 A 
ENDBRANCH  18  28
BRANCH  19  34
HETATM   34  O6  UNL     1       5.986  54.898  -5.240  1.00  0.00    -0.316 OA
BRANCH  34  35
HETATM   35  C23 UNL     1       7.212  54.350  -5.470  1.00  0.00     0.255 C 
HETATM   36  C24 UNL     1       7.062  52.945  -5.968  1.00  0.00     0.126 C 
HETATM   37  O7  UNL     1       8.285  54.901  -5.266  1.00  0.00    -0.266 OA
ENDBRANCH  34  35
ENDBRANCH  19  34
BRANCH  21  38
HETATM   38  O8  UNL     1       2.526  56.453  -5.268  1.00  0.00    -0.389 OA
HETATM   39  H35 UNL     1       2.138  55.815  -4.645  1.00  0.00     0.210 HD
ENDBRANCH  21  38
BRANCH  27  40
HETATM   40  O10 UNL     1      -2.103  52.213 -14.003  1.00  0.00    -0.360 OA
HETATM   41  H42 UNL     1      -1.375  52.698 -14.427  1.00  0.00     0.213 HD
ENDBRANCH  27  40
BRANCH   1  42
HETATM   42  O1  UNL     1       0.124  49.804 -12.351  1.00  0.00    -0.385 OA
HETATM   43  C1  UNL     1       1.484  49.653 -12.739  1.00  0.00     0.202 C 
ENDBRANCH   1  42
TORSDOF 6
ENDMDL
MODEL 7
REMARK minimizedAffinity -7.06450987
REMARK CNNscore 0.531962395
REMARK CNNaffinity 6.23116493
REMARK  6 active torsions:
REMARK  status: ('A' for Active; 'I' for Inactive)
REMARK    1  A    between atoms: O1_2  and  C2_3 
REMARK    2  A    between atoms: C17_20  and  C18_21 
REMARK    3  A    between atoms: C22_27  and  O6_28 
REMARK    4  A    between atoms: O6_28  and  C23_29 
REMARK    5  A    between atoms: C26_33  and  O8_34 
REMARK    6  A    between atoms: C31_40  and  O10_41 
ROOT
HETATM    1  C2  UNL     1      -2.101  51.190 -12.135  1.00  0.00     0.190 C 
HETATM    2  C3  UNL     1      -3.354  50.349 -12.424  1.00  0.00     0.064 C 
HETATM    3  C4  UNL     1      -4.548  50.737 -11.559  1.00  0.00     0.174 C 
HETATM    4  O2  UNL     1      -4.128  51.017 -10.234  1.00  0.00    -0.356 OA
HETATM    5  C5  UNL     1      -3.362  52.227 -10.132  1.00  0.00     0.325 C 
HETATM    6  O3  UNL     1      -2.722  52.217  -8.848  1.00  0.00    -0.344 OA
HETATM    7  C6  UNL     1      -1.346  52.569  -8.885  1.00  0.00     0.177 C 
HETATM    8  C7  UNL     1      -0.919  52.919  -7.490  1.00  0.00     0.011 C 
HETATM    9  C8  UNL     1      -0.107  53.949  -7.179  1.00  0.00    -0.072 C 
HETATM   10  C9  UNL     1       0.241  54.246  -5.743  1.00  0.00     0.035 C 
HETATM   11  C10 UNL     1       1.752  54.303  -5.541  1.00  0.00     0.012 C 
HETATM   12  C11 UNL     1       2.434  55.303  -6.505  1.00  0.00     0.026 C 
HETATM   13  C12 UNL     1       2.074  54.948  -7.975  1.00  0.00     0.005 C 
HETATM   14  C13 UNL     1       2.796  55.890  -8.952  1.00  0.00     0.007 C 
HETATM   15  C14 UNL     1       4.304  55.869  -8.734  1.00  0.00     0.013 C 
HETATM   16  C15 UNL     1       4.731  56.276  -7.295  1.00  0.00    -0.003 C 
HETATM   17  C16 UNL     1       4.506  57.793  -7.137  1.00  0.00     0.019 C 
HETATM   18  C17 UNL     1       6.230  55.862  -7.087  1.00  0.00     0.058 C 
HETATM   19  C22 UNL     1       6.137  54.343  -6.766  1.00  0.00     0.143 C 
HETATM   20  C25 UNL     1       4.727  54.079  -6.209  1.00  0.00     0.072 C 
HETATM   21  C26 UNL     1       3.966  55.418  -6.244  1.00  0.00     0.072 C 
HETATM   22  C27 UNL     1       0.519  54.869  -8.234  1.00  0.00    -0.014 C 
HETATM   23  C28 UNL     1      -0.163  56.256  -8.130  1.00  0.00     0.020 C 
HETATM   24  C29 UNL     1       0.270  54.315  -9.671  1.00  0.00     0.049 C 
HETATM   25  C30 UNL     1      -1.132  53.737  -9.852  1.00  0.00     0.159 C 
HETATM   26  O9  UNL     1      -1.262  53.279 -11.201  1.00  0.00    -0.341 OA
HETATM   27  C31 UNL     1      -2.456  52.513 -11.408  1.00  0.00     0.240 C 
ENDROOT
BRANCH  18  28
HETATM   28  C18 UNL     1       7.100  56.658  -6.141  1.00  0.00    -0.043 A 
HETATM   29  C19 UNL     1       6.756  57.833  -5.608  1.00  0.00     0.087 A 
HETATM   30  C20 UNL     1       7.901  58.328  -4.851  1.00  0.00     0.283 A 
HETATM   31  O4  UNL     1       7.932  59.380  -4.240  1.00  0.00    -0.260 OA
HETATM   32  O5  UNL     1       8.922  57.441  -4.966  1.00  0.00    -0.314 OA
HETATM   33  C21 UNL     1       8.480  56.309  -5.724  1.00  0.00     0.214 A 
ENDBRANCH  18  28
BRANCH  19  34
HETATM   34  O6  UNL     1       7.126  53.874  -5.839  1.00  0.00    -0.316 OA
BRANCH  34  35
HETATM   35  C23 UNL     1       7.328  52.526  -5.834  1.00  0.00     0.255 C 
HETATM   36  C24 UNL     1       7.576  52.047  -4.437  1.00  0.00     0.126 C 
HETATM   37  O7  UNL     1       7.345  51.809  -6.825  1.00  0.00    -0.266 OA
ENDBRANCH  34  35
ENDBRANCH  19  34
BRANCH  21  38
HETATM   38  O8  UNL     1       4.131  56.028  -4.957  1.00  0.00    -0.389 OA
HETATM   39  H35 UNL     1       3.791  55.428  -4.270  1.00  0.00     0.210 HD
ENDBRANCH  21  38
BRANCH  27  40
HETATM   40  O10 UNL     1      -3.217  53.316 -12.330  1.00  0.00    -0.360 OA
HETATM   41  H42 UNL     1      -2.535  53.690 -12.914  1.00  0.00     0.213 HD
ENDBRANCH  27  40
BRANCH   1  42
HETATM   42  O1  UNL     1      -1.161  50.434 -11.349  1.00  0.00    -0.385 OA
HETATM   43  C1  UNL     1       0.025  50.100 -12.059  1.00  0.00     0.202 C 
ENDBRANCH   1  42
TORSDOF 6
ENDMDL
MODEL 8
REMARK minimizedAffinity -6.92697573
REMARK CNNscore 0.518886864
REMARK CNNaffinity 5.97511721
REMARK  6 active torsions:
REMARK  status: ('A' for Active; 'I' for Inactive)
REMARK    1  A    between atoms: O1_2  and  C2_3 
REMARK    2  A    between atoms: C17_20  and  C18_21 
REMARK    3  A    between atoms: C22_27  and  O6_28 
REMARK    4  A    between atoms: O6_28  and  C23_29 
REMARK    5  A    between atoms: C26_33  and  O8_34 
REMARK    6  A    between atoms: C31_40  and  O10_41 
ROOT
HETATM    1  C2  UNL     1      14.191  52.251  -4.777  1.00  0.00     0.190 C 
HETATM    2  C3  UNL     1      15.725  52.254  -4.701  1.00  0.00     0.064 C 
HETATM    3  C4  UNL     1      16.278  53.370  -3.821  1.00  0.00     0.174 C 
HETATM    4  O2  UNL     1      15.539  54.563  -4.012  1.00  0.00    -0.356 OA
HETATM    5  C5  UNL     1      14.205  54.489  -3.486  1.00  0.00     0.325 C 
HETATM    6  O3  UNL     1      13.471  55.593  -4.033  1.00  0.00    -0.344 OA
HETATM    7  C6  UNL     1      12.186  55.243  -4.530  1.00  0.00     0.177 C 
HETATM    8  C7  UNL     1      11.387  56.504  -4.679  1.00  0.00     0.011 C 
HETATM    9  C8  UNL     1      10.085  56.622  -4.353  1.00  0.00    -0.072 C 
HETATM   10  C9  UNL     1       9.371  57.941  -4.504  1.00  0.00     0.035 C 
HETATM   11  C10 UNL     1       8.110  57.793  -5.350  1.00  0.00     0.012 C 
HETATM   12  C11 UNL     1       7.163  56.699  -4.802  1.00  0.00     0.026 C 
HETATM   13  C12 UNL     1       7.927  55.350  -4.686  1.00  0.00     0.005 C 
HETATM   14  C13 UNL     1       6.984  54.235  -4.205  1.00  0.00     0.007 C 
HETATM   15  C14 UNL     1       5.768  54.102  -5.116  1.00  0.00     0.013 C 
HETATM   16  C15 UNL     1       4.927  55.407  -5.224  1.00  0.00    -0.003 C 
HETATM   17  C16 UNL     1       4.183  55.612  -3.889  1.00  0.00     0.019 C 
HETATM   18  C17 UNL     1       3.952  55.266  -6.444  1.00  0.00     0.058 C 
HETATM   19  C22 UNL     1       4.859  55.600  -7.663  1.00  0.00     0.143 C 
HETATM   20  C25 UNL     1       6.022  56.464  -7.145  1.00  0.00     0.072 C 
HETATM   21  C26 UNL     1       5.840  56.604  -5.621  1.00  0.00     0.072 C 
HETATM   22  C27 UNL     1       9.245  55.453  -3.824  1.00  0.00    -0.014 C 
HETATM   23  C28 UNL     1       8.948  55.710  -2.327  1.00  0.00     0.020 C 
HETATM   24  C29 UNL     1      10.032  54.110  -3.937  1.00  0.00     0.049 C 
HETATM   25  C30 UNL     1      11.509  54.253  -3.578  1.00  0.00     0.159 C 
HETATM   26  O9  UNL     1      12.130  52.970  -3.693  1.00  0.00    -0.341 OA
HETATM   27  C31 UNL     1      13.559  53.040  -3.601  1.00  0.00     0.240 C 
ENDROOT
BRANCH  18  28
HETATM   28  C18 UNL     1       2.624  55.990  -6.426  1.00  0.00    -0.043 A 
HETATM   29  C19 UNL     1       1.671  55.839  -7.348  1.00  0.00     0.087 A 
HETATM   30  C20 UNL     1       0.605  56.788  -7.042  1.00  0.00     0.283 A 
HETATM   31  O4  UNL     1      -0.418  56.921  -7.688  1.00  0.00    -0.260 OA
HETATM   32  O5  UNL     1       0.956  57.507  -5.947  1.00  0.00    -0.314 OA
HETATM   33  C21 UNL     1       2.208  57.022  -5.446  1.00  0.00     0.214 A 
ENDBRANCH  18  28
BRANCH  19  34
HETATM   34  O6  UNL     1       4.184  56.277  -8.733  1.00  0.00    -0.316 OA
BRANCH  34  35
HETATM   35  C23 UNL     1       4.379  55.745  -9.973  1.00  0.00     0.255 C 
HETATM   36  C24 UNL     1       3.430  56.363 -10.954  1.00  0.00     0.126 C 
HETATM   37  O7  UNL     1       5.181  54.863 -10.248  1.00  0.00    -0.266 OA
ENDBRANCH  34  35
ENDBRANCH  19  34
BRANCH  21  38
HETATM   38  O8  UNL     1       5.115  57.820  -5.395  1.00  0.00    -0.389 OA
HETATM   39  H35 UNL     1       5.609  58.566  -5.778  1.00  0.00     0.210 HD
ENDBRANCH  21  38
BRANCH  27  40
HETATM   40  O10 UNL     1      13.856  52.316  -2.392  1.00  0.00    -0.360 OA
HETATM   41  H42 UNL     1      13.206  51.592  -2.402  1.00  0.00     0.213 HD
ENDBRANCH  27  40
BRANCH   1  42
HETATM   42  O1  UNL     1      13.750  52.801  -6.032  1.00  0.00    -0.385 OA
HETATM   43  C1  UNL     1      14.407  52.232  -7.158  1.00  0.00     0.202 C 
ENDBRANCH   1  42
TORSDOF 6
ENDMDL
MODEL 9
REMARK minimizedAffinity -7.6832633
REMARK CNNscore 0.504971027
REMARK CNNaffinity 5.92732
REMARK  6 active torsions:
REMARK  status: ('A' for Active; 'I' for Inactive)
REMARK    1  A    between atoms: O1_2  and  C2_3 
REMARK    2  A    between atoms: C17_20  and  C18_21 
REMARK    3  A    between atoms: C22_27  and  O6_28 
REMARK    4  A    between atoms: O6_28  and  C23_29 
REMARK    5  A    between atoms: C26_33  and  O8_34 
REMARK    6  A    between atoms: C31_40  and  O10_41 
ROOT
HETATM    1  C2  UNL     1     -18.743  43.964 -28.345  1.00  0.00     0.190 C 
HETATM    2  C3  UNL     1     -19.884  43.114 -27.765  1.00  0.00     0.064 C 
HETATM    3  C4  UNL     1     -19.592  42.600 -26.360  1.00  0.00     0.174 C 
HETATM    4  O2  UNL     1     -18.237  42.200 -26.251  1.00  0.00    -0.356 OA
HETATM    5  C5  UNL     1     -17.321  43.306 -26.291  1.00  0.00     0.325 C 
HETATM    6  O3  UNL     1     -16.011  42.764 -26.517  1.00  0.00    -0.344 OA
HETATM    7  C6  UNL     1     -15.267  43.449 -27.515  1.00  0.00     0.177 C 
HETATM    8  C7  UNL     1     -13.825  43.068 -27.362  1.00  0.00     0.011 C 
HETATM    9  C8  UNL     1     -12.794  43.929 -27.475  1.00  0.00    -0.072 C 
HETATM   10  C9  UNL     1     -11.376  43.461 -27.270  1.00  0.00     0.035 C 
HETATM   11  C10 UNL     1     -10.498  43.819 -28.465  1.00  0.00     0.012 C 
HETATM   12  C11 UNL     1     -10.551  45.329 -28.798  1.00  0.00     0.026 C 
HETATM   13  C12 UNL     1     -12.025  45.767 -29.029  1.00  0.00     0.005 C 
HETATM   14  C13 UNL     1     -12.092  47.251 -29.426  1.00  0.00     0.007 C 
HETATM   15  C14 UNL     1     -11.234  47.539 -30.653  1.00  0.00     0.013 C 
HETATM   16  C15 UNL     1      -9.733  47.177 -30.461  1.00  0.00    -0.003 C 
HETATM   17  C16 UNL     1      -9.107  48.213 -29.505  1.00  0.00     0.019 C 
HETATM   18  C17 UNL     1      -9.044  47.161 -31.870  1.00  0.00     0.058 C 
HETATM   19  C22 UNL     1      -9.437  45.769 -32.441  1.00  0.00     0.143 C 
HETATM   20  C25 UNL     1      -9.749  44.855 -31.243  1.00  0.00     0.072 C 
HETATM   21  C26 UNL     1      -9.593  45.707 -29.968  1.00  0.00     0.072 C 
HETATM   22  C27 UNL     1     -12.977  45.411 -27.821  1.00  0.00    -0.014 C 
HETATM   23  C28 UNL     1     -12.655  46.245 -26.557  1.00  0.00     0.020 C 
HETATM   24  C29 UNL     1     -14.452  45.707 -28.233  1.00  0.00     0.049 C 
HETATM   25  C30 UNL     1     -15.471  44.960 -27.375  1.00  0.00     0.159 C 
HETATM   26  O9  UNL     1     -16.784  45.315 -27.818  1.00  0.00    -0.341 OA
HETATM   27  C31 UNL     1     -17.803  44.495 -27.232  1.00  0.00     0.240 C 
ENDROOT
BRANCH  18  28
HETATM   28  C18 UNL     1      -7.575  47.503 -31.987  1.00  0.00    -0.043 A 
HETATM   29  C19 UNL     1      -6.834  47.992 -30.990  1.00  0.00     0.087 A 
HETATM   30  C20 UNL     1      -5.513  48.296 -31.530  1.00  0.00     0.283 A 
HETATM   31  O4  UNL     1      -4.589  48.764 -30.891  1.00  0.00    -0.260 OA
HETATM   32  O5  UNL     1      -5.499  47.999 -32.854  1.00  0.00    -0.314 OA
HETATM   33  C21 UNL     1      -6.759  47.426 -33.222  1.00  0.00     0.214 A 
ENDBRANCH  18  28
BRANCH  19  34
HETATM   34  O6  UNL     1      -8.433  45.166 -33.269  1.00  0.00    -0.316 OA
BRANCH  34  35
HETATM   35  C23 UNL     1      -8.894  44.578 -34.409  1.00  0.00     0.255 C 
HETATM   36  C24 UNL     1      -9.490  45.611 -35.316  1.00  0.00     0.126 C 
HETATM   37  O7  UNL     1      -8.865  43.379 -34.650  1.00  0.00    -0.266 OA
ENDBRANCH  34  35
ENDBRANCH  19  34
BRANCH  21  38
HETATM   38  O8  UNL     1      -8.253  45.514 -29.496  1.00  0.00    -0.389 OA
HETATM   39  H35 UNL     1      -8.103  44.567 -29.328  1.00  0.00     0.210 HD
ENDBRANCH  21  38
BRANCH  27  40
HETATM   40  O10 UNL     1     -18.564  45.421 -26.434  1.00  0.00    -0.360 OA
HETATM   41  H42 UNL     1     -18.565  46.230 -26.974  1.00  0.00     0.213 HD
ENDBRANCH  27  40
BRANCH   1  42
HETATM   42  O1  UNL     1     -17.988  43.202 -29.304  1.00  0.00    -0.385 OA
HETATM   43  C1  UNL     1     -18.798  42.600 -30.307  1.00  0.00     0.202 C 
ENDBRANCH   1  42
TORSDOF 6
ENDMDL
