MODEL 1
REMARK minimizedAffinity -9.69292259
REMARK  6 active torsions:
REMARK  status: ('A' for Active; 'I' for Inactive)
REMARK    1  A    between atoms: O1_2  and  C2_3 
REMARK    2  A    between atoms: C9_12  and  C10_13 
REMARK    3  A    between atoms: C13_16  and  O4_17 
REMARK    4  A    between atoms: O4_17  and  C14_18 
REMARK    5  A    between atoms: C14_18  and  C15_19 
REMARK       I    between atoms: C15_19  and  N1_21 
REMARK    6  A    between atoms: N1_21  and  C16_22 
ROOT
HETATM    1  C10 UNL     1      -5.756   5.687  13.269  1.00  0.00    -0.020 A 
HETATM    2  C11 UNL     1      -5.514   4.331  13.014  1.00  0.00     0.015 A 
HETATM    3  C12 UNL     1      -4.220   3.870  12.743  1.00  0.00     0.037 A 
HETATM    4  C13 UNL     1      -3.148   4.761  12.720  1.00  0.00     0.069 A 
HETATM    5  C23 UNL     1      -3.383   6.115  12.972  1.00  0.00     0.037 A 
HETATM    6  C24 UNL     1      -4.674   6.577  13.243  1.00  0.00     0.015 A 
ENDROOT
BRANCH   4   7
HETATM    7  O4  UNL     1      -1.843   4.446  12.465  1.00  0.00    -0.342 OA
BRANCH   7   8
HETATM    8  C14 UNL     1      -0.863   5.418  12.827  1.00  0.00     0.278 C 
BRANCH   8   9
HETATM    9  C15 UNL     1       0.147   5.603  11.694  1.00  0.00     0.242 C 
HETATM   10  O5  UNL     1       0.351   4.734  10.850  1.00  0.00    -0.271 OA
HETATM   11  N1  UNL     1       0.769   6.836  11.685  1.00  0.00    -0.354 N 
HETATM   12  H11 UNL     1       0.671   7.375  12.541  1.00  0.00     0.162 HD
BRANCH  11  13
HETATM   13  C16 UNL     1       1.846   7.158  10.756  1.00  0.00     0.089 C 
HETATM   14  C17 UNL     1       3.036   6.215  10.959  1.00  0.00     0.051 C 
HETATM   15  C18 UNL     1       3.296   5.368   9.724  1.00  0.00     0.171 C 
HETATM   16  O6  UNL     1       3.522   6.196   8.588  1.00  0.00    -0.381 OA
HETATM   17  C19 UNL     1       2.480   7.137   8.287  1.00  0.00     0.055 C 
HETATM   18  C20 UNL     1       1.936   6.774   6.901  1.00  0.00     0.045 C 
HETATM   19  C21 UNL     1       3.145   8.517   8.219  1.00  0.00     0.045 C 
HETATM   20  C22 UNL     1       1.331   7.128   9.313  1.00  0.00     0.062 C 
ENDBRANCH  11  13
ENDBRANCH   8   9
ENDBRANCH   7   8
ENDBRANCH   4   7
BRANCH   1  21
HETATM   21  C9  UNL     1      -7.125   6.162  13.558  1.00  0.00     0.051 A 
HETATM   22  C8  UNL     1      -8.289   5.648  12.778  1.00  0.00     0.299 A 
HETATM   23  O2  UNL     1      -9.540   6.143  13.122  1.00  0.00    -0.271 OA
HETATM   24  O3  UNL     1      -8.159   4.827  11.875  1.00  0.00    -0.259 OA
HETATM   25  C7  UNL     1      -9.728   7.080  14.161  1.00  0.00     0.123 A 
HETATM   26  C2  UNL     1     -11.033   7.516  14.431  1.00  0.00     0.102 A 
HETATM   27  C6  UNL     1      -8.631   7.539  14.885  1.00  0.00     0.002 A 
HETATM   28  C3  UNL     1     -11.222   8.441  15.460  1.00  0.00     0.040 A 
HETATM   29  C4  UNL     1     -10.129   8.911  16.197  1.00  0.00     0.004 A 
HETATM   30  C5  UNL     1      -8.838   8.463  15.911  1.00  0.00     0.014 A 
HETATM   31  C25 UNL     1      -7.305   7.047  14.554  1.00  0.00     0.032 A 
BRANCH  26  32
HETATM   32  O1  UNL     1     -12.023   6.988  13.648  1.00  0.00    -0.353 OA
HETATM   33  C1  UNL     1     -12.998   6.175  14.285  1.00  0.00     0.210 C 
ENDBRANCH  26  32
ENDBRANCH   1  21
TORSDOF 6
ENDMDL
MODEL 2
REMARK minimizedAffinity -9.12131119
REMARK  6 active torsions:
REMARK  status: ('A' for Active; 'I' for Inactive)
REMARK    1  A    between atoms: O1_2  and  C2_3 
REMARK    2  A    between atoms: C9_12  and  C10_13 
REMARK    3  A    between atoms: C13_16  and  O4_17 
REMARK    4  A    between atoms: O4_17  and  C14_18 
REMARK    5  A    between atoms: C14_18  and  C15_19 
REMARK       I    between atoms: C15_19  and  N1_21 
REMARK    6  A    between atoms: N1_21  and  C16_22 
ROOT
HETATM    1  C10 UNL     1      -1.545   5.249  11.905  1.00  0.00    -0.020 A 
HETATM    2  C11 UNL     1      -1.978   4.088  11.251  1.00  0.00     0.015 A 
HETATM    3  C12 UNL     1      -3.226   3.523  11.540  1.00  0.00     0.037 A 
HETATM    4  C13 UNL     1      -4.059   4.110  12.491  1.00  0.00     0.069 A 
HETATM    5  C23 UNL     1      -3.632   5.266  13.149  1.00  0.00     0.037 A 
HETATM    6  C24 UNL     1      -2.387   5.832  12.861  1.00  0.00     0.015 A 
ENDROOT
BRANCH   4   7
HETATM    7  O4  UNL     1      -5.293   3.660  12.869  1.00  0.00    -0.342 OA
BRANCH   7   8
HETATM    8  C14 UNL     1      -6.387   3.986  12.014  1.00  0.00     0.278 C 
BRANCH   8   9
HETATM    9  C15 UNL     1      -7.653   4.227  12.836  1.00  0.00     0.242 C 
HETATM   10  O5  UNL     1      -8.396   3.311  13.178  1.00  0.00    -0.271 OA
HETATM   11  N1  UNL     1      -7.857   5.546  13.190  1.00  0.00    -0.354 N 
HETATM   12  H11 UNL     1      -7.296   6.222  12.678  1.00  0.00     0.162 HD
BRANCH  11  13
HETATM   13  C16 UNL     1      -9.067   5.991  13.872  1.00  0.00     0.089 C 
HETATM   14  C17 UNL     1      -8.716   6.826  15.107  1.00  0.00     0.051 C 
HETATM   15  C18 UNL     1      -9.218   8.255  14.977  1.00  0.00     0.171 C 
HETATM   16  O6  UNL     1     -10.625   8.274  14.763  1.00  0.00    -0.381 OA
HETATM   17  C19 UNL     1     -11.092   7.520  13.634  1.00  0.00     0.055 C 
HETATM   18  C20 UNL     1     -11.751   8.515  12.673  1.00  0.00     0.045 C 
HETATM   19  C21 UNL     1     -12.160   6.555  14.166  1.00  0.00     0.045 C 
HETATM   20  C22 UNL     1      -9.974   6.756  12.902  1.00  0.00     0.062 C 
ENDBRANCH  11  13
ENDBRANCH   8   9
ENDBRANCH   7   8
ENDBRANCH   4   7
BRANCH   1  21
HETATM   21  C9  UNL     1      -0.228   5.839  11.590  1.00  0.00     0.051 A 
HETATM   22  C8  UNL     1       0.869   5.835  12.603  1.00  0.00     0.299 A 
HETATM   23  O2  UNL     1       2.077   6.404  12.220  1.00  0.00    -0.271 OA
HETATM   24  O3  UNL     1       0.723   5.354  13.723  1.00  0.00    -0.259 OA
HETATM   25  C7  UNL     1       2.284   6.956  10.937  1.00  0.00     0.123 A 
HETATM   26  C2  UNL     1       3.542   7.505  10.649  1.00  0.00     0.102 A 
HETATM   27  C6  UNL     1       1.253   6.941  10.003  1.00  0.00     0.002 A 
HETATM   28  C3  UNL     1       3.750   8.051   9.380  1.00  0.00     0.040 A 
HETATM   29  C4  UNL     1       2.723   8.041   8.430  1.00  0.00     0.004 A 
HETATM   30  C5  UNL     1       1.478   7.489   8.739  1.00  0.00     0.014 A 
HETATM   31  C25 UNL     1      -0.027   6.356  10.366  1.00  0.00     0.032 A 
BRANCH  26  32
HETATM   32  O1  UNL     1       4.469   7.458  11.653  1.00  0.00    -0.353 OA
HETATM   33  C1  UNL     1       5.595   6.611  11.466  1.00  0.00     0.210 C 
ENDBRANCH  26  32
ENDBRANCH   1  21
TORSDOF 6
ENDMDL
MODEL 3
REMARK minimizedAffinity -9.0150032
REMARK  6 active torsions:
REMARK  status: ('A' for Active; 'I' for Inactive)
REMARK    1  A    between atoms: O1_2  and  C2_3 
REMARK    2  A    between atoms: C9_12  and  C10_13 
REMARK    3  A    between atoms: C13_16  and  O4_17 
REMARK    4  A    between atoms: O4_17  and  C14_18 
REMARK    5  A    between atoms: C14_18  and  C15_19 
REMARK       I    between atoms: C15_19  and  N1_21 
REMARK    6  A    between atoms: N1_21  and  C16_22 
ROOT
HETATM    1  C10 UNL     1      -2.309   4.913  12.059  1.00  0.00    -0.020 A 
HETATM    2  C11 UNL     1      -3.210   4.033  11.445  1.00  0.00     0.015 A 
HETATM    3  C12 UNL     1      -4.504   3.858  11.952  1.00  0.00     0.037 A 
HETATM    4  C13 UNL     1      -4.914   4.561  13.084  1.00  0.00     0.069 A 
HETATM    5  C23 UNL     1      -4.020   5.438  13.702  1.00  0.00     0.037 A 
HETATM    6  C24 UNL     1      -2.729   5.614  13.197  1.00  0.00     0.015 A 
ENDROOT
BRANCH   4   7
HETATM    7  O4  UNL     1      -6.140   4.480  13.682  1.00  0.00    -0.342 OA
BRANCH   7   8
HETATM    8  C14 UNL     1      -7.244   4.140  12.844  1.00  0.00     0.278 C 
BRANCH   8   9
HETATM    9  C15 UNL     1      -8.186   5.334  12.692  1.00  0.00     0.242 C 
HETATM   10  O5  UNL     1      -8.510   5.778  11.594  1.00  0.00    -0.271 OA
HETATM   11  N1  UNL     1      -8.665   5.833  13.887  1.00  0.00    -0.354 N 
HETATM   12  H11 UNL     1      -8.168   5.520  14.716  1.00  0.00     0.162 HD
BRANCH  11  13
HETATM   13  C16 UNL     1      -9.480   7.041  13.956  1.00  0.00     0.089 C 
HETATM   14  C17 UNL     1     -10.930   6.739  13.563  1.00  0.00     0.051 C 
HETATM   15  C18 UNL     1     -11.884   6.984  14.720  1.00  0.00     0.171 C 
HETATM   16  O6  UNL     1     -11.777   8.326  15.181  1.00  0.00    -0.381 OA
HETATM   17  C19 UNL     1     -10.461   8.745  15.577  1.00  0.00     0.055 C 
HETATM   18  C20 UNL     1     -10.533   9.096  17.067  1.00  0.00     0.045 C 
HETATM   19  C21 UNL     1     -10.149  10.015  14.777  1.00  0.00     0.045 C 
HETATM   20  C22 UNL     1      -9.383   7.670  15.349  1.00  0.00     0.062 C 
ENDBRANCH  11  13
ENDBRANCH   8   9
ENDBRANCH   7   8
ENDBRANCH   4   7
BRANCH   1  21
HETATM   21  C9  UNL     1      -0.948   5.093  11.514  1.00  0.00     0.051 A 
HETATM   22  C8  UNL     1       0.041   3.976  11.555  1.00  0.00     0.299 A 
HETATM   23  O2  UNL     1       1.295   4.229  11.013  1.00  0.00    -0.271 OA
HETATM   24  O3  UNL     1      -0.229   2.881  12.041  1.00  0.00    -0.259 OA
HETATM   25  C7  UNL     1       1.637   5.472  10.437  1.00  0.00     0.123 A 
HETATM   26  C2  UNL     1       2.929   5.626   9.915  1.00  0.00     0.102 A 
HETATM   27  C6  UNL     1       0.697   6.498  10.398  1.00  0.00     0.002 A 
HETATM   28  C3  UNL     1       3.269   6.854   9.343  1.00  0.00     0.040 A 
HETATM   29  C4  UNL     1       2.334   7.894   9.295  1.00  0.00     0.004 A 
HETATM   30  C5  UNL     1       1.052   7.718   9.821  1.00  0.00     0.014 A 
HETATM   31  C25 UNL     1      -0.626   6.272  10.957  1.00  0.00     0.032 A 
BRANCH  26  32
HETATM   32  O1  UNL     1       3.757   4.542  10.016  1.00  0.00    -0.353 OA
HETATM   33  C1  UNL     1       4.037   3.819   8.825  1.00  0.00     0.210 C 
ENDBRANCH  26  32
ENDBRANCH   1  21
TORSDOF 6
ENDMDL
MODEL 4
REMARK minimizedAffinity -8.98569298
REMARK  6 active torsions:
REMARK  status: ('A' for Active; 'I' for Inactive)
REMARK    1  A    between atoms: O1_2  and  C2_3 
REMARK    2  A    between atoms: C9_12  and  C10_13 
REMARK    3  A    between atoms: C13_16  and  O4_17 
REMARK    4  A    between atoms: O4_17  and  C14_18 
REMARK    5  A    between atoms: C14_18  and  C15_19 
REMARK       I    between atoms: C15_19  and  N1_21 
REMARK    6  A    between atoms: N1_21  and  C16_22 
ROOT
HETATM    1  C10 UNL     1      -2.139   6.057  12.771  1.00  0.00    -0.020 A 
HETATM    2  C11 UNL     1      -1.298   4.941  12.867  1.00  0.00     0.015 A 
HETATM    3  C12 UNL     1       0.087   5.066  12.696  1.00  0.00     0.037 A 
HETATM    4  C13 UNL     1       0.650   6.312  12.423  1.00  0.00     0.069 A 
HETATM    5  C23 UNL     1      -0.183   7.429  12.324  1.00  0.00     0.037 A 
HETATM    6  C24 UNL     1      -1.565   7.306  12.495  1.00  0.00     0.015 A 
ENDROOT
BRANCH   4   7
HETATM    7  O4  UNL     1       1.978   6.571  12.230  1.00  0.00    -0.342 OA
BRANCH   7   8
HETATM    8  C14 UNL     1       2.604   5.933  11.117  1.00  0.00     0.278 C 
BRANCH   8   9
HETATM    9  C15 UNL     1       4.052   6.403  10.978  1.00  0.00     0.242 C 
HETATM   10  O5  UNL     1       4.660   6.345   9.913  1.00  0.00    -0.271 OA
HETATM   11  N1  UNL     1       4.590   6.930  12.135  1.00  0.00    -0.354 N 
HETATM   12  H11 UNL     1       4.067   6.732  12.984  1.00  0.00     0.162 HD
BRANCH  11  13
HETATM   13  C16 UNL     1       5.991   7.322  12.234  1.00  0.00     0.089 C 
HETATM   14  C17 UNL     1       6.409   8.152  11.017  1.00  0.00     0.051 C 
HETATM   15  C18 UNL     1       6.809   9.564  11.414  1.00  0.00     0.171 C 
HETATM   16  O6  UNL     1       7.867   9.535  12.365  1.00  0.00    -0.381 OA
HETATM   17  C19 UNL     1       7.608   8.780  13.559  1.00  0.00     0.055 C 
HETATM   18  C20 UNL     1       7.668   9.763  14.733  1.00  0.00     0.045 C 
HETATM   19  C21 UNL     1       8.755   7.770  13.693  1.00  0.00     0.045 C 
HETATM   20  C22 UNL     1       6.244   8.066  13.550  1.00  0.00     0.062 C 
ENDBRANCH  11  13
ENDBRANCH   8   9
ENDBRANCH   7   8
ENDBRANCH   4   7
BRANCH   1  21
HETATM   21  C9  UNL     1      -3.597   5.915  12.956  1.00  0.00     0.051 A 
HETATM   22  C8  UNL     1      -4.431   7.087  13.354  1.00  0.00     0.299 A 
HETATM   23  O2  UNL     1      -5.795   6.865  13.498  1.00  0.00    -0.271 OA
HETATM   24  O3  UNL     1      -3.947   8.198  13.547  1.00  0.00    -0.259 OA
HETATM   25  C7  UNL     1      -6.388   5.603  13.274  1.00  0.00     0.123 A 
HETATM   26  C2  UNL     1      -7.774   5.485  13.445  1.00  0.00     0.102 A 
HETATM   27  C6  UNL     1      -5.595   4.525  12.893  1.00  0.00     0.002 A 
HETATM   28  C3  UNL     1      -8.363   4.238  13.223  1.00  0.00     0.040 A 
HETATM   29  C4  UNL     1      -7.579   3.145  12.837  1.00  0.00     0.004 A 
HETATM   30  C5  UNL     1      -6.199   3.286  12.673  1.00  0.00     0.014 A 
HETATM   31  C25 UNL     1      -4.163   4.716  12.734  1.00  0.00     0.032 A 
BRANCH  26  32
HETATM   32  O1  UNL     1      -8.439   6.619  13.822  1.00  0.00    -0.353 OA
HETATM   33  C1  UNL     1      -8.965   6.661  15.141  1.00  0.00     0.210 C 
ENDBRANCH  26  32
ENDBRANCH   1  21
TORSDOF 6
ENDMDL
MODEL 5
REMARK minimizedAffinity -8.9662056
REMARK  6 active torsions:
REMARK  status: ('A' for Active; 'I' for Inactive)
REMARK    1  A    between atoms: O1_2  and  C2_3 
REMARK    2  A    between atoms: C9_12  and  C10_13 
REMARK    3  A    between atoms: C13_16  and  O4_17 
REMARK    4  A    between atoms: O4_17  and  C14_18 
REMARK    5  A    between atoms: C14_18  and  C15_19 
REMARK       I    between atoms: C15_19  and  N1_21 
REMARK    6  A    between atoms: N1_21  and  C16_22 
ROOT
HETATM    1  C10 UNL     1      -1.375   5.177  12.356  1.00  0.00    -0.020 A 
HETATM    2  C11 UNL     1      -0.816   5.406  11.093  1.00  0.00     0.015 A 
HETATM    3  C12 UNL     1       0.514   5.823  10.959  1.00  0.00     0.037 A 
HETATM    4  C13 UNL     1       1.304   6.020  12.090  1.00  0.00     0.069 A 
HETATM    5  C23 UNL     1       0.753   5.795  13.353  1.00  0.00     0.037 A 
HETATM    6  C24 UNL     1      -0.574   5.378  13.489  1.00  0.00     0.015 A 
ENDROOT
BRANCH   4   7
HETATM    7  O4  UNL     1       2.609   6.428  12.100  1.00  0.00    -0.342 OA
BRANCH   7   8
HETATM    8  C14 UNL     1       3.370   6.181  10.918  1.00  0.00     0.278 C 
BRANCH   8   9
HETATM    9  C15 UNL     1       4.808   6.668  11.100  1.00  0.00     0.242 C 
HETATM   10  O5  UNL     1       5.693   6.414  10.286  1.00  0.00    -0.271 OA
HETATM   11  N1  UNL     1       5.006   7.443  12.225  1.00  0.00    -0.354 N 
HETATM   12  H11 UNL     1       4.260   7.404  12.913  1.00  0.00     0.162 HD
BRANCH  11  13
HETATM   13  C16 UNL     1       6.330   7.900  12.632  1.00  0.00     0.089 C 
HETATM   14  C17 UNL     1       6.583   9.330  12.144  1.00  0.00     0.051 C 
HETATM   15  C18 UNL     1       6.764  10.293  13.306  1.00  0.00     0.171 C 
HETATM   16  O6  UNL     1       7.835   9.871  14.143  1.00  0.00    -0.381 OA
HETATM   17  C19 UNL     1       7.728   8.537  14.666  1.00  0.00     0.055 C 
HETATM   18  C20 UNL     1       7.658   8.659  16.191  1.00  0.00     0.045 C 
HETATM   19  C21 UNL     1       9.023   7.812  14.279  1.00  0.00     0.045 C 
HETATM   20  C22 UNL     1       6.493   7.775  14.150  1.00  0.00     0.062 C 
ENDBRANCH  11  13
ENDBRANCH   8   9
ENDBRANCH   7   8
ENDBRANCH   4   7
BRANCH   1  21
HETATM   21  C9  UNL     1      -2.778   4.734  12.486  1.00  0.00     0.051 A 
HETATM   22  C8  UNL     1      -3.783   5.586  13.187  1.00  0.00     0.299 A 
HETATM   23  O2  UNL     1      -5.081   5.097  13.256  1.00  0.00    -0.271 OA
HETATM   24  O3  UNL     1      -3.489   6.670  13.683  1.00  0.00    -0.259 OA
HETATM   25  C7  UNL     1      -5.458   3.859  12.689  1.00  0.00     0.123 A 
HETATM   26  C2  UNL     1      -6.795   3.455  12.812  1.00  0.00     0.102 A 
HETATM   27  C6  UNL     1      -4.509   3.084  12.030  1.00  0.00     0.002 A 
HETATM   28  C3  UNL     1      -7.170   2.233  12.251  1.00  0.00     0.040 A 
HETATM   29  C4  UNL     1      -6.227   1.443  11.583  1.00  0.00     0.004 A 
HETATM   30  C5  UNL     1      -4.901   1.866  11.473  1.00  0.00     0.014 A 
HETATM   31  C25 UNL     1      -3.139   3.561  11.938  1.00  0.00     0.032 A 
BRANCH  26  32
HETATM   32  O1  UNL     1      -7.627   4.308  13.484  1.00  0.00    -0.353 OA
HETATM   33  C1  UNL     1      -8.498   5.119  12.707  1.00  0.00     0.210 C 
ENDBRANCH  26  32
ENDBRANCH   1  21
TORSDOF 6
ENDMDL
MODEL 6
REMARK minimizedAffinity -8.8569355
REMARK  6 active torsions:
REMARK  status: ('A' for Active; 'I' for Inactive)
REMARK    1  A    between atoms: O1_2  and  C2_3 
REMARK    2  A    between atoms: C9_12  and  C10_13 
REMARK    3  A    between atoms: C13_16  and  O4_17 
REMARK    4  A    between atoms: O4_17  and  C14_18 
REMARK    5  A    between atoms: C14_18  and  C15_19 
REMARK       I    between atoms: C15_19  and  N1_21 
REMARK    6  A    between atoms: N1_21  and  C16_22 
ROOT
HETATM    1  C10 UNL     1      -2.851   4.900  12.215  1.00  0.00    -0.020 A 
HETATM    2  C11 UNL     1      -3.715   5.445  13.174  1.00  0.00     0.015 A 
HETATM    3  C12 UNL     1      -5.028   4.977  13.307  1.00  0.00     0.037 A 
HETATM    4  C13 UNL     1      -5.497   3.958  12.480  1.00  0.00     0.069 A 
HETATM    5  C23 UNL     1      -4.641   3.411  11.521  1.00  0.00     0.037 A 
HETATM    6  C24 UNL     1      -3.330   3.877  11.386  1.00  0.00     0.015 A 
ENDROOT
BRANCH   4   7
HETATM    7  O4  UNL     1      -6.751   3.415  12.502  1.00  0.00    -0.342 OA
BRANCH   7   8
HETATM    8  C14 UNL     1      -7.425   3.400  13.760  1.00  0.00     0.278 C 
BRANCH   8   9
HETATM    9  C15 UNL     1      -7.932   4.799  14.110  1.00  0.00     0.242 C 
HETATM   10  O5  UNL     1      -8.357   5.574  13.256  1.00  0.00    -0.271 OA
HETATM   11  N1  UNL     1      -7.908   5.090  15.459  1.00  0.00    -0.354 N 
HETATM   12  H11 UNL     1      -7.350   4.459  16.027  1.00  0.00     0.162 HD
BRANCH  11  13
HETATM   13  C16 UNL     1      -8.241   6.413  15.976  1.00  0.00     0.089 C 
HETATM   14  C17 UNL     1      -7.028   7.345  15.902  1.00  0.00     0.051 C 
HETATM   15  C18 UNL     1      -7.282   8.518  14.969  1.00  0.00     0.171 C 
HETATM   16  O6  UNL     1      -8.429   9.250  15.386  1.00  0.00    -0.381 OA
HETATM   17  C19 UNL     1      -9.642   8.489  15.505  1.00  0.00     0.055 C 
HETATM   18  C20 UNL     1     -10.637   9.075  14.498  1.00  0.00     0.045 C 
HETATM   19  C21 UNL     1     -10.168   8.727  16.926  1.00  0.00     0.045 C 
HETATM   20  C22 UNL     1      -9.452   6.986  15.231  1.00  0.00     0.062 C 
ENDBRANCH  11  13
ENDBRANCH   8   9
ENDBRANCH   7   8
ENDBRANCH   4   7
BRANCH   1  21
HETATM   21  C9  UNL     1      -1.466   5.399  12.085  1.00  0.00     0.051 A 
HETATM   22  C8  UNL     1      -0.411   4.555  11.450  1.00  0.00     0.299 A 
HETATM   23  O2  UNL     1       0.861   5.105  11.361  1.00  0.00    -0.271 OA
HETATM   24  O3  UNL     1      -0.644   3.428  11.024  1.00  0.00    -0.259 OA
HETATM   25  C7  UNL     1       1.164   6.402  11.832  1.00  0.00     0.123 A 
HETATM   26  C2  UNL     1       2.479   6.865  11.693  1.00  0.00     0.102 A 
HETATM   27  C6  UNL     1       0.163   7.178  12.410  1.00  0.00     0.002 A 
HETATM   28  C3  UNL     1       2.780   8.148  12.156  1.00  0.00     0.040 A 
HETATM   29  C4  UNL     1       1.785   8.941  12.739  1.00  0.00     0.004 A 
HETATM   30  C5  UNL     1       0.480   8.458  12.866  1.00  0.00     0.014 A 
HETATM   31  C25 UNL     1      -1.181   6.636  12.523  1.00  0.00     0.032 A 
BRANCH  26  32
HETATM   32  O1  UNL     1       3.368   6.005  11.108  1.00  0.00    -0.353 OA
HETATM   33  C1  UNL     1       3.841   6.336   9.810  1.00  0.00     0.210 C 
ENDBRANCH  26  32
ENDBRANCH   1  21
TORSDOF 6
ENDMDL
MODEL 7
REMARK minimizedAffinity -8.76255417
REMARK  6 active torsions:
REMARK  status: ('A' for Active; 'I' for Inactive)
REMARK    1  A    between atoms: O1_2  and  C2_3 
REMARK    2  A    between atoms: C9_12  and  C10_13 
REMARK    3  A    between atoms: C13_16  and  O4_17 
REMARK    4  A    between atoms: O4_17  and  C14_18 
REMARK    5  A    between atoms: C14_18  and  C15_19 
REMARK       I    between atoms: C15_19  and  N1_21 
REMARK    6  A    between atoms: N1_21  and  C16_22 
ROOT
HETATM    1  C10 UNL     1      -2.079   6.486  14.080  1.00  0.00    -0.020 A 
HETATM    2  C11 UNL     1      -1.972   7.823  13.678  1.00  0.00     0.015 A 
HETATM    3  C12 UNL     1      -0.832   8.577  13.982  1.00  0.00     0.037 A 
HETATM    4  C13 UNL     1       0.218   8.003  14.697  1.00  0.00     0.069 A 
HETATM    5  C23 UNL     1       0.117   6.670  15.103  1.00  0.00     0.037 A 
HETATM    6  C24 UNL     1      -1.020   5.916  14.799  1.00  0.00     0.015 A 
ENDROOT
BRANCH   4   7
HETATM    7  O4  UNL     1       1.379   8.625  15.062  1.00  0.00    -0.342 OA
BRANCH   7   8
HETATM    8  C14 UNL     1       2.578   8.170  14.436  1.00  0.00     0.278 C 
BRANCH   8   9
HETATM    9  C15 UNL     1       2.383   8.064  12.924  1.00  0.00     0.242 C 
HETATM   10  O5  UNL     1       2.253   9.055  12.209  1.00  0.00    -0.271 OA
HETATM   11  N1  UNL     1       2.408   6.773  12.438  1.00  0.00    -0.354 N 
HETATM   12  H11 UNL     1       2.313   6.045  13.141  1.00  0.00     0.162 HD
BRANCH  11  13
HETATM   13  C16 UNL     1       2.123   6.459  11.042  1.00  0.00     0.089 C 
HETATM   14  C17 UNL     1       0.614   6.489  10.778  1.00  0.00     0.051 C 
HETATM   15  C18 UNL     1       0.242   7.577   9.783  1.00  0.00     0.171 C 
HETATM   16  O6  UNL     1       0.945   7.396   8.559  1.00  0.00    -0.381 OA
HETATM   17  C19 UNL     1       2.376   7.343   8.665  1.00  0.00     0.055 C 
HETATM   18  C20 UNL     1       2.928   8.528   7.867  1.00  0.00     0.045 C 
HETATM   19  C21 UNL     1       2.815   6.037   7.991  1.00  0.00     0.045 C 
HETATM   20  C22 UNL     1       2.886   7.412  10.116  1.00  0.00     0.062 C 
ENDBRANCH  11  13
ENDBRANCH   8   9
ENDBRANCH   7   8
ENDBRANCH   4   7
BRANCH   1  21
HETATM   21  C9  UNL     1      -3.285   5.698  13.751  1.00  0.00     0.051 A 
HETATM   22  C8  UNL     1      -4.615   6.073  14.314  1.00  0.00     0.299 A 
HETATM   23  O2  UNL     1      -5.696   5.283  13.946  1.00  0.00    -0.271 OA
HETATM   24  O3  UNL     1      -4.760   7.032  15.066  1.00  0.00    -0.259 OA
HETATM   25  C7  UNL     1      -5.569   4.178  13.075  1.00  0.00     0.123 A 
HETATM   26  C2  UNL     1      -6.723   3.445  12.764  1.00  0.00     0.102 A 
HETATM   27  C6  UNL     1      -4.322   3.851  12.552  1.00  0.00     0.002 A 
HETATM   28  C3  UNL     1      -6.600   2.354  11.901  1.00  0.00     0.040 A 
HETATM   29  C4  UNL     1      -5.352   2.013  11.366  1.00  0.00     0.004 A 
HETATM   30  C5  UNL     1      -4.216   2.758  11.690  1.00  0.00     0.014 A 
HETATM   31  C25 UNL     1      -3.165   4.653  12.915  1.00  0.00     0.032 A 
BRANCH  26  32
HETATM   32  O1  UNL     1      -7.887   3.870  13.343  1.00  0.00    -0.353 OA
HETATM   33  C1  UNL     1      -8.648   4.845  12.644  1.00  0.00     0.210 C 
ENDBRANCH  26  32
ENDBRANCH   1  21
TORSDOF 6
ENDMDL
MODEL 8
REMARK minimizedAffinity -8.76038361
REMARK  6 active torsions:
REMARK  status: ('A' for Active; 'I' for Inactive)
REMARK    1  A    between atoms: O1_2  and  C2_3 
REMARK    2  A    between atoms: C9_12  and  C10_13 
REMARK    3  A    between atoms: C13_16  and  O4_17 
REMARK    4  A    between atoms: O4_17  and  C14_18 
REMARK    5  A    between atoms: C14_18  and  C15_19 
REMARK       I    between atoms: C15_19  and  N1_21 
REMARK    6  A    between atoms: N1_21  and  C16_22 
ROOT
HETATM    1  C10 UNL     1      -6.177   4.838  13.311  1.00  0.00    -0.020 A 
HETATM    2  C11 UNL     1      -4.839   5.246  13.381  1.00  0.00     0.015 A 
HETATM    3  C12 UNL     1      -3.820   4.474  12.809  1.00  0.00     0.037 A 
HETATM    4  C13 UNL     1      -4.126   3.279  12.160  1.00  0.00     0.069 A 
HETATM    5  C23 UNL     1      -5.459   2.865  12.088  1.00  0.00     0.037 A 
HETATM    6  C24 UNL     1      -6.477   3.635  12.658  1.00  0.00     0.015 A 
ENDROOT
BRANCH   4   7
HETATM    7  O4  UNL     1      -3.232   2.432  11.567  1.00  0.00    -0.342 OA
BRANCH   7   8
HETATM    8  C14 UNL     1      -2.336   3.006  10.615  1.00  0.00     0.278 C 
BRANCH   8   9
HETATM    9  C15 UNL     1      -1.041   3.443  11.299  1.00  0.00     0.242 C 
HETATM   10  O5  UNL     1      -0.303   2.647  11.874  1.00  0.00    -0.271 OA
HETATM   11  N1  UNL     1      -0.761   4.789  11.174  1.00  0.00    -0.354 N 
HETATM   12  H11 UNL     1      -1.539   5.365  10.864  1.00  0.00     0.162 HD
BRANCH  11  13
HETATM   13  C16 UNL     1       0.365   5.416  11.856  1.00  0.00     0.089 C 
HETATM   14  C17 UNL     1       1.527   5.647  10.885  1.00  0.00     0.051 C 
HETATM   15  C18 UNL     1       1.828   7.127  10.717  1.00  0.00     0.171 C 
HETATM   16  O6  UNL     1       2.124   7.723  11.974  1.00  0.00    -0.381 OA
HETATM   17  C19 UNL     1       1.115   7.574  12.986  1.00  0.00     0.055 C 
HETATM   18  C20 UNL     1       0.632   8.983  13.347  1.00  0.00     0.045 C 
HETATM   19  C21 UNL     1       1.810   6.955  14.205  1.00  0.00     0.045 C 
HETATM   20  C22 UNL     1      -0.081   6.715  12.536  1.00  0.00     0.062 C 
ENDBRANCH  11  13
ENDBRANCH   8   9
ENDBRANCH   7   8
ENDBRANCH   4   7
BRANCH   1  21
HETATM   21  C9  UNL     1      -7.244   5.662  13.915  1.00  0.00     0.051 A 
HETATM   22  C8  UNL     1      -7.075   6.247  15.277  1.00  0.00     0.299 A 
HETATM   23  O2  UNL     1      -8.125   7.014  15.764  1.00  0.00    -0.271 OA
HETATM   24  O3  UNL     1      -6.061   6.065  15.945  1.00  0.00    -0.259 OA
HETATM   25  C7  UNL     1      -9.302   7.252  15.020  1.00  0.00     0.123 A 
HETATM   26  C2  UNL     1     -10.302   8.044  15.602  1.00  0.00     0.102 A 
HETATM   27  C6  UNL     1      -9.436   6.707  13.747  1.00  0.00     0.002 A 
HETATM   28  C3  UNL     1     -11.466   8.282  14.868  1.00  0.00     0.040 A 
HETATM   29  C4  UNL     1     -11.615   7.742  13.585  1.00  0.00     0.004 A 
HETATM   30  C5  UNL     1     -10.605   6.957  13.026  1.00  0.00     0.014 A 
HETATM   31  C25 UNL     1      -8.360   5.896  13.203  1.00  0.00     0.032 A 
BRANCH  26  32
HETATM   32  O1  UNL     1     -10.047   8.519  16.859  1.00  0.00    -0.353 OA
HETATM   33  C1  UNL     1     -10.786   9.652  17.293  1.00  0.00     0.210 C 
ENDBRANCH  26  32
ENDBRANCH   1  21
TORSDOF 6
ENDMDL
MODEL 9
REMARK minimizedAffinity -8.75438118
REMARK  6 active torsions:
REMARK  status: ('A' for Active; 'I' for Inactive)
REMARK    1  A    between atoms: O1_2  and  C2_3 
REMARK    2  A    between atoms: C9_12  and  C10_13 
REMARK    3  A    between atoms: C13_16  and  O4_17 
REMARK    4  A    between atoms: O4_17  and  C14_18 
REMARK    5  A    between atoms: C14_18  and  C15_19 
REMARK       I    between atoms: C15_19  and  N1_21 
REMARK    6  A    between atoms: N1_21  and  C16_22 
ROOT
HETATM    1  C10 UNL     1      -1.134   7.766  13.150  1.00  0.00    -0.020 A 
HETATM    2  C11 UNL     1      -1.634   6.761  13.987  1.00  0.00     0.015 A 
HETATM    3  C12 UNL     1      -2.654   7.032  14.907  1.00  0.00     0.037 A 
HETATM    4  C13 UNL     1      -3.187   8.317  15.006  1.00  0.00     0.069 A 
HETATM    5  C23 UNL     1      -2.690   9.325  14.175  1.00  0.00     0.037 A 
HETATM    6  C24 UNL     1      -1.673   9.055  13.255  1.00  0.00     0.015 A 
ENDROOT
BRANCH   4   7
HETATM    7  O4  UNL     1      -4.176   8.716  15.860  1.00  0.00    -0.342 OA
BRANCH   7   8
HETATM    8  C14 UNL     1      -5.439   9.037  15.278  1.00  0.00     0.278 C 
BRANCH   8   9
HETATM    9  C15 UNL     1      -5.970   7.853  14.470  1.00  0.00     0.242 C 
HETATM   10  O5  UNL     1      -5.836   7.778  13.252  1.00  0.00    -0.271 OA
HETATM   11  N1  UNL     1      -6.568   6.870  15.233  1.00  0.00    -0.354 N 
HETATM   12  H11 UNL     1      -6.799   7.142  16.185  1.00  0.00     0.162 HD
BRANCH  11  13
HETATM   13  C16 UNL     1      -7.238   5.720  14.635  1.00  0.00     0.089 C 
HETATM   14  C17 UNL     1      -8.535   6.149  13.943  1.00  0.00     0.051 C 
HETATM   15  C18 UNL     1      -8.480   5.892  12.446  1.00  0.00     0.171 C 
HETATM   16  O6  UNL     1      -8.224   4.517  12.184  1.00  0.00    -0.381 OA
HETATM   17  C19 UNL     1      -7.034   3.981  12.784  1.00  0.00     0.055 C 
HETATM   18  C20 UNL     1      -6.119   3.533  11.640  1.00  0.00     0.045 C 
HETATM   19  C21 UNL     1      -7.469   2.750  13.589  1.00  0.00     0.045 C 
HETATM   20  C22 UNL     1      -6.290   4.990  13.677  1.00  0.00     0.062 C 
ENDBRANCH  11  13
ENDBRANCH   8   9
ENDBRANCH   7   8
ENDBRANCH   4   7
BRANCH   1  21
HETATM   21  C9  UNL     1      -0.060   7.468  12.180  1.00  0.00     0.051 A 
HETATM   22  C8  UNL     1       1.125   6.654  12.583  1.00  0.00     0.299 A 
HETATM   23  O2  UNL     1       2.082   6.415  11.606  1.00  0.00    -0.271 OA
HETATM   24  O3  UNL     1       1.257   6.212  13.721  1.00  0.00    -0.259 OA
HETATM   25  C7  UNL     1       1.958   6.900  10.285  1.00  0.00     0.123 A 
HETATM   26  C2  UNL     1       2.979   6.602   9.373  1.00  0.00     0.102 A 
HETATM   27  C6  UNL     1       0.840   7.647   9.926  1.00  0.00     0.002 A 
HETATM   28  C3  UNL     1       2.858   7.078   8.066  1.00  0.00     0.040 A 
HETATM   29  C4  UNL     1       1.739   7.830   7.689  1.00  0.00     0.004 A 
HETATM   30  C5  UNL     1       0.733   8.114   8.615  1.00  0.00     0.014 A 
HETATM   31  C25 UNL     1      -0.183   7.920  10.921  1.00  0.00     0.032 A 
BRANCH  26  32
HETATM   32  O1  UNL     1       4.024   5.859   9.852  1.00  0.00    -0.353 OA
HETATM   33  C1  UNL     1       5.018   6.539  10.606  1.00  0.00     0.210 C 
ENDBRANCH  26  32
ENDBRANCH   1  21
TORSDOF 6
ENDMDL
