MODEL 1
REMARK minimizedAffinity -7.99277782
REMARK CNNscore 0.475442648
REMARK CNNaffinity 6.43983889
REMARK  13 active torsions:
REMARK  status: ('A' for Active; 'I' for Inactive)
REMARK    1  A    between atoms: C3_3  and  O1_4 
REMARK    2  A    between atoms: N1_14  and  O2_16 
REMARK    3  A    between atoms: O2_16  and  C13_17 
REMARK    4  A    between atoms: C13_17  and  C14_18 
REMARK       I    between atoms: C14_18  and  N2_20 
REMARK    5  A    between atoms: N2_20  and  C15_21 
REMARK    6  A    between atoms: C15_21  and  C16_22 
REMARK    7  A    between atoms: C15_21  and  C21_33 
REMARK       I    between atoms: C16_22  and  N3_24 
REMARK    8  A    between atoms: N3_24  and  C17_25 
REMARK    9  A    between atoms: C17_25  and  C18_26 
REMARK   10  A    between atoms: C17_25  and  C20_30 
REMARK   11  A    between atoms: C18_26  and  C19_27 
REMARK   12  A    between atoms: C19_27  and  O6_29 
REMARK   13  A    between atoms: C20_30  and  O8_32 
ROOT
HETATM    1  C1  UNL     1       3.041   5.107   7.848  1.00  0.00     0.015 C 
HETATM    2  C2  UNL     1       2.861   6.170   8.382  1.00  0.00    -0.078 C 
HETATM    3  C3  UNL     1       2.633   7.481   9.033  1.00  0.00     0.128 C 
HETATM    4  C4  UNL     1       1.145   7.849   8.940  1.00  0.00     0.052 C 
HETATM    5  C5  UNL     1       0.523   7.443  10.282  1.00  0.00     0.010 C 
HETATM    6  C6  UNL     1       1.650   6.801  11.126  1.00  0.00     0.002 C 
HETATM    7  C7  UNL     1       1.482   6.839  12.673  1.00  0.00    -0.004 C 
HETATM    8  C8  UNL     1      -0.004   6.860  13.070  1.00  0.00     0.010 C 
HETATM    9  C9  UNL     1      -0.202   6.796  14.570  1.00  0.00     0.035 C 
HETATM   10  C10 UNL     1       0.482   7.955  15.243  1.00  0.00    -0.069 C 
HETATM   11  C11 UNL     1      -0.197   8.703  16.130  1.00  0.00     0.030 C 
HETATM   12  C12 UNL     1       0.471   9.734  16.969  1.00  0.00     0.032 C 
HETATM   13  N1  UNL     1      -0.263  10.399  17.814  1.00  0.00    -0.271 N 
ATOM     14  H1  UNL     1      -1.272  10.286  17.911  1.00  0.00     0.194 HD
HETATM   15  C24 UNL     1       1.973   9.885  16.835  1.00  0.00     0.060 C 
HETATM   16  C25 UNL     1       2.409   9.558  15.413  1.00  0.00     0.020 C 
HETATM   17  C26 UNL     1       1.961   8.154  14.920  1.00  0.00    -0.016 C 
HETATM   18  C27 UNL     1       2.742   7.078  15.726  1.00  0.00     0.020 C 
HETATM   19  C28 UNL     1       2.316   7.950  13.383  1.00  0.00     0.002 C 
HETATM   20  C29 UNL     1       2.351   9.197  12.489  1.00  0.00     0.007 C 
HETATM   21  C30 UNL     1       3.029   8.939  11.128  1.00  0.00     0.014 C 
HETATM   22  C31 UNL     1       2.918   7.485  10.573  1.00  0.00     0.003 C 
HETATM   23  C32 UNL     1       4.214   6.712  10.899  1.00  0.00     0.020 C 
ENDROOT
BRANCH   3  24
HETATM   24  O1  UNL     1       3.427   8.450   8.362  1.00  0.00    -0.377 OA
HETATM   25  H2  UNL     1       3.239   8.360   7.412  1.00  0.00     0.211 HD
ENDBRANCH   3  24
BRANCH  13  26
HETATM   26  O2  UNL     1       0.508  11.288  18.574  1.00  0.00    -0.271 OA
BRANCH  26  27
HETATM   27  C13 UNL     1       0.413  10.926  19.947  1.00  0.00     0.303 C 
BRANCH  27  28
HETATM   28  C14 UNL     1       1.803  10.812  20.565  1.00  0.00     0.244 C 
HETATM   29  O3  UNL     1       2.640  10.008  20.162  1.00  0.00    -0.271 OA
HETATM   30  N2  UNL     1       2.024  11.651  21.641  1.00  0.00    -0.346 N 
HETATM   31  H16 UNL     1       1.179  11.995  22.088  1.00  0.00     0.163 HD
BRANCH  30  32
HETATM   32  C15 UNL     1       3.192  11.477  22.495  1.00  0.00     0.180 C 
BRANCH  32  33
HETATM   33  C16 UNL     1       4.325  12.394  21.976  1.00  0.00     0.241 C 
HETATM   34  O4  UNL     1       4.438  12.703  20.791  1.00  0.00    -0.271 OA
HETATM   35  N3  UNL     1       5.231  12.781  22.946  1.00  0.00    -0.344 N 
HETATM   36  H18 UNL     1       4.849  12.829  23.884  1.00  0.00     0.163 HD
BRANCH  35  37
HETATM   37  C17 UNL     1       6.230  13.823  22.645  1.00  0.00     0.192 C 
BRANCH  37  38
HETATM   38  C18 UNL     1       7.557  13.458  23.293  1.00  0.00     0.146 C 
BRANCH  38  39
HETATM   39  C19 UNL     1       8.190  12.253  22.662  1.00  0.00     0.141 C 
HETATM   40  O5  UNL     1       8.891  11.440  23.241  1.00  0.00    -0.650 OA
BRANCH  39  41
HETATM   41  O6  UNL     1       7.852  12.079  21.373  1.00  0.00    -0.776 OA
HETATM   42  H22 UNL     1       8.339  11.270  21.101  1.00  0.00     0.167 HD
ENDBRANCH  39  41
ENDBRANCH  38  39
ENDBRANCH  37  38
BRANCH  37  43
HETATM   43  C20 UNL     1       5.750  15.171  23.198  1.00  0.00     0.164 C 
HETATM   44  O7  UNL     1       4.589  15.513  23.363  1.00  0.00    -0.648 OA
BRANCH  43  45
HETATM   45  O8  UNL     1       6.754  16.051  23.420  1.00  0.00    -0.775 OA
HETATM   46  H23 UNL     1       6.306  16.842  23.793  1.00  0.00     0.167 HD
ENDBRANCH  43  45
ENDBRANCH  37  43
ENDBRANCH  35  37
ENDBRANCH  32  33
BRANCH  32  47
HETATM   47  C21 UNL     1       3.657  10.006  22.576  1.00  0.00     0.009 C 
HETATM   48  C22 UNL     1       5.074   9.913  23.149  1.00  0.00     0.012 C 
HETATM   49  C23 UNL     1       2.711   9.110  23.386  1.00  0.00     0.012 C 
ENDBRANCH  32  47
ENDBRANCH  30  32
ENDBRANCH  27  28
ENDBRANCH  26  27
ENDBRANCH  13  26
TORSDOF 13
ENDMDL
MODEL 2
REMARK minimizedAffinity -9.1237793
REMARK CNNscore 0.409605533
REMARK CNNaffinity 6.85424995
REMARK  13 active torsions:
REMARK  status: ('A' for Active; 'I' for Inactive)
REMARK    1  A    between atoms: C3_3  and  O1_4 
REMARK    2  A    between atoms: N1_14  and  O2_16 
REMARK    3  A    between atoms: O2_16  and  C13_17 
REMARK    4  A    between atoms: C13_17  and  C14_18 
REMARK       I    between atoms: C14_18  and  N2_20 
REMARK    5  A    between atoms: N2_20  and  C15_21 
REMARK    6  A    between atoms: C15_21  and  C16_22 
REMARK    7  A    between atoms: C15_21  and  C21_33 
REMARK       I    between atoms: C16_22  and  N3_24 
REMARK    8  A    between atoms: N3_24  and  C17_25 
REMARK    9  A    between atoms: C17_25  and  C18_26 
REMARK   10  A    between atoms: C17_25  and  C20_30 
REMARK   11  A    between atoms: C18_26  and  C19_27 
REMARK   12  A    between atoms: C19_27  and  O6_29 
REMARK   13  A    between atoms: C20_30  and  O8_32 
ROOT
HETATM    1  C1  UNL     1      -8.793   5.597  11.855  1.00  0.00     0.015 C 
HETATM    2  C2  UNL     1      -7.992   5.411  12.734  1.00  0.00    -0.078 C 
HETATM    3  C3  UNL     1      -7.007   5.174  13.813  1.00  0.00     0.128 C 
HETATM    4  C4  UNL     1      -5.820   4.372  13.258  1.00  0.00     0.052 C 
HETATM    5  C5  UNL     1      -4.728   5.399  12.933  1.00  0.00     0.010 C 
HETATM    6  C6  UNL     1      -5.310   6.795  13.263  1.00  0.00     0.002 C 
HETATM    7  C7  UNL     1      -4.290   7.924  13.594  1.00  0.00    -0.004 C 
HETATM    8  C8  UNL     1      -2.944   7.681  12.890  1.00  0.00     0.010 C 
HETATM    9  C9  UNL     1      -1.963   8.813  13.111  1.00  0.00     0.035 C 
HETATM   10  C10 UNL     1      -1.699   9.003  14.581  1.00  0.00    -0.069 C 
HETATM   11  C11 UNL     1      -0.431   9.070  15.024  1.00  0.00     0.030 C 
HETATM   12  C12 UNL     1      -0.104   9.448  16.424  1.00  0.00     0.032 C 
HETATM   13  N1  UNL     1       1.152   9.505  16.761  1.00  0.00    -0.271 N 
ATOM     14  H1  UNL     1       1.925   9.269  16.138  1.00  0.00     0.194 HD
HETATM   15  C24 UNL     1      -1.254   9.816  17.341  1.00  0.00     0.060 C 
HETATM   16  C25 UNL     1      -2.501   9.029  16.961  1.00  0.00     0.020 C 
HETATM   17  C26 UNL     1      -2.923   9.190  15.474  1.00  0.00    -0.016 C 
HETATM   18  C27 UNL     1      -3.414  10.649  15.258  1.00  0.00     0.020 C 
HETATM   19  C28 UNL     1      -4.133   8.221  15.117  1.00  0.00     0.002 C 
HETATM   20  C29 UNL     1      -4.245   6.904  15.898  1.00  0.00     0.007 C 
HETATM   21  C30 UNL     1      -5.615   6.219  15.722  1.00  0.00     0.014 C 
HETATM   22  C31 UNL     1      -6.342   6.480  14.366  1.00  0.00     0.003 C 
HETATM   23  C32 UNL     1      -7.389   7.599  14.553  1.00  0.00     0.020 C 
ENDROOT
BRANCH   3  24
HETATM   24  O1  UNL     1      -7.654   4.450  14.850  1.00  0.00    -0.377 OA
HETATM   25  H2  UNL     1      -8.085   3.684  14.433  1.00  0.00     0.211 HD
ENDBRANCH   3  24
BRANCH  13  26
HETATM   26  O2  UNL     1       1.309   9.931  18.086  1.00  0.00    -0.271 OA
BRANCH  26  27
HETATM   27  C13 UNL     1       1.597  11.324  18.093  1.00  0.00     0.303 C 
BRANCH  27  28
HETATM   28  C14 UNL     1       2.058  11.766  19.479  1.00  0.00     0.244 C 
HETATM   29  O3  UNL     1       2.413  12.917  19.720  1.00  0.00    -0.271 OA
HETATM   30  N2  UNL     1       2.087  10.757  20.424  1.00  0.00    -0.346 N 
HETATM   31  H16 UNL     1       2.115   9.818  20.036  1.00  0.00     0.163 HD
BRANCH  30  32
HETATM   32  C15 UNL     1       2.747  10.956  21.707  1.00  0.00     0.180 C 
BRANCH  32  33
HETATM   33  C16 UNL     1       4.277  10.970  21.479  1.00  0.00     0.241 C 
HETATM   34  O4  UNL     1       4.849  10.150  20.762  1.00  0.00    -0.271 OA
HETATM   35  N3  UNL     1       4.949  11.940  22.198  1.00  0.00    -0.344 N 
HETATM   36  H18 UNL     1       4.400  12.768  22.405  1.00  0.00     0.163 HD
BRANCH  35  37
HETATM   37  C17 UNL     1       6.371  12.212  21.916  1.00  0.00     0.192 C 
BRANCH  37  38
HETATM   38  C18 UNL     1       7.207  11.873  23.141  1.00  0.00     0.146 C 
BRANCH  38  39
HETATM   39  C19 UNL     1       8.649  12.250  22.972  1.00  0.00     0.141 C 
HETATM   40  O5  UNL     1       9.428  11.728  22.193  1.00  0.00    -0.650 OA
BRANCH  39  41
HETATM   41  O6  UNL     1       9.022  13.305  23.717  1.00  0.00    -0.776 OA
HETATM   42  H22 UNL     1       9.973  13.427  23.508  1.00  0.00     0.167 HD
ENDBRANCH  39  41
ENDBRANCH  38  39
ENDBRANCH  37  38
BRANCH  37  43
HETATM   43  C20 UNL     1       6.553  13.697  21.574  1.00  0.00     0.164 C 
HETATM   44  O7  UNL     1       6.339  14.641  22.318  1.00  0.00    -0.648 OA
BRANCH  43  45
HETATM   45  O8  UNL     1       6.898  13.915  20.283  1.00  0.00    -0.775 OA
HETATM   46  H23 UNL     1       7.005  14.889  20.222  1.00  0.00     0.167 HD
ENDBRANCH  43  45
ENDBRANCH  37  43
ENDBRANCH  35  37
ENDBRANCH  32  33
BRANCH  32  47
HETATM   47  C21 UNL     1       2.348   9.891  22.754  1.00  0.00     0.009 C 
HETATM   48  C22 UNL     1       2.438   8.483  22.159  1.00  0.00     0.012 C 
HETATM   49  C23 UNL     1       3.174   9.964  24.043  1.00  0.00     0.012 C 
ENDBRANCH  32  47
ENDBRANCH  30  32
ENDBRANCH  27  28
ENDBRANCH  26  27
ENDBRANCH  13  26
TORSDOF 13
ENDMDL
MODEL 3
REMARK minimizedAffinity -8.33259106
REMARK CNNscore 0.350903988
REMARK CNNaffinity 6.59422922
REMARK  13 active torsions:
REMARK  status: ('A' for Active; 'I' for Inactive)
REMARK    1  A    between atoms: C3_3  and  O1_4 
REMARK    2  A    between atoms: N1_14  and  O2_16 
REMARK    3  A    between atoms: O2_16  and  C13_17 
REMARK    4  A    between atoms: C13_17  and  C14_18 
REMARK       I    between atoms: C14_18  and  N2_20 
REMARK    5  A    between atoms: N2_20  and  C15_21 
REMARK    6  A    between atoms: C15_21  and  C16_22 
REMARK    7  A    between atoms: C15_21  and  C21_33 
REMARK       I    between atoms: C16_22  and  N3_24 
REMARK    8  A    between atoms: N3_24  and  C17_25 
REMARK    9  A    between atoms: C17_25  and  C18_26 
REMARK   10  A    between atoms: C17_25  and  C20_30 
REMARK   11  A    between atoms: C18_26  and  C19_27 
REMARK   12  A    between atoms: C19_27  and  O6_29 
REMARK   13  A    between atoms: C20_30  and  O8_32 
ROOT
HETATM    1  C1  UNL     1      -8.672   5.621  11.797  1.00  0.00     0.015 C 
HETATM    2  C2  UNL     1      -7.876   5.429  12.679  1.00  0.00    -0.078 C 
HETATM    3  C3  UNL     1      -6.895   5.185  13.761  1.00  0.00     0.128 C 
HETATM    4  C4  UNL     1      -5.698   4.402  13.202  1.00  0.00     0.052 C 
HETATM    5  C5  UNL     1      -4.613   5.443  12.898  1.00  0.00     0.010 C 
HETATM    6  C6  UNL     1      -5.209   6.828  13.244  1.00  0.00     0.002 C 
HETATM    7  C7  UNL     1      -4.201   7.961  13.598  1.00  0.00    -0.004 C 
HETATM    8  C8  UNL     1      -2.849   7.740  12.898  1.00  0.00     0.010 C 
HETATM    9  C9  UNL     1      -1.879   8.878  13.142  1.00  0.00     0.035 C 
HETATM   10  C10 UNL     1      -1.626   9.049  14.615  1.00  0.00    -0.069 C 
HETATM   11  C11 UNL     1      -0.361   9.121  15.067  1.00  0.00     0.030 C 
HETATM   12  C12 UNL     1      -0.046   9.481  16.474  1.00  0.00     0.032 C 
HETATM   13  N1  UNL     1       1.208   9.544  16.820  1.00  0.00    -0.271 N 
ATOM     14  H1  UNL     1       1.987   9.324  16.198  1.00  0.00     0.194 HD
HETATM   15  C24 UNL     1      -1.204   9.826  17.390  1.00  0.00     0.060 C 
HETATM   16  C25 UNL     1      -2.442   9.034  16.990  1.00  0.00     0.020 C 
HETATM   17  C26 UNL     1      -2.856   9.212  15.503  1.00  0.00    -0.016 C 
HETATM   18  C27 UNL     1      -3.359  10.670  15.305  1.00  0.00     0.020 C 
HETATM   19  C28 UNL     1      -4.055   8.238  15.125  1.00  0.00     0.002 C 
HETATM   20  C29 UNL     1      -4.161   6.909  15.887  1.00  0.00     0.007 C 
HETATM   21  C30 UNL     1      -5.524   6.215  15.693  1.00  0.00     0.014 C 
HETATM   22  C31 UNL     1      -6.245   6.489  14.336  1.00  0.00     0.003 C 
HETATM   23  C32 UNL     1      -7.302   7.596  14.533  1.00  0.00     0.020 C 
ENDROOT
BRANCH   3  24
HETATM   24  O1  UNL     1      -7.542   4.440  14.783  1.00  0.00    -0.377 OA
HETATM   25  H2  UNL     1      -7.963   3.677  14.352  1.00  0.00     0.211 HD
ENDBRANCH   3  24
BRANCH  13  26
HETATM   26  O2  UNL     1       1.354   9.952  18.152  1.00  0.00    -0.271 OA
BRANCH  26  27
HETATM   27  C13 UNL     1       2.003  11.218  18.179  1.00  0.00     0.303 C 
BRANCH  27  28
HETATM   28  C14 UNL     1       2.936  11.312  19.383  1.00  0.00     0.244 C 
HETATM   29  O3  UNL     1       3.448  10.321  19.899  1.00  0.00    -0.271 OA
HETATM   30  N2  UNL     1       3.118  12.593  19.871  1.00  0.00    -0.346 N 
HETATM   31  H16 UNL     1       2.394  13.253  19.600  1.00  0.00     0.163 HD
BRANCH  30  32
HETATM   32  C15 UNL     1       3.759  12.816  21.160  1.00  0.00     0.180 C 
BRANCH  32  33
HETATM   33  C16 UNL     1       5.173  12.187  21.124  1.00  0.00     0.241 C 
HETATM   34  O4  UNL     1       5.654  11.580  22.079  1.00  0.00    -0.271 OA
HETATM   35  N3  UNL     1       5.868  12.421  19.952  1.00  0.00    -0.344 N 
HETATM   36  H18 UNL     1       5.283  12.547  19.133  1.00  0.00     0.163 HD
BRANCH  35  37
HETATM   37  C17 UNL     1       7.130  11.705  19.691  1.00  0.00     0.192 C 
BRANCH  37  38
HETATM   38  C18 UNL     1       8.303  12.655  19.883  1.00  0.00     0.146 C 
BRANCH  38  39
HETATM   39  C19 UNL     1       9.591  12.087  19.362  1.00  0.00     0.141 C 
HETATM   40  O5  UNL     1      10.247  12.551  18.445  1.00  0.00    -0.650 OA
BRANCH  39  41
HETATM   41  O6  UNL     1      10.033  11.026  20.059  1.00  0.00    -0.776 OA
HETATM   42  H22 UNL     1      10.864  10.766  19.605  1.00  0.00     0.167 HD
ENDBRANCH  39  41
ENDBRANCH  38  39
ENDBRANCH  37  38
BRANCH  37  43
HETATM   43  C20 UNL     1       7.135  11.180  18.249  1.00  0.00     0.164 C 
HETATM   44  O7  UNL     1       6.724  11.772  17.263  1.00  0.00    -0.648 OA
BRANCH  43  45
HETATM   45  O8  UNL     1       7.565   9.901  18.142  1.00  0.00    -0.775 OA
HETATM   46  H23 UNL     1       7.540   9.716  17.178  1.00  0.00     0.167 HD
ENDBRANCH  43  45
ENDBRANCH  37  43
ENDBRANCH  35  37
ENDBRANCH  32  33
BRANCH  32  47
HETATM   47  C21 UNL     1       2.932  12.261  22.341  1.00  0.00     0.009 C 
HETATM   48  C22 UNL     1       3.576  10.992  22.909  1.00  0.00     0.012 C 
HETATM   49  C23 UNL     1       2.715  13.280  23.466  1.00  0.00     0.012 C 
ENDBRANCH  32  47
ENDBRANCH  30  32
ENDBRANCH  27  28
ENDBRANCH  26  27
ENDBRANCH  13  26
TORSDOF 13
ENDMDL
MODEL 4
REMARK minimizedAffinity -8.11060238
REMARK CNNscore 0.293517649
REMARK CNNaffinity 5.89068985
REMARK  13 active torsions:
REMARK  status: ('A' for Active; 'I' for Inactive)
REMARK    1  A    between atoms: C3_3  and  O1_4 
REMARK    2  A    between atoms: N1_14  and  O2_16 
REMARK    3  A    between atoms: O2_16  and  C13_17 
REMARK    4  A    between atoms: C13_17  and  C14_18 
REMARK       I    between atoms: C14_18  and  N2_20 
REMARK    5  A    between atoms: N2_20  and  C15_21 
REMARK    6  A    between atoms: C15_21  and  C16_22 
REMARK    7  A    between atoms: C15_21  and  C21_33 
REMARK       I    between atoms: C16_22  and  N3_24 
REMARK    8  A    between atoms: N3_24  and  C17_25 
REMARK    9  A    between atoms: C17_25  and  C18_26 
REMARK   10  A    between atoms: C17_25  and  C20_30 
REMARK   11  A    between atoms: C18_26  and  C19_27 
REMARK   12  A    between atoms: C19_27  and  O6_29 
REMARK   13  A    between atoms: C20_30  and  O8_32 
ROOT
HETATM    1  C1  UNL     1      -3.224   5.102  12.213  1.00  0.00     0.015 C 
HETATM    2  C2  UNL     1      -2.317   5.566  12.852  1.00  0.00    -0.078 C 
HETATM    3  C3  UNL     1      -1.194   6.136  13.632  1.00  0.00     0.128 C 
HETATM    4  C4  UNL     1      -0.403   7.115  12.753  1.00  0.00     0.052 C 
HETATM    5  C5  UNL     1      -0.925   8.515  13.099  1.00  0.00     0.010 C 
HETATM    6  C6  UNL     1      -2.048   8.330  14.147  1.00  0.00     0.002 C 
HETATM    7  C7  UNL     1      -2.339   9.535  15.090  1.00  0.00    -0.004 C 
HETATM    8  C8  UNL     1      -1.989  10.870  14.409  1.00  0.00     0.010 C 
HETATM    9  C9  UNL     1      -2.354  12.067  15.262  1.00  0.00     0.035 C 
HETATM   10  C10 UNL     1      -1.640  12.010  16.585  1.00  0.00    -0.069 C 
HETATM   11  C11 UNL     1      -0.966  13.088  17.022  1.00  0.00     0.030 C 
HETATM   12  C12 UNL     1      -0.406  13.164  18.398  1.00  0.00     0.032 C 
HETATM   13  N1  UNL     1       0.216  14.255  18.741  1.00  0.00    -0.271 N 
ATOM     14  H1  UNL     1       0.379  15.045  18.116  1.00  0.00     0.194 HD
HETATM   15  C24 UNL     1      -0.666  11.997  19.329  1.00  0.00     0.060 C 
HETATM   16  C25 UNL     1      -0.750  10.700  18.535  1.00  0.00     0.020 C 
HETATM   17  C26 UNL     1      -1.803  10.724  17.392  1.00  0.00    -0.016 C 
HETATM   18  C27 UNL     1      -3.220  10.775  18.031  1.00  0.00     0.020 C 
HETATM   19  C28 UNL     1      -1.722   9.400  16.515  1.00  0.00     0.002 C 
HETATM   20  C29 UNL     1      -0.359   8.701  16.406  1.00  0.00     0.007 C 
HETATM   21  C30 UNL     1      -0.464   7.272  15.834  1.00  0.00     0.014 C 
HETATM   22  C31 UNL     1      -1.646   7.015  14.847  1.00  0.00     0.003 C 
HETATM   23  C32 UNL     1      -2.813   6.352  15.608  1.00  0.00     0.020 C 
ENDROOT
BRANCH   3  24
HETATM   24  O1  UNL     1      -0.362   5.064  14.055  1.00  0.00    -0.377 OA
HETATM   25  H2  UNL     1      -0.161   4.534  13.265  1.00  0.00     0.211 HD
ENDBRANCH   3  24
BRANCH  13  26
HETATM   26  O2  UNL     1       0.635  14.208  20.077  1.00  0.00    -0.271 OA
BRANCH  26  27
HETATM   27  C13 UNL     1       2.057  14.195  20.117  1.00  0.00     0.303 C 
BRANCH  27  28
HETATM   28  C14 UNL     1       2.548  13.684  21.469  1.00  0.00     0.244 C 
HETATM   29  O3  UNL     1       2.128  14.131  22.534  1.00  0.00    -0.271 OA
HETATM   30  N2  UNL     1       3.533  12.718  21.395  1.00  0.00    -0.346 N 
HETATM   31  H16 UNL     1       4.031  12.691  20.510  1.00  0.00     0.163 HD
BRANCH  30  32
HETATM   32  C15 UNL     1       4.283  12.326  22.581  1.00  0.00     0.180 C 
BRANCH  32  33
HETATM   33  C16 UNL     1       5.705  12.929  22.488  1.00  0.00     0.241 C 
HETATM   34  O4  UNL     1       6.013  13.989  23.031  1.00  0.00    -0.271 OA
HETATM   35  N3  UNL     1       6.577  12.208  21.694  1.00  0.00    -0.344 N 
HETATM   36  H18 UNL     1       6.379  11.214  21.647  1.00  0.00     0.163 HD
BRANCH  35  37
HETATM   37  C17 UNL     1       8.013  12.540  21.689  1.00  0.00     0.192 C 
BRANCH  37  38
HETATM   38  C18 UNL     1       8.708  11.779  20.570  1.00  0.00     0.146 C 
BRANCH  38  39
HETATM   39  C19 UNL     1      10.180  12.065  20.511  1.00  0.00     0.141 C 
HETATM   40  O5  UNL     1      11.030  11.302  20.083  1.00  0.00    -0.650 OA
BRANCH  39  41
HETATM   41  O6  UNL     1      10.504  13.307  20.908  1.00  0.00    -0.776 OA
HETATM   42  H22 UNL     1      11.481  13.343  20.822  1.00  0.00     0.167 HD
ENDBRANCH  39  41
ENDBRANCH  38  39
ENDBRANCH  37  38
BRANCH  37  43
HETATM   43  C20 UNL     1       8.637  12.145  23.034  1.00  0.00     0.164 C 
HETATM   44  O7  UNL     1       8.702  11.017  23.497  1.00  0.00    -0.648 OA
BRANCH  43  45
HETATM   45  O8  UNL     1       9.056  13.204  23.767  1.00  0.00    -0.775 OA
HETATM   46  H23 UNL     1       9.451  12.802  24.571  1.00  0.00     0.167 HD
ENDBRANCH  43  45
ENDBRANCH  37  43
ENDBRANCH  35  37
ENDBRANCH  32  33
BRANCH  32  47
HETATM   47  C21 UNL     1       4.339  10.793  22.772  1.00  0.00     0.009 C 
HETATM   48  C22 UNL     1       3.276  10.330  23.773  1.00  0.00     0.012 C 
HETATM   49  C23 UNL     1       4.194  10.010  21.462  1.00  0.00     0.012 C 
ENDBRANCH  32  47
ENDBRANCH  30  32
ENDBRANCH  27  28
ENDBRANCH  26  27
ENDBRANCH  13  26
TORSDOF 13
ENDMDL
MODEL 5
REMARK minimizedAffinity -8.48305893
REMARK CNNscore 0.289709568
REMARK CNNaffinity 5.90388918
REMARK  13 active torsions:
REMARK  status: ('A' for Active; 'I' for Inactive)
REMARK    1  A    between atoms: C3_3  and  O1_4 
REMARK    2  A    between atoms: N1_14  and  O2_16 
REMARK    3  A    between atoms: O2_16  and  C13_17 
REMARK    4  A    between atoms: C13_17  and  C14_18 
REMARK       I    between atoms: C14_18  and  N2_20 
REMARK    5  A    between atoms: N2_20  and  C15_21 
REMARK    6  A    between atoms: C15_21  and  C16_22 
REMARK    7  A    between atoms: C15_21  and  C21_33 
REMARK       I    between atoms: C16_22  and  N3_24 
REMARK    8  A    between atoms: N3_24  and  C17_25 
REMARK    9  A    between atoms: C17_25  and  C18_26 
REMARK   10  A    between atoms: C17_25  and  C20_30 
REMARK   11  A    between atoms: C18_26  and  C19_27 
REMARK   12  A    between atoms: C19_27  and  O6_29 
REMARK   13  A    between atoms: C20_30  and  O8_32 
ROOT
HETATM    1  C1  UNL     1       2.564   5.730   6.540  1.00  0.00     0.015 C 
HETATM    2  C2  UNL     1       2.316   6.218   7.612  1.00  0.00    -0.078 C 
HETATM    3  C3  UNL     1       2.003   6.811   8.932  1.00  0.00     0.128 C 
HETATM    4  C4  UNL     1       2.090   5.726  10.016  1.00  0.00     0.052 C 
HETATM    5  C5  UNL     1       3.481   5.866  10.647  1.00  0.00     0.010 C 
HETATM    6  C6  UNL     1       4.207   7.005   9.891  1.00  0.00     0.002 C 
HETATM    7  C7  UNL     1       5.342   7.747  10.655  1.00  0.00    -0.004 C 
HETATM    8  C8  UNL     1       6.004   6.828  11.696  1.00  0.00     0.010 C 
HETATM    9  C9  UNL     1       7.179   7.489  12.386  1.00  0.00     0.035 C 
HETATM   10  C10 UNL     1       6.742   8.750  13.081  1.00  0.00    -0.069 C 
HETATM   11  C11 UNL     1       7.080   8.951  14.366  1.00  0.00     0.030 C 
HETATM   12  C12 UNL     1       6.849  10.252  15.048  1.00  0.00     0.032 C 
HETATM   13  N1  UNL     1       7.224  10.363  16.291  1.00  0.00    -0.271 N 
ATOM     14  H1  UNL     1       7.630   9.603  16.837  1.00  0.00     0.194 HD
HETATM   15  C24 UNL     1       6.263  11.384  14.227  1.00  0.00     0.060 C 
HETATM   16  C25 UNL     1       5.333  10.828  13.157  1.00  0.00     0.020 C 
HETATM   17  C26 UNL     1       5.995   9.772  12.228  1.00  0.00    -0.016 C 
HETATM   18  C27 UNL     1       7.062  10.489  11.353  1.00  0.00     0.020 C 
HETATM   19  C28 UNL     1       4.924   9.129  11.244  1.00  0.00     0.002 C 
HETATM   20  C29 UNL     1       3.470   9.046  11.729  1.00  0.00     0.007 C 
HETATM   21  C30 UNL     1       2.476   8.733  10.592  1.00  0.00     0.014 C 
HETATM   22  C31 UNL     1       3.038   7.888   9.406  1.00  0.00     0.003 C 
HETATM   23  C32 UNL     1       3.430   8.828   8.247  1.00  0.00     0.020 C 
ENDROOT
BRANCH   3  24
HETATM   24  O1  UNL     1       0.690   7.351   8.874  1.00  0.00    -0.377 OA
HETATM   25  H2  UNL     1       0.112   6.650   8.527  1.00  0.00     0.211 HD
ENDBRANCH   3  24
BRANCH  13  26
HETATM   26  O2  UNL     1       7.000  11.655  16.781  1.00  0.00    -0.271 OA
BRANCH  26  27
HETATM   27  C13 UNL     1       5.743  11.687  17.447  1.00  0.00     0.303 C 
BRANCH  27  28
HETATM   28  C14 UNL     1       5.928  11.462  18.945  1.00  0.00     0.244 C 
HETATM   29  O3  UNL     1       6.599  10.536  19.395  1.00  0.00    -0.271 OA
HETATM   30  N2  UNL     1       5.242  12.353  19.749  1.00  0.00    -0.346 N 
HETATM   31  H16 UNL     1       4.470  12.827  19.289  1.00  0.00     0.163 HD
BRANCH  30  32
HETATM   32  C15 UNL     1       5.104  12.113  21.179  1.00  0.00     0.180 C 
BRANCH  32  33
HETATM   33  C16 UNL     1       6.500  12.233  21.837  1.00  0.00     0.241 C 
HETATM   34  O4  UNL     1       6.743  11.798  22.962  1.00  0.00    -0.271 OA
HETATM   35  N3  UNL     1       7.427  12.924  21.080  1.00  0.00    -0.344 N 
HETATM   36  H18 UNL     1       7.275  12.871  20.078  1.00  0.00     0.163 HD
BRANCH  35  37
HETATM   37  C17 UNL     1       8.846  12.928  21.478  1.00  0.00     0.192 C 
BRANCH  37  38
HETATM   38  C18 UNL     1       9.569  11.776  20.795  1.00  0.00     0.146 C 
BRANCH  38  39
HETATM   39  C19 UNL     1      10.957  12.147  20.362  1.00  0.00     0.141 C 
HETATM   40  O5  UNL     1      11.339  13.278  20.110  1.00  0.00    -0.650 OA
BRANCH  39  41
HETATM   41  O6  UNL     1      11.812  11.111  20.346  1.00  0.00    -0.776 OA
HETATM   42  H22 UNL     1      12.661  11.500  20.043  1.00  0.00     0.167 HD
ENDBRANCH  39  41
ENDBRANCH  38  39
ENDBRANCH  37  38
BRANCH  37  43
HETATM   43  C20 UNL     1       8.954  12.762  23.000  1.00  0.00     0.164 C 
HETATM   44  O7  UNL     1       8.904  13.656  23.830  1.00  0.00    -0.648 OA
BRANCH  43  45
HETATM   45  O8  UNL     1       9.220  11.492  23.386  1.00  0.00    -0.775 OA
HETATM   46  H23 UNL     1       9.232  11.534  24.367  1.00  0.00     0.167 HD
ENDBRANCH  43  45
ENDBRANCH  37  43
ENDBRANCH  35  37
ENDBRANCH  32  33
BRANCH  32  47
HETATM   47  C21 UNL     1       4.454  10.747  21.495  1.00  0.00     0.009 C 
HETATM   48  C22 UNL     1       4.459  10.477  23.002  1.00  0.00     0.012 C 
HETATM   49  C23 UNL     1       3.029  10.608  20.948  1.00  0.00     0.012 C 
ENDBRANCH  32  47
ENDBRANCH  30  32
ENDBRANCH  27  28
ENDBRANCH  26  27
ENDBRANCH  13  26
TORSDOF 13
ENDMDL
MODEL 6
REMARK minimizedAffinity -8.09693909
REMARK CNNscore 0.194577605
REMARK CNNaffinity 6.03268433
REMARK  13 active torsions:
REMARK  status: ('A' for Active; 'I' for Inactive)
REMARK    1  A    between atoms: C3_3  and  O1_4 
REMARK    2  A    between atoms: N1_14  and  O2_16 
REMARK    3  A    between atoms: O2_16  and  C13_17 
REMARK    4  A    between atoms: C13_17  and  C14_18 
REMARK       I    between atoms: C14_18  and  N2_20 
REMARK    5  A    between atoms: N2_20  and  C15_21 
REMARK    6  A    between atoms: C15_21  and  C16_22 
REMARK    7  A    between atoms: C15_21  and  C21_33 
REMARK       I    between atoms: C16_22  and  N3_24 
REMARK    8  A    between atoms: N3_24  and  C17_25 
REMARK    9  A    between atoms: C17_25  and  C18_26 
REMARK   10  A    between atoms: C17_25  and  C20_30 
REMARK   11  A    between atoms: C18_26  and  C19_27 
REMARK   12  A    between atoms: C19_27  and  O6_29 
REMARK   13  A    between atoms: C20_30  and  O8_32 
ROOT
HETATM    1  C1  UNL     1       8.655  15.957  25.188  1.00  0.00     0.015 C 
HETATM    2  C2  UNL     1       8.606  15.360  24.144  1.00  0.00    -0.078 C 
HETATM    3  C3  UNL     1       8.554  14.621  22.862  1.00  0.00     0.128 C 
HETATM    4  C4  UNL     1       8.788  13.125  23.122  1.00  0.00     0.052 C 
HETATM    5  C5  UNL     1       7.397  12.480  23.175  1.00  0.00     0.010 C 
HETATM    6  C6  UNL     1       6.365  13.618  22.989  1.00  0.00     0.002 C 
HETATM    7  C7  UNL     1       4.971  13.220  22.421  1.00  0.00    -0.004 C 
HETATM    8  C8  UNL     1       4.616  11.769  22.787  1.00  0.00     0.010 C 
HETATM    9  C9  UNL     1       3.223  11.383  22.335  1.00  0.00     0.035 C 
HETATM   10  C10 UNL     1       3.089  11.541  20.844  1.00  0.00    -0.069 C 
HETATM   11  C11 UNL     1       2.589  10.529  20.112  1.00  0.00     0.030 C 
HETATM   12  C12 UNL     1       2.251  10.689  18.673  1.00  0.00     0.032 C 
HETATM   13  N1  UNL     1       1.754   9.661  18.047  1.00  0.00    -0.271 N 
ATOM     14  H1  UNL     1       1.618   8.742  18.470  1.00  0.00     0.194 HD
HETATM   15  C24 UNL     1       2.437  12.061  18.054  1.00  0.00     0.060 C 
HETATM   16  C25 UNL     1       3.598  12.785  18.723  1.00  0.00     0.020 C 
HETATM   17  C26 UNL     1       3.467  12.902  20.267  1.00  0.00    -0.016 C 
HETATM   18  C27 UNL     1       2.290  13.866  20.588  1.00  0.00     0.020 C 
HETATM   19  C28 UNL     1       4.784  13.527  20.904  1.00  0.00     0.002 C 
HETATM   20  C29 UNL     1       6.113  13.282  20.176  1.00  0.00     0.007 C 
HETATM   21  C30 UNL     1       7.247  14.200  20.674  1.00  0.00     0.014 C 
HETATM   22  C31 UNL     1       7.153  14.658  22.163  1.00  0.00     0.003 C 
HETATM   23  C32 UNL     1       6.538  16.072  22.227  1.00  0.00     0.020 C 
ENDROOT
BRANCH   3  24
HETATM   24  O1  UNL     1       9.566  15.141  22.011  1.00  0.00    -0.377 OA
HETATM   25  H2  UNL     1      10.394  15.136  22.521  1.00  0.00     0.211 HD
ENDBRANCH   3  24
BRANCH  13  26
HETATM   26  O2  UNL     1       1.430   9.975  16.721  1.00  0.00    -0.271 OA
BRANCH  26  27
HETATM   27  C13 UNL     1       0.746   8.872  16.138  1.00  0.00     0.303 C 
BRANCH  27  28
HETATM   28  C14 UNL     1       1.296   8.580  14.745  1.00  0.00     0.244 C 
HETATM   29  O3  UNL     1       1.567   9.471  13.943  1.00  0.00    -0.271 OA
HETATM   30  N2  UNL     1       1.419   7.236  14.446  1.00  0.00    -0.346 N 
HETATM   31  H16 UNL     1       0.852   6.622  15.025  1.00  0.00     0.163 HD
BRANCH  30  32
HETATM   32  C15 UNL     1       1.676   6.796  13.081  1.00  0.00     0.180 C 
BRANCH  32  33
HETATM   33  C16 UNL     1       2.902   7.566  12.536  1.00  0.00     0.241 C 
HETATM   34  O4  UNL     1       2.877   8.192  11.477  1.00  0.00    -0.271 OA
HETATM   35  N3  UNL     1       4.042   7.438  13.308  1.00  0.00    -0.344 N 
HETATM   36  H18 UNL     1       3.866   7.277  14.295  1.00  0.00     0.163 HD
BRANCH  35  37
HETATM   37  C17 UNL     1       5.216   8.286  13.033  1.00  0.00     0.192 C 
BRANCH  37  38
HETATM   38  C18 UNL     1       5.732   8.002  11.630  1.00  0.00     0.146 C 
BRANCH  38  39
HETATM   39  C19 UNL     1       6.560   6.752  11.567  1.00  0.00     0.141 C 
HETATM   40  O5  UNL     1       7.778   6.713  11.565  1.00  0.00    -0.650 OA
BRANCH  39  41
HETATM   41  O6  UNL     1       5.833   5.622  11.593  1.00  0.00    -0.776 OA
HETATM   42  H22 UNL     1       6.499   4.903  11.541  1.00  0.00     0.167 HD
ENDBRANCH  39  41
ENDBRANCH  38  39
ENDBRANCH  37  38
BRANCH  37  43
HETATM   43  C20 UNL     1       6.322   7.980  14.051  1.00  0.00     0.164 C 
HETATM   44  O7  UNL     1       7.213   8.739  14.401  1.00  0.00    -0.648 OA
BRANCH  43  45
HETATM   45  O8  UNL     1       6.305   6.703  14.499  1.00  0.00    -0.775 OA
HETATM   46  H23 UNL     1       7.038   6.664  15.151  1.00  0.00     0.167 HD
ENDBRANCH  43  45
ENDBRANCH  37  43
ENDBRANCH  35  37
ENDBRANCH  32  33
BRANCH  32  47
HETATM   47  C21 UNL     1       0.450   6.974  12.157  1.00  0.00     0.009 C 
HETATM   48  C22 UNL     1       0.336   5.806  11.173  1.00  0.00     0.012 C 
HETATM   49  C23 UNL     1      -0.870   7.141  12.920  1.00  0.00     0.012 C 
ENDBRANCH  32  47
ENDBRANCH  30  32
ENDBRANCH  27  28
ENDBRANCH  26  27
ENDBRANCH  13  26
TORSDOF 13
ENDMDL
MODEL 7
REMARK minimizedAffinity -8.01812458
REMARK CNNscore 0.188050434
REMARK CNNaffinity 5.01710558
REMARK  13 active torsions:
REMARK  status: ('A' for Active; 'I' for Inactive)
REMARK    1  A    between atoms: C3_3  and  O1_4 
REMARK    2  A    between atoms: N1_14  and  O2_16 
REMARK    3  A    between atoms: O2_16  and  C13_17 
REMARK    4  A    between atoms: C13_17  and  C14_18 
REMARK       I    between atoms: C14_18  and  N2_20 
REMARK    5  A    between atoms: N2_20  and  C15_21 
REMARK    6  A    between atoms: C15_21  and  C16_22 
REMARK    7  A    between atoms: C15_21  and  C21_33 
REMARK       I    between atoms: C16_22  and  N3_24 
REMARK    8  A    between atoms: N3_24  and  C17_25 
REMARK    9  A    between atoms: C17_25  and  C18_26 
REMARK   10  A    between atoms: C17_25  and  C20_30 
REMARK   11  A    between atoms: C18_26  and  C19_27 
REMARK   12  A    between atoms: C19_27  and  O6_29 
REMARK   13  A    between atoms: C20_30  and  O8_32 
ROOT
HETATM    1  C1  UNL     1       1.317   7.991   9.251  1.00  0.00     0.015 C 
HETATM    2  C2  UNL     1       2.051   7.606  10.123  1.00  0.00    -0.078 C 
HETATM    3  C3  UNL     1       2.955   7.124  11.193  1.00  0.00     0.128 C 
HETATM    4  C4  UNL     1       4.219   6.521  10.563  1.00  0.00     0.052 C 
HETATM    5  C5  UNL     1       5.285   7.624  10.610  1.00  0.00     0.010 C 
HETATM    6  C6  UNL     1       4.613   8.874  11.227  1.00  0.00     0.002 C 
HETATM    7  C7  UNL     1       5.548   9.905  11.925  1.00  0.00    -0.004 C 
HETATM    8  C8  UNL     1       6.957   9.884  11.307  1.00  0.00     0.010 C 
HETATM    9  C9  UNL     1       7.862  10.946  11.897  1.00  0.00     0.035 C 
HETATM   10  C10 UNL     1       7.995  10.759  13.384  1.00  0.00    -0.069 C 
HETATM   11  C11 UNL     1       9.218  10.742  13.943  1.00  0.00     0.030 C 
HETATM   12  C12 UNL     1       9.412  10.756  15.417  1.00  0.00     0.032 C 
HETATM   13  N1  UNL     1      10.633  10.756  15.870  1.00  0.00    -0.271 N 
ATOM     14  H1  UNL     1      11.464  10.707  15.281  1.00  0.00     0.194 HD
HETATM   15  C24 UNL     1       8.175  10.848  16.289  1.00  0.00     0.060 C 
HETATM   16  C25 UNL     1       7.002  10.154  15.610  1.00  0.00     0.020 C 
HETATM   17  C26 UNL     1       6.695  10.680  14.180  1.00  0.00    -0.016 C 
HETATM   18  C27 UNL     1       6.155  12.134  14.297  1.00  0.00     0.020 C 
HETATM   19  C28 UNL     1       5.566   9.806  13.481  1.00  0.00     0.002 C 
HETATM   20  C29 UNL     1       5.452   8.330  13.890  1.00  0.00     0.007 C 
HETATM   21  C30 UNL     1       4.135   7.679  13.422  1.00  0.00     0.014 C 
HETATM   22  C31 UNL     1       3.510   8.261  12.116  1.00  0.00     0.003 C 
HETATM   23  C32 UNL     1       2.400   9.269  12.484  1.00  0.00     0.020 C 
ENDROOT
BRANCH   3  24
HETATM   24  O1  UNL     1       2.260   6.143  11.949  1.00  0.00    -0.377 OA
HETATM   25  H2  UNL     1       1.901   5.499  11.314  1.00  0.00     0.211 HD
ENDBRANCH   3  24
BRANCH  13  26
HETATM   26  O2  UNL     1      10.661  10.831  17.269  1.00  0.00    -0.271 OA
BRANCH  26  27
HETATM   27  C13 UNL     1      11.000  12.159  17.654  1.00  0.00     0.303 C 
BRANCH  27  28
HETATM   28  C14 UNL     1      12.473  12.437  17.369  1.00  0.00     0.244 C 
HETATM   29  O3  UNL     1      12.887  13.553  17.064  1.00  0.00    -0.271 OA
HETATM   30  N2  UNL     1      13.291  11.324  17.436  1.00  0.00    -0.346 N 
HETATM   31  H16 UNL     1      12.803  10.437  17.345  1.00  0.00     0.163 HD
BRANCH  30  32
HETATM   32  C15 UNL     1      14.659  11.373  16.937  1.00  0.00     0.180 C 
BRANCH  32  33
HETATM   33  C16 UNL     1      15.418  12.495  17.686  1.00  0.00     0.241 C 
HETATM   34  O4  UNL     1      15.532  13.634  17.236  1.00  0.00    -0.271 OA
HETATM   35  N3  UNL     1      16.007  12.089  18.869  1.00  0.00    -0.344 N 
HETATM   36  H18 UNL     1      15.537  11.317  19.330  1.00  0.00     0.163 HD
BRANCH  35  37
HETATM   37  C17 UNL     1      16.572  13.092  19.790  1.00  0.00     0.192 C 
BRANCH  37  38
HETATM   38  C18 UNL     1      18.034  12.768  20.060  1.00  0.00     0.146 C 
BRANCH  38  39
HETATM   39  C19 UNL     1      18.603  11.809  19.057  1.00  0.00     0.141 C 
HETATM   40  O5  UNL     1      19.278  12.117  18.090  1.00  0.00    -0.650 OA
BRANCH  39  41
HETATM   41  O6  UNL     1      18.372  10.519  19.353  1.00  0.00    -0.776 OA
HETATM   42  H22 UNL     1      18.790  10.021  18.618  1.00  0.00     0.167 HD
ENDBRANCH  39  41
ENDBRANCH  38  39
ENDBRANCH  37  38
BRANCH  37  43
HETATM   43  C20 UNL     1      15.796  13.070  21.114  1.00  0.00     0.164 C 
HETATM   44  O7  UNL     1      14.879  12.316  21.402  1.00  0.00    -0.648 OA
BRANCH  43  45
HETATM   45  O8  UNL     1      16.151  14.062  21.964  1.00  0.00    -0.775 OA
HETATM   46  H23 UNL     1      15.601  13.905  22.763  1.00  0.00     0.167 HD
ENDBRANCH  43  45
ENDBRANCH  37  43
ENDBRANCH  35  37
ENDBRANCH  32  33
BRANCH  32  47
HETATM   47  C21 UNL     1      14.729  11.578  15.407  1.00  0.00     0.009 C 
HETATM   48  C22 UNL     1      16.134  11.272  14.881  1.00  0.00     0.012 C 
HETATM   49  C23 UNL     1      13.694  10.752  14.633  1.00  0.00     0.012 C 
ENDBRANCH  32  47
ENDBRANCH  30  32
ENDBRANCH  27  28
ENDBRANCH  26  27
ENDBRANCH  13  26
TORSDOF 13
ENDMDL
MODEL 8
REMARK minimizedAffinity -7.52998114
REMARK CNNscore 0.18688789
REMARK CNNaffinity 6.64088011
REMARK  13 active torsions:
REMARK  status: ('A' for Active; 'I' for Inactive)
REMARK    1  A    between atoms: C3_3  and  O1_4 
REMARK    2  A    between atoms: N1_14  and  O2_16 
REMARK    3  A    between atoms: O2_16  and  C13_17 
REMARK    4  A    between atoms: C13_17  and  C14_18 
REMARK       I    between atoms: C14_18  and  N2_20 
REMARK    5  A    between atoms: N2_20  and  C15_21 
REMARK    6  A    between atoms: C15_21  and  C16_22 
REMARK    7  A    between atoms: C15_21  and  C21_33 
REMARK       I    between atoms: C16_22  and  N3_24 
REMARK    8  A    between atoms: N3_24  and  C17_25 
REMARK    9  A    between atoms: C17_25  and  C18_26 
REMARK   10  A    between atoms: C17_25  and  C20_30 
REMARK   11  A    between atoms: C18_26  and  C19_27 
REMARK   12  A    between atoms: C19_27  and  O6_29 
REMARK   13  A    between atoms: C20_30  and  O8_32 
ROOT
HETATM    1  C1  UNL     1       2.083   7.023  13.920  1.00  0.00     0.015 C 
HETATM    2  C2  UNL     1       1.087   7.582  13.544  1.00  0.00    -0.078 C 
HETATM    3  C3  UNL     1      -0.136   8.273  13.072  1.00  0.00     0.128 C 
HETATM    4  C4  UNL     1      -0.493   7.778  11.662  1.00  0.00     0.052 C 
HETATM    5  C5  UNL     1      -1.569   6.700  11.850  1.00  0.00     0.010 C 
HETATM    6  C6  UNL     1      -1.793   6.549  13.374  1.00  0.00     0.002 C 
HETATM    7  C7  UNL     1      -3.176   5.999  13.832  1.00  0.00    -0.004 C 
HETATM    8  C8  UNL     1      -3.791   5.081  12.761  1.00  0.00     0.010 C 
HETATM    9  C9  UNL     1      -5.090   4.450  13.218  1.00  0.00     0.035 C 
HETATM   10  C10 UNL     1      -6.098   5.512  13.565  1.00  0.00    -0.069 C 
HETATM   11  C11 UNL     1      -7.338   5.443  13.049  1.00  0.00     0.030 C 
HETATM   12  C12 UNL     1      -8.432   6.344  13.502  1.00  0.00     0.032 C 
HETATM   13  N1  UNL     1      -9.606   6.195  12.958  1.00  0.00    -0.271 N 
ATOM     14  H1  UNL     1      -9.815   5.527  12.216  1.00  0.00     0.194 HD
HETATM   15  C24 UNL     1      -8.123   7.321  14.618  1.00  0.00     0.060 C 
HETATM   16  C25 UNL     1      -6.664   7.752  14.549  1.00  0.00     0.020 C 
HETATM   17  C26 UNL     1      -5.652   6.573  14.568  1.00  0.00    -0.016 C 
HETATM   18  C27 UNL     1      -5.701   5.907  15.973  1.00  0.00     0.020 C 
HETATM   19  C28 UNL     1      -4.167   7.092  14.336  1.00  0.00     0.002 C 
HETATM   20  C29 UNL     1      -3.980   8.363  13.495  1.00  0.00     0.007 C 
HETATM   21  C30 UNL     1      -2.564   8.960  13.620  1.00  0.00     0.014 C 
HETATM   22  C31 UNL     1      -1.416   7.945  13.912  1.00  0.00     0.003 C 
HETATM   23  C32 UNL     1      -1.103   7.946  15.424  1.00  0.00     0.020 C 
ENDROOT
BRANCH   3  24
HETATM   24  O1  UNL     1       0.124   9.669  13.057  1.00  0.00    -0.377 OA
HETATM   25  H2  UNL     1       0.953   9.797  12.564  1.00  0.00     0.211 HD
ENDBRANCH   3  24
BRANCH  13  26
HETATM   26  O2  UNL     1     -10.547   7.066  13.523  1.00  0.00    -0.271 OA
BRANCH  26  27
HETATM   27  C13 UNL     1     -11.333   7.636  12.482  1.00  0.00     0.303 C 
BRANCH  27  28
HETATM   28  C14 UNL     1     -12.688   8.082  13.022  1.00  0.00     0.244 C 
HETATM   29  O3  UNL     1     -13.420   8.856  12.409  1.00  0.00    -0.271 OA
HETATM   30  N2  UNL     1     -13.002   7.582  14.272  1.00  0.00    -0.346 N 
HETATM   31  H16 UNL     1     -12.202   7.259  14.809  1.00  0.00     0.163 HD
BRANCH  30  32
HETATM   32  C15 UNL     1     -14.125   8.117  15.029  1.00  0.00     0.180 C 
BRANCH  32  33
HETATM   33  C16 UNL     1     -13.595   9.191  16.009  1.00  0.00     0.241 C 
HETATM   34  O4  UNL     1     -13.276  10.322  15.646  1.00  0.00    -0.271 OA
HETATM   35  N3  UNL     1     -13.450   8.749  17.311  1.00  0.00    -0.344 N 
HETATM   36  H18 UNL     1     -14.088   8.005  17.576  1.00  0.00     0.163 HD
BRANCH  35  37
HETATM   37  C17 UNL     1     -13.166   9.715  18.388  1.00  0.00     0.192 C 
BRANCH  37  38
HETATM   38  C18 UNL     1     -12.576   8.983  19.585  1.00  0.00     0.146 C 
BRANCH  38  39
HETATM   39  C19 UNL     1     -11.562   9.810  20.319  1.00  0.00     0.141 C 
HETATM   40  O5  UNL     1     -10.879   9.424  21.253  1.00  0.00    -0.650 OA
BRANCH  39  41
HETATM   41  O6  UNL     1     -11.392  11.038  19.802  1.00  0.00    -0.776 OA
HETATM   42  H22 UNL     1     -10.716  11.455  20.380  1.00  0.00     0.167 HD
ENDBRANCH  39  41
ENDBRANCH  38  39
ENDBRANCH  37  38
BRANCH  37  43
HETATM   43  C20 UNL     1     -14.466  10.412  18.811  1.00  0.00     0.164 C 
HETATM   44  O7  UNL     1     -15.559   9.885  18.942  1.00  0.00    -0.648 OA
BRANCH  43  45
HETATM   45  O8  UNL     1     -14.338  11.753  18.950  1.00  0.00    -0.775 OA
HETATM   46  H23 UNL     1     -15.225  12.052  19.245  1.00  0.00     0.167 HD
ENDBRANCH  43  45
ENDBRANCH  37  43
ENDBRANCH  35  37
ENDBRANCH  32  33
BRANCH  32  47
HETATM   47  C21 UNL     1     -14.917   7.021  15.777  1.00  0.00     0.009 C 
HETATM   48  C22 UNL     1     -16.376   7.443  15.977  1.00  0.00     0.012 C 
HETATM   49  C23 UNL     1     -14.862   5.652  15.089  1.00  0.00     0.012 C 
ENDBRANCH  32  47
ENDBRANCH  30  32
ENDBRANCH  27  28
ENDBRANCH  26  27
ENDBRANCH  13  26
TORSDOF 13
ENDMDL
MODEL 9
REMARK minimizedAffinity -7.63230324
REMARK CNNscore 0.174813956
REMARK CNNaffinity 6.94067812
REMARK  13 active torsions:
REMARK  status: ('A' for Active; 'I' for Inactive)
REMARK    1  A    between atoms: C3_3  and  O1_4 
REMARK    2  A    between atoms: N1_14  and  O2_16 
REMARK    3  A    between atoms: O2_16  and  C13_17 
REMARK    4  A    between atoms: C13_17  and  C14_18 
REMARK       I    between atoms: C14_18  and  N2_20 
REMARK    5  A    between atoms: N2_20  and  C15_21 
REMARK    6  A    between atoms: C15_21  and  C16_22 
REMARK    7  A    between atoms: C15_21  and  C21_33 
REMARK       I    between atoms: C16_22  and  N3_24 
REMARK    8  A    between atoms: N3_24  and  C17_25 
REMARK    9  A    between atoms: C17_25  and  C18_26 
REMARK   10  A    between atoms: C17_25  and  C20_30 
REMARK   11  A    between atoms: C18_26  and  C19_27 
REMARK   12  A    between atoms: C19_27  and  O6_29 
REMARK   13  A    between atoms: C20_30  and  O8_32 
ROOT
HETATM    1  C1  UNL     1       1.159   7.572  15.235  1.00  0.00     0.015 C 
HETATM    2  C2  UNL     1       0.160   8.164  14.922  1.00  0.00    -0.078 C 
HETATM    3  C3  UNL     1      -1.066   8.897  14.530  1.00  0.00     0.128 C 
HETATM    4  C4  UNL     1      -1.288   8.755  13.017  1.00  0.00     0.052 C 
HETATM    5  C5  UNL     1      -2.303   7.618  12.841  1.00  0.00     0.010 C 
HETATM    6  C6  UNL     1      -2.628   7.082  14.255  1.00  0.00     0.002 C 
HETATM    7  C7  UNL     1      -4.003   6.376  14.443  1.00  0.00    -0.004 C 
HETATM    8  C8  UNL     1      -4.479   5.728  13.130  1.00  0.00     0.010 C 
HETATM    9  C9  UNL     1      -5.765   4.948  13.304  1.00  0.00     0.035 C 
HETATM   10  C10 UNL     1      -6.862   5.844  13.813  1.00  0.00    -0.069 C 
HETATM   11  C11 UNL     1      -8.054   5.853  13.190  1.00  0.00     0.030 C 
HETATM   12  C12 UNL     1      -9.232   6.564  13.754  1.00  0.00     0.032 C 
HETATM   13  N1  UNL     1     -10.352   6.504  13.091  1.00  0.00    -0.271 N 
ATOM     14  H1  UNL     1     -10.463   6.035  12.192  1.00  0.00     0.194 HD
HETATM   15  C24 UNL     1      -9.068   7.244  15.099  1.00  0.00     0.060 C 
HETATM   16  C25 UNL     1      -7.639   7.741  15.264  1.00  0.00     0.020 C 
HETATM   17  C26 UNL     1      -6.558   6.639  15.080  1.00  0.00    -0.016 C 
HETATM   18  C27 UNL     1      -6.667   5.643  16.269  1.00  0.00     0.020 C 
HETATM   19  C28 UNL     1      -5.096   7.264  15.112  1.00  0.00     0.002 C 
HETATM   20  C29 UNL     1      -4.929   8.711  14.629  1.00  0.00     0.007 C 
HETATM   21  C30 UNL     1      -3.567   9.320  15.018  1.00  0.00     0.014 C 
HETATM   22  C31 UNL     1      -2.381   8.314  15.150  1.00  0.00     0.003 C 
HETATM   23  C32 UNL     1      -2.180   7.951  16.637  1.00  0.00     0.020 C 
ENDROOT
BRANCH   3  24
HETATM   24  O1  UNL     1      -0.895  10.263  14.881  1.00  0.00    -0.377 OA
HETATM   25  H2  UNL     1      -0.042  10.545  14.508  1.00  0.00     0.211 HD
ENDBRANCH   3  24
BRANCH  13  26
HETATM   26  O2  UNL     1     -11.384   7.165  13.769  1.00  0.00    -0.271 OA
BRANCH  26  27
HETATM   27  C13 UNL     1     -11.855   8.239  12.961  1.00  0.00     0.303 C 
BRANCH  27  28
HETATM   28  C14 UNL     1     -13.186   8.761  13.493  1.00  0.00     0.244 C 
HETATM   29  O3  UNL     1     -13.301   9.872  14.006  1.00  0.00    -0.271 OA
HETATM   30  N2  UNL     1     -14.236   7.867  13.394  1.00  0.00    -0.346 N 
HETATM   31  H16 UNL     1     -13.953   6.897  13.289  1.00  0.00     0.163 HD
BRANCH  30  32
HETATM   32  C15 UNL     1     -15.493   8.112  14.088  1.00  0.00     0.180 C 
BRANCH  32  33
HETATM   33  C16 UNL     1     -15.785   6.911  15.019  1.00  0.00     0.241 C 
HETATM   34  O4  UNL     1     -15.920   7.031  16.236  1.00  0.00    -0.271 OA
HETATM   35  N3  UNL     1     -15.820   5.689  14.374  1.00  0.00    -0.344 N 
HETATM   36  H18 UNL     1     -16.104   5.734  13.401  1.00  0.00     0.163 HD
BRANCH  35  37
HETATM   37  C17 UNL     1     -16.301   4.493  15.090  1.00  0.00     0.192 C 
BRANCH  37  38
HETATM   38  C18 UNL     1     -15.807   3.242  14.380  1.00  0.00     0.146 C 
BRANCH  38  39
HETATM   39  C19 UNL     1     -15.483   2.131  15.335  1.00  0.00     0.141 C 
HETATM   40  O5  UNL     1     -16.236   1.691  16.187  1.00  0.00    -0.650 OA
BRANCH  39  41
HETATM   41  O6  UNL     1     -14.277   1.576  15.128  1.00  0.00    -0.776 OA
HETATM   42  H22 UNL     1     -14.205   0.883  15.819  1.00  0.00     0.167 HD
ENDBRANCH  39  41
ENDBRANCH  38  39
ENDBRANCH  37  38
BRANCH  37  43
HETATM   43  C20 UNL     1     -17.835   4.490  15.113  1.00  0.00     0.164 C 
HETATM   44  O7  UNL     1     -18.551   5.276  15.713  1.00  0.00    -0.648 OA
BRANCH  43  45
HETATM   45  O8  UNL     1     -18.382   3.437  14.460  1.00  0.00    -0.775 OA
HETATM   46  H23 UNL     1     -19.351   3.582  14.534  1.00  0.00     0.167 HD
ENDBRANCH  43  45
ENDBRANCH  37  43
ENDBRANCH  35  37
ENDBRANCH  32  33
BRANCH  32  47
HETATM   47  C21 UNL     1     -16.669   8.368  13.119  1.00  0.00     0.009 C 
HETATM   48  C22 UNL     1     -16.495   7.563  11.828  1.00  0.00     0.012 C 
HETATM   49  C23 UNL     1     -18.042   8.070  13.735  1.00  0.00     0.012 C 
ENDBRANCH  32  47
ENDBRANCH  30  32
ENDBRANCH  27  28
ENDBRANCH  26  27
ENDBRANCH  13  26
TORSDOF 13
ENDMDL
