MODEL 1
REMARK minimizedAffinity -7.99324942
REMARK  9 active torsions:
REMARK  status: ('A' for Active; 'I' for Inactive)
REMARK    1  A    between atoms: O1_2  and  C2_3 
REMARK    2  A    between atoms: C2_3  and  C3_4 
REMARK    3  A    between atoms: C3_4  and  N1_5 
REMARK       I    between atoms: N1_5  and  C4_6 
REMARK    4  A    between atoms: C4_6  and  C5_8 
REMARK    5  A    between atoms: C5_8  and  C7_10 
REMARK    6  A    between atoms: C14_17  and  N2_18 
REMARK       I    between atoms: N2_18  and  C15_19 
REMARK    7  A    between atoms: C15_19  and  C16_21 
REMARK    8  A    between atoms: C16_21  and  O4_22 
REMARK    9  A    between atoms: C21_27  and  O5_28 
ROOT
HETATM    1  C7  UNL     1      -0.399   4.442  11.400  1.00  0.00     0.027 C 
HETATM    2  C8  UNL     1      -0.432   2.934  11.680  1.00  0.00     0.009 C 
HETATM    3  C9  UNL     1      -1.713   2.279  11.152  1.00  0.00     0.010 C 
HETATM    4  C10 UNL     1      -2.992   3.162  11.236  1.00  0.00    -0.037 C 
HETATM    5  C11 UNL     1      -3.268   3.796   9.849  1.00  0.00     0.015 C 
HETATM    6  C12 UNL     1      -4.184   2.237  11.592  1.00  0.00     0.011 C 
HETATM    7  C13 UNL     1      -5.486   2.992  11.824  1.00  0.00     0.026 C 
HETATM    8  C14 UNL     1      -5.340   4.095  12.877  1.00  0.00     0.088 C 
HETATM    9  C18 UNL     1      -4.146   5.046  12.589  1.00  0.00     0.012 C 
HETATM   10  C19 UNL     1      -4.016   6.068  13.731  1.00  0.00     0.012 C 
HETATM   11  C20 UNL     1      -2.830   4.230  12.356  1.00  0.00     0.028 C 
HETATM   12  C21 UNL     1      -1.569   5.124  12.161  1.00  0.00     0.128 C 
ENDROOT
BRANCH   1  13
HETATM   13  C5  UNL     1       0.997   5.057  11.707  1.00  0.00     0.080 C 
HETATM   14  C6  UNL     1       0.905   6.397  12.445  1.00  0.00     0.020 C 
BRANCH  13  15
HETATM   15  C4  UNL     1       1.832   5.252  10.439  1.00  0.00     0.222 C 
HETATM   16  N1  UNL     1       2.914   4.412  10.306  1.00  0.00    -0.359 N 
HETATM   17  H8  UNL     1       3.115   3.728  11.023  1.00  0.00     0.162 HD
HETATM   18  O2  UNL     1       1.544   6.098   9.598  1.00  0.00    -0.273 OA
BRANCH  16  19
HETATM   19  C3  UNL     1       3.823   4.508   9.180  1.00  0.00     0.148 C 
BRANCH  19  20
HETATM   20  C2  UNL     1       4.652   3.244   8.954  1.00  0.00     0.186 C 
BRANCH  20  21
HETATM   21  O1  UNL     1       4.897   3.095   7.552  1.00  0.00    -0.394 OA
HETATM   22  C1  UNL     1       3.917   3.778   6.780  1.00  0.00     0.201 C 
ENDBRANCH  20  21
ENDBRANCH  19  20
ENDBRANCH  16  19
ENDBRANCH  13  15
ENDBRANCH   1  13
BRANCH  12  23
HETATM   23  O5  UNL     1      -1.103   5.476  13.467  1.00  0.00    -0.395 OA
HETATM   24  H38 UNL     1      -1.248   6.429  13.598  1.00  0.00     0.210 HD
ENDBRANCH  12  23
BRANCH   8  25
HETATM   25  N2  UNL     1      -6.591   4.839  12.960  1.00  0.00    -0.354 N 
HETATM   26  C15 UNL     1      -7.791   4.247  13.293  1.00  0.00     0.241 C 
HETATM   27  O3  UNL     1      -7.904   3.088  13.678  1.00  0.00    -0.271 OA
HETATM   28  H26 UNL     1      -6.678   5.736  12.488  1.00  0.00     0.162 HD
BRANCH  26  29
HETATM   29  C16 UNL     1      -8.991   5.189  13.162  1.00  0.00     0.269 C 
BRANCH  29  30
HETATM   30  O4  UNL     1      -8.771   6.427  13.844  1.00  0.00    -0.387 OA
HETATM   31  C17 UNL     1      -9.997   7.104  14.089  1.00  0.00     0.202 C 
ENDBRANCH  29  30
ENDBRANCH  26  29
ENDBRANCH   8  25
TORSDOF 9
ENDMDL
MODEL 2
REMARK minimizedAffinity -7.87055588
REMARK  9 active torsions:
REMARK  status: ('A' for Active; 'I' for Inactive)
REMARK    1  A    between atoms: O1_2  and  C2_3 
REMARK    2  A    between atoms: C2_3  and  C3_4 
REMARK    3  A    between atoms: C3_4  and  N1_5 
REMARK       I    between atoms: N1_5  and  C4_6 
REMARK    4  A    between atoms: C4_6  and  C5_8 
REMARK    5  A    between atoms: C5_8  and  C7_10 
REMARK    6  A    between atoms: C14_17  and  N2_18 
REMARK       I    between atoms: N2_18  and  C15_19 
REMARK    7  A    between atoms: C15_19  and  C16_21 
REMARK    8  A    between atoms: C16_21  and  O4_22 
REMARK    9  A    between atoms: C21_27  and  O5_28 
ROOT
HETATM    1  C7  UNL     1      -0.347   4.486  11.465  1.00  0.00     0.027 C 
HETATM    2  C8  UNL     1      -0.379   2.976  11.733  1.00  0.00     0.009 C 
HETATM    3  C9  UNL     1      -1.651   2.321  11.184  1.00  0.00     0.010 C 
HETATM    4  C10 UNL     1      -2.934   3.200  11.259  1.00  0.00    -0.037 C 
HETATM    5  C11 UNL     1      -3.195   3.844   9.874  1.00  0.00     0.015 C 
HETATM    6  C12 UNL     1      -4.128   2.268  11.593  1.00  0.00     0.011 C 
HETATM    7  C13 UNL     1      -5.435   3.017  11.815  1.00  0.00     0.026 C 
HETATM    8  C14 UNL     1      -5.306   4.112  12.879  1.00  0.00     0.088 C 
HETATM    9  C18 UNL     1      -4.111   5.069  12.613  1.00  0.00     0.012 C 
HETATM   10  C19 UNL     1      -3.998   6.083  13.764  1.00  0.00     0.012 C 
HETATM   11  C20 UNL     1      -2.789   4.259  12.390  1.00  0.00     0.028 C 
HETATM   12  C21 UNL     1      -1.529   5.159  12.218  1.00  0.00     0.128 C 
ENDROOT
BRANCH   1  13
HETATM   13  C5  UNL     1       1.043   5.103  11.795  1.00  0.00     0.080 C 
HETATM   14  C6  UNL     1       0.939   6.498  12.422  1.00  0.00     0.020 C 
BRANCH  13  15
HETATM   15  C4  UNL     1       1.942   5.187  10.560  1.00  0.00     0.222 C 
HETATM   16  N1  UNL     1       1.982   6.413   9.936  1.00  0.00    -0.359 N 
HETATM   17  H8  UNL     1       1.434   7.183  10.297  1.00  0.00     0.162 HD
HETATM   18  O2  UNL     1       2.589   4.222  10.163  1.00  0.00    -0.273 OA
BRANCH  16  19
HETATM   19  C3  UNL     1       2.755   6.633   8.728  1.00  0.00     0.148 C 
BRANCH  19  20
HETATM   20  C2  UNL     1       2.347   7.891   7.961  1.00  0.00     0.186 C 
BRANCH  20  21
HETATM   21  O1  UNL     1       1.413   8.632   8.753  1.00  0.00    -0.394 OA
HETATM   22  C1  UNL     1       0.073   8.368   8.356  1.00  0.00     0.201 C 
ENDBRANCH  20  21
ENDBRANCH  19  20
ENDBRANCH  16  19
ENDBRANCH  13  15
ENDBRANCH   1  13
BRANCH  12  23
HETATM   23  O5  UNL     1      -1.081   5.502  13.532  1.00  0.00    -0.395 OA
HETATM   24  H38 UNL     1      -1.230   6.453  13.668  1.00  0.00     0.210 HD
ENDBRANCH  12  23
BRANCH   8  25
HETATM   25  N2  UNL     1      -6.559   4.852  12.952  1.00  0.00    -0.354 N 
HETATM   26  C15 UNL     1      -7.763   4.253  13.261  1.00  0.00     0.241 C 
HETATM   27  O3  UNL     1      -7.877   3.088  13.630  1.00  0.00    -0.271 OA
HETATM   28  H26 UNL     1      -6.642   5.754  12.490  1.00  0.00     0.162 HD
BRANCH  26  29
HETATM   29  C16 UNL     1      -8.963   5.193  13.123  1.00  0.00     0.269 C 
BRANCH  29  30
HETATM   30  O4  UNL     1      -8.863   6.314  14.005  1.00  0.00    -0.387 OA
HETATM   31  C17 UNL     1     -10.074   7.059  14.028  1.00  0.00     0.202 C 
ENDBRANCH  29  30
ENDBRANCH  26  29
ENDBRANCH   8  25
TORSDOF 9
ENDMDL
MODEL 3
REMARK minimizedAffinity -7.78376484
REMARK  9 active torsions:
REMARK  status: ('A' for Active; 'I' for Inactive)
REMARK    1  A    between atoms: O1_2  and  C2_3 
REMARK    2  A    between atoms: C2_3  and  C3_4 
REMARK    3  A    between atoms: C3_4  and  N1_5 
REMARK       I    between atoms: N1_5  and  C4_6 
REMARK    4  A    between atoms: C4_6  and  C5_8 
REMARK    5  A    between atoms: C5_8  and  C7_10 
REMARK    6  A    between atoms: C14_17  and  N2_18 
REMARK       I    between atoms: N2_18  and  C15_19 
REMARK    7  A    between atoms: C15_19  and  C16_21 
REMARK    8  A    between atoms: C16_21  and  O4_22 
REMARK    9  A    between atoms: C21_27  and  O5_28 
ROOT
HETATM    1  C7  UNL     1      -2.680   3.704  11.385  1.00  0.00     0.027 C 
HETATM    2  C8  UNL     1      -2.870   2.218  11.715  1.00  0.00     0.009 C 
HETATM    3  C9  UNL     1      -4.302   1.746  11.443  1.00  0.00     0.010 C 
HETATM    4  C10 UNL     1      -5.412   2.802  11.723  1.00  0.00    -0.037 C 
HETATM    5  C11 UNL     1      -5.842   3.458  10.387  1.00  0.00     0.015 C 
HETATM    6  C12 UNL     1      -6.636   2.056  12.314  1.00  0.00     0.011 C 
HETATM    7  C13 UNL     1      -7.759   2.989  12.748  1.00  0.00     0.026 C 
HETATM    8  C14 UNL     1      -7.276   4.068  13.723  1.00  0.00     0.088 C 
HETATM    9  C18 UNL     1      -6.034   4.839  13.198  1.00  0.00     0.012 C 
HETATM   10  C19 UNL     1      -5.562   5.841  14.265  1.00  0.00     0.012 C 
HETATM   11  C20 UNL     1      -4.906   3.843  12.762  1.00  0.00     0.028 C 
HETATM   12  C21 UNL     1      -3.590   4.550  12.319  1.00  0.00     0.128 C 
ENDROOT
BRANCH   1  13
HETATM   13  C5  UNL     1      -1.181   4.118  11.420  1.00  0.00     0.080 C 
HETATM   14  C6  UNL     1      -0.246   2.939  11.711  1.00  0.00     0.020 C 
BRANCH  13  15
HETATM   15  C4  UNL     1      -0.913   5.221  12.447  1.00  0.00     0.222 C 
HETATM   16  N1  UNL     1      -1.183   6.503  12.025  1.00  0.00    -0.359 N 
HETATM   17  H8  UNL     1      -1.529   6.665  11.090  1.00  0.00     0.162 HD
HETATM   18  O2  UNL     1      -0.492   4.969  13.572  1.00  0.00    -0.273 OA
BRANCH  16  19
HETATM   19  C3  UNL     1      -0.936   7.654  12.872  1.00  0.00     0.148 C 
BRANCH  19  20
HETATM   20  C2  UNL     1      -0.884   8.976  12.106  1.00  0.00     0.186 C 
BRANCH  20  21
HETATM   21  O1  UNL     1      -1.648   9.954  12.818  1.00  0.00    -0.394 OA
HETATM   22  C1  UNL     1      -1.518   9.789  14.224  1.00  0.00     0.201 C 
ENDBRANCH  20  21
ENDBRANCH  19  20
ENDBRANCH  16  19
ENDBRANCH  13  15
ENDBRANCH   1  13
BRANCH  12  23
HETATM   23  O5  UNL     1      -2.853   4.842  13.510  1.00  0.00    -0.395 OA
HETATM   24  H38 UNL     1      -2.840   5.806  13.633  1.00  0.00     0.210 HD
ENDBRANCH  12  23
BRANCH   8  25
HETATM   25  N2  UNL     1      -8.377   4.981  14.002  1.00  0.00    -0.354 N 
HETATM   26  C15 UNL     1      -8.962   5.765  13.029  1.00  0.00     0.241 C 
HETATM   27  O3  UNL     1      -8.712   5.675  11.831  1.00  0.00    -0.271 OA
HETATM   28  H26 UNL     1      -8.545   5.294  14.955  1.00  0.00     0.162 HD
BRANCH  26  29
HETATM   29  C16 UNL     1      -9.987   6.758  13.582  1.00  0.00     0.269 C 
BRANCH  29  30
HETATM   30  O4  UNL     1     -10.901   7.195  12.573  1.00  0.00    -0.387 OA
HETATM   31  C17 UNL     1     -12.153   7.563  13.138  1.00  0.00     0.202 C 
ENDBRANCH  29  30
ENDBRANCH  26  29
ENDBRANCH   8  25
TORSDOF 9
ENDMDL
MODEL 4
REMARK minimizedAffinity -7.67014456
REMARK  9 active torsions:
REMARK  status: ('A' for Active; 'I' for Inactive)
REMARK    1  A    between atoms: O1_2  and  C2_3 
REMARK    2  A    between atoms: C2_3  and  C3_4 
REMARK    3  A    between atoms: C3_4  and  N1_5 
REMARK       I    between atoms: N1_5  and  C4_6 
REMARK    4  A    between atoms: C4_6  and  C5_8 
REMARK    5  A    between atoms: C5_8  and  C7_10 
REMARK    6  A    between atoms: C14_17  and  N2_18 
REMARK       I    between atoms: N2_18  and  C15_19 
REMARK    7  A    between atoms: C15_19  and  C16_21 
REMARK    8  A    between atoms: C16_21  and  O4_22 
REMARK    9  A    between atoms: C21_27  and  O5_28 
ROOT
HETATM    1  C7  UNL     1      -8.172   6.086  14.446  1.00  0.00     0.027 C 
HETATM    2  C8  UNL     1      -8.749   6.077  13.024  1.00  0.00     0.009 C 
HETATM    3  C9  UNL     1      -8.442   4.769  12.287  1.00  0.00     0.010 C 
HETATM    4  C10 UNL     1      -7.063   4.128  12.623  1.00  0.00    -0.037 C 
HETATM    5  C11 UNL     1      -7.267   2.987  13.652  1.00  0.00     0.015 C 
HETATM    6  C12 UNL     1      -6.498   3.508  11.318  1.00  0.00     0.011 C 
HETATM    7  C13 UNL     1      -5.091   2.947  11.476  1.00  0.00     0.026 C 
HETATM    8  C14 UNL     1      -4.111   3.982  12.037  1.00  0.00     0.088 C 
HETATM    9  C18 UNL     1      -4.629   4.657  13.336  1.00  0.00     0.012 C 
HETATM   10  C19 UNL     1      -3.632   5.738  13.788  1.00  0.00     0.012 C 
HETATM   11  C20 UNL     1      -6.077   5.219  13.131  1.00  0.00     0.028 C 
HETATM   12  C21 UNL     1      -6.623   6.000  14.364  1.00  0.00     0.128 C 
ENDROOT
BRANCH   1  13
HETATM   13  C5  UNL     1      -8.694   7.296  15.274  1.00  0.00     0.080 C 
HETATM   14  C6  UNL     1      -8.257   7.242  16.742  1.00  0.00     0.020 C 
BRANCH  13  15
HETATM   15  C4  UNL     1     -10.218   7.416  15.220  1.00  0.00     0.222 C 
HETATM   16  N1  UNL     1     -10.872   6.392  14.574  1.00  0.00    -0.359 N 
HETATM   17  H8  UNL     1     -10.345   5.631  14.169  1.00  0.00     0.162 HD
HETATM   18  O2  UNL     1     -10.811   8.363  15.729  1.00  0.00    -0.273 OA
BRANCH  16  19
HETATM   19  C3  UNL     1     -12.313   6.391  14.404  1.00  0.00     0.148 C 
BRANCH  19  20
HETATM   20  C2  UNL     1     -12.799   7.336  13.305  1.00  0.00     0.186 C 
BRANCH  20  21
HETATM   21  O1  UNL     1     -11.690   7.684  12.470  1.00  0.00    -0.394 OA
HETATM   22  C1  UNL     1     -11.733   9.055  12.097  1.00  0.00     0.201 C 
ENDBRANCH  20  21
ENDBRANCH  19  20
ENDBRANCH  16  19
ENDBRANCH  13  15
ENDBRANCH   1  13
BRANCH  12  23
HETATM   23  O5  UNL     1      -6.109   7.331  14.273  1.00  0.00    -0.395 OA
HETATM   24  H38 UNL     1      -5.470   7.463  14.995  1.00  0.00     0.210 HD
ENDBRANCH  12  23
BRANCH   8  25
HETATM   25  N2  UNL     1      -2.822   3.340  12.262  1.00  0.00    -0.354 N 
HETATM   26  C15 UNL     1      -1.690   3.667  11.545  1.00  0.00     0.241 C 
HETATM   27  O3  UNL     1      -1.621   4.604  10.757  1.00  0.00    -0.271 OA
HETATM   28  H26 UNL     1      -2.781   2.438  12.729  1.00  0.00     0.162 HD
BRANCH  26  29
HETATM   29  C16 UNL     1      -0.497   2.755  11.843  1.00  0.00     0.269 C 
BRANCH  29  30
HETATM   30  O4  UNL     1      -0.128   1.974  10.703  1.00  0.00    -0.387 OA
HETATM   31  C17 UNL     1      -0.819   0.731  10.686  1.00  0.00     0.202 C 
ENDBRANCH  29  30
ENDBRANCH  26  29
ENDBRANCH   8  25
TORSDOF 9
ENDMDL
MODEL 5
REMARK minimizedAffinity -7.56759262
REMARK  9 active torsions:
REMARK  status: ('A' for Active; 'I' for Inactive)
REMARK    1  A    between atoms: O1_2  and  C2_3 
REMARK    2  A    between atoms: C2_3  and  C3_4 
REMARK    3  A    between atoms: C3_4  and  N1_5 
REMARK       I    between atoms: N1_5  and  C4_6 
REMARK    4  A    between atoms: C4_6  and  C5_8 
REMARK    5  A    between atoms: C5_8  and  C7_10 
REMARK    6  A    between atoms: C14_17  and  N2_18 
REMARK       I    between atoms: N2_18  and  C15_19 
REMARK    7  A    between atoms: C15_19  and  C16_21 
REMARK    8  A    between atoms: C16_21  and  O4_22 
REMARK    9  A    between atoms: C21_27  and  O5_28 
ROOT
HETATM    1  C7  UNL     1      -0.131   5.040  11.612  1.00  0.00     0.027 C 
HETATM    2  C8  UNL     1       0.061   3.575  12.022  1.00  0.00     0.009 C 
HETATM    3  C9  UNL     1      -1.042   2.671  11.460  1.00  0.00     0.010 C 
HETATM    4  C10 UNL     1      -2.452   3.325  11.370  1.00  0.00    -0.037 C 
HETATM    5  C11 UNL     1      -2.704   3.796   9.915  1.00  0.00     0.015 C 
HETATM    6  C12 UNL     1      -3.502   2.238  11.716  1.00  0.00     0.011 C 
HETATM    7  C13 UNL     1      -4.926   2.773  11.782  1.00  0.00     0.026 C 
HETATM    8  C14 UNL     1      -5.059   3.961  12.741  1.00  0.00     0.088 C 
HETATM    9  C18 UNL     1      -4.017   5.079  12.460  1.00  0.00     0.012 C 
HETATM   10  C19 UNL     1      -4.159   6.191  13.512  1.00  0.00     0.012 C 
HETATM   11  C20 UNL     1      -2.568   4.486  12.399  1.00  0.00     0.028 C 
HETATM   12  C21 UNL     1      -1.461   5.567  12.220  1.00  0.00     0.128 C 
ENDROOT
BRANCH   1  13
HETATM   13  C5  UNL     1       1.112   5.908  11.967  1.00  0.00     0.080 C 
HETATM   14  C6  UNL     1       0.789   7.404  12.039  1.00  0.00     0.020 C 
BRANCH  13  15
HETATM   15  C4  UNL     1       2.260   5.701  10.977  1.00  0.00     0.222 C 
HETATM   16  N1  UNL     1       3.491   6.155  11.392  1.00  0.00    -0.359 N 
HETATM   17  H8  UNL     1       3.589   6.597  12.296  1.00  0.00     0.162 HD
HETATM   18  O2  UNL     1       2.087   5.158   9.890  1.00  0.00    -0.273 OA
BRANCH  16  19
HETATM   19  C3  UNL     1       4.664   6.069  10.543  1.00  0.00     0.148 C 
BRANCH  19  20
HETATM   20  C2  UNL     1       5.982   6.193  11.308  1.00  0.00     0.186 C 
BRANCH  20  21
HETATM   21  O1  UNL     1       6.858   7.060  10.582  1.00  0.00    -0.394 OA
HETATM   22  C1  UNL     1       6.495   8.424  10.752  1.00  0.00     0.201 C 
ENDBRANCH  20  21
ENDBRANCH  19  20
ENDBRANCH  16  19
ENDBRANCH  13  15
ENDBRANCH   1  13
BRANCH  12  23
HETATM   23  O5  UNL     1      -1.177   6.090  13.521  1.00  0.00    -0.395 OA
HETATM   24  H38 UNL     1      -1.488   7.011  13.555  1.00  0.00     0.210 HD
ENDBRANCH  12  23
BRANCH   8  25
HETATM   25  N2  UNL     1      -6.417   4.483  12.664  1.00  0.00    -0.354 N 
HETATM   26  C15 UNL     1      -7.493   3.856  13.256  1.00  0.00     0.241 C 
HETATM   27  O3  UNL     1      -7.399   2.890  14.007  1.00  0.00    -0.271 OA
HETATM   28  H26 UNL     1      -6.664   5.144  11.931  1.00  0.00     0.162 HD
BRANCH  26  29
HETATM   29  C16 UNL     1      -8.839   4.498  12.909  1.00  0.00     0.269 C 
BRANCH  29  30
HETATM   30  O4  UNL     1      -8.727   5.916  12.756  1.00  0.00    -0.387 OA
HETATM   31  C17 UNL     1      -9.239   6.597  13.894  1.00  0.00     0.202 C 
ENDBRANCH  29  30
ENDBRANCH  26  29
ENDBRANCH   8  25
TORSDOF 9
ENDMDL
MODEL 6
REMARK minimizedAffinity -7.49682474
REMARK  9 active torsions:
REMARK  status: ('A' for Active; 'I' for Inactive)
REMARK    1  A    between atoms: O1_2  and  C2_3 
REMARK    2  A    between atoms: C2_3  and  C3_4 
REMARK    3  A    between atoms: C3_4  and  N1_5 
REMARK       I    between atoms: N1_5  and  C4_6 
REMARK    4  A    between atoms: C4_6  and  C5_8 
REMARK    5  A    between atoms: C5_8  and  C7_10 
REMARK    6  A    between atoms: C14_17  and  N2_18 
REMARK       I    between atoms: N2_18  and  C15_19 
REMARK    7  A    between atoms: C15_19  and  C16_21 
REMARK    8  A    between atoms: C16_21  and  O4_22 
REMARK    9  A    between atoms: C21_27  and  O5_28 
ROOT
HETATM    1  C7  UNL     1      -6.261   3.474  11.857  1.00  0.00     0.027 C 
HETATM    2  C8  UNL     1      -7.294   2.875  12.820  1.00  0.00     0.009 C 
HETATM    3  C9  UNL     1      -8.161   3.953  13.478  1.00  0.00     0.010 C 
HETATM    4  C10 UNL     1      -7.431   5.295  13.782  1.00  0.00    -0.037 C 
HETATM    5  C11 UNL     1      -7.769   6.322  12.672  1.00  0.00     0.015 C 
HETATM    6  C12 UNL     1      -7.978   5.837  15.128  1.00  0.00     0.011 C 
HETATM    7  C13 UNL     1      -7.262   7.093  15.608  1.00  0.00     0.026 C 
HETATM    8  C14 UNL     1      -5.744   6.902  15.692  1.00  0.00     0.088 C 
HETATM    9  C18 UNL     1      -5.136   6.338  14.378  1.00  0.00     0.012 C 
HETATM   10  C19 UNL     1      -3.629   6.096  14.570  1.00  0.00     0.012 C 
HETATM   11  C20 UNL     1      -5.901   5.050  13.920  1.00  0.00     0.028 C 
HETATM   12  C21 UNL     1      -5.281   4.372  12.662  1.00  0.00     0.128 C 
ENDROOT
BRANCH   1  13
HETATM   13  C5  UNL     1      -5.558   2.377  11.006  1.00  0.00     0.080 C 
HETATM   14  C6  UNL     1      -6.048   0.963  11.339  1.00  0.00     0.020 C 
BRANCH  13  15
HETATM   15  C4  UNL     1      -4.036   2.417  11.161  1.00  0.00     0.222 C 
HETATM   16  N1  UNL     1      -3.393   3.405  10.452  1.00  0.00    -0.359 N 
HETATM   17  H8  UNL     1      -3.925   4.040   9.872  1.00  0.00     0.162 HD
HETATM   18  O2  UNL     1      -3.437   1.621  11.878  1.00  0.00    -0.273 OA
BRANCH  16  19
HETATM   19  C3  UNL     1      -1.949   3.539  10.463  1.00  0.00     0.148 C 
BRANCH  19  20
HETATM   20  C2  UNL     1      -1.243   2.473  11.302  1.00  0.00     0.186 C 
BRANCH  20  21
HETATM   21  O1  UNL     1      -0.367   1.723  10.455  1.00  0.00    -0.394 OA
HETATM   22  C1  UNL     1      -0.581   0.324  10.598  1.00  0.00     0.201 C 
ENDBRANCH  20  21
ENDBRANCH  19  20
ENDBRANCH  16  19
ENDBRANCH  13  15
ENDBRANCH   1  13
BRANCH  12  23
HETATM   23  O5  UNL     1      -4.203   3.552  13.121  1.00  0.00    -0.395 OA
HETATM   24  H38 UNL     1      -3.368   3.941  12.810  1.00  0.00     0.210 HD
ENDBRANCH  12  23
BRANCH   8  25
HETATM   25  N2  UNL     1      -5.125   8.172  16.048  1.00  0.00    -0.354 N 
HETATM   26  C15 UNL     1      -4.861   9.161  15.123  1.00  0.00     0.241 C 
HETATM   27  O3  UNL     1      -5.235   9.127  13.955  1.00  0.00    -0.271 OA
HETATM   28  H26 UNL     1      -4.598   8.253  16.915  1.00  0.00     0.162 HD
BRANCH  26  29
HETATM   29  C16 UNL     1      -4.067  10.336  15.697  1.00  0.00     0.269 C 
BRANCH  29  30
HETATM   30  O4  UNL     1      -2.907  10.626  14.913  1.00  0.00    -0.387 OA
HETATM   31  C17 UNL     1      -2.505  11.981  15.072  1.00  0.00     0.202 C 
ENDBRANCH  29  30
ENDBRANCH  26  29
ENDBRANCH   8  25
TORSDOF 9
ENDMDL
MODEL 7
REMARK minimizedAffinity -7.30224705
REMARK  9 active torsions:
REMARK  status: ('A' for Active; 'I' for Inactive)
REMARK    1  A    between atoms: O1_2  and  C2_3 
REMARK    2  A    between atoms: C2_3  and  C3_4 
REMARK    3  A    between atoms: C3_4  and  N1_5 
REMARK       I    between atoms: N1_5  and  C4_6 
REMARK    4  A    between atoms: C4_6  and  C5_8 
REMARK    5  A    between atoms: C5_8  and  C7_10 
REMARK    6  A    between atoms: C14_17  and  N2_18 
REMARK       I    between atoms: N2_18  and  C15_19 
REMARK    7  A    between atoms: C15_19  and  C16_21 
REMARK    8  A    between atoms: C16_21  and  O4_22 
REMARK    9  A    between atoms: C21_27  and  O5_28 
ROOT
HETATM    1  C7  UNL     1      -1.999   4.328  11.610  1.00  0.00     0.027 C 
HETATM    2  C8  UNL     1      -2.034   2.812  11.835  1.00  0.00     0.009 C 
HETATM    3  C9  UNL     1      -3.374   2.198  11.414  1.00  0.00     0.010 C 
HETATM    4  C10 UNL     1      -4.621   3.098  11.661  1.00  0.00    -0.037 C 
HETATM    5  C11 UNL     1      -5.022   3.791  10.334  1.00  0.00     0.015 C 
HETATM    6  C12 UNL     1      -5.789   2.178  12.100  1.00  0.00     0.011 C 
HETATM    7  C13 UNL     1      -7.046   2.945  12.491  1.00  0.00     0.026 C 
HETATM    8  C14 UNL     1      -6.773   4.002  13.566  1.00  0.00     0.088 C 
HETATM    9  C18 UNL     1      -5.595   4.945  13.195  1.00  0.00     0.012 C 
HETATM   10  C19 UNL     1      -5.330   5.919  14.355  1.00  0.00     0.012 C 
HETATM   11  C20 UNL     1      -4.325   4.118  12.799  1.00  0.00     0.028 C 
HETATM   12  C21 UNL     1      -3.073   4.999  12.511  1.00  0.00     0.128 C 
ENDROOT
BRANCH   1  13
HETATM   13  C5  UNL     1      -0.567   4.909  11.797  1.00  0.00     0.080 C 
HETATM   14  C6  UNL     1       0.010   4.625  13.188  1.00  0.00     0.020 C 
BRANCH  13  15
HETATM   15  C4  UNL     1      -0.520   6.417  11.546  1.00  0.00     0.222 C 
HETATM   16  N1  UNL     1      -0.048   6.799  10.311  1.00  0.00    -0.359 N 
HETATM   17  H8  UNL     1       0.245   6.099   9.643  1.00  0.00     0.162 HD
HETATM   18  O2  UNL     1      -0.888   7.226  12.392  1.00  0.00    -0.273 OA
BRANCH  16  19
HETATM   19  C3  UNL     1       0.097   8.195   9.945  1.00  0.00     0.148 C 
BRANCH  19  20
HETATM   20  C2  UNL     1       0.390   8.411   8.460  1.00  0.00     0.186 C 
BRANCH  20  21
HETATM   21  O1  UNL     1       1.754   8.065   8.203  1.00  0.00    -0.394 OA
HETATM   22  C1  UNL     1       1.873   7.259   7.038  1.00  0.00     0.201 C 
ENDBRANCH  20  21
ENDBRANCH  19  20
ENDBRANCH  16  19
ENDBRANCH  13  15
ENDBRANCH   1  13
BRANCH  12  23
HETATM   23  O5  UNL     1      -2.471   5.291  13.775  1.00  0.00    -0.395 OA
HETATM   24  H38 UNL     1      -2.583   6.240  13.956  1.00  0.00     0.210 HD
ENDBRANCH  12  23
BRANCH   8  25
HETATM   25  N2  UNL     1      -7.993   4.763  13.803  1.00  0.00    -0.354 N 
HETATM   26  C15 UNL     1      -8.618   5.500  12.819  1.00  0.00     0.241 C 
HETATM   27  O3  UNL     1      -8.293   5.482  11.636  1.00  0.00    -0.271 OA
HETATM   28  H26 UNL     1      -8.252   5.020  14.753  1.00  0.00     0.162 HD
BRANCH  26  29
HETATM   29  C16 UNL     1      -9.789   6.339  13.337  1.00  0.00     0.269 C 
BRANCH  29  30
HETATM   30  O4  UNL     1      -9.561   6.800  14.671  1.00  0.00    -0.387 OA
HETATM   31  C17 UNL     1     -10.447   7.861  15.006  1.00  0.00     0.202 C 
ENDBRANCH  29  30
ENDBRANCH  26  29
ENDBRANCH   8  25
TORSDOF 9
ENDMDL
MODEL 8
REMARK minimizedAffinity -7.26083374
REMARK  9 active torsions:
REMARK  status: ('A' for Active; 'I' for Inactive)
REMARK    1  A    between atoms: O1_2  and  C2_3 
REMARK    2  A    between atoms: C2_3  and  C3_4 
REMARK    3  A    between atoms: C3_4  and  N1_5 
REMARK       I    between atoms: N1_5  and  C4_6 
REMARK    4  A    between atoms: C4_6  and  C5_8 
REMARK    5  A    between atoms: C5_8  and  C7_10 
REMARK    6  A    between atoms: C14_17  and  N2_18 
REMARK       I    between atoms: N2_18  and  C15_19 
REMARK    7  A    between atoms: C15_19  and  C16_21 
REMARK    8  A    between atoms: C16_21  and  O4_22 
REMARK    9  A    between atoms: C21_27  and  O5_28 
ROOT
HETATM    1  C7  UNL     1      -6.791   5.809  13.708  1.00  0.00     0.027 C 
HETATM    2  C8  UNL     1      -6.497   6.012  15.200  1.00  0.00     0.009 C 
HETATM    3  C9  UNL     1      -5.280   6.914  15.430  1.00  0.00     0.010 C 
HETATM    4  C10 UNL     1      -4.142   6.772  14.377  1.00  0.00    -0.037 C 
HETATM    5  C11 UNL     1      -4.252   7.925  13.347  1.00  0.00     0.015 C 
HETATM    6  C12 UNL     1      -2.789   6.913  15.120  1.00  0.00     0.011 C 
HETATM    7  C13 UNL     1      -1.580   6.675  14.224  1.00  0.00     0.026 C 
HETATM    8  C14 UNL     1      -1.648   5.326  13.500  1.00  0.00     0.088 C 
HETATM    9  C18 UNL     1      -2.993   5.113  12.752  1.00  0.00     0.012 C 
HETATM   10  C19 UNL     1      -3.016   3.708  12.126  1.00  0.00     0.012 C 
HETATM   11  C20 UNL     1      -4.207   5.368  13.708  1.00  0.00     0.028 C 
HETATM   12  C21 UNL     1      -5.589   5.075  13.051  1.00  0.00     0.128 C 
ENDROOT
BRANCH   1  13
HETATM   13  C5  UNL     1      -8.161   5.107  13.478  1.00  0.00     0.080 C 
HETATM   14  C6  UNL     1      -8.017   3.721  12.841  1.00  0.00     0.020 C 
BRANCH  13  15
HETATM   15  C4  UNL     1      -9.100   5.949  12.612  1.00  0.00     0.222 C 
HETATM   16  N1  UNL     1     -10.089   6.623  13.291  1.00  0.00    -0.359 N 
HETATM   17  H8  UNL     1     -10.162   6.537  14.295  1.00  0.00     0.162 HD
HETATM   18  O2  UNL     1      -8.968   6.020  11.393  1.00  0.00    -0.273 OA
BRANCH  16  19
HETATM   19  C3  UNL     1     -11.082   7.424  12.600  1.00  0.00     0.148 C 
BRANCH  19  20
HETATM   20  C2  UNL     1     -12.456   7.406  13.269  1.00  0.00     0.186 C 
BRANCH  20  21
HETATM   21  O1  UNL     1     -12.462   6.399  14.286  1.00  0.00    -0.394 OA
HETATM   22  C1  UNL     1     -13.726   5.754  14.370  1.00  0.00     0.201 C 
ENDBRANCH  20  21
ENDBRANCH  19  20
ENDBRANCH  16  19
ENDBRANCH  13  15
ENDBRANCH   1  13
BRANCH  12  23
HETATM   23  O5  UNL     1      -5.813   3.667  13.166  1.00  0.00    -0.395 OA
HETATM   24  H38 UNL     1      -5.773   3.276  12.276  1.00  0.00     0.210 HD
ENDBRANCH  12  23
BRANCH   8  25
HETATM   25  N2  UNL     1      -0.520   5.222  12.584  1.00  0.00    -0.354 N 
HETATM   26  C15 UNL     1      -0.213   6.202  11.663  1.00  0.00     0.241 C 
HETATM   27  O3  UNL     1      -0.765   7.297  11.614  1.00  0.00    -0.271 OA
HETATM   28  H26 UNL     1      -0.112   4.312  12.384  1.00  0.00     0.162 HD
BRANCH  26  29
HETATM   29  C16 UNL     1       0.913   5.806  10.704  1.00  0.00     0.269 C 
BRANCH  29  30
HETATM   30  O4  UNL     1       2.198   6.165  11.219  1.00  0.00    -0.387 OA
HETATM   31  C17 UNL     1       3.236   5.758  10.336  1.00  0.00     0.202 C 
ENDBRANCH  29  30
ENDBRANCH  26  29
ENDBRANCH   8  25
TORSDOF 9
ENDMDL
MODEL 9
REMARK minimizedAffinity -7.10338688
REMARK  9 active torsions:
REMARK  status: ('A' for Active; 'I' for Inactive)
REMARK    1  A    between atoms: O1_2  and  C2_3 
REMARK    2  A    between atoms: C2_3  and  C3_4 
REMARK    3  A    between atoms: C3_4  and  N1_5 
REMARK       I    between atoms: N1_5  and  C4_6 
REMARK    4  A    between atoms: C4_6  and  C5_8 
REMARK    5  A    between atoms: C5_8  and  C7_10 
REMARK    6  A    between atoms: C14_17  and  N2_18 
REMARK       I    between atoms: N2_18  and  C15_19 
REMARK    7  A    between atoms: C15_19  and  C16_21 
REMARK    8  A    between atoms: C16_21  and  O4_22 
REMARK    9  A    between atoms: C21_27  and  O5_28 
ROOT
HETATM    1  C7  UNL     1      -3.880   6.994  14.158  1.00  0.00     0.027 C 
HETATM    2  C8  UNL     1      -4.270   5.691  13.449  1.00  0.00     0.009 C 
HETATM    3  C9  UNL     1      -3.104   4.698  13.390  1.00  0.00     0.010 C 
HETATM    4  C10 UNL     1      -1.696   5.339  13.222  1.00  0.00    -0.037 C 
HETATM    5  C11 UNL     1      -0.995   5.403  14.603  1.00  0.00     0.015 C 
HETATM    6  C12 UNL     1      -0.862   4.415  12.297  1.00  0.00     0.011 C 
HETATM    7  C13 UNL     1       0.507   4.984  11.950  1.00  0.00     0.026 C 
HETATM    8  C14 UNL     1       0.418   6.391  11.350  1.00  0.00     0.088 C 
HETATM    9  C18 UNL     1      -0.426   7.363  12.220  1.00  0.00     0.012 C 
HETATM   10  C19 UNL     1      -0.538   8.723  11.511  1.00  0.00     0.012 C 
HETATM   11  C20 UNL     1      -1.823   6.739  12.554  1.00  0.00     0.028 C 
HETATM   12  C21 UNL     1      -2.763   7.701  13.341  1.00  0.00     0.128 C 
ENDROOT
BRANCH   1  13
HETATM   13  C5  UNL     1      -5.119   7.893  14.440  1.00  0.00     0.080 C 
HETATM   14  C6  UNL     1      -4.890   8.873  15.596  1.00  0.00     0.020 C 
BRANCH  13  15
HETATM   15  C4  UNL     1      -6.373   7.068  14.738  1.00  0.00     0.222 C 
HETATM   16  N1  UNL     1      -7.126   6.715  13.642  1.00  0.00    -0.359 N 
HETATM   17  H8  UNL     1      -6.841   7.007  12.717  1.00  0.00     0.162 HD
HETATM   18  O2  UNL     1      -6.674   6.739  15.882  1.00  0.00    -0.273 OA
BRANCH  16  19
HETATM   19  C3  UNL     1      -8.365   5.972  13.773  1.00  0.00     0.148 C 
BRANCH  19  20
HETATM   20  C2  UNL     1      -8.553   4.903  12.696  1.00  0.00     0.186 C 
BRANCH  20  21
HETATM   21  O1  UNL     1      -8.438   3.611  13.302  1.00  0.00    -0.394 OA
HETATM   22  C1  UNL     1      -7.324   2.894  12.785  1.00  0.00     0.201 C 
ENDBRANCH  20  21
ENDBRANCH  19  20
ENDBRANCH  16  19
ENDBRANCH  13  15
ENDBRANCH   1  13
BRANCH  12  23
HETATM   23  O5  UNL     1      -3.389   8.551  12.376  1.00  0.00    -0.395 OA
HETATM   24  H38 UNL     1      -3.049   9.454  12.497  1.00  0.00     0.210 HD
ENDBRANCH  12  23
BRANCH   8  25
HETATM   25  N2  UNL     1       1.766   6.908  11.150  1.00  0.00    -0.354 N 
HETATM   26  C15 UNL     1       2.639   6.379  10.222  1.00  0.00     0.241 C 
HETATM   27  O3  UNL     1       2.330   5.528   9.395  1.00  0.00    -0.271 OA
HETATM   28  H26 UNL     1       2.209   7.461  11.879  1.00  0.00     0.162 HD
BRANCH  26  29
HETATM   29  C16 UNL     1       4.046   6.976  10.301  1.00  0.00     0.269 C 
BRANCH  29  30
HETATM   30  O4  UNL     1       5.054   5.962  10.281  1.00  0.00    -0.387 OA
HETATM   31  C17 UNL     1       6.106   6.265  11.190  1.00  0.00     0.202 C 
ENDBRANCH  29  30
ENDBRANCH  26  29
ENDBRANCH   8  25
TORSDOF 9
ENDMDL
