MODEL 1
REMARK minimizedAffinity -7.99049091
REMARK CNNscore 0.582447946
REMARK CNNaffinity 7.29047012
REMARK  12 active torsions:
REMARK  status: ('A' for Active; 'I' for Inactive)
REMARK    1  A    between atoms: O1_2  and  C2_3 
REMARK    2  A    between atoms: C2_3  and  C5_6 
REMARK    3  A    between atoms: C6_7  and  C7_8 
REMARK    4  A    between atoms: C7_8  and  C8_9 
REMARK    5  A    between atoms: C8_9  and  C10_11 
REMARK    6  A    between atoms: C28_30  and  O3_31 
REMARK    7  A    between atoms: O3_31  and  C29_32 
REMARK    8  A    between atoms: C30_34  and  C31_35 
REMARK    9  A    between atoms: C31_35  and  O5_36 
REMARK   10  A    between atoms: C32_37  and  O6_38 
REMARK   11  A    between atoms: C33_39  and  O7_40 
REMARK   12  A    between atoms: C34_41  and  O8_42 
ROOT
HETATM    1  C10 UNL     1       3.722  56.814  -5.412  1.00  0.00    -0.002 C 
HETATM    2  C11 UNL     1       3.226  58.182  -5.996  1.00  0.00     0.006 C 
HETATM    3  C12 UNL     1       2.123  57.884  -7.037  1.00  0.00     0.011 C 
HETATM    4  C13 UNL     1       1.764  56.411  -6.783  1.00  0.00    -0.029 C 
HETATM    5  C14 UNL     1       0.815  56.429  -5.543  1.00  0.00     0.016 C 
HETATM    6  C15 UNL     1       1.116  55.655  -7.978  1.00  0.00     0.028 C 
HETATM    7  C16 UNL     1      -0.175  56.209  -8.531  1.00  0.00    -0.021 C 
HETATM    8  C17 UNL     1      -1.127  55.392  -9.015  1.00  0.00     0.008 C 
HETATM    9  C18 UNL     1      -0.994  53.867  -8.976  1.00  0.00     0.092 C 
HETATM   10  O2  UNL     1      -1.361  53.558  -7.615  1.00  0.00    -0.374 OA
HETATM   11  C19 UNL     1      -0.155  53.646  -6.817  1.00  0.00     0.179 C 
HETATM   12  C20 UNL     1       1.018  54.097  -7.742  1.00  0.00    -0.004 C 
HETATM   13  C21 UNL     1       2.357  53.513  -7.247  1.00  0.00     0.014 C 
HETATM   14  C22 UNL     1       3.044  54.325  -6.125  1.00  0.00     0.011 C 
HETATM   15  C23 UNL     1       3.209  55.814  -6.502  1.00  0.00    -0.032 C 
HETATM   16  C24 UNL     1       4.182  55.887  -7.727  1.00  0.00     0.016 C 
HETATM   17  C25 UNL     1       0.485  53.429  -9.028  1.00  0.00     0.036 C 
HETATM   18  C26 UNL     1       1.155  53.705 -10.378  1.00  0.00     0.011 C 
HETATM   19  C27 UNL     1       0.144  53.690 -11.530  1.00  0.00     0.033 C 
HETATM   20  C28 UNL     1      -0.978  52.677 -11.280  1.00  0.00     0.136 C 
HETATM   21  C35 UNL     1      -1.847  53.042 -10.015  1.00  0.00     0.014 C 
HETATM   22  C36 UNL     1      -2.315  51.696  -9.392  1.00  0.00     0.021 C 
HETATM   23  C37 UNL     1      -3.150  53.775 -10.416  1.00  0.00     0.021 C 
ENDROOT
BRANCH  20  24
HETATM   24  O3  UNL     1      -1.821  52.579 -12.432  1.00  0.00    -0.352 OA
BRANCH  24  25
HETATM   25  C29 UNL     1      -1.437  51.562 -13.365  1.00  0.00     0.292 C 
HETATM   26  O4  UNL     1      -0.428  52.062 -14.241  1.00  0.00    -0.348 OA
HETATM   27  C30 UNL     1       0.129  51.051 -15.098  1.00  0.00     0.179 C 
HETATM   28  C32 UNL     1      -0.938  50.074 -15.635  1.00  0.00     0.180 C 
HETATM   29  C33 UNL     1      -2.318  50.743 -15.608  1.00  0.00     0.183 C 
HETATM   30  C34 UNL     1      -2.694  51.180 -14.180  1.00  0.00     0.204 C 
BRANCH  27  31
HETATM   31  C31 UNL     1       0.835  51.792 -16.241  1.00  0.00     0.198 C 
BRANCH  31  32
HETATM   32  O5  UNL     1       1.291  53.077 -15.841  1.00  0.00    -0.398 OA
HETATM   33  H48 UNL     1       0.504  53.630 -15.681  1.00  0.00     0.209 HD
ENDBRANCH  31  32
ENDBRANCH  27  31
BRANCH  28  34
HETATM   34  O6  UNL     1      -0.957  48.905 -14.797  1.00  0.00    -0.390 OA
HETATM   35  H50 UNL     1      -1.847  48.511 -14.889  1.00  0.00     0.210 HD
ENDBRANCH  28  34
BRANCH  29  36
HETATM   36  O7  UNL     1      -3.321  49.827 -16.087  1.00  0.00    -0.390 OA
HETATM   37  H52 UNL     1      -3.227  49.779 -17.059  1.00  0.00     0.210 HD
ENDBRANCH  29  36
BRANCH  30  38
HETATM   38  O8  UNL     1      -3.422  50.122 -13.524  1.00  0.00    -0.388 OA
HETATM   39  H54 UNL     1      -4.000  49.755 -14.223  1.00  0.00     0.210 HD
ENDBRANCH  30  38
ENDBRANCH  24  25
ENDBRANCH  20  24
BRANCH   1  40
HETATM   40  C8  UNL     1       5.230  56.843  -5.008  1.00  0.00    -0.010 C 
HETATM   41  C9  UNL     1       5.516  56.056  -3.720  1.00  0.00     0.010 C 
BRANCH  40  42
HETATM   42  C7  UNL     1       5.769  58.284  -4.763  1.00  0.00     0.031 C 
BRANCH  42  43
HETATM   43  C6  UNL     1       7.259  58.438  -4.665  1.00  0.00    -0.027 C 
HETATM   44  C5  UNL     1       7.906  59.596  -4.881  1.00  0.00     0.006 C 
BRANCH  44  45
HETATM   45  C2  UNL     1       9.403  59.841  -4.833  1.00  0.00     0.070 C 
HETATM   46  C3  UNL     1       9.972  60.216  -3.454  1.00  0.00     0.050 C 
HETATM   47  C4  UNL     1       9.717  60.990  -5.806  1.00  0.00     0.050 C 
BRANCH  45  48
HETATM   48  O1  UNL     1      10.070  58.690  -5.381  1.00  0.00    -0.382 OA
HETATM   49  C1  UNL     1      11.039  58.073  -4.545  1.00  0.00     0.202 C 
ENDBRANCH  45  48
ENDBRANCH  44  45
ENDBRANCH  42  43
ENDBRANCH  40  42
ENDBRANCH   1  40
TORSDOF 12
ENDMDL
MODEL 2
REMARK minimizedAffinity -7.49342537
REMARK CNNscore 0.515730381
REMARK CNNaffinity 6.74984789
REMARK  12 active torsions:
REMARK  status: ('A' for Active; 'I' for Inactive)
REMARK    1  A    between atoms: O1_2  and  C2_3 
REMARK    2  A    between atoms: C2_3  and  C5_6 
REMARK    3  A    between atoms: C6_7  and  C7_8 
REMARK    4  A    between atoms: C7_8  and  C8_9 
REMARK    5  A    between atoms: C8_9  and  C10_11 
REMARK    6  A    between atoms: C28_30  and  O3_31 
REMARK    7  A    between atoms: O3_31  and  C29_32 
REMARK    8  A    between atoms: C30_34  and  C31_35 
REMARK    9  A    between atoms: C31_35  and  O5_36 
REMARK   10  A    between atoms: C32_37  and  O6_38 
REMARK   11  A    between atoms: C33_39  and  O7_40 
REMARK   12  A    between atoms: C34_41  and  O8_42 
ROOT
HETATM    1  C10 UNL     1      -5.923  47.393 -28.373  1.00  0.00    -0.002 C 
HETATM    2  C11 UNL     1      -7.299  47.479 -27.625  1.00  0.00     0.006 C 
HETATM    3  C12 UNL     1      -8.381  46.878 -28.550  1.00  0.00     0.011 C 
HETATM    4  C13 UNL     1      -7.575  46.153 -29.639  1.00  0.00    -0.029 C 
HETATM    5  C14 UNL     1      -7.144  44.798 -28.995  1.00  0.00     0.016 C 
HETATM    6  C15 UNL     1      -8.312  45.925 -30.991  1.00  0.00     0.028 C 
HETATM    7  C16 UNL     1      -9.594  45.129 -30.956  1.00  0.00    -0.021 C 
HETATM    8  C17 UNL     1      -9.935  44.322 -31.976  1.00  0.00     0.008 C 
HETATM    9  C18 UNL     1      -9.027  44.111 -33.191  1.00  0.00     0.092 C 
HETATM   10  O2  UNL     1      -8.067  43.153 -32.699  1.00  0.00    -0.374 OA
HETATM   11  C19 UNL     1      -6.996  43.904 -32.076  1.00  0.00     0.179 C 
HETATM   12  C20 UNL     1      -7.353  45.421 -32.139  1.00  0.00    -0.004 C 
HETATM   13  C21 UNL     1      -6.075  46.278 -32.228  1.00  0.00     0.014 C 
HETATM   14  C22 UNL     1      -5.402  46.582 -30.870  1.00  0.00     0.011 C 
HETATM   15  C23 UNL     1      -6.392  47.191 -29.852  1.00  0.00    -0.032 C 
HETATM   16  C24 UNL     1      -6.851  48.580 -30.412  1.00  0.00     0.016 C 
HETATM   17  C25 UNL     1      -8.149  45.352 -33.460  1.00  0.00     0.036 C 
HETATM   18  C26 UNL     1      -8.945  46.567 -33.950  1.00  0.00     0.011 C 
HETATM   19  C27 UNL     1     -10.216  46.151 -34.699  1.00  0.00     0.033 C 
HETATM   20  C28 UNL     1     -10.010  44.847 -35.476  1.00  0.00     0.136 C 
HETATM   21  C35 UNL     1      -9.711  43.624 -34.526  1.00  0.00     0.014 C 
HETATM   22  C36 UNL     1      -8.762  42.673 -35.311  1.00  0.00     0.021 C 
HETATM   23  C37 UNL     1     -10.987  42.789 -34.259  1.00  0.00     0.021 C 
ENDROOT
BRANCH  20  24
HETATM   24  O3  UNL     1     -11.160  44.564 -36.279  1.00  0.00    -0.352 OA
BRANCH  24  25
HETATM   25  C29 UNL     1     -11.210  45.281 -37.517  1.00  0.00     0.292 C 
HETATM   26  O4  UNL     1     -12.173  46.331 -37.433  1.00  0.00    -0.348 OA
HETATM   27  C30 UNL     1     -12.163  47.201 -38.579  1.00  0.00     0.179 C 
HETATM   28  C32 UNL     1     -11.978  46.434 -39.905  1.00  0.00     0.180 C 
HETATM   29  C33 UNL     1     -12.428  44.977 -39.732  1.00  0.00     0.183 C 
HETATM   30  C34 UNL     1     -11.626  44.279 -38.619  1.00  0.00     0.204 C 
BRANCH  27  31
HETATM   31  C31 UNL     1     -13.495  47.963 -38.554  1.00  0.00     0.198 C 
BRANCH  31  32
HETATM   32  O5  UNL     1     -13.412  49.155 -37.784  1.00  0.00    -0.398 OA
HETATM   33  H48 UNL     1     -13.299  48.892 -36.852  1.00  0.00     0.209 HD
ENDBRANCH  31  32
ENDBRANCH  27  31
BRANCH  28  34
HETATM   34  O6  UNL     1     -10.586  46.465 -40.266  1.00  0.00    -0.390 OA
HETATM   35  H50 UNL     1     -10.430  45.688 -40.839  1.00  0.00     0.210 HD
ENDBRANCH  28  34
BRANCH  29  36
HETATM   36  O7  UNL     1     -12.236  44.251 -40.961  1.00  0.00    -0.390 OA
HETATM   37  H52 UNL     1     -12.947  44.527 -41.574  1.00  0.00     0.210 HD
ENDBRANCH  29  36
BRANCH  30  38
HETATM   38  O8  UNL     1     -10.465  43.637 -39.185  1.00  0.00    -0.388 OA
HETATM   39  H54 UNL     1     -10.782  43.268 -40.034  1.00  0.00     0.210 HD
ENDBRANCH  30  38
ENDBRANCH  24  25
ENDBRANCH  20  24
BRANCH   1  40
HETATM   40  C8  UNL     1      -4.960  48.563 -27.997  1.00  0.00    -0.010 C 
HETATM   41  C9  UNL     1      -4.235  49.152 -29.217  1.00  0.00     0.010 C 
BRANCH  40  42
HETATM   42  C7  UNL     1      -3.845  48.140 -26.995  1.00  0.00     0.031 C 
BRANCH  42  43
HETATM   43  C6  UNL     1      -3.791  48.886 -25.694  1.00  0.00    -0.027 C 
HETATM   44  C5  UNL     1      -4.459  48.512 -24.589  1.00  0.00     0.006 C 
BRANCH  44  45
HETATM   45  C2  UNL     1      -4.487  49.214 -23.244  1.00  0.00     0.070 C 
HETATM   46  C3  UNL     1      -4.195  50.724 -23.274  1.00  0.00     0.050 C 
HETATM   47  C4  UNL     1      -3.432  48.543 -22.348  1.00  0.00     0.050 C 
BRANCH  45  48
HETATM   48  O1  UNL     1      -5.749  48.936 -22.612  1.00  0.00    -0.382 OA
HETATM   49  C1  UNL     1      -6.268  49.962 -21.776  1.00  0.00     0.202 C 
ENDBRANCH  45  48
ENDBRANCH  44  45
ENDBRANCH  42  43
ENDBRANCH  40  42
ENDBRANCH   1  40
TORSDOF 12
ENDMDL
MODEL 3
REMARK minimizedAffinity -10.8392115
REMARK CNNscore 0.475952506
REMARK CNNaffinity 7.3189826
REMARK  12 active torsions:
REMARK  status: ('A' for Active; 'I' for Inactive)
REMARK    1  A    between atoms: O1_2  and  C2_3 
REMARK    2  A    between atoms: C2_3  and  C5_6 
REMARK    3  A    between atoms: C6_7  and  C7_8 
REMARK    4  A    between atoms: C7_8  and  C8_9 
REMARK    5  A    between atoms: C8_9  and  C10_11 
REMARK    6  A    between atoms: C28_30  and  O3_31 
REMARK    7  A    between atoms: O3_31  and  C29_32 
REMARK    8  A    between atoms: C30_34  and  C31_35 
REMARK    9  A    between atoms: C31_35  and  O5_36 
REMARK   10  A    between atoms: C32_37  and  O6_38 
REMARK   11  A    between atoms: C33_39  and  O7_40 
REMARK   12  A    between atoms: C34_41  and  O8_42 
ROOT
HETATM    1  C10 UNL     1      -1.089  50.837 -20.403  1.00  0.00    -0.002 C 
HETATM    2  C11 UNL     1      -1.939  51.584 -19.318  1.00  0.00     0.006 C 
HETATM    3  C12 UNL     1      -3.410  51.138 -19.475  1.00  0.00     0.011 C 
HETATM    4  C13 UNL     1      -3.326  49.906 -20.390  1.00  0.00    -0.029 C 
HETATM    5  C14 UNL     1      -2.899  48.730 -19.456  1.00  0.00     0.016 C 
HETATM    6  C15 UNL     1      -4.622  49.558 -21.180  1.00  0.00     0.028 C 
HETATM    7  C16 UNL     1      -5.868  49.276 -20.377  1.00  0.00    -0.021 C 
HETATM    8  C17 UNL     1      -6.770  48.371 -20.795  1.00  0.00     0.008 C 
HETATM    9  C18 UNL     1      -6.563  47.532 -22.058  1.00  0.00     0.092 C 
HETATM   10  O2  UNL     1      -5.671  46.494 -21.600  1.00  0.00    -0.374 OA
HETATM   11  C19 UNL     1      -4.320  46.993 -21.754  1.00  0.00     0.179 C 
HETATM   12  C20 UNL     1      -4.391  48.457 -22.288  1.00  0.00    -0.004 C 
HETATM   13  C21 UNL     1      -3.160  48.779 -23.160  1.00  0.00     0.014 C 
HETATM   14  C22 UNL     1      -1.905  49.219 -22.373  1.00  0.00     0.011 C 
HETATM   15  C23 UNL     1      -2.203  50.386 -21.406  1.00  0.00    -0.032 C 
HETATM   16  C24 UNL     1      -2.610  51.626 -22.272  1.00  0.00     0.016 C 
HETATM   17  C25 UNL     1      -5.695  48.279 -23.095  1.00  0.00     0.036 C 
HETATM   18  C26 UNL     1      -6.396  49.494 -23.712  1.00  0.00     0.011 C 
HETATM   19  C27 UNL     1      -7.920  49.327 -23.728  1.00  0.00     0.033 C 
HETATM   20  C28 UNL     1      -8.323  47.864 -23.935  1.00  0.00     0.136 C 
HETATM   21  C35 UNL     1      -7.850  46.937 -22.749  1.00  0.00     0.014 C 
HETATM   22  C36 UNL     1      -7.544  45.543 -23.368  1.00  0.00     0.021 C 
HETATM   23  C37 UNL     1      -8.994  46.685 -21.737  1.00  0.00     0.021 C 
ENDROOT
BRANCH  20  24
HETATM   24  O3  UNL     1      -9.741  47.759 -24.092  1.00  0.00    -0.352 OA
BRANCH  24  25
HETATM   25  C29 UNL     1     -10.188  47.750 -25.453  1.00  0.00     0.292 C 
HETATM   26  O4  UNL     1     -10.080  46.433 -25.991  1.00  0.00    -0.348 OA
HETATM   27  C30 UNL     1     -10.665  46.306 -27.299  1.00  0.00     0.179 C 
HETATM   28  C32 UNL     1     -10.381  47.528 -28.197  1.00  0.00     0.180 C 
HETATM   29  C33 UNL     1      -9.120  48.252 -27.709  1.00  0.00     0.183 C 
HETATM   30  C34 UNL     1      -9.278  48.715 -26.248  1.00  0.00     0.204 C 
BRANCH  27  31
HETATM   31  C31 UNL     1     -10.093  45.019 -27.907  1.00  0.00     0.198 C 
BRANCH  31  32
HETATM   32  O5  UNL     1     -10.862  43.877 -27.556  1.00  0.00    -0.398 OA
HETATM   33  H48 UNL     1     -10.747  43.730 -26.599  1.00  0.00     0.209 HD
ENDBRANCH  31  32
ENDBRANCH  27  31
BRANCH  28  34
HETATM   34  O6  UNL     1     -11.504  48.423 -28.128  1.00  0.00    -0.390 OA
HETATM   35  H50 UNL     1     -11.165  49.313 -28.352  1.00  0.00     0.210 HD
ENDBRANCH  28  34
BRANCH  29  36
HETATM   36  O7  UNL     1      -8.864  49.407 -28.530  1.00  0.00    -0.390 OA
HETATM   37  H52 UNL     1      -8.498  49.083 -29.377  1.00  0.00     0.210 HD
ENDBRANCH  29  36
BRANCH  30  38
HETATM   38  O8  UNL     1      -9.811  50.055 -26.217  1.00  0.00    -0.388 OA
HETATM   39  H54 UNL     1      -9.363  50.511 -26.958  1.00  0.00     0.210 HD
ENDBRANCH  30  38
ENDBRANCH  24  25
ENDBRANCH  20  24
BRANCH   1  40
HETATM   40  C8  UNL     1       0.131  51.678 -20.896  1.00  0.00    -0.010 C 
HETATM   41  C9  UNL     1       0.702  52.595 -19.804  1.00  0.00     0.010 C 
BRANCH  40  42
HETATM   42  C7  UNL     1      -0.211  52.602 -22.102  1.00  0.00     0.031 C 
BRANCH  42  43
HETATM   43  C6  UNL     1       0.355  52.208 -23.435  1.00  0.00    -0.027 C 
HETATM   44  C5  UNL     1       0.024  52.805 -24.593  1.00  0.00     0.006 C 
BRANCH  44  45
HETATM   45  C2  UNL     1       0.520  52.459 -25.985  1.00  0.00     0.070 C 
HETATM   46  C3  UNL     1      -0.052  53.314 -27.128  1.00  0.00     0.050 C 
HETATM   47  C4  UNL     1       0.150  50.991 -26.258  1.00  0.00     0.050 C 
BRANCH  45  48
HETATM   48  O1  UNL     1       1.959  52.489 -25.975  1.00  0.00    -0.382 OA
HETATM   49  C1  UNL     1       2.609  51.416 -26.644  1.00  0.00     0.202 C 
ENDBRANCH  45  48
ENDBRANCH  44  45
ENDBRANCH  42  43
ENDBRANCH  40  42
ENDBRANCH   1  40
TORSDOF 12
ENDMDL
MODEL 4
REMARK minimizedAffinity -9.60093498
REMARK CNNscore 0.388373226
REMARK CNNaffinity 6.90387106
REMARK  12 active torsions:
REMARK  status: ('A' for Active; 'I' for Inactive)
REMARK    1  A    between atoms: O1_2  and  C2_3 
REMARK    2  A    between atoms: C2_3  and  C5_6 
REMARK    3  A    between atoms: C6_7  and  C7_8 
REMARK    4  A    between atoms: C7_8  and  C8_9 
REMARK    5  A    between atoms: C8_9  and  C10_11 
REMARK    6  A    between atoms: C28_30  and  O3_31 
REMARK    7  A    between atoms: O3_31  and  C29_32 
REMARK    8  A    between atoms: C30_34  and  C31_35 
REMARK    9  A    between atoms: C31_35  and  O5_36 
REMARK   10  A    between atoms: C32_37  and  O6_38 
REMARK   11  A    between atoms: C33_39  and  O7_40 
REMARK   12  A    between atoms: C34_41  and  O8_42 
ROOT
HETATM    1  C10 UNL     1      -1.117  51.381 -20.343  1.00  0.00    -0.002 C 
HETATM    2  C11 UNL     1      -1.996  51.985 -19.193  1.00  0.00     0.006 C 
HETATM    3  C12 UNL     1      -3.428  51.426 -19.344  1.00  0.00     0.011 C 
HETATM    4  C13 UNL     1      -3.268  50.265 -20.338  1.00  0.00    -0.029 C 
HETATM    5  C14 UNL     1      -2.718  49.073 -19.492  1.00  0.00     0.016 C 
HETATM    6  C15 UNL     1      -4.552  49.857 -21.118  1.00  0.00     0.028 C 
HETATM    7  C16 UNL     1      -5.747  49.421 -20.306  1.00  0.00    -0.021 C 
HETATM    8  C17 UNL     1      -6.582  48.470 -20.761  1.00  0.00     0.008 C 
HETATM    9  C18 UNL     1      -6.342  47.732 -22.079  1.00  0.00     0.092 C 
HETATM   10  O2  UNL     1      -5.354  46.747 -21.709  1.00  0.00    -0.374 OA
HETATM   11  C19 UNL     1      -4.054  47.368 -21.862  1.00  0.00     0.179 C 
HETATM   12  C20 UNL     1      -4.262  48.850 -22.300  1.00  0.00    -0.004 C 
HETATM   13  C21 UNL     1      -3.088  49.329 -23.178  1.00  0.00     0.014 C 
HETATM   14  C22 UNL     1      -1.851  49.825 -22.393  1.00  0.00     0.011 C 
HETATM   15  C23 UNL     1      -2.218  50.900 -21.346  1.00  0.00    -0.032 C 
HETATM   16  C24 UNL     1      -2.752  52.152 -22.122  1.00  0.00     0.016 C 
HETATM   17  C25 UNL     1      -5.569  48.613 -23.086  1.00  0.00     0.036 C 
HETATM   18  C26 UNL     1      -6.386  49.800 -23.607  1.00  0.00     0.011 C 
HETATM   19  C27 UNL     1      -7.890  49.505 -23.599  1.00  0.00     0.033 C 
HETATM   20  C28 UNL     1      -8.176  48.028 -23.890  1.00  0.00     0.136 C 
HETATM   21  C35 UNL     1      -7.594  47.074 -22.777  1.00  0.00     0.014 C 
HETATM   22  C36 UNL     1      -7.190  45.751 -23.490  1.00  0.00     0.021 C 
HETATM   23  C37 UNL     1      -8.683  46.664 -21.756  1.00  0.00     0.021 C 
ENDROOT
BRANCH  20  24
HETATM   24  O3  UNL     1      -9.584  47.814 -24.020  1.00  0.00    -0.352 OA
BRANCH  24  25
HETATM   25  C29 UNL     1     -10.053  47.758 -25.373  1.00  0.00     0.292 C 
HETATM   26  O4  UNL     1      -9.907  46.434 -25.884  1.00  0.00    -0.348 OA
HETATM   27  C30 UNL     1     -10.510  46.258 -27.178  1.00  0.00     0.179 C 
HETATM   28  C32 UNL     1     -10.284  47.469 -28.108  1.00  0.00     0.180 C 
HETATM   29  C33 UNL     1      -9.041  48.248 -27.657  1.00  0.00     0.183 C 
HETATM   30  C34 UNL     1      -9.191  48.737 -26.205  1.00  0.00     0.204 C 
BRANCH  27  31
HETATM   31  C31 UNL     1      -9.902  44.979 -27.768  1.00  0.00     0.198 C 
BRANCH  31  32
HETATM   32  O5  UNL     1      -9.906  44.994 -29.189  1.00  0.00    -0.398 OA
HETATM   33  H48 UNL     1     -10.836  44.942 -29.479  1.00  0.00     0.209 HD
ENDBRANCH  31  32
ENDBRANCH  27  31
BRANCH  28  34
HETATM   34  O6  UNL     1     -11.436  48.326 -28.039  1.00  0.00    -0.390 OA
HETATM   35  H50 UNL     1     -11.133  49.221 -28.288  1.00  0.00     0.210 HD
ENDBRANCH  28  34
BRANCH  29  36
HETATM   36  O7  UNL     1      -8.839  49.392 -28.507  1.00  0.00    -0.390 OA
HETATM   37  H52 UNL     1      -8.476  49.062 -29.354  1.00  0.00     0.210 HD
ENDBRANCH  29  36
BRANCH  30  38
HETATM   38  O8  UNL     1      -9.770  50.058 -26.193  1.00  0.00    -0.388 OA
HETATM   39  H54 UNL     1      -9.351  50.512 -26.951  1.00  0.00     0.210 HD
ENDBRANCH  30  38
ENDBRANCH  24  25
ENDBRANCH  20  24
BRANCH   1  40
HETATM   40  C8  UNL     1       0.014  52.351 -20.810  1.00  0.00    -0.010 C 
HETATM   41  C9  UNL     1       1.068  51.659 -21.687  1.00  0.00     0.010 C 
BRANCH  40  42
HETATM   42  C7  UNL     1       0.793  52.996 -19.625  1.00  0.00     0.031 C 
BRANCH  42  43
HETATM   43  C6  UNL     1       0.877  52.195 -18.359  1.00  0.00    -0.027 C 
HETATM   44  C5  UNL     1       1.326  52.688 -17.191  1.00  0.00     0.006 C 
BRANCH  44  45
HETATM   45  C2  UNL     1       1.472  51.951 -15.873  1.00  0.00     0.070 C 
HETATM   46  C3  UNL     1       2.914  51.773 -15.365  1.00  0.00     0.050 C 
HETATM   47  C4  UNL     1       0.855  50.553 -16.052  1.00  0.00     0.050 C 
BRANCH  45  48
HETATM   48  O1  UNL     1       0.647  52.604 -14.892  1.00  0.00    -0.382 OA
HETATM   49  C1  UNL     1       0.379  51.863 -13.709  1.00  0.00     0.202 C 
ENDBRANCH  45  48
ENDBRANCH  44  45
ENDBRANCH  42  43
ENDBRANCH  40  42
ENDBRANCH   1  40
TORSDOF 12
ENDMDL
MODEL 5
REMARK minimizedAffinity -8.74597454
REMARK CNNscore 0.364668369
REMARK CNNaffinity 7.45646524
REMARK  12 active torsions:
REMARK  status: ('A' for Active; 'I' for Inactive)
REMARK    1  A    between atoms: O1_2  and  C2_3 
REMARK    2  A    between atoms: C2_3  and  C5_6 
REMARK    3  A    between atoms: C6_7  and  C7_8 
REMARK    4  A    between atoms: C7_8  and  C8_9 
REMARK    5  A    between atoms: C8_9  and  C10_11 
REMARK    6  A    between atoms: C28_30  and  O3_31 
REMARK    7  A    between atoms: O3_31  and  C29_32 
REMARK    8  A    between atoms: C30_34  and  C31_35 
REMARK    9  A    between atoms: C31_35  and  O5_36 
REMARK   10  A    between atoms: C32_37  and  O6_38 
REMARK   11  A    between atoms: C33_39  and  O7_40 
REMARK   12  A    between atoms: C34_41  and  O8_42 
ROOT
HETATM    1  C10 UNL     1      -1.203  49.994 -21.654  1.00  0.00    -0.002 C 
HETATM    2  C11 UNL     1      -0.431  49.368 -20.441  1.00  0.00     0.006 C 
HETATM    3  C12 UNL     1      -1.416  48.465 -19.664  1.00  0.00     0.011 C 
HETATM    4  C13 UNL     1      -2.609  48.312 -20.621  1.00  0.00    -0.029 C 
HETATM    5  C14 UNL     1      -2.170  47.223 -21.652  1.00  0.00     0.016 C 
HETATM    6  C15 UNL     1      -3.969  47.945 -19.959  1.00  0.00     0.028 C 
HETATM    7  C16 UNL     1      -4.029  46.664 -19.163  1.00  0.00    -0.021 C 
HETATM    8  C17 UNL     1      -5.149  45.920 -19.135  1.00  0.00     0.008 C 
HETATM    9  C18 UNL     1      -6.394  46.283 -19.947  1.00  0.00     0.092 C 
HETATM   10  O2  UNL     1      -6.056  45.801 -21.265  1.00  0.00    -0.374 OA
HETATM   11  C19 UNL     1      -5.348  46.868 -21.942  1.00  0.00     0.179 C 
HETATM   12  C20 UNL     1      -5.190  48.063 -20.952  1.00  0.00    -0.004 C 
HETATM   13  C21 UNL     1      -5.175  49.404 -21.714  1.00  0.00     0.014 C 
HETATM   14  C22 UNL     1      -3.797  49.809 -22.286  1.00  0.00     0.011 C 
HETATM   15  C23 UNL     1      -2.689  49.785 -21.210  1.00  0.00    -0.032 C 
HETATM   16  C24 UNL     1      -3.039  50.881 -20.146  1.00  0.00     0.016 C 
HETATM   17  C25 UNL     1      -6.496  47.808 -20.169  1.00  0.00     0.036 C 
HETATM   18  C26 UNL     1      -6.797  48.591 -18.886  1.00  0.00     0.011 C 
HETATM   19  C27 UNL     1      -7.579  47.747 -17.873  1.00  0.00     0.033 C 
HETATM   20  C28 UNL     1      -8.536  46.776 -18.571  1.00  0.00     0.136 C 
HETATM   21  C35 UNL     1      -7.775  45.708 -19.448  1.00  0.00     0.014 C 
HETATM   22  C36 UNL     1      -8.700  45.382 -20.655  1.00  0.00     0.021 C 
HETATM   23  C37 UNL     1      -7.611  44.367 -18.692  1.00  0.00     0.021 C 
ENDROOT
BRANCH  20  24
HETATM   24  O3  UNL     1      -9.355  46.110 -17.605  1.00  0.00    -0.352 OA
BRANCH  24  25
HETATM   25  C29 UNL     1     -10.748  46.072 -17.933  1.00  0.00     0.292 C 
HETATM   26  O4  UNL     1     -11.054  47.097 -18.877  1.00  0.00    -0.348 OA
HETATM   27  C30 UNL     1     -12.398  47.018 -19.383  1.00  0.00     0.179 C 
HETATM   28  C32 UNL     1     -13.423  46.652 -18.289  1.00  0.00     0.180 C 
HETATM   29  C33 UNL     1     -12.872  47.033 -16.909  1.00  0.00     0.183 C 
HETATM   30  C34 UNL     1     -11.541  46.312 -16.627  1.00  0.00     0.204 C 
BRANCH  27  31
HETATM   31  C31 UNL     1     -12.708  48.386 -20.004  1.00  0.00     0.198 C 
BRANCH  31  32
HETATM   32  O5  UNL     1     -13.658  48.290 -21.057  1.00  0.00    -0.398 OA
HETATM   33  H48 UNL     1     -13.231  47.812 -21.792  1.00  0.00     0.209 HD
ENDBRANCH  31  32
ENDBRANCH  27  31
BRANCH  28  34
HETATM   34  O6  UNL     1     -13.661  45.234 -18.334  1.00  0.00    -0.390 OA
HETATM   35  H50 UNL     1     -13.967  44.975 -17.443  1.00  0.00     0.210 HD
ENDBRANCH  28  34
BRANCH  29  36
HETATM   36  O7  UNL     1     -13.815  46.672 -15.882  1.00  0.00    -0.390 OA
HETATM   37  H52 UNL     1     -14.539  47.330 -15.911  1.00  0.00     0.210 HD
ENDBRANCH  29  36
BRANCH  30  38
HETATM   38  O8  UNL     1     -11.797  45.064 -15.951  1.00  0.00    -0.388 OA
HETATM   39  H54 UNL     1     -12.525  45.269 -15.331  1.00  0.00     0.210 HD
ENDBRANCH  30  38
ENDBRANCH  24  25
ENDBRANCH  20  24
BRANCH   1  40
HETATM   40  C8  UNL     1      -0.679  51.416 -22.031  1.00  0.00    -0.010 C 
HETATM   41  C9  UNL     1      -0.538  52.341 -20.813  1.00  0.00     0.010 C 
BRANCH  40  42
HETATM   42  C7  UNL     1      -1.606  52.162 -23.036  1.00  0.00     0.031 C 
BRANCH  42  43
HETATM   43  C6  UNL     1      -1.178  52.162 -24.475  1.00  0.00    -0.027 C 
HETATM   44  C5  UNL     1       0.102  52.060 -24.874  1.00  0.00     0.006 C 
BRANCH  44  45
HETATM   45  C2  UNL     1       0.630  52.079 -26.296  1.00  0.00     0.070 C 
HETATM   46  C3  UNL     1      -0.118  51.181 -27.296  1.00  0.00     0.050 C 
HETATM   47  C4  UNL     1       2.099  51.622 -26.251  1.00  0.00     0.050 C 
BRANCH  45  48
HETATM   48  O1  UNL     1       0.674  53.444 -26.747  1.00  0.00    -0.382 OA
HETATM   49  C1  UNL     1      -0.248  53.793 -27.771  1.00  0.00     0.202 C 
ENDBRANCH  45  48
ENDBRANCH  44  45
ENDBRANCH  42  43
ENDBRANCH  40  42
ENDBRANCH   1  40
TORSDOF 12
ENDMDL
MODEL 6
REMARK minimizedAffinity -8.29856491
REMARK CNNscore 0.333297312
REMARK CNNaffinity 7.15844584
REMARK  12 active torsions:
REMARK  status: ('A' for Active; 'I' for Inactive)
REMARK    1  A    between atoms: O1_2  and  C2_3 
REMARK    2  A    between atoms: C2_3  and  C5_6 
REMARK    3  A    between atoms: C6_7  and  C7_8 
REMARK    4  A    between atoms: C7_8  and  C8_9 
REMARK    5  A    between atoms: C8_9  and  C10_11 
REMARK    6  A    between atoms: C28_30  and  O3_31 
REMARK    7  A    between atoms: O3_31  and  C29_32 
REMARK    8  A    between atoms: C30_34  and  C31_35 
REMARK    9  A    between atoms: C31_35  and  O5_36 
REMARK   10  A    between atoms: C32_37  and  O6_38 
REMARK   11  A    between atoms: C33_39  and  O7_40 
REMARK   12  A    between atoms: C34_41  and  O8_42 
ROOT
HETATM    1  C10 UNL     1      -3.471  50.539 -24.680  1.00  0.00    -0.002 C 
HETATM    2  C11 UNL     1      -4.531  51.610 -24.245  1.00  0.00     0.006 C 
HETATM    3  C12 UNL     1      -4.514  51.696 -22.702  1.00  0.00     0.011 C 
HETATM    4  C13 UNL     1      -3.229  50.952 -22.305  1.00  0.00    -0.029 C 
HETATM    5  C14 UNL     1      -2.073  51.977 -22.537  1.00  0.00     0.016 C 
HETATM    6  C15 UNL     1      -3.194  50.382 -20.857  1.00  0.00     0.028 C 
HETATM    7  C16 UNL     1      -3.360  51.363 -19.722  1.00  0.00    -0.021 C 
HETATM    8  C17 UNL     1      -2.717  51.185 -18.554  1.00  0.00     0.008 C 
HETATM    9  C18 UNL     1      -1.738  50.031 -18.327  1.00  0.00     0.092 C 
HETATM   10  O2  UNL     1      -0.536  50.512 -18.964  1.00  0.00    -0.374 OA
HETATM   11  C19 UNL     1      -0.609  50.127 -20.359  1.00  0.00     0.179 C 
HETATM   12  C20 UNL     1      -1.973  49.413 -20.605  1.00  0.00    -0.004 C 
HETATM   13  C21 UNL     1      -1.844  48.361 -21.725  1.00  0.00     0.014 C 
HETATM   14  C22 UNL     1      -1.977  48.921 -23.160  1.00  0.00     0.011 C 
HETATM   15  C23 UNL     1      -3.267  49.751 -23.343  1.00  0.00    -0.032 C 
HETATM   16  C24 UNL     1      -4.483  48.782 -23.158  1.00  0.00     0.016 C 
HETATM   17  C25 UNL     1      -2.103  48.804 -19.192  1.00  0.00     0.036 C 
HETATM   18  C26 UNL     1      -3.404  48.120 -18.759  1.00  0.00     0.011 C 
HETATM   19  C27 UNL     1      -3.681  48.314 -17.264  1.00  0.00     0.033 C 
HETATM   20  C28 UNL     1      -2.382  48.357 -16.453  1.00  0.00     0.136 C 
HETATM   21  C35 UNL     1      -1.476  49.590 -16.836  1.00  0.00     0.014 C 
HETATM   22  C36 UNL     1      -0.000  49.133 -16.652  1.00  0.00     0.021 C 
HETATM   23  C37 UNL     1      -1.661  50.760 -15.839  1.00  0.00     0.021 C 
ENDROOT
BRANCH  20  24
HETATM   24  O3  UNL     1      -2.676  48.391 -15.053  1.00  0.00    -0.352 OA
BRANCH  24  25
HETATM   25  C29 UNL     1      -2.007  47.386 -14.282  1.00  0.00     0.292 C 
HETATM   26  O4  UNL     1      -2.454  46.091 -14.679  1.00  0.00    -0.348 OA
HETATM   27  C30 UNL     1      -1.708  45.023 -14.068  1.00  0.00     0.179 C 
HETATM   28  C32 UNL     1      -1.379  45.301 -12.586  1.00  0.00     0.180 C 
HETATM   29  C33 UNL     1      -2.385  46.305 -12.008  1.00  0.00     0.183 C 
HETATM   30  C34 UNL     1      -2.361  47.628 -12.796  1.00  0.00     0.204 C 
BRANCH  27  31
HETATM   31  C31 UNL     1      -2.558  43.756 -14.225  1.00  0.00     0.198 C 
BRANCH  31  32
HETATM   32  O5  UNL     1      -3.942  44.055 -14.344  1.00  0.00    -0.398 OA
HETATM   33  H48 UNL     1      -4.240  44.408 -13.485  1.00  0.00     0.209 HD
ENDBRANCH  31  32
ENDBRANCH  27  31
BRANCH  28  34
HETATM   34  O6  UNL     1      -0.053  45.850 -12.502  1.00  0.00    -0.390 OA
HETATM   35  H50 UNL     1      -0.017  46.367 -11.673  1.00  0.00     0.210 HD
ENDBRANCH  28  34
BRANCH  29  36
HETATM   36  O7  UNL     1      -2.069  46.585 -10.631  1.00  0.00    -0.390 OA
HETATM   37  H52 UNL     1      -2.354  45.810 -10.107  1.00  0.00     0.210 HD
ENDBRANCH  29  36
BRANCH  30  38
HETATM   38  O8  UNL     1      -1.419  48.537 -12.191  1.00  0.00    -0.388 OA
HETATM   39  H54 UNL     1      -1.533  48.400 -11.229  1.00  0.00     0.210 HD
ENDBRANCH  30  38
ENDBRANCH  24  25
ENDBRANCH  20  24
BRANCH   1  40
HETATM   40  C8  UNL     1      -3.875  49.791 -25.990  1.00  0.00    -0.010 C 
HETATM   41  C9  UNL     1      -4.117  48.290 -25.768  1.00  0.00     0.010 C 
BRANCH  40  42
HETATM   42  C7  UNL     1      -2.797  49.894 -27.110  1.00  0.00     0.031 C 
BRANCH  42  43
HETATM   43  C6  UNL     1      -1.812  51.020 -26.995  1.00  0.00    -0.027 C 
HETATM   44  C5  UNL     1      -0.548  50.865 -26.562  1.00  0.00     0.006 C 
BRANCH  44  45
HETATM   45  C2  UNL     1       0.506  51.943 -26.386  1.00  0.00     0.070 C 
HETATM   46  C3  UNL     1       1.763  51.794 -27.260  1.00  0.00     0.050 C 
HETATM   47  C4  UNL     1       0.946  51.925 -24.912  1.00  0.00     0.050 C 
BRANCH  45  48
HETATM   48  O1  UNL     1      -0.118  53.225 -26.577  1.00  0.00    -0.382 OA
HETATM   49  C1  UNL     1       0.076  54.174 -25.537  1.00  0.00     0.202 C 
ENDBRANCH  45  48
ENDBRANCH  44  45
ENDBRANCH  42  43
ENDBRANCH  40  42
ENDBRANCH   1  40
TORSDOF 12
ENDMDL
MODEL 7
REMARK minimizedAffinity -9.84859657
REMARK CNNscore 0.32563436
REMARK CNNaffinity 6.80814505
REMARK  12 active torsions:
REMARK  status: ('A' for Active; 'I' for Inactive)
REMARK    1  A    between atoms: O1_2  and  C2_3 
REMARK    2  A    between atoms: C2_3  and  C5_6 
REMARK    3  A    between atoms: C6_7  and  C7_8 
REMARK    4  A    between atoms: C7_8  and  C8_9 
REMARK    5  A    between atoms: C8_9  and  C10_11 
REMARK    6  A    between atoms: C28_30  and  O3_31 
REMARK    7  A    between atoms: O3_31  and  C29_32 
REMARK    8  A    between atoms: C30_34  and  C31_35 
REMARK    9  A    between atoms: C31_35  and  O5_36 
REMARK   10  A    between atoms: C32_37  and  O6_38 
REMARK   11  A    between atoms: C33_39  and  O7_40 
REMARK   12  A    between atoms: C34_41  and  O8_42 
ROOT
HETATM    1  C10 UNL     1      -0.518  51.148 -20.653  1.00  0.00    -0.002 C 
HETATM    2  C11 UNL     1      -1.195  51.859 -19.430  1.00  0.00     0.006 C 
HETATM    3  C12 UNL     1      -2.628  51.300 -19.288  1.00  0.00     0.011 C 
HETATM    4  C13 UNL     1      -2.629  50.053 -20.187  1.00  0.00    -0.029 C 
HETATM    5  C14 UNL     1      -1.936  48.938 -19.342  1.00  0.00     0.016 C 
HETATM    6  C15 UNL     1      -4.022  49.588 -20.701  1.00  0.00     0.028 C 
HETATM    7  C16 UNL     1      -5.061  49.236 -19.664  1.00  0.00    -0.021 C 
HETATM    8  C17 UNL     1      -5.954  48.255 -19.885  1.00  0.00     0.008 C 
HETATM    9  C18 UNL     1      -5.933  47.400 -21.154  1.00  0.00     0.092 C 
HETATM   10  O2  UNL     1      -4.890  46.444 -20.868  1.00  0.00    -0.374 OA
HETATM   11  C19 UNL     1      -3.639  47.038 -21.292  1.00  0.00     0.179 C 
HETATM   12  C20 UNL     1      -3.928  48.477 -21.819  1.00  0.00    -0.004 C 
HETATM   13  C21 UNL     1      -2.921  48.867 -22.921  1.00  0.00     0.014 C 
HETATM   14  C22 UNL     1      -1.574  49.421 -22.403  1.00  0.00     0.011 C 
HETATM   15  C23 UNL     1      -1.768  50.588 -21.410  1.00  0.00    -0.032 C 
HETATM   16  C24 UNL     1      -2.433  51.770 -22.194  1.00  0.00     0.016 C 
HETATM   17  C25 UNL     1      -5.347  48.181 -22.350  1.00  0.00     0.036 C 
HETATM   18  C26 UNL     1      -6.248  49.323 -22.831  1.00  0.00     0.011 C 
HETATM   19  C27 UNL     1      -7.727  49.042 -22.544  1.00  0.00     0.033 C 
HETATM   20  C28 UNL     1      -8.047  47.548 -22.650  1.00  0.00     0.136 C 
HETATM   21  C35 UNL     1      -7.280  46.692 -21.570  1.00  0.00     0.014 C 
HETATM   22  C36 UNL     1      -6.992  45.308 -22.220  1.00  0.00     0.021 C 
HETATM   23  C37 UNL     1      -8.179  46.383 -20.348  1.00  0.00     0.021 C 
ENDROOT
BRANCH  20  24
HETATM   24  O3  UNL     1      -9.456  47.334 -22.523  1.00  0.00    -0.352 OA
BRANCH  24  25
HETATM   25  C29 UNL     1     -10.078  46.772 -23.684  1.00  0.00     0.292 C 
HETATM   26  O4  UNL     1      -9.960  47.673 -24.783  1.00  0.00    -0.348 OA
HETATM   27  C30 UNL     1     -10.412  47.111 -26.027  1.00  0.00     0.179 C 
HETATM   28  C32 UNL     1     -11.691  46.263 -25.865  1.00  0.00     0.180 C 
HETATM   29  C33 UNL     1     -12.450  46.700 -24.606  1.00  0.00     0.183 C 
HETATM   30  C34 UNL     1     -11.572  46.550 -23.350  1.00  0.00     0.204 C 
BRANCH  27  31
HETATM   31  C31 UNL     1     -10.641  48.293 -26.979  1.00  0.00     0.198 C 
BRANCH  31  32
HETATM   32  O5  UNL     1     -11.813  49.025 -26.646  1.00  0.00    -0.398 OA
HETATM   33  H48 UNL     1     -12.579  48.450 -26.830  1.00  0.00     0.209 HD
ENDBRANCH  31  32
ENDBRANCH  27  31
BRANCH  28  34
HETATM   34  O6  UNL     1     -11.315  44.880 -25.741  1.00  0.00    -0.390 OA
HETATM   35  H50 UNL     1     -12.043  44.436 -25.262  1.00  0.00     0.210 HD
ENDBRANCH  28  34
BRANCH  29  36
HETATM   36  O7  UNL     1     -13.633  45.896 -24.437  1.00  0.00    -0.390 OA
HETATM   37  H52 UNL     1     -14.290  46.208 -25.091  1.00  0.00     0.210 HD
ENDBRANCH  29  36
BRANCH  30  38
HETATM   38  O8  UNL     1     -11.773  45.245 -22.769  1.00  0.00    -0.388 OA
HETATM   39  H54 UNL     1     -12.732  45.081 -22.867  1.00  0.00     0.210 HD
ENDBRANCH  30  38
ENDBRANCH  24  25
ENDBRANCH  20  24
BRANCH   1  40
HETATM   40  C8  UNL     1       0.512  52.064 -21.387  1.00  0.00    -0.010 C 
HETATM   41  C9  UNL     1       1.007  53.225 -20.512  1.00  0.00     0.010 C 
BRANCH  40  42
HETATM   42  C7  UNL     1      -0.061  52.712 -22.682  1.00  0.00     0.031 C 
BRANCH  42  43
HETATM   43  C6  UNL     1       0.205  51.991 -23.971  1.00  0.00    -0.027 C 
HETATM   44  C5  UNL     1       0.718  52.581 -25.065  1.00  0.00     0.006 C 
BRANCH  44  45
HETATM   45  C2  UNL     1       0.995  51.944 -26.414  1.00  0.00     0.070 C 
HETATM   46  C3  UNL     1       0.080  50.768 -26.796  1.00  0.00     0.050 C 
HETATM   47  C4  UNL     1       2.445  51.431 -26.396  1.00  0.00     0.050 C 
BRANCH  45  48
HETATM   48  O1  UNL     1       0.972  52.975 -27.417  1.00  0.00    -0.382 OA
HETATM   49  C1  UNL     1      -0.024  53.977 -27.259  1.00  0.00     0.202 C 
ENDBRANCH  45  48
ENDBRANCH  44  45
ENDBRANCH  42  43
ENDBRANCH  40  42
ENDBRANCH   1  40
TORSDOF 12
ENDMDL
MODEL 8
REMARK minimizedAffinity -8.35566521
REMARK CNNscore 0.313029438
REMARK CNNaffinity 6.81706619
REMARK  12 active torsions:
REMARK  status: ('A' for Active; 'I' for Inactive)
REMARK    1  A    between atoms: O1_2  and  C2_3 
REMARK    2  A    between atoms: C2_3  and  C5_6 
REMARK    3  A    between atoms: C6_7  and  C7_8 
REMARK    4  A    between atoms: C7_8  and  C8_9 
REMARK    5  A    between atoms: C8_9  and  C10_11 
REMARK    6  A    between atoms: C28_30  and  O3_31 
REMARK    7  A    between atoms: O3_31  and  C29_32 
REMARK    8  A    between atoms: C30_34  and  C31_35 
REMARK    9  A    between atoms: C31_35  and  O5_36 
REMARK   10  A    between atoms: C32_37  and  O6_38 
REMARK   11  A    between atoms: C33_39  and  O7_40 
REMARK   12  A    between atoms: C34_41  and  O8_42 
ROOT
HETATM    1  C10 UNL     1      -2.272  50.554 -23.166  1.00  0.00    -0.002 C 
HETATM    2  C11 UNL     1      -2.244  50.081 -24.661  1.00  0.00     0.006 C 
HETATM    3  C12 UNL     1      -3.402  49.078 -24.864  1.00  0.00     0.011 C 
HETATM    4  C13 UNL     1      -4.270  49.257 -23.609  1.00  0.00    -0.029 C 
HETATM    5  C14 UNL     1      -5.119  50.540 -23.878  1.00  0.00     0.016 C 
HETATM    6  C15 UNL     1      -5.178  48.050 -23.233  1.00  0.00     0.028 C 
HETATM    7  C16 UNL     1      -6.187  47.595 -24.259  1.00  0.00    -0.021 C 
HETATM    8  C17 UNL     1      -7.383  47.109 -23.884  1.00  0.00     0.008 C 
HETATM    9  C18 UNL     1      -7.818  47.046 -22.418  1.00  0.00     0.092 C 
HETATM   10  O2  UNL     1      -8.242  48.402 -22.162  1.00  0.00    -0.374 OA
HETATM   11  C19 UNL     1      -7.071  49.144 -21.744  1.00  0.00     0.179 C 
HETATM   12  C20 UNL     1      -5.835  48.194 -21.805  1.00  0.00    -0.004 C 
HETATM   13  C21 UNL     1      -4.793  48.586 -20.737  1.00  0.00     0.014 C 
HETATM   14  C22 UNL     1      -3.831  49.722 -21.156  1.00  0.00     0.011 C 
HETATM   15  C23 UNL     1      -3.140  49.431 -22.507  1.00  0.00    -0.032 C 
HETATM   16  C24 UNL     1      -2.236  48.166 -22.313  1.00  0.00     0.016 C 
HETATM   17  C25 UNL     1      -6.604  46.896 -21.476  1.00  0.00     0.036 C 
HETATM   18  C26 UNL     1      -5.910  45.534 -21.590  1.00  0.00     0.011 C 
HETATM   19  C27 UNL     1      -6.882  44.434 -22.031  1.00  0.00     0.033 C 
HETATM   20  C28 UNL     1      -8.291  44.675 -21.480  1.00  0.00     0.136 C 
HETATM   21  C35 UNL     1      -8.936  46.000 -22.041  1.00  0.00     0.014 C 
HETATM   22  C36 UNL     1      -9.852  46.561 -20.915  1.00  0.00     0.021 C 
HETATM   23  C37 UNL     1      -9.889  45.709 -23.226  1.00  0.00     0.021 C 
ENDROOT
BRANCH  20  24
HETATM   24  O3  UNL     1      -9.136  43.561 -21.784  1.00  0.00    -0.352 OA
BRANCH  24  25
HETATM   25  C29 UNL     1      -8.458  42.302 -21.852  1.00  0.00     0.292 C 
HETATM   26  O4  UNL     1      -8.598  41.743 -23.157  1.00  0.00    -0.348 OA
HETATM   27  C30 UNL     1      -7.805  40.560 -23.354  1.00  0.00     0.179 C 
HETATM   28  C32 UNL     1      -7.804  39.634 -22.120  1.00  0.00     0.180 C 
HETATM   29  C33 UNL     1      -9.054  39.896 -21.271  1.00  0.00     0.183 C 
HETATM   30  C34 UNL     1      -9.113  41.364 -20.810  1.00  0.00     0.204 C 
BRANCH  27  31
HETATM   31  C31 UNL     1      -8.384  39.851 -24.586  1.00  0.00     0.198 C 
BRANCH  31  32
HETATM   32  O5  UNL     1      -7.485  38.887 -25.117  1.00  0.00    -0.398 OA
HETATM   33  H48 UNL     1      -6.724  39.372 -25.488  1.00  0.00     0.209 HD
ENDBRANCH  31  32
ENDBRANCH  27  31
BRANCH  28  34
HETATM   34  O6  UNL     1      -6.628  39.908 -21.339  1.00  0.00    -0.390 OA
HETATM   35  H50 UNL     1      -6.832  39.633 -20.423  1.00  0.00     0.210 HD
ENDBRANCH  28  34
BRANCH  29  36
HETATM   36  O7  UNL     1      -9.046  39.050 -20.105  1.00  0.00    -0.390 OA
HETATM   37  H52 UNL     1      -9.285  38.148 -20.401  1.00  0.00     0.210 HD
ENDBRANCH  29  36
BRANCH  30  38
HETATM   38  O8  UNL     1      -8.465  41.498 -19.529  1.00  0.00    -0.388 OA
HETATM   39  H54 UNL     1      -8.727  40.693 -19.039  1.00  0.00     0.210 HD
ENDBRANCH  30  38
ENDBRANCH  24  25
ENDBRANCH  20  24
BRANCH   1  40
HETATM   40  C8  UNL     1      -0.850  50.886 -22.613  1.00  0.00    -0.010 C 
HETATM   41  C9  UNL     1      -0.763  50.769 -21.084  1.00  0.00     0.010 C 
BRANCH  40  42
HETATM   42  C7  UNL     1      -0.379  52.329 -22.964  1.00  0.00     0.031 C 
BRANCH  42  43
HETATM   43  C6  UNL     1      -0.400  52.710 -24.416  1.00  0.00    -0.027 C 
HETATM   44  C5  UNL     1       0.434  52.194 -25.336  1.00  0.00     0.006 C 
BRANCH  44  45
HETATM   45  C2  UNL     1       0.506  52.536 -26.812  1.00  0.00     0.070 C 
HETATM   46  C3  UNL     1      -0.022  53.928 -27.200  1.00  0.00     0.050 C 
HETATM   47  C4  UNL     1      -0.320  51.484 -27.573  1.00  0.00     0.050 C 
BRANCH  45  48
HETATM   48  O1  UNL     1       1.861  52.345 -27.258  1.00  0.00    -0.382 OA
HETATM   49  C1  UNL     1       2.614  51.362 -26.560  1.00  0.00     0.202 C 
ENDBRANCH  45  48
ENDBRANCH  44  45
ENDBRANCH  42  43
ENDBRANCH  40  42
ENDBRANCH   1  40
TORSDOF 12
ENDMDL
MODEL 9
REMARK minimizedAffinity -8.62443161
REMARK CNNscore 0.303549856
REMARK CNNaffinity 6.86831141
REMARK  12 active torsions:
REMARK  status: ('A' for Active; 'I' for Inactive)
REMARK    1  A    between atoms: O1_2  and  C2_3 
REMARK    2  A    between atoms: C2_3  and  C5_6 
REMARK    3  A    between atoms: C6_7  and  C7_8 
REMARK    4  A    between atoms: C7_8  and  C8_9 
REMARK    5  A    between atoms: C8_9  and  C10_11 
REMARK    6  A    between atoms: C28_30  and  O3_31 
REMARK    7  A    between atoms: O3_31  and  C29_32 
REMARK    8  A    between atoms: C30_34  and  C31_35 
REMARK    9  A    between atoms: C31_35  and  O5_36 
REMARK   10  A    between atoms: C32_37  and  O6_38 
REMARK   11  A    between atoms: C33_39  and  O7_40 
REMARK   12  A    between atoms: C34_41  and  O8_42 
ROOT
HETATM    1  C10 UNL     1      -0.224  51.090 -18.988  1.00  0.00    -0.002 C 
HETATM    2  C11 UNL     1      -0.373  50.041 -17.832  1.00  0.00     0.006 C 
HETATM    3  C12 UNL     1      -1.575  49.129 -18.169  1.00  0.00     0.011 C 
HETATM    4  C13 UNL     1      -1.869  49.437 -19.646  1.00  0.00    -0.029 C 
HETATM    5  C14 UNL     1      -0.813  48.616 -20.453  1.00  0.00     0.016 C 
HETATM    6  C15 UNL     1      -3.315  49.125 -20.130  1.00  0.00     0.028 C 
HETATM    7  C16 UNL     1      -3.799  47.701 -19.996  1.00  0.00    -0.021 C 
HETATM    8  C17 UNL     1      -4.634  47.167 -20.904  1.00  0.00     0.008 C 
HETATM    9  C18 UNL     1      -5.089  47.932 -22.148  1.00  0.00     0.092 C 
HETATM   10  O2  UNL     1      -3.961  47.782 -23.035  1.00  0.00    -0.374 OA
HETATM   11  C19 UNL     1      -3.045  48.867 -22.748  1.00  0.00     0.179 C 
HETATM   12  C20 UNL     1      -3.623  49.703 -21.566  1.00  0.00    -0.004 C 
HETATM   13  C21 UNL     1      -3.198  51.181 -21.685  1.00  0.00     0.014 C 
HETATM   14  C22 UNL     1      -1.798  51.502 -21.113  1.00  0.00     0.011 C 
HETATM   15  C23 UNL     1      -1.636  51.008 -19.659  1.00  0.00    -0.032 C 
HETATM   16  C24 UNL     1      -2.645  51.812 -18.770  1.00  0.00     0.016 C 
HETATM   17  C25 UNL     1      -5.111  49.456 -21.896  1.00  0.00     0.036 C 
HETATM   18  C26 UNL     1      -6.205  49.895 -20.916  1.00  0.00     0.011 C 
HETATM   19  C27 UNL     1      -7.406  48.943 -20.938  1.00  0.00     0.033 C 
HETATM   20  C28 UNL     1      -7.640  48.365 -22.338  1.00  0.00     0.136 C 
HETATM   21  C35 UNL     1      -6.436  47.471 -22.827  1.00  0.00     0.014 C 
HETATM   22  C36 UNL     1      -6.355  47.639 -24.372  1.00  0.00     0.021 C 
HETATM   23  C37 UNL     1      -6.719  45.966 -22.601  1.00  0.00     0.021 C 
ENDROOT
BRANCH  20  24
HETATM   24  O3  UNL     1      -8.849  47.600 -22.360  1.00  0.00    -0.352 OA
BRANCH  24  25
HETATM   25  C29 UNL     1      -9.241  47.149 -23.662  1.00  0.00     0.292 C 
HETATM   26  O4  UNL     1      -9.439  48.268 -24.525  1.00  0.00    -0.348 OA
HETATM   27  C30 UNL     1      -9.672  47.892 -25.894  1.00  0.00     0.179 C 
HETATM   28  C32 UNL     1     -10.584  46.654 -26.022  1.00  0.00     0.180 C 
HETATM   29  C33 UNL     1     -11.446  46.508 -24.762  1.00  0.00     0.183 C 
HETATM   30  C34 UNL     1     -10.569  46.371 -23.504  1.00  0.00     0.204 C 
BRANCH  27  31
HETATM   31  C31 UNL     1     -10.293  49.117 -26.579  1.00  0.00     0.198 C 
BRANCH  31  32
HETATM   32  O5  UNL     1      -9.815  50.335 -26.025  1.00  0.00    -0.398 OA
HETATM   33  H48 UNL     1     -10.163  50.400 -25.117  1.00  0.00     0.209 HD
ENDBRANCH  31  32
ENDBRANCH  27  31
BRANCH  28  34
HETATM   34  O6  UNL     1      -9.757  45.487 -26.175  1.00  0.00    -0.390 OA
HETATM   35  H50 UNL     1     -10.289  44.727 -25.863  1.00  0.00     0.210 HD
ENDBRANCH  28  34
BRANCH  29  36
HETATM   36  O7  UNL     1     -12.282  45.340 -24.867  1.00  0.00    -0.390 OA
HETATM   37  H52 UNL     1     -13.007  45.558 -25.487  1.00  0.00     0.210 HD
ENDBRANCH  29  36
BRANCH  30  38
HETATM   38  O8  UNL     1     -10.311  44.977 -23.240  1.00  0.00    -0.388 OA
HETATM   39  H54 UNL     1     -11.156  44.530 -23.447  1.00  0.00     0.210 HD
ENDBRANCH  30  38
ENDBRANCH  24  25
ENDBRANCH  20  24
BRANCH   1  40
HETATM   40  C8  UNL     1       0.340  52.458 -18.490  1.00  0.00    -0.010 C 
HETATM   41  C9  UNL     1       0.647  53.430 -19.639  1.00  0.00     0.010 C 
BRANCH  40  42
HETATM   42  C7  UNL     1       1.663  52.315 -17.679  1.00  0.00     0.031 C 
BRANCH  42  43
HETATM   43  C6  UNL     1       1.562  52.480 -16.191  1.00  0.00    -0.027 C 
HETATM   44  C5  UNL     1       1.343  51.463 -15.340  1.00  0.00     0.006 C 
BRANCH  44  45
HETATM   45  C2  UNL     1       1.199  51.537 -13.831  1.00  0.00     0.070 C 
HETATM   46  C3  UNL     1       0.212  52.593 -13.306  1.00  0.00     0.050 C 
HETATM   47  C4  UNL     1       2.587  51.851 -13.247  1.00  0.00     0.050 C 
BRANCH  45  48
HETATM   48  O1  UNL     1       0.873  50.224 -13.341  1.00  0.00    -0.382 OA
HETATM   49  C1  UNL     1      -0.273  50.138 -12.503  1.00  0.00     0.202 C 
ENDBRANCH  45  48
ENDBRANCH  44  45
ENDBRANCH  42  43
ENDBRANCH  40  42
ENDBRANCH   1  40
TORSDOF 12
ENDMDL
