MODEL 1
REMARK minimizedAffinity -8.97538662
REMARK CNNscore 0.666805089
REMARK CNNaffinity 7.06619263
REMARK  13 active torsions:
REMARK  status: ('A' for Active; 'I' for Inactive)
REMARK    1  A    between atoms: C19_20  and  O2_21 
REMARK    2  A    between atoms: C19_20  and  C20_22 
REMARK    3  A    between atoms: C20_22  and  C21_24 
REMARK    4  A    between atoms: C21_24  and  O4_25 
REMARK    5  A    between atoms: O4_25  and  C22_26 
REMARK    6  A    between atoms: C22_26  and  C23_28 
REMARK    7  A    between atoms: C23_28  and  C24_29 
REMARK    8  A    between atoms: C24_29  and  C25_30 
REMARK       I    between atoms: C25_30  and  N1_32 
REMARK    9  A    between atoms: N1_32  and  C26_33 
REMARK   10  A    between atoms: C26_33  and  C27_34 
REMARK   11  A    between atoms: C26_33  and  C36_44 
REMARK   12  A    between atoms: C27_34  and  C28_35 
REMARK   13  A    between atoms: C36_44  and  O8_46 
ROOT
HETATM    1  C21 UNL     1      -1.362  49.062 -16.337  1.00  0.00     0.260 C 
ENDROOT
BRANCH   1   2
HETATM    2  C20 UNL     1      -1.813  48.882 -17.798  1.00  0.00     0.185 C 
HETATM    3  O3  UNL     1      -2.304  47.794 -18.132  1.00  0.00    -0.292 OA
BRANCH   2   4
HETATM    4  C19 UNL     1      -1.765  50.085 -18.794  1.00  0.00     0.128 C 
HETATM    5  C14 UNL     1      -2.845  50.025 -19.930  1.00  0.00    -0.002 C 
HETATM    6  C13 UNL     1      -2.982  51.391 -20.659  1.00  0.00     0.013 C 
HETATM    7  C15 UNL     1      -4.232  49.650 -19.379  1.00  0.00     0.019 C 
HETATM    8  C16 UNL     1      -2.255  48.948 -20.880  1.00  0.00     0.002 C 
HETATM    9  C12 UNL     1      -3.647  51.299 -22.037  1.00  0.00     0.007 C 
HETATM   10  C11 UNL     1      -2.871  50.350 -22.969  1.00  0.00     0.002 C 
HETATM   11  C2  UNL     1      -3.355  50.288 -24.479  1.00  0.00    -0.016 C 
HETATM   12  C10 UNL     1      -2.786  48.935 -22.333  1.00  0.00    -0.004 C 
HETATM   13  C1  UNL     1      -4.165  51.538 -24.884  1.00  0.00     0.020 C 
HETATM   14  C3  UNL     1      -2.090  50.191 -25.382  1.00  0.00     0.022 C 
HETATM   15  C7  UNL     1      -4.211  49.052 -24.743  1.00  0.00    -0.068 C 
HETATM   16  C4  UNL     1      -2.404  49.945 -26.856  1.00  0.00     0.084 C 
HETATM   17  C5  UNL     1      -3.350  48.785 -27.041  1.00  0.00     0.149 C 
HETATM   18  O1  UNL     1      -3.454  48.194 -28.114  1.00  0.00    -0.293 OA
HETATM   19  C6  UNL     1      -4.205  48.372 -25.903  1.00  0.00     0.053 C 
HETATM   20  C8  UNL     1      -5.027  48.574 -23.579  1.00  0.00     0.035 C 
HETATM   21  C9  UNL     1      -4.107  48.135 -22.442  1.00  0.00     0.010 C 
HETATM   22  C17 UNL     1      -0.729  49.180 -20.830  1.00  0.00     0.009 C 
HETATM   23  C18 UNL     1      -0.442  50.017 -19.584  1.00  0.00     0.047 C 
BRANCH   4  24
HETATM   24  O2  UNL     1      -1.798  51.336 -18.120  1.00  0.00    -0.381 OA
HETATM   25  H27 UNL     1      -0.999  51.363 -17.554  1.00  0.00     0.211 HD
ENDBRANCH   4  24
ENDBRANCH   2   4
ENDBRANCH   1   2
BRANCH   1  26
HETATM   26  O4  UNL     1      -0.731  50.230 -15.841  1.00  0.00    -0.314 OA
BRANCH  26  27
HETATM   27  C22 UNL     1       0.527  50.048 -15.363  1.00  0.00     0.259 C 
HETATM   28  O5  UNL     1       1.036  48.955 -15.144  1.00  0.00    -0.265 OA
BRANCH  27  29
HETATM   29  C23 UNL     1       1.229  51.363 -15.179  1.00  0.00     0.120 C 
BRANCH  29  30
HETATM   30  C24 UNL     1       0.494  52.226 -14.166  1.00  0.00     0.112 C 
BRANCH  30  31
HETATM   31  C25 UNL     1       1.268  52.325 -12.869  1.00  0.00     0.218 C 
HETATM   32  O6  UNL     1       2.230  51.614 -12.605  1.00  0.00    -0.274 OA
HETATM   33  N1  UNL     1       0.777  53.291 -12.015  1.00  0.00    -0.346 N 
HETATM   34  H34 UNL     1       0.237  54.030 -12.449  1.00  0.00     0.163 HD
BRANCH  33  35
HETATM   35  C26 UNL     1       1.522  53.695 -10.805  1.00  0.00     0.186 C 
BRANCH  35  36
HETATM   36  C27 UNL     1       1.563  55.216 -10.577  1.00  0.00     0.077 C 
BRANCH  36  37
HETATM   37  C28 UNL     1       2.433  55.621  -9.420  1.00  0.00    -0.028 A 
HETATM   38  C29 UNL     1       2.008  56.212  -8.244  1.00  0.00     0.096 A 
HETATM   39  N2  UNL     1       3.098  56.403  -7.437  1.00  0.00    -0.365 N 
HETATM   40  C30 UNL     1       4.236  55.947  -8.057  1.00  0.00     0.042 A 
HETATM   41  H39 UNL     1       3.080  56.815  -6.516  1.00  0.00     0.165 HD
HETATM   42  C31 UNL     1       5.564  55.934  -7.611  1.00  0.00     0.030 A 
HETATM   43  C35 UNL     1       3.851  55.450  -9.305  1.00  0.00    -0.002 A 
HETATM   44  C32 UNL     1       6.532  55.397  -8.466  1.00  0.00     0.002 A 
HETATM   45  C33 UNL     1       6.181  54.893  -9.716  1.00  0.00     0.001 A 
HETATM   46  C34 UNL     1       4.849  54.914 -10.145  1.00  0.00     0.014 A 
ENDBRANCH  36  37
ENDBRANCH  35  36
BRANCH  35  47
HETATM   47  C36 UNL     1       1.007  52.934  -9.574  1.00  0.00     0.163 C 
HETATM   48  O7  UNL     1       1.646  52.574  -8.599  1.00  0.00    -0.648 OA
BRANCH  47  49
HETATM   49  O8  UNL     1      -0.288  52.549  -9.682  1.00  0.00    -0.775 OA
HETATM   50  H44 UNL     1      -0.445  52.074  -8.836  1.00  0.00     0.167 HD
ENDBRANCH  47  49
ENDBRANCH  35  47
ENDBRANCH  33  35
ENDBRANCH  30  31
ENDBRANCH  29  30
ENDBRANCH  27  29
ENDBRANCH  26  27
ENDBRANCH   1  26
TORSDOF 13
ENDMDL
MODEL 2
REMARK minimizedAffinity -9.38894272
REMARK CNNscore 0.457294136
REMARK CNNaffinity 7.01200104
REMARK  13 active torsions:
REMARK  status: ('A' for Active; 'I' for Inactive)
REMARK    1  A    between atoms: C19_20  and  O2_21 
REMARK    2  A    between atoms: C19_20  and  C20_22 
REMARK    3  A    between atoms: C20_22  and  C21_24 
REMARK    4  A    between atoms: C21_24  and  O4_25 
REMARK    5  A    between atoms: O4_25  and  C22_26 
REMARK    6  A    between atoms: C22_26  and  C23_28 
REMARK    7  A    between atoms: C23_28  and  C24_29 
REMARK    8  A    between atoms: C24_29  and  C25_30 
REMARK       I    between atoms: C25_30  and  N1_32 
REMARK    9  A    between atoms: N1_32  and  C26_33 
REMARK   10  A    between atoms: C26_33  and  C27_34 
REMARK   11  A    between atoms: C26_33  and  C36_44 
REMARK   12  A    between atoms: C27_34  and  C28_35 
REMARK   13  A    between atoms: C36_44  and  O8_46 
ROOT
HETATM    1  C21 UNL     1      -2.421  49.773 -17.254  1.00  0.00     0.260 C 
ENDROOT
BRANCH   1   2
HETATM    2  C20 UNL     1      -2.892  50.587 -18.472  1.00  0.00     0.185 C 
HETATM    3  O3  UNL     1      -2.835  51.823 -18.412  1.00  0.00    -0.292 OA
BRANCH   2   4
HETATM    4  C19 UNL     1      -3.311  49.862 -19.792  1.00  0.00     0.128 C 
HETATM    5  C14 UNL     1      -2.256  49.965 -20.948  1.00  0.00    -0.002 C 
HETATM    6  C13 UNL     1      -2.555  48.949 -22.085  1.00  0.00     0.013 C 
HETATM    7  C15 UNL     1      -0.829  49.691 -20.443  1.00  0.00     0.019 C 
HETATM    8  C16 UNL     1      -2.459  51.423 -21.441  1.00  0.00     0.002 C 
HETATM    9  C12 UNL     1      -1.880  49.289 -23.420  1.00  0.00     0.007 C 
HETATM   10  C11 UNL     1      -2.300  50.684 -23.918  1.00  0.00     0.002 C 
HETATM   11  C2  UNL     1      -1.805  51.096 -25.368  1.00  0.00    -0.016 C 
HETATM   12  C10 UNL     1      -1.935  51.759 -22.857  1.00  0.00    -0.004 C 
HETATM   13  C1  UNL     1      -1.433  49.870 -26.229  1.00  0.00     0.020 C 
HETATM   14  C3  UNL     1      -2.962  51.872 -26.066  1.00  0.00     0.022 C 
HETATM   15  C7  UNL     1      -0.595  52.025 -25.304  1.00  0.00    -0.068 C 
HETATM   16  C4  UNL     1      -2.569  52.488 -27.406  1.00  0.00     0.084 C 
HETATM   17  C5  UNL     1      -1.299  53.295 -27.301  1.00  0.00     0.149 C 
HETATM   18  O1  UNL     1      -0.999  54.149 -28.132  1.00  0.00    -0.293 OA
HETATM   19  C6  UNL     1      -0.370  53.021 -26.179  1.00  0.00     0.053 C 
HETATM   20  C8  UNL     1       0.317  51.813 -24.133  1.00  0.00     0.035 C 
HETATM   21  C9  UNL     1      -0.426  52.105 -22.832  1.00  0.00     0.010 C 
HETATM   22  C17 UNL     1      -3.979  51.666 -21.320  1.00  0.00     0.009 C 
HETATM   23  C18 UNL     1      -4.534  50.591 -20.387  1.00  0.00     0.047 C 
BRANCH   4  24
HETATM   24  O2  UNL     1      -3.689  48.511 -19.561  1.00  0.00    -0.381 OA
HETATM   25  H27 UNL     1      -4.460  48.542 -18.959  1.00  0.00     0.211 HD
ENDBRANCH   4  24
ENDBRANCH   2   4
ENDBRANCH   1   2
BRANCH   1  26
HETATM   26  O4  UNL     1      -1.061  49.566 -16.915  1.00  0.00    -0.314 OA
BRANCH  26  27
HETATM   27  C22 UNL     1      -0.481  50.572 -16.211  1.00  0.00     0.259 C 
HETATM   28  O5  UNL     1      -0.907  51.012 -15.150  1.00  0.00    -0.265 OA
BRANCH  27  29
HETATM   29  C23 UNL     1       0.777  51.044 -16.882  1.00  0.00     0.120 C 
BRANCH  29  30
HETATM   30  C24 UNL     1       1.354  52.247 -16.153  1.00  0.00     0.112 C 
BRANCH  30  31
HETATM   31  C25 UNL     1       2.524  51.846 -15.280  1.00  0.00     0.218 C 
HETATM   32  O6  UNL     1       3.693  51.977 -15.621  1.00  0.00    -0.274 OA
HETATM   33  N1  UNL     1       2.139  51.313 -14.067  1.00  0.00    -0.346 N 
HETATM   34  H34 UNL     1       1.212  51.568 -13.747  1.00  0.00     0.163 HD
BRANCH  33  35
HETATM   35  C26 UNL     1       3.121  51.070 -12.990  1.00  0.00     0.186 C 
BRANCH  35  36
HETATM   36  C27 UNL     1       2.564  51.297 -11.574  1.00  0.00     0.077 C 
BRANCH  36  37
HETATM   37  C28 UNL     1       3.504  52.057 -10.680  1.00  0.00    -0.028 A 
HETATM   38  C29 UNL     1       4.558  51.525  -9.960  1.00  0.00     0.096 A 
HETATM   39  N2  UNL     1       5.182  52.543  -9.290  1.00  0.00    -0.365 N 
HETATM   40  C30 UNL     1       4.561  53.739  -9.556  1.00  0.00     0.042 A 
HETATM   41  H39 UNL     1       5.986  52.442  -8.689  1.00  0.00     0.165 HD
HETATM   42  C31 UNL     1       4.855  55.031  -9.098  1.00  0.00     0.030 A 
HETATM   43  C35 UNL     1       3.503  53.467 -10.426  1.00  0.00    -0.002 A 
HETATM   44  C32 UNL     1       4.042  56.078  -9.542  1.00  0.00     0.002 A 
HETATM   45  C33 UNL     1       2.979  55.841 -10.410  1.00  0.00     0.001 A 
HETATM   46  C34 UNL     1       2.700  54.544 -10.857  1.00  0.00     0.014 A 
ENDBRANCH  36  37
ENDBRANCH  35  36
BRANCH  35  47
HETATM   47  C36 UNL     1       3.764  49.683 -13.149  1.00  0.00     0.163 C 
HETATM   48  O7  UNL     1       3.429  48.640 -12.613  1.00  0.00    -0.648 OA
BRANCH  47  49
HETATM   49  O8  UNL     1       4.894  49.696 -13.899  1.00  0.00    -0.775 OA
HETATM   50  H44 UNL     1       5.175  48.755 -13.884  1.00  0.00     0.167 HD
ENDBRANCH  47  49
ENDBRANCH  35  47
ENDBRANCH  33  35
ENDBRANCH  30  31
ENDBRANCH  29  30
ENDBRANCH  27  29
ENDBRANCH  26  27
ENDBRANCH   1  26
TORSDOF 13
ENDMDL
MODEL 3
REMARK minimizedAffinity -9.37427616
REMARK CNNscore 0.333911687
REMARK CNNaffinity 6.82728052
REMARK  13 active torsions:
REMARK  status: ('A' for Active; 'I' for Inactive)
REMARK    1  A    between atoms: C19_20  and  O2_21 
REMARK    2  A    between atoms: C19_20  and  C20_22 
REMARK    3  A    between atoms: C20_22  and  C21_24 
REMARK    4  A    between atoms: C21_24  and  O4_25 
REMARK    5  A    between atoms: O4_25  and  C22_26 
REMARK    6  A    between atoms: C22_26  and  C23_28 
REMARK    7  A    between atoms: C23_28  and  C24_29 
REMARK    8  A    between atoms: C24_29  and  C25_30 
REMARK       I    between atoms: C25_30  and  N1_32 
REMARK    9  A    between atoms: N1_32  and  C26_33 
REMARK   10  A    between atoms: C26_33  and  C27_34 
REMARK   11  A    between atoms: C26_33  and  C36_44 
REMARK   12  A    between atoms: C27_34  and  C28_35 
REMARK   13  A    between atoms: C36_44  and  O8_46 
ROOT
HETATM    1  C21 UNL     1      -2.834  48.808 -25.810  1.00  0.00     0.260 C 
ENDROOT
BRANCH   1   2
HETATM    2  C20 UNL     1      -2.557  49.657 -24.556  1.00  0.00     0.185 C 
HETATM    3  O3  UNL     1      -1.803  50.635 -24.663  1.00  0.00    -0.292 OA
BRANCH   2   4
HETATM    4  C19 UNL     1      -3.308  49.359 -23.219  1.00  0.00     0.128 C 
HETATM    5  C14 UNL     1      -2.918  50.310 -22.035  1.00  0.00    -0.002 C 
HETATM    6  C13 UNL     1      -3.931  50.204 -20.861  1.00  0.00     0.013 C 
HETATM    7  C15 UNL     1      -2.872  51.783 -22.477  1.00  0.00     0.019 C 
HETATM    8  C16 UNL     1      -1.529  49.755 -21.618  1.00  0.00     0.002 C 
HETATM    9  C12 UNL     1      -3.393  50.724 -19.522  1.00  0.00     0.007 C 
HETATM   10  C11 UNL     1      -2.115  49.972 -19.105  1.00  0.00     0.002 C 
HETATM   11  C2  UNL     1      -1.544  50.295 -17.660  1.00  0.00    -0.016 C 
HETATM   12  C10 UNL     1      -1.027  50.125 -20.202  1.00  0.00    -0.004 C 
HETATM   13  C1  UNL     1      -2.617  50.902 -16.730  1.00  0.00     0.020 C 
HETATM   14  C3  UNL     1      -1.033  48.961 -17.039  1.00  0.00     0.022 C 
HETATM   15  C7  UNL     1      -0.363  51.259 -17.727  1.00  0.00    -0.068 C 
HETATM   16  C4  UNL     1      -0.291  49.143 -15.718  1.00  0.00     0.084 C 
HETATM   17  C5  UNL     1       0.785  50.196 -15.818  1.00  0.00     0.149 C 
HETATM   18  O1  UNL     1       1.716  50.254 -15.018  1.00  0.00    -0.293 OA
HETATM   19  C6  UNL     1       0.691  51.211 -16.894  1.00  0.00     0.053 C 
HETATM   20  C8  UNL     1      -0.402  52.246 -18.856  1.00  0.00     0.035 C 
HETATM   21  C9  UNL     1      -0.341  51.513 -20.194  1.00  0.00     0.010 C 
HETATM   22  C17 UNL     1      -1.652  48.226 -21.801  1.00  0.00     0.009 C 
HETATM   23  C18 UNL     1      -2.860  47.976 -22.701  1.00  0.00     0.047 C 
BRANCH   4  24
HETATM   24  O2  UNL     1      -4.717  49.314 -23.398  1.00  0.00    -0.381 OA
HETATM   25  H27 UNL     1      -4.890  48.583 -24.027  1.00  0.00     0.211 HD
ENDBRANCH   4  24
ENDBRANCH   2   4
ENDBRANCH   1   2
BRANCH   1  26
HETATM   26  O4  UNL     1      -4.080  48.770 -26.483  1.00  0.00    -0.314 OA
BRANCH  26  27
HETATM   27  C22 UNL     1      -4.025  49.021 -27.816  1.00  0.00     0.259 C 
HETATM   28  O5  UNL     1      -3.394  49.938 -28.325  1.00  0.00    -0.265 OA
BRANCH  27  29
HETATM   29  C23 UNL     1      -4.806  47.998 -28.590  1.00  0.00     0.120 C 
BRANCH  29  30
HETATM   30  C24 UNL     1      -6.211  47.855 -28.025  1.00  0.00     0.112 C 
BRANCH  30  31
HETATM   31  C25 UNL     1      -7.218  47.603 -29.126  1.00  0.00     0.218 C 
HETATM   32  O6  UNL     1      -7.859  46.564 -29.227  1.00  0.00    -0.274 OA
HETATM   33  N1  UNL     1      -7.336  48.659 -30.007  1.00  0.00    -0.346 N 
HETATM   34  H34 UNL     1      -7.049  49.563 -29.653  1.00  0.00     0.163 HD
BRANCH  33  35
HETATM   35  C26 UNL     1      -8.418  48.702 -31.012  1.00  0.00     0.186 C 
BRANCH  35  36
HETATM   36  C27 UNL     1      -7.996  48.203 -32.405  1.00  0.00     0.077 C 
BRANCH  36  37
HETATM   37  C28 UNL     1      -6.694  47.451 -32.399  1.00  0.00    -0.028 A 
HETATM   38  C29 UNL     1      -5.428  48.008 -32.399  1.00  0.00     0.096 A 
HETATM   39  N2  UNL     1      -4.510  46.992 -32.370  1.00  0.00    -0.365 N 
HETATM   40  C30 UNL     1      -5.145  45.775 -32.348  1.00  0.00     0.042 A 
HETATM   41  H39 UNL     1      -3.507  47.109 -32.361  1.00  0.00     0.165 HD
HETATM   42  C31 UNL     1      -4.613  44.478 -32.311  1.00  0.00     0.030 A 
HETATM   43  C35 UNL     1      -6.519  46.029 -32.366  1.00  0.00    -0.002 A 
HETATM   44  C32 UNL     1      -5.513  43.408 -32.293  1.00  0.00     0.002 A 
HETATM   45  C33 UNL     1      -6.888  43.627 -32.309  1.00  0.00     0.001 A 
HETATM   46  C34 UNL     1      -7.401  44.929 -32.346  1.00  0.00     0.014 A 
ENDBRANCH  36  37
ENDBRANCH  35  36
BRANCH  35  47
HETATM   47  C36 UNL     1      -9.670  47.981 -30.489  1.00  0.00     0.163 C 
HETATM   48  O7  UNL     1     -10.269  47.054 -31.008  1.00  0.00    -0.648 OA
BRANCH  47  49
HETATM   49  O8  UNL     1     -10.190  48.549 -29.372  1.00  0.00    -0.775 OA
HETATM   50  H44 UNL     1     -10.974  47.986 -29.188  1.00  0.00     0.167 HD
ENDBRANCH  47  49
ENDBRANCH  35  47
ENDBRANCH  33  35
ENDBRANCH  30  31
ENDBRANCH  29  30
ENDBRANCH  27  29
ENDBRANCH  26  27
ENDBRANCH   1  26
TORSDOF 13
ENDMDL
MODEL 4
REMARK minimizedAffinity -8.99778461
REMARK CNNscore 0.320791125
REMARK CNNaffinity 6.56788301
REMARK  13 active torsions:
REMARK  status: ('A' for Active; 'I' for Inactive)
REMARK    1  A    between atoms: C19_20  and  O2_21 
REMARK    2  A    between atoms: C19_20  and  C20_22 
REMARK    3  A    between atoms: C20_22  and  C21_24 
REMARK    4  A    between atoms: C21_24  and  O4_25 
REMARK    5  A    between atoms: O4_25  and  C22_26 
REMARK    6  A    between atoms: C22_26  and  C23_28 
REMARK    7  A    between atoms: C23_28  and  C24_29 
REMARK    8  A    between atoms: C24_29  and  C25_30 
REMARK       I    between atoms: C25_30  and  N1_32 
REMARK    9  A    between atoms: N1_32  and  C26_33 
REMARK   10  A    between atoms: C26_33  and  C27_34 
REMARK   11  A    between atoms: C26_33  and  C36_44 
REMARK   12  A    between atoms: C27_34  and  C28_35 
REMARK   13  A    between atoms: C36_44  and  O8_46 
ROOT
HETATM    1  C21 UNL     1      -1.064  49.202 -16.573  1.00  0.00     0.260 C 
ENDROOT
BRANCH   1   2
HETATM    2  C20 UNL     1      -1.753  49.074 -17.943  1.00  0.00     0.185 C 
HETATM    3  O3  UNL     1      -2.443  48.068 -18.164  1.00  0.00    -0.292 OA
BRANCH   2   4
HETATM    4  C19 UNL     1      -1.680  50.244 -18.976  1.00  0.00     0.128 C 
HETATM    5  C14 UNL     1      -2.776  50.184 -20.097  1.00  0.00    -0.002 C 
HETATM    6  C13 UNL     1      -2.881  51.531 -20.865  1.00  0.00     0.013 C 
HETATM    7  C15 UNL     1      -4.167  49.870 -19.518  1.00  0.00     0.019 C 
HETATM    8  C16 UNL     1      -2.233  49.061 -21.021  1.00  0.00     0.002 C 
HETATM    9  C12 UNL     1      -3.566  51.418 -22.232  1.00  0.00     0.007 C 
HETATM   10  C11 UNL     1      -2.832  50.417 -23.144  1.00  0.00     0.002 C 
HETATM   11  C2  UNL     1      -3.338  50.325 -24.645  1.00  0.00    -0.016 C 
HETATM   12  C10 UNL     1      -2.783  49.020 -22.466  1.00  0.00    -0.004 C 
HETATM   13  C1  UNL     1      -4.114  51.587 -25.079  1.00  0.00     0.020 C 
HETATM   14  C3  UNL     1      -2.089  50.160 -25.560  1.00  0.00     0.022 C 
HETATM   15  C7  UNL     1      -4.236  49.109 -24.861  1.00  0.00    -0.068 C 
HETATM   16  C4  UNL     1      -2.430  49.880 -27.022  1.00  0.00     0.084 C 
HETATM   17  C5  UNL     1      -3.414  48.745 -27.160  1.00  0.00     0.149 C 
HETATM   18  O1  UNL     1      -3.550  48.125 -28.212  1.00  0.00    -0.293 OA
HETATM   19  C6  UNL     1      -4.266  48.395 -25.999  1.00  0.00     0.053 C 
HETATM   20  C8  UNL     1      -5.051  48.693 -23.673  1.00  0.00     0.035 C 
HETATM   21  C9  UNL     1      -4.130  48.259 -22.534  1.00  0.00     0.010 C 
HETATM   22  C17 UNL     1      -0.700  49.246 -20.996  1.00  0.00     0.009 C 
HETATM   23  C18 UNL     1      -0.370  50.110 -19.780  1.00  0.00     0.047 C 
BRANCH   4  24
HETATM   24  O2  UNL     1      -1.665  51.515 -18.341  1.00  0.00    -0.381 OA
HETATM   25  H27 UNL     1      -0.859  51.534 -17.786  1.00  0.00     0.211 HD
ENDBRANCH   4  24
ENDBRANCH   2   4
ENDBRANCH   1   2
BRANCH   1  26
HETATM   26  O4  UNL     1      -1.157  50.346 -15.742  1.00  0.00    -0.314 OA
BRANCH  26  27
HETATM   27  C22 UNL     1      -2.392  50.591 -15.232  1.00  0.00     0.259 C 
HETATM   28  O5  UNL     1      -3.313  51.099 -15.859  1.00  0.00    -0.265 OA
BRANCH  27  29
HETATM   29  C23 UNL     1      -2.492  50.117 -13.811  1.00  0.00     0.120 C 
BRANCH  29  30
HETATM   30  C24 UNL     1      -2.565  48.599 -13.755  1.00  0.00     0.112 C 
BRANCH  30  31
HETATM   31  C25 UNL     1      -3.340  48.136 -12.541  1.00  0.00     0.218 C 
HETATM   32  O6  UNL     1      -2.910  47.313 -11.742  1.00  0.00    -0.274 OA
HETATM   33  N1  UNL     1      -4.581  48.729 -12.429  1.00  0.00    -0.346 N 
HETATM   34  H34 UNL     1      -4.692  49.615 -12.909  1.00  0.00     0.163 HD
BRANCH  33  35
HETATM   35  C26 UNL     1      -5.394  48.583 -11.203  1.00  0.00     0.186 C 
BRANCH  35  36
HETATM   36  C27 UNL     1      -5.599  49.897 -10.430  1.00  0.00     0.077 C 
BRANCH  36  37
HETATM   37  C28 UNL     1      -4.321  50.479  -9.895  1.00  0.00    -0.028 A 
HETATM   38  C29 UNL     1      -3.408  49.835  -9.079  1.00  0.00     0.096 A 
HETATM   39  N2  UNL     1      -2.371  50.694  -8.830  1.00  0.00    -0.365 N 
HETATM   40  C30 UNL     1      -2.580  51.892  -9.468  1.00  0.00     0.042 A 
HETATM   41  H39 UNL     1      -1.561  50.486  -8.264  1.00  0.00     0.165 HD
HETATM   42  C31 UNL     1      -1.789  53.049  -9.500  1.00  0.00     0.030 A 
HETATM   43  C35 UNL     1      -3.797  51.788 -10.146  1.00  0.00    -0.002 A 
HETATM   44  C32 UNL     1      -2.256  54.135 -10.246  1.00  0.00     0.002 A 
HETATM   45  C33 UNL     1      -3.465  54.064 -10.933  1.00  0.00     0.001 A 
HETATM   46  C34 UNL     1      -4.242  52.900 -10.891  1.00  0.00     0.014 A 
ENDBRANCH  36  37
ENDBRANCH  35  36
BRANCH  35  47
HETATM   47  C36 UNL     1      -6.722  47.876 -11.518  1.00  0.00     0.163 C 
HETATM   48  O7  UNL     1      -6.880  46.760 -11.984  1.00  0.00    -0.648 OA
BRANCH  47  49
HETATM   49  O8  UNL     1      -7.808  48.667 -11.337  1.00  0.00    -0.775 OA
HETATM   50  H44 UNL     1      -8.551  48.076 -11.592  1.00  0.00     0.167 HD
ENDBRANCH  47  49
ENDBRANCH  35  47
ENDBRANCH  33  35
ENDBRANCH  30  31
ENDBRANCH  29  30
ENDBRANCH  27  29
ENDBRANCH  26  27
ENDBRANCH   1  26
TORSDOF 13
ENDMDL
MODEL 5
REMARK minimizedAffinity -9.65851021
REMARK CNNscore 0.294677317
REMARK CNNaffinity 6.40294647
REMARK  13 active torsions:
REMARK  status: ('A' for Active; 'I' for Inactive)
REMARK    1  A    between atoms: C19_20  and  O2_21 
REMARK    2  A    between atoms: C19_20  and  C20_22 
REMARK    3  A    between atoms: C20_22  and  C21_24 
REMARK    4  A    between atoms: C21_24  and  O4_25 
REMARK    5  A    between atoms: O4_25  and  C22_26 
REMARK    6  A    between atoms: C22_26  and  C23_28 
REMARK    7  A    between atoms: C23_28  and  C24_29 
REMARK    8  A    between atoms: C24_29  and  C25_30 
REMARK       I    between atoms: C25_30  and  N1_32 
REMARK    9  A    between atoms: N1_32  and  C26_33 
REMARK   10  A    between atoms: C26_33  and  C27_34 
REMARK   11  A    between atoms: C26_33  and  C36_44 
REMARK   12  A    between atoms: C27_34  and  C28_35 
REMARK   13  A    between atoms: C36_44  and  O8_46 
ROOT
HETATM    1  C21 UNL     1      -6.076  47.566 -28.020  1.00  0.00     0.260 C 
ENDROOT
BRANCH   1   2
HETATM    2  C20 UNL     1      -7.578  47.886 -28.110  1.00  0.00     0.185 C 
HETATM    3  O3  UNL     1      -8.226  47.973 -27.057  1.00  0.00    -0.292 OA
BRANCH   2   4
HETATM    4  C19 UNL     1      -8.234  48.215 -29.490  1.00  0.00     0.128 C 
HETATM    5  C14 UNL     1      -9.270  47.145 -29.983  1.00  0.00    -0.002 C 
HETATM    6  C13 UNL     1     -10.135  47.687 -31.155  1.00  0.00     0.013 C 
HETATM    7  C15 UNL     1     -10.228  46.718 -28.857  1.00  0.00     0.019 C 
HETATM    8  C16 UNL     1      -8.344  45.996 -30.464  1.00  0.00     0.002 C 
HETATM    9  C12 UNL     1     -10.823  46.593 -31.981  1.00  0.00     0.007 C 
HETATM   10  C11 UNL     1      -9.795  45.612 -32.574  1.00  0.00     0.002 C 
HETATM   11  C2  UNL     1     -10.356  44.526 -33.586  1.00  0.00    -0.016 C 
HETATM   12  C10 UNL     1      -8.962  44.963 -31.435  1.00  0.00    -0.004 C 
HETATM   13  C1  UNL     1     -11.711  44.941 -34.197  1.00  0.00     0.020 C 
HETATM   14  C3  UNL     1      -9.314  44.357 -34.731  1.00  0.00     0.022 C 
HETATM   15  C7  UNL     1     -10.528  43.167 -32.911  1.00  0.00    -0.068 C 
HETATM   16  C4  UNL     1      -9.635  43.213 -35.690  1.00  0.00     0.084 C 
HETATM   17  C5  UNL     1      -9.912  41.927 -34.954  1.00  0.00     0.149 C 
HETATM   18  O1  UNL     1      -9.837  40.831 -35.506  1.00  0.00    -0.293 OA
HETATM   19  C6  UNL     1     -10.324  41.992 -33.532  1.00  0.00     0.053 C 
HETATM   20  C8  UNL     1     -10.871  43.213 -31.452  1.00  0.00     0.035 C 
HETATM   21  C9  UNL     1      -9.731  43.860 -30.667  1.00  0.00     0.010 C 
HETATM   22  C17 UNL     1      -7.128  46.714 -31.090  1.00  0.00     0.009 C 
HETATM   23  C18 UNL     1      -7.144  48.154 -30.580  1.00  0.00     0.047 C 
BRANCH   4  24
HETATM   24  O2  UNL     1      -8.794  49.521 -29.517  1.00  0.00    -0.381 OA
HETATM   25  H27 UNL     1      -8.050  50.140 -29.365  1.00  0.00     0.211 HD
ENDBRANCH   4  24
ENDBRANCH   2   4
ENDBRANCH   1   2
BRANCH   1  26
HETATM   26  O4  UNL     1      -5.189  48.174 -27.097  1.00  0.00    -0.314 OA
BRANCH  26  27
HETATM   27  C22 UNL     1      -4.103  48.774 -27.649  1.00  0.00     0.259 C 
HETATM   28  O5  UNL     1      -4.059  49.217 -28.790  1.00  0.00    -0.265 OA
BRANCH  27  29
HETATM   29  C23 UNL     1      -2.975  48.863 -26.661  1.00  0.00     0.120 C 
BRANCH  29  30
HETATM   30  C24 UNL     1      -3.362  48.206 -25.346  1.00  0.00     0.112 C 
BRANCH  30  31
HETATM   31  C25 UNL     1      -3.132  49.144 -24.180  1.00  0.00     0.218 C 
HETATM   32  O6  UNL     1      -2.702  48.775 -23.094  1.00  0.00    -0.274 OA
HETATM   33  N1  UNL     1      -3.462  50.453 -24.464  1.00  0.00    -0.346 N 
HETATM   34  H34 UNL     1      -3.464  50.705 -25.445  1.00  0.00     0.163 HD
BRANCH  33  35
HETATM   35  C26 UNL     1      -3.102  51.551 -23.543  1.00  0.00     0.186 C 
BRANCH  35  36
HETATM   36  C27 UNL     1      -2.428  52.750 -24.233  1.00  0.00     0.077 C 
BRANCH  36  37
HETATM   37  C28 UNL     1      -1.924  52.434 -25.614  1.00  0.00    -0.028 A 
HETATM   38  C29 UNL     1      -2.680  52.396 -26.772  1.00  0.00     0.096 A 
HETATM   39  N2  UNL     1      -1.851  52.095 -27.819  1.00  0.00    -0.365 N 
HETATM   40  C30 UNL     1      -0.560  51.935 -27.375  1.00  0.00     0.042 A 
HETATM   41  H39 UNL     1      -2.134  52.004 -28.784  1.00  0.00     0.165 HD
HETATM   42  C31 UNL     1       0.608  51.628 -28.086  1.00  0.00     0.030 A 
HETATM   43  C35 UNL     1      -0.574  52.142 -25.994  1.00  0.00    -0.002 A 
HETATM   44  C32 UNL     1       1.801  51.529 -27.363  1.00  0.00     0.002 A 
HETATM   45  C33 UNL     1       1.822  51.730 -25.985  1.00  0.00     0.001 A 
HETATM   46  C34 UNL     1       0.645  52.036 -25.292  1.00  0.00     0.014 A 
ENDBRANCH  36  37
ENDBRANCH  35  36
BRANCH  35  47
HETATM   47  C36 UNL     1      -4.319  51.970 -22.702  1.00  0.00     0.163 C 
HETATM   48  O7  UNL     1      -4.441  51.914 -21.489  1.00  0.00    -0.648 OA
BRANCH  47  49
HETATM   49  O8  UNL     1      -5.389  52.337 -23.449  1.00  0.00    -0.775 OA
HETATM   50  H44 UNL     1      -6.064  52.553 -22.768  1.00  0.00     0.167 HD
ENDBRANCH  47  49
ENDBRANCH  35  47
ENDBRANCH  33  35
ENDBRANCH  30  31
ENDBRANCH  29  30
ENDBRANCH  27  29
ENDBRANCH  26  27
ENDBRANCH   1  26
TORSDOF 13
ENDMDL
MODEL 6
REMARK minimizedAffinity -9.28892326
REMARK CNNscore 0.290608287
REMARK CNNaffinity 6.76123762
REMARK  13 active torsions:
REMARK  status: ('A' for Active; 'I' for Inactive)
REMARK    1  A    between atoms: C19_20  and  O2_21 
REMARK    2  A    between atoms: C19_20  and  C20_22 
REMARK    3  A    between atoms: C20_22  and  C21_24 
REMARK    4  A    between atoms: C21_24  and  O4_25 
REMARK    5  A    between atoms: O4_25  and  C22_26 
REMARK    6  A    between atoms: C22_26  and  C23_28 
REMARK    7  A    between atoms: C23_28  and  C24_29 
REMARK    8  A    between atoms: C24_29  and  C25_30 
REMARK       I    between atoms: C25_30  and  N1_32 
REMARK    9  A    between atoms: N1_32  and  C26_33 
REMARK   10  A    between atoms: C26_33  and  C27_34 
REMARK   11  A    between atoms: C26_33  and  C36_44 
REMARK   12  A    between atoms: C27_34  and  C28_35 
REMARK   13  A    between atoms: C36_44  and  O8_46 
ROOT
HETATM    1  C21 UNL     1      -3.053  49.969 -17.039  1.00  0.00     0.260 C 
ENDROOT
BRANCH   1   2
HETATM    2  C20 UNL     1      -3.149  50.700 -18.390  1.00  0.00     0.185 C 
HETATM    3  O3  UNL     1      -2.870  51.907 -18.428  1.00  0.00    -0.292 OA
BRANCH   2   4
HETATM    4  C19 UNL     1      -3.470  49.905 -19.697  1.00  0.00     0.128 C 
HETATM    5  C14 UNL     1      -2.375  50.030 -20.813  1.00  0.00    -0.002 C 
HETATM    6  C13 UNL     1      -2.567  48.958 -21.922  1.00  0.00     0.013 C 
HETATM    7  C15 UNL     1      -0.957  49.860 -20.242  1.00  0.00     0.019 C 
HETATM    8  C16 UNL     1      -2.642  51.455 -21.369  1.00  0.00     0.002 C 
HETATM    9  C12 UNL     1      -1.858  49.290 -23.241  1.00  0.00     0.007 C 
HETATM   10  C11 UNL     1      -2.337  50.639 -23.808  1.00  0.00     0.002 C 
HETATM   11  C2  UNL     1      -1.807  51.028 -25.252  1.00  0.00    -0.016 C 
HETATM   12  C10 UNL     1      -2.080  51.771 -22.775  1.00  0.00    -0.004 C 
HETATM   13  C1  UNL     1      -1.328  49.797 -26.050  1.00  0.00     0.020 C 
HETATM   14  C3  UNL     1      -2.976  51.708 -26.023  1.00  0.00     0.022 C 
HETATM   15  C7  UNL     1      -0.657  52.030 -25.175  1.00  0.00    -0.068 C 
HETATM   16  C4  UNL     1      -2.564  52.299 -27.369  1.00  0.00     0.084 C 
HETATM   17  C5  UNL     1      -1.349  53.184 -27.244  1.00  0.00     0.149 C 
HETATM   18  O1  UNL     1      -1.065  54.024 -28.095  1.00  0.00    -0.293 OA
HETATM   19  C6  UNL     1      -0.453  53.006 -26.077  1.00  0.00     0.053 C 
HETATM   20  C8  UNL     1       0.217  51.914 -23.962  1.00  0.00     0.035 C 
HETATM   21  C9  UNL     1      -0.596  52.207 -22.703  1.00  0.00     0.010 C 
HETATM   22  C17 UNL     1      -4.178  51.610 -21.318  1.00  0.00     0.009 C 
HETATM   23  C18 UNL     1      -4.707  50.538 -20.367  1.00  0.00     0.047 C 
BRANCH   4  24
HETATM   24  O2  UNL     1      -3.777  48.543 -19.430  1.00  0.00    -0.381 OA
HETATM   25  H27 UNL     1      -4.574  48.549 -18.860  1.00  0.00     0.211 HD
ENDBRANCH   4  24
ENDBRANCH   2   4
ENDBRANCH   1   2
BRANCH   1  26
HETATM   26  O4  UNL     1      -1.840  49.500 -16.475  1.00  0.00    -0.314 OA
BRANCH  26  27
HETATM   27  C22 UNL     1      -0.997  50.468 -16.031  1.00  0.00     0.259 C 
HETATM   28  O5  UNL     1       0.019  50.825 -16.614  1.00  0.00    -0.265 OA
BRANCH  27  29
HETATM   29  C23 UNL     1      -1.498  51.073 -14.751  1.00  0.00     0.120 C 
BRANCH  29  30
HETATM   30  C24 UNL     1      -0.335  51.463 -13.851  1.00  0.00     0.112 C 
BRANCH  30  31
HETATM   31  C25 UNL     1      -0.785  51.609 -12.414  1.00  0.00     0.218 C 
HETATM   32  O6  UNL     1      -0.685  50.715 -11.583  1.00  0.00    -0.274 OA
HETATM   33  N1  UNL     1      -1.322  52.850 -12.136  1.00  0.00    -0.346 N 
HETATM   34  H34 UNL     1      -1.043  53.600 -12.757  1.00  0.00     0.163 HD
BRANCH  33  35
HETATM   35  C26 UNL     1      -1.610  53.268 -10.749  1.00  0.00     0.186 C 
BRANCH  35  36
HETATM   36  C27 UNL     1      -1.329  54.755 -10.474  1.00  0.00     0.077 C 
BRANCH  36  37
HETATM   37  C28 UNL     1       0.093  55.028 -10.072  1.00  0.00    -0.028 A 
HETATM   38  C29 UNL     1       1.227  54.652 -10.770  1.00  0.00     0.096 A 
HETATM   39  N2  UNL     1       2.324  55.105 -10.087  1.00  0.00    -0.365 N 
HETATM   40  C30 UNL     1       1.937  55.776  -8.953  1.00  0.00     0.042 A 
HETATM   41  H39 UNL     1       3.284  54.976 -10.370  1.00  0.00     0.165 HD
HETATM   42  C31 UNL     1       2.710  56.405  -7.967  1.00  0.00     0.030 A 
HETATM   43  C35 UNL     1       0.541  55.744  -8.915  1.00  0.00    -0.002 A 
HETATM   44  C32 UNL     1       2.035  57.020  -6.908  1.00  0.00     0.002 A 
HETATM   45  C33 UNL     1       0.644  57.007  -6.841  1.00  0.00     0.001 A 
HETATM   46  C34 UNL     1      -0.111  56.375  -7.835  1.00  0.00     0.014 A 
ENDBRANCH  36  37
ENDBRANCH  35  36
BRANCH  35  47
HETATM   47  C36 UNL     1      -3.036  52.858 -10.347  1.00  0.00     0.163 C 
HETATM   48  O7  UNL     1      -3.376  51.884  -9.696  1.00  0.00    -0.648 OA
BRANCH  47  49
HETATM   49  O8  UNL     1      -3.996  53.645 -10.892  1.00  0.00    -0.775 OA
HETATM   50  H44 UNL     1      -4.825  53.243 -10.552  1.00  0.00     0.167 HD
ENDBRANCH  47  49
ENDBRANCH  35  47
ENDBRANCH  33  35
ENDBRANCH  30  31
ENDBRANCH  29  30
ENDBRANCH  27  29
ENDBRANCH  26  27
ENDBRANCH   1  26
TORSDOF 13
ENDMDL
MODEL 7
REMARK minimizedAffinity -9.40063858
REMARK CNNscore 0.247440696
REMARK CNNaffinity 5.90638733
REMARK  13 active torsions:
REMARK  status: ('A' for Active; 'I' for Inactive)
REMARK    1  A    between atoms: C19_20  and  O2_21 
REMARK    2  A    between atoms: C19_20  and  C20_22 
REMARK    3  A    between atoms: C20_22  and  C21_24 
REMARK    4  A    between atoms: C21_24  and  O4_25 
REMARK    5  A    between atoms: O4_25  and  C22_26 
REMARK    6  A    between atoms: C22_26  and  C23_28 
REMARK    7  A    between atoms: C23_28  and  C24_29 
REMARK    8  A    between atoms: C24_29  and  C25_30 
REMARK       I    between atoms: C25_30  and  N1_32 
REMARK    9  A    between atoms: N1_32  and  C26_33 
REMARK   10  A    between atoms: C26_33  and  C27_34 
REMARK   11  A    between atoms: C26_33  and  C36_44 
REMARK   12  A    between atoms: C27_34  and  C28_35 
REMARK   13  A    between atoms: C36_44  and  O8_46 
ROOT
HETATM    1  C21 UNL     1      -7.239  49.691 -20.530  1.00  0.00     0.260 C 
ENDROOT
BRANCH   1   2
HETATM    2  C20 UNL     1      -5.762  49.364 -20.818  1.00  0.00     0.185 C 
HETATM    3  O3  UNL     1      -4.971  49.328 -19.864  1.00  0.00    -0.292 OA
BRANCH   2   4
HETATM    4  C19 UNL     1      -5.308  48.966 -22.259  1.00  0.00     0.128 C 
HETATM    5  C14 UNL     1      -3.838  49.387 -22.610  1.00  0.00    -0.002 C 
HETATM    6  C13 UNL     1      -3.329  48.667 -23.890  1.00  0.00     0.013 C 
HETATM    7  C15 UNL     1      -2.861  49.051 -21.469  1.00  0.00     0.019 C 
HETATM    8  C16 UNL     1      -3.987  50.912 -22.855  1.00  0.00     0.002 C 
HETATM    9  C12 UNL     1      -2.123  49.346 -24.551  1.00  0.00     0.007 C 
HETATM   10  C11 UNL     1      -2.442  50.805 -24.930  1.00  0.00     0.002 C 
HETATM   11  C2  UNL     1      -1.338  51.575 -25.770  1.00  0.00    -0.016 C 
HETATM   12  C10 UNL     1      -2.865  51.602 -23.665  1.00  0.00    -0.004 C 
HETATM   13  C1  UNL     1      -0.378  50.609 -26.498  1.00  0.00     0.020 C 
HETATM   14  C3  UNL     1      -2.069  52.453 -26.828  1.00  0.00     0.022 C 
HETATM   15  C7  UNL     1      -0.509  52.504 -24.886  1.00  0.00    -0.068 C 
HETATM   16  C4  UNL     1      -1.141  53.391 -27.596  1.00  0.00     0.084 C 
HETATM   17  C5  UNL     1      -0.264  54.195 -26.668  1.00  0.00     0.149 C 
HETATM   18  O1  UNL     1       0.282  55.236 -27.027  1.00  0.00    -0.293 OA
HETATM   19  C6  UNL     1      -0.026  53.690 -25.295  1.00  0.00     0.053 C 
HETATM   20  C8  UNL     1      -0.321  52.047 -23.471  1.00  0.00     0.035 C 
HETATM   21  C9  UNL     1      -1.671  51.986 -22.758  1.00  0.00     0.010 C 
HETATM   22  C17 UNL     1      -5.363  51.062 -23.540  1.00  0.00     0.009 C 
HETATM   23  C18 UNL     1      -6.140  49.773 -23.277  1.00  0.00     0.047 C 
BRANCH   4  24
HETATM   24  O2  UNL     1      -5.524  47.587 -22.525  1.00  0.00    -0.381 OA
HETATM   25  H27 UNL     1      -6.489  47.442 -22.448  1.00  0.00     0.211 HD
ENDBRANCH   4  24
ENDBRANCH   2   4
ENDBRANCH   1   2
BRANCH   1  26
HETATM   26  O4  UNL     1      -8.132  48.812 -19.868  1.00  0.00    -0.314 OA
BRANCH  26  27
HETATM   27  C22 UNL     1      -8.855  48.001 -20.681  1.00  0.00     0.259 C 
HETATM   28  O5  UNL     1      -8.630  47.834 -21.874  1.00  0.00    -0.265 OA
BRANCH  27  29
HETATM   29  C23 UNL     1      -9.941  47.300 -19.917  1.00  0.00     0.120 C 
BRANCH  29  30
HETATM   30  C24 UNL     1     -10.895  48.308 -19.295  1.00  0.00     0.112 C 
BRANCH  30  31
HETATM   31  C25 UNL     1     -12.269  47.706 -19.096  1.00  0.00     0.218 C 
HETATM   32  O6  UNL     1     -12.460  46.632 -18.539  1.00  0.00    -0.274 OA
HETATM   33  N1  UNL     1     -13.284  48.486 -19.612  1.00  0.00    -0.346 N 
HETATM   34  H34 UNL     1     -13.070  49.470 -19.723  1.00  0.00     0.163 HD
BRANCH  33  35
HETATM   35  C26 UNL     1     -14.702  48.189 -19.325  1.00  0.00     0.186 C 
BRANCH  35  36
HETATM   36  C27 UNL     1     -15.104  46.731 -19.612  1.00  0.00     0.077 C 
BRANCH  36  37
HETATM   37  C28 UNL     1     -16.474  46.600 -20.217  1.00  0.00    -0.028 A 
HETATM   38  C29 UNL     1     -17.671  46.540 -19.527  1.00  0.00     0.096 A 
HETATM   39  N2  UNL     1     -18.690  46.444 -20.438  1.00  0.00    -0.365 N 
HETATM   40  C30 UNL     1     -18.188  46.443 -21.716  1.00  0.00     0.042 A 
HETATM   41  H39 UNL     1     -19.672  46.387 -20.213  1.00  0.00     0.165 HD
HETATM   42  C31 UNL     1     -18.854  46.367 -22.948  1.00  0.00     0.030 A 
HETATM   43  C35 UNL     1     -16.799  46.540 -21.612  1.00  0.00    -0.002 A 
HETATM   44  C32 UNL     1     -18.075  46.390 -24.109  1.00  0.00     0.002 A 
HETATM   45  C33 UNL     1     -16.688  46.486 -24.039  1.00  0.00     0.001 A 
HETATM   46  C34 UNL     1     -16.041  46.561 -22.801  1.00  0.00     0.014 A 
ENDBRANCH  36  37
ENDBRANCH  35  36
BRANCH  35  47
HETATM   47  C36 UNL     1     -15.067  48.626 -17.898  1.00  0.00     0.163 C 
HETATM   48  O7  UNL     1     -15.514  49.703 -17.539  1.00  0.00    -0.648 OA
BRANCH  47  49
HETATM   49  O8  UNL     1     -14.737  47.710 -16.953  1.00  0.00    -0.775 OA
HETATM   50  H44 UNL     1     -15.019  48.147 -16.120  1.00  0.00     0.167 HD
ENDBRANCH  47  49
ENDBRANCH  35  47
ENDBRANCH  33  35
ENDBRANCH  30  31
ENDBRANCH  29  30
ENDBRANCH  27  29
ENDBRANCH  26  27
ENDBRANCH   1  26
TORSDOF 13
ENDMDL
MODEL 8
REMARK minimizedAffinity -9.18764019
REMARK CNNscore 0.243578702
REMARK CNNaffinity 6.42734098
REMARK  13 active torsions:
REMARK  status: ('A' for Active; 'I' for Inactive)
REMARK    1  A    between atoms: C19_20  and  O2_21 
REMARK    2  A    between atoms: C19_20  and  C20_22 
REMARK    3  A    between atoms: C20_22  and  C21_24 
REMARK    4  A    between atoms: C21_24  and  O4_25 
REMARK    5  A    between atoms: O4_25  and  C22_26 
REMARK    6  A    between atoms: C22_26  and  C23_28 
REMARK    7  A    between atoms: C23_28  and  C24_29 
REMARK    8  A    between atoms: C24_29  and  C25_30 
REMARK       I    between atoms: C25_30  and  N1_32 
REMARK    9  A    between atoms: N1_32  and  C26_33 
REMARK   10  A    between atoms: C26_33  and  C27_34 
REMARK   11  A    between atoms: C26_33  and  C36_44 
REMARK   12  A    between atoms: C27_34  and  C28_35 
REMARK   13  A    between atoms: C36_44  and  O8_46 
ROOT
HETATM    1  C21 UNL     1       0.577  50.679 -16.954  1.00  0.00     0.260 C 
ENDROOT
BRANCH   1   2
HETATM    2  C20 UNL     1      -0.664  50.061 -17.623  1.00  0.00     0.185 C 
HETATM    3  O3  UNL     1      -0.848  48.841 -17.510  1.00  0.00    -0.292 OA
BRANCH   2   4
HETATM    4  C19 UNL     1      -1.723  50.976 -18.319  1.00  0.00     0.128 C 
HETATM    5  C14 UNL     1      -2.473  50.297 -19.517  1.00  0.00    -0.002 C 
HETATM    6  C13 UNL     1      -3.736  51.104 -19.931  1.00  0.00     0.013 C 
HETATM    7  C15 UNL     1      -2.928  48.869 -19.170  1.00  0.00     0.019 C 
HETATM    8  C16 UNL     1      -1.399  50.339 -20.637  1.00  0.00     0.002 C 
HETATM    9  C12 UNL     1      -4.246  50.786 -21.341  1.00  0.00     0.007 C 
HETATM   10  C11 UNL     1      -3.159  51.046 -22.400  1.00  0.00     0.002 C 
HETATM   11  C2  UNL     1      -3.604  50.914 -23.918  1.00  0.00    -0.016 C 
HETATM   12  C10 UNL     1      -1.902  50.187 -22.092  1.00  0.00    -0.004 C 
HETATM   13  C1  UNL     1      -5.131  51.056 -24.093  1.00  0.00     0.020 C 
HETATM   14  C3  UNL     1      -2.896  52.045 -24.722  1.00  0.00     0.022 C 
HETATM   15  C7  UNL     1      -3.171  49.578 -24.515  1.00  0.00    -0.068 C 
HETATM   16  C4  UNL     1      -3.089  51.937 -26.233  1.00  0.00     0.084 C 
HETATM   17  C5  UNL     1      -2.759  50.556 -26.743  1.00  0.00     0.149 C 
HETATM   18  O1  UNL     1      -2.499  50.344 -27.926  1.00  0.00    -0.293 OA
HETATM   19  C6  UNL     1      -2.788  49.419 -25.794  1.00  0.00     0.053 C 
HETATM   20  C8  UNL     1      -3.121  48.430 -23.552  1.00  0.00     0.035 C 
HETATM   21  C9  UNL     1      -2.071  48.696 -22.476  1.00  0.00     0.010 C 
HETATM   22  C17 UNL     1      -0.667  51.682 -20.422  1.00  0.00     0.009 C 
HETATM   23  C18 UNL     1      -0.988  52.147 -19.003  1.00  0.00     0.047 C 
BRANCH   4  24
HETATM   24  O2  UNL     1      -2.641  51.532 -17.388  1.00  0.00    -0.381 OA
HETATM   25  H27 UNL     1      -2.110  52.076 -16.771  1.00  0.00     0.211 HD
ENDBRANCH   4  24
ENDBRANCH   2   4
ENDBRANCH   1   2
BRANCH   1  26
HETATM   26  O4  UNL     1       0.523  51.687 -15.960  1.00  0.00    -0.314 OA
BRANCH  26  27
HETATM   27  C22 UNL     1       1.186  51.400 -14.810  1.00  0.00     0.259 C 
HETATM   28  O5  UNL     1       2.121  50.614 -14.724  1.00  0.00    -0.265 OA
BRANCH  27  29
HETATM   29  C23 UNL     1       0.649  52.207 -13.663  1.00  0.00     0.120 C 
BRANCH  29  30
HETATM   30  C24 UNL     1       0.438  51.328 -12.440  1.00  0.00     0.112 C 
BRANCH  30  31
HETATM   31  C25 UNL     1       0.540  52.135 -11.164  1.00  0.00     0.218 C 
HETATM   32  O6  UNL     1       0.545  51.631 -10.048  1.00  0.00    -0.274 OA
HETATM   33  N1  UNL     1       0.622  53.494 -11.386  1.00  0.00    -0.346 N 
HETATM   34  H34 UNL     1       0.958  53.773 -12.301  1.00  0.00     0.163 HD
BRANCH  33  35
HETATM   35  C26 UNL     1       0.952  54.432 -10.293  1.00  0.00     0.186 C 
BRANCH  35  36
HETATM   36  C27 UNL     1       1.929  55.548 -10.701  1.00  0.00     0.077 C 
BRANCH  36  37
HETATM   37  C28 UNL     1       3.261  55.456 -10.009  1.00  0.00    -0.028 A 
HETATM   38  C29 UNL     1       4.339  54.687 -10.409  1.00  0.00     0.096 A 
HETATM   39  N2  UNL     1       5.367  54.895  -9.529  1.00  0.00    -0.365 N 
HETATM   40  C30 UNL     1       4.990  55.788  -8.557  1.00  0.00     0.042 A 
HETATM   41  H39 UNL     1       6.278  54.462  -9.580  1.00  0.00     0.165 HD
HETATM   42  C31 UNL     1       5.711  56.295  -7.466  1.00  0.00     0.030 A 
HETATM   43  C35 UNL     1       3.671  56.159  -8.831  1.00  0.00    -0.002 A 
HETATM   44  C32 UNL     1       5.064  57.208  -6.628  1.00  0.00     0.002 A 
HETATM   45  C33 UNL     1       3.750  57.599  -6.874  1.00  0.00     0.001 A 
HETATM   46  C34 UNL     1       3.046  57.083  -7.968  1.00  0.00     0.014 A 
ENDBRANCH  36  37
ENDBRANCH  35  36
BRANCH  35  47
HETATM   47  C36 UNL     1      -0.330  54.984  -9.650  1.00  0.00     0.163 C 
HETATM   48  O7  UNL     1      -0.688  54.875  -8.489  1.00  0.00    -0.648 OA
BRANCH  47  49
HETATM   49  O8  UNL     1      -1.175  55.559 -10.541  1.00  0.00    -0.775 OA
HETATM   50  H44 UNL     1      -1.929  55.836  -9.976  1.00  0.00     0.167 HD
ENDBRANCH  47  49
ENDBRANCH  35  47
ENDBRANCH  33  35
ENDBRANCH  30  31
ENDBRANCH  29  30
ENDBRANCH  27  29
ENDBRANCH  26  27
ENDBRANCH   1  26
TORSDOF 13
ENDMDL
MODEL 9
REMARK minimizedAffinity -9.77933884
REMARK CNNscore 0.240325719
REMARK CNNaffinity 6.70091105
REMARK  13 active torsions:
REMARK  status: ('A' for Active; 'I' for Inactive)
REMARK    1  A    between atoms: C19_20  and  O2_21 
REMARK    2  A    between atoms: C19_20  and  C20_22 
REMARK    3  A    between atoms: C20_22  and  C21_24 
REMARK    4  A    between atoms: C21_24  and  O4_25 
REMARK    5  A    between atoms: O4_25  and  C22_26 
REMARK    6  A    between atoms: C22_26  and  C23_28 
REMARK    7  A    between atoms: C23_28  and  C24_29 
REMARK    8  A    between atoms: C24_29  and  C25_30 
REMARK       I    between atoms: C25_30  and  N1_32 
REMARK    9  A    between atoms: N1_32  and  C26_33 
REMARK   10  A    between atoms: C26_33  and  C27_34 
REMARK   11  A    between atoms: C26_33  and  C36_44 
REMARK   12  A    between atoms: C27_34  and  C28_35 
REMARK   13  A    between atoms: C36_44  and  O8_46 
ROOT
HETATM    1  C21 UNL     1       0.575  50.614 -17.013  1.00  0.00     0.260 C 
ENDROOT
BRANCH   1   2
HETATM    2  C20 UNL     1      -0.676  50.045 -17.706  1.00  0.00     0.185 C 
HETATM    3  O3  UNL     1      -0.897  48.829 -17.617  1.00  0.00    -0.292 OA
BRANCH   2   4
HETATM    4  C19 UNL     1      -1.701  51.003 -18.396  1.00  0.00     0.128 C 
HETATM    5  C14 UNL     1      -2.475  50.360 -19.599  1.00  0.00    -0.002 C 
HETATM    6  C13 UNL     1      -3.707  51.216 -20.007  1.00  0.00     0.013 C 
HETATM    7  C15 UNL     1      -2.983  48.947 -19.260  1.00  0.00     0.019 C 
HETATM    8  C16 UNL     1      -1.400  50.369 -20.718  1.00  0.00     0.002 C 
HETATM    9  C12 UNL     1      -4.229  50.926 -21.419  1.00  0.00     0.007 C 
HETATM   10  C11 UNL     1      -3.132  51.151 -22.477  1.00  0.00     0.002 C 
HETATM   11  C2  UNL     1      -3.581  51.046 -23.995  1.00  0.00    -0.016 C 
HETATM   12  C10 UNL     1      -1.908  50.244 -22.174  1.00  0.00    -0.004 C 
HETATM   13  C1  UNL     1      -5.102  51.245 -24.170  1.00  0.00     0.020 C 
HETATM   14  C3  UNL     1      -2.832  52.154 -24.793  1.00  0.00     0.022 C 
HETATM   15  C7  UNL     1      -3.198  49.698 -24.601  1.00  0.00    -0.068 C 
HETATM   16  C4  UNL     1      -3.028  52.064 -26.304  1.00  0.00     0.084 C 
HETATM   17  C5  UNL     1      -2.749  50.675 -26.823  1.00  0.00     0.149 C 
HETATM   18  O1  UNL     1      -2.497  50.460 -28.007  1.00  0.00    -0.293 OA
HETATM   19  C6  UNL     1      -2.820  49.533 -25.880  1.00  0.00     0.053 C 
HETATM   20  C8  UNL     1      -3.191  48.543 -23.645  1.00  0.00     0.035 C 
HETATM   21  C9  UNL     1      -2.131  48.764 -22.567  1.00  0.00     0.010 C 
HETATM   22  C17 UNL     1      -0.619  51.682 -20.494  1.00  0.00     0.009 C 
HETATM   23  C18 UNL     1      -0.923  52.151 -19.073  1.00  0.00     0.047 C 
BRANCH   4  24
HETATM   24  O2  UNL     1      -2.598  51.586 -17.461  1.00  0.00    -0.381 OA
HETATM   25  H27 UNL     1      -2.047  52.107 -16.842  1.00  0.00     0.211 HD
ENDBRANCH   4  24
ENDBRANCH   2   4
ENDBRANCH   1   2
BRANCH   1  26
HETATM   26  O4  UNL     1       0.592  51.824 -16.275  1.00  0.00    -0.314 OA
BRANCH  26  27
HETATM   27  C22 UNL     1       1.712  52.034 -15.536  1.00  0.00     0.259 C 
HETATM   28  O5  UNL     1       2.788  52.398 -15.994  1.00  0.00    -0.265 OA
BRANCH  27  29
HETATM   29  C23 UNL     1       1.445  51.804 -14.076  1.00  0.00     0.120 C 
BRANCH  29  30
HETATM   30  C24 UNL     1       0.051  52.284 -13.703  1.00  0.00     0.112 C 
BRANCH  30  31
HETATM   31  C25 UNL     1      -0.073  52.489 -12.209  1.00  0.00     0.218 C 
HETATM   32  O6  UNL     1       0.799  52.167 -11.411  1.00  0.00    -0.274 OA
HETATM   33  N1  UNL     1      -1.269  53.068 -11.838  1.00  0.00    -0.346 N 
HETATM   34  H34 UNL     1      -1.744  53.599 -12.557  1.00  0.00     0.163 HD
BRANCH  33  35
HETATM   35  C26 UNL     1      -1.491  53.553 -10.460  1.00  0.00     0.186 C 
BRANCH  35  36
HETATM   36  C27 UNL     1      -1.188  55.050 -10.269  1.00  0.00     0.077 C 
BRANCH  36  37
HETATM   37  C28 UNL     1      -0.084  55.313  -9.283  1.00  0.00    -0.028 A 
HETATM   38  C29 UNL     1      -0.216  55.381  -7.908  1.00  0.00     0.096 A 
HETATM   39  N2  UNL     1       1.020  55.615  -7.367  1.00  0.00    -0.365 N 
HETATM   40  C30 UNL     1       1.967  55.700  -8.359  1.00  0.00     0.042 A 
HETATM   41  H39 UNL     1       1.220  55.708  -6.382  1.00  0.00     0.165 HD
HETATM   42  C31 UNL     1       3.348  55.923  -8.273  1.00  0.00     0.030 A 
HETATM   43  C35 UNL     1       1.304  55.515  -9.574  1.00  0.00    -0.002 A 
HETATM   44  C32 UNL     1       4.075  55.959  -9.466  1.00  0.00     0.002 A 
HETATM   45  C33 UNL     1       3.445  55.777 -10.695  1.00  0.00     0.001 A 
HETATM   46  C34 UNL     1       2.064  55.555 -10.761  1.00  0.00     0.014 A 
ENDBRANCH  36  37
ENDBRANCH  35  36
BRANCH  35  47
HETATM   47  C36 UNL     1      -2.899  53.176  -9.975  1.00  0.00     0.163 C 
HETATM   48  O7  UNL     1      -3.257  52.125  -9.470  1.00  0.00    -0.648 OA
BRANCH  47  49
HETATM   49  O8  UNL     1      -3.836  54.114 -10.260  1.00  0.00    -0.775 OA
HETATM   50  H44 UNL     1      -4.659  53.714  -9.902  1.00  0.00     0.167 HD
ENDBRANCH  47  49
ENDBRANCH  35  47
ENDBRANCH  33  35
ENDBRANCH  30  31
ENDBRANCH  29  30
ENDBRANCH  27  29
ENDBRANCH  26  27
ENDBRANCH   1  26
TORSDOF 13
ENDMDL
