MODEL 1
REMARK minimizedAffinity -8.65700531
REMARK  13 active torsions:
REMARK  status: ('A' for Active; 'I' for Inactive)
REMARK    1  A    between atoms: C4_4  and  C5_5 
REMARK    2  A    between atoms: C5_5  and  C6_6 
REMARK    3  A    between atoms: C6_6  and  C7_7 
REMARK    4  A    between atoms: C9_9  and  C10_10 
REMARK    5  A    between atoms: C11_11  and  C12_12 
REMARK    6  A    between atoms: C14_14  and  C15_15 
REMARK    7  A    between atoms: C18_18  and  C19_19 
REMARK    8  A    between atoms: C19_19  and  C20_20 
REMARK    9  A    between atoms: C20_20  and  C21_21 
REMARK   10  A    between atoms: C21_21  and  O1_22 
REMARK   11  A    between atoms: C23_24  and  C25_26 
REMARK   12  A    between atoms: C28_30  and  O3_32 
REMARK   13  A    between atoms: C30_33  and  O4_34 
ROOT
HETATM    1  C15 UNL     1       0.658   6.916  12.596  1.00  0.00     0.149 C 
HETATM    2  C16 UNL     1       1.637   6.113  11.752  1.00  0.00     0.054 C 
HETATM    3  C17 UNL     1       2.429   7.168  10.938  1.00  0.00     0.050 C 
HETATM    4  C18 UNL     1       3.829   7.534  11.626  1.00  0.00     0.032 C 
HETATM    5  C22 UNL     1       4.741   8.426  10.732  1.00  0.00    -0.066 C 
HETATM    6  C23 UNL     1       6.022   8.761  11.056  1.00  0.00    -0.021 C 
HETATM    7  C24 UNL     1       6.837   8.167  12.174  1.00  0.00     0.052 C 
HETATM    8  C26 UNL     1       4.093   8.873   9.431  1.00  0.00     0.038 C 
HETATM    9  C27 UNL     1       3.450   7.732   8.633  1.00  0.00     0.042 C 
HETATM   10  C28 UNL     1       2.762   6.645   9.489  1.00  0.00     0.067 C 
HETATM   11  C29 UNL     1       3.633   5.371   9.482  1.00  0.00     0.047 C 
HETATM   12  C30 UNL     1       1.414   8.351  10.940  1.00  0.00     0.270 C 
HETATM   13  O5  UNL     1       0.388   8.126  11.895  1.00  0.00    -0.351 OA
ENDROOT
BRANCH   4  14
HETATM   14  C19 UNL     1       3.776   7.972  13.121  1.00  0.00     0.012 C 
BRANCH  14  15
HETATM   15  C20 UNL     1       5.101   8.193  13.862  1.00  0.00     0.027 C 
BRANCH  15  16
HETATM   16  C21 UNL     1       4.911   8.107  15.377  1.00  0.00     0.164 C 
BRANCH  16  17
HETATM   17  O1  UNL     1       4.884   6.742  15.769  1.00  0.00    -0.401 OA
HETATM   18  H32 UNL     1       4.691   6.713  16.723  1.00  0.00     0.209 HD
ENDBRANCH  16  17
ENDBRANCH  15  16
ENDBRANCH  14  15
ENDBRANCH   4  14
BRANCH  10  19
HETATM   19  O3  UNL     1       1.564   6.246   8.804  1.00  0.00    -0.389 OA
HETATM   20  H44 UNL     1       0.966   7.026   8.821  1.00  0.00     0.210 HD
ENDBRANCH  10  19
BRANCH  12  21
HETATM   21  O4  UNL     1       0.742   8.516   9.700  1.00  0.00    -0.370 OA
HETATM   22  H46 UNL     1       0.083   9.212   9.895  1.00  0.00     0.212 HD
ENDBRANCH  12  21
BRANCH   1  23
HETATM   23  C14 UNL     1      -0.617   6.229  13.000  1.00  0.00     0.011 C 
HETATM   24  C12 UNL     1      -1.324   5.259  12.381  1.00  0.00    -0.063 C 
HETATM   25  C13 UNL     1      -0.880   4.579  11.112  1.00  0.00     0.048 C 
BRANCH  24  26
HETATM   26  C11 UNL     1      -2.609   4.859  12.959  1.00  0.00     0.006 C 
HETATM   27  C10 UNL     1      -3.785   4.742  12.315  1.00  0.00     0.001 C 
BRANCH  27  28
HETATM   28  C9  UNL     1      -5.020   4.400  12.994  1.00  0.00     0.002 C 
HETATM   29  C7  UNL     1      -5.947   3.508  12.586  1.00  0.00    -0.084 C 
HETATM   30  C8  UNL     1      -5.835   2.624  11.368  1.00  0.00     0.043 C 
BRANCH  29  31
HETATM   31  C6  UNL     1      -7.212   3.302  13.411  1.00  0.00     0.037 C 
BRANCH  31  32
HETATM   32  C5  UNL     1      -8.348   4.300  13.122  1.00  0.00     0.031 C 
BRANCH  32  33
HETATM   33  C4  UNL     1      -7.987   5.729  13.434  1.00  0.00    -0.024 C 
HETATM   34  C2  UNL     1      -7.682   6.273  14.628  1.00  0.00    -0.091 C 
HETATM   35  C1  UNL     1      -7.326   7.736  14.728  1.00  0.00     0.042 C 
HETATM   36  C3  UNL     1      -7.663   5.550  15.947  1.00  0.00     0.042 C 
ENDBRANCH  32  33
ENDBRANCH  31  32
ENDBRANCH  29  31
ENDBRANCH  27  28
ENDBRANCH  24  26
ENDBRANCH   1  23
BRANCH   6  37
HETATM   37  C25 UNL     1       6.785   9.822  10.315  1.00  0.00     0.265 C 
HETATM   38  O2  UNL     1       7.845  10.296  10.719  1.00  0.00    -0.302 OA
ENDBRANCH   6  37
TORSDOF 13
ENDMDL
MODEL 2
REMARK minimizedAffinity -8.3444891
REMARK  13 active torsions:
REMARK  status: ('A' for Active; 'I' for Inactive)
REMARK    1  A    between atoms: C4_4  and  C5_5 
REMARK    2  A    between atoms: C5_5  and  C6_6 
REMARK    3  A    between atoms: C6_6  and  C7_7 
REMARK    4  A    between atoms: C9_9  and  C10_10 
REMARK    5  A    between atoms: C11_11  and  C12_12 
REMARK    6  A    between atoms: C14_14  and  C15_15 
REMARK    7  A    between atoms: C18_18  and  C19_19 
REMARK    8  A    between atoms: C19_19  and  C20_20 
REMARK    9  A    between atoms: C20_20  and  C21_21 
REMARK   10  A    between atoms: C21_21  and  O1_22 
REMARK   11  A    between atoms: C23_24  and  C25_26 
REMARK   12  A    between atoms: C28_30  and  O3_32 
REMARK   13  A    between atoms: C30_33  and  O4_34 
ROOT
HETATM    1  C15 UNL     1      -3.264   5.555  13.057  1.00  0.00     0.149 C 
HETATM    2  C16 UNL     1      -2.737   6.934  12.689  1.00  0.00     0.054 C 
HETATM    3  C17 UNL     1      -1.259   6.939  13.155  1.00  0.00     0.050 C 
HETATM    4  C18 UNL     1      -0.249   6.595  11.960  1.00  0.00     0.032 C 
HETATM    5  C22 UNL     1       1.248   6.799  12.339  1.00  0.00    -0.066 C 
HETATM    6  C23 UNL     1       2.275   6.685  11.450  1.00  0.00    -0.021 C 
HETATM    7  C24 UNL     1       2.144   6.577   9.954  1.00  0.00     0.052 C 
HETATM    8  C26 UNL     1       1.477   7.175  13.795  1.00  0.00     0.038 C 
HETATM    9  C27 UNL     1       0.600   8.335  14.281  1.00  0.00     0.042 C 
HETATM   10  C28 UNL     1      -0.835   8.352  13.710  1.00  0.00     0.067 C 
HETATM   11  C29 UNL     1      -0.948   9.481  12.663  1.00  0.00     0.047 C 
HETATM   12  C30 UNL     1      -1.303   5.840  14.260  1.00  0.00     0.270 C 
HETATM   13  O5  UNL     1      -2.510   5.097  14.175  1.00  0.00    -0.351 OA
ENDROOT
BRANCH   4  14
HETATM   14  C19 UNL     1      -0.533   5.284  11.166  1.00  0.00     0.012 C 
BRANCH  14  15
HETATM   15  C20 UNL     1       0.041   3.967  11.705  1.00  0.00     0.027 C 
BRANCH  15  16
HETATM   16  C21 UNL     1      -0.876   2.787  11.381  1.00  0.00     0.164 C 
BRANCH  16  17
HETATM   17  O1  UNL     1      -0.089   1.690  10.943  1.00  0.00    -0.401 OA
HETATM   18  H32 UNL     1      -0.698   0.978  10.674  1.00  0.00     0.209 HD
ENDBRANCH  16  17
ENDBRANCH  15  16
ENDBRANCH  14  15
ENDBRANCH   4  14
BRANCH  10  19
HETATM   19  O3  UNL     1      -1.718   8.771  14.764  1.00  0.00    -0.389 OA
HETATM   20  H44 UNL     1      -1.700   8.055  15.436  1.00  0.00     0.210 HD
ENDBRANCH  10  19
BRANCH  12  21
HETATM   21  O4  UNL     1      -1.280   6.368  15.579  1.00  0.00    -0.370 OA
HETATM   22  H46 UNL     1      -1.417   5.577  16.136  1.00  0.00     0.212 HD
ENDBRANCH  12  21
BRANCH   1  23
HETATM   23  C14 UNL     1      -4.741   5.435  13.315  1.00  0.00     0.011 C 
HETATM   24  C12 UNL     1      -5.629   4.503  12.905  1.00  0.00    -0.063 C 
HETATM   25  C13 UNL     1      -5.251   3.274  12.120  1.00  0.00     0.048 C 
BRANCH  24  26
HETATM   26  C11 UNL     1      -7.045   4.708  13.217  1.00  0.00     0.006 C 
HETATM   27  C10 UNL     1      -7.827   5.722  12.802  1.00  0.00     0.001 C 
BRANCH  27  28
HETATM   28  C9  UNL     1      -9.207   5.869  13.220  1.00  0.00     0.002 C 
HETATM   29  C7  UNL     1      -9.688   6.746  14.127  1.00  0.00    -0.084 C 
HETATM   30  C8  UNL     1      -8.882   7.810  14.829  1.00  0.00     0.043 C 
BRANCH  29  31
HETATM   31  C6  UNL     1     -11.172   6.735  14.476  1.00  0.00     0.037 C 
BRANCH  31  32
HETATM   32  C5  UNL     1     -11.951   7.994  14.052  1.00  0.00     0.031 C 
BRANCH  32  33
HETATM   33  C4  UNL     1     -13.067   7.713  13.082  1.00  0.00    -0.024 C 
HETATM   34  C2  UNL     1     -14.261   7.136  13.324  1.00  0.00    -0.091 C 
HETATM   35  C1  UNL     1     -15.260   6.960  12.207  1.00  0.00     0.042 C 
HETATM   36  C3  UNL     1     -14.733   6.613  14.653  1.00  0.00     0.042 C 
ENDBRANCH  32  33
ENDBRANCH  31  32
ENDBRANCH  29  31
ENDBRANCH  27  28
ENDBRANCH  24  26
ENDBRANCH   1  23
BRANCH   6  37
HETATM   37  C25 UNL     1       3.712   6.631  11.888  1.00  0.00     0.265 C 
HETATM   38  O2  UNL     1       4.633   6.324  11.134  1.00  0.00    -0.302 OA
ENDBRANCH   6  37
TORSDOF 13
ENDMDL
MODEL 3
REMARK minimizedAffinity -8.19995022
REMARK  13 active torsions:
REMARK  status: ('A' for Active; 'I' for Inactive)
REMARK    1  A    between atoms: C4_4  and  C5_5 
REMARK    2  A    between atoms: C5_5  and  C6_6 
REMARK    3  A    between atoms: C6_6  and  C7_7 
REMARK    4  A    between atoms: C9_9  and  C10_10 
REMARK    5  A    between atoms: C11_11  and  C12_12 
REMARK    6  A    between atoms: C14_14  and  C15_15 
REMARK    7  A    between atoms: C18_18  and  C19_19 
REMARK    8  A    between atoms: C19_19  and  C20_20 
REMARK    9  A    between atoms: C20_20  and  C21_21 
REMARK   10  A    between atoms: C21_21  and  O1_22 
REMARK   11  A    between atoms: C23_24  and  C25_26 
REMARK   12  A    between atoms: C28_30  and  O3_32 
REMARK   13  A    between atoms: C30_33  and  O4_34 
ROOT
HETATM    1  C15 UNL     1      -0.251   7.632  12.442  1.00  0.00     0.149 C 
HETATM    2  C16 UNL     1       0.630   6.501  11.933  1.00  0.00     0.054 C 
HETATM    3  C17 UNL     1       1.796   7.200  11.189  1.00  0.00     0.050 C 
HETATM    4  C18 UNL     1       3.095   7.355  12.114  1.00  0.00     0.032 C 
HETATM    5  C22 UNL     1       4.349   7.857  11.339  1.00  0.00    -0.066 C 
HETATM    6  C23 UNL     1       5.592   7.948  11.890  1.00  0.00    -0.021 C 
HETATM    7  C24 UNL     1       6.014   7.384  13.221  1.00  0.00     0.052 C 
HETATM    8  C26 UNL     1       4.082   8.212   9.884  1.00  0.00     0.038 C 
HETATM    9  C27 UNL     1       3.327   7.126   9.109  1.00  0.00     0.042 C 
HETATM   10  C28 UNL     1       2.243   6.379   9.919  1.00  0.00     0.067 C 
HETATM   11  C29 UNL     1       2.751   4.961  10.253  1.00  0.00     0.047 C 
HETATM   12  C30 UNL     1       1.130   8.563  10.829  1.00  0.00     0.270 C 
HETATM   13  O5  UNL     1      -0.075   8.736  11.560  1.00  0.00    -0.351 OA
ENDROOT
BRANCH   4  14
HETATM   14  C19 UNL     1       2.884   8.039  13.499  1.00  0.00     0.012 C 
BRANCH  14  15
HETATM   15  C20 UNL     1       2.192   7.237  14.609  1.00  0.00     0.027 C 
BRANCH  15  16
HETATM   16  C21 UNL     1       2.899   7.423  15.952  1.00  0.00     0.164 C 
BRANCH  16  17
HETATM   17  O1  UNL     1       4.072   6.624  15.979  1.00  0.00    -0.401 OA
HETATM   18  H32 UNL     1       4.464   6.704  16.867  1.00  0.00     0.209 HD
ENDBRANCH  16  17
ENDBRANCH  15  16
ENDBRANCH  14  15
ENDBRANCH   4  14
BRANCH  10  19
HETATM   19  O3  UNL     1       1.127   6.148   9.044  1.00  0.00    -0.389 OA
HETATM   20  H44 UNL     1       0.753   7.033   8.838  1.00  0.00     0.210 HD
ENDBRANCH  10  19
BRANCH  12  21
HETATM   21  O4  UNL     1       0.757   8.662   9.462  1.00  0.00    -0.370 OA
HETATM   22  H46 UNL     1       0.272   9.509   9.425  1.00  0.00     0.212 HD
ENDBRANCH  12  21
BRANCH   1  23
HETATM   23  C14 UNL     1      -1.710   7.325  12.640  1.00  0.00     0.011 C 
HETATM   24  C12 UNL     1      -2.327   6.566  13.571  1.00  0.00    -0.063 C 
HETATM   25  C13 UNL     1      -1.612   5.905  14.721  1.00  0.00     0.048 C 
BRANCH  24  26
HETATM   26  C11 UNL     1      -3.770   6.350  13.447  1.00  0.00     0.006 C 
HETATM   27  C10 UNL     1      -4.736   7.286  13.493  1.00  0.00     0.001 C 
BRANCH  27  28
HETATM   28  C9  UNL     1      -6.147   6.961  13.424  1.00  0.00     0.002 C 
HETATM   29  C7  UNL     1      -6.906   6.438  14.410  1.00  0.00    -0.084 C 
HETATM   30  C8  UNL     1      -6.442   6.162  15.819  1.00  0.00     0.043 C 
BRANCH  29  31
HETATM   31  C6  UNL     1      -8.374   6.121  14.147  1.00  0.00     0.037 C 
BRANCH  31  32
HETATM   32  C5  UNL     1      -8.655   5.388  12.823  1.00  0.00     0.031 C 
BRANCH  32  33
HETATM   33  C4  UNL     1      -8.443   3.899  12.903  1.00  0.00    -0.024 C 
HETATM   34  C2  UNL     1      -7.350   3.190  12.560  1.00  0.00    -0.091 C 
HETATM   35  C1  UNL     1      -7.330   1.691  12.737  1.00  0.00     0.042 C 
HETATM   36  C3  UNL     1      -6.079   3.753  11.985  1.00  0.00     0.042 C 
ENDBRANCH  32  33
ENDBRANCH  31  32
ENDBRANCH  29  31
ENDBRANCH  27  28
ENDBRANCH  24  26
ENDBRANCH   1  23
BRANCH   6  37
HETATM   37  C25 UNL     1       6.720   8.672  11.210  1.00  0.00     0.265 C 
HETATM   38  O2  UNL     1       7.513   9.395  11.809  1.00  0.00    -0.302 OA
ENDBRANCH   6  37
TORSDOF 13
ENDMDL
MODEL 4
REMARK minimizedAffinity -8.18080997
REMARK  13 active torsions:
REMARK  status: ('A' for Active; 'I' for Inactive)
REMARK    1  A    between atoms: C4_4  and  C5_5 
REMARK    2  A    between atoms: C5_5  and  C6_6 
REMARK    3  A    between atoms: C6_6  and  C7_7 
REMARK    4  A    between atoms: C9_9  and  C10_10 
REMARK    5  A    between atoms: C11_11  and  C12_12 
REMARK    6  A    between atoms: C14_14  and  C15_15 
REMARK    7  A    between atoms: C18_18  and  C19_19 
REMARK    8  A    between atoms: C19_19  and  C20_20 
REMARK    9  A    between atoms: C20_20  and  C21_21 
REMARK   10  A    between atoms: C21_21  and  O1_22 
REMARK   11  A    between atoms: C23_24  and  C25_26 
REMARK   12  A    between atoms: C28_30  and  O3_32 
REMARK   13  A    between atoms: C30_33  and  O4_34 
ROOT
HETATM    1  C15 UNL     1      -6.054   6.261  15.419  1.00  0.00     0.149 C 
HETATM    2  C16 UNL     1      -5.438   7.051  14.274  1.00  0.00     0.054 C 
HETATM    3  C17 UNL     1      -3.977   6.541  14.170  1.00  0.00     0.050 C 
HETATM    4  C18 UNL     1      -3.811   5.412  13.046  1.00  0.00     0.032 C 
HETATM    5  C22 UNL     1      -2.326   5.031  12.769  1.00  0.00    -0.066 C 
HETATM    6  C23 UNL     1      -1.937   4.186  11.774  1.00  0.00    -0.021 C 
HETATM    7  C24 UNL     1      -2.806   3.668  10.659  1.00  0.00     0.052 C 
HETATM    8  C26 UNL     1      -1.325   5.714  13.688  1.00  0.00     0.038 C 
HETATM    9  C27 UNL     1      -1.517   7.231  13.795  1.00  0.00     0.042 C 
HETATM   10  C28 UNL     1      -2.987   7.707  13.789  1.00  0.00     0.067 C 
HETATM   11  C29 UNL     1      -3.301   8.356  12.424  1.00  0.00     0.047 C 
HETATM   12  C30 UNL     1      -3.758   6.006  15.618  1.00  0.00     0.270 C 
HETATM   13  O5  UNL     1      -4.997   5.904  16.304  1.00  0.00    -0.351 OA
ENDROOT
BRANCH   4  14
HETATM   14  C19 UNL     1      -4.777   4.192  13.139  1.00  0.00     0.012 C 
BRANCH  14  15
HETATM   15  C20 UNL     1      -6.193   4.340  12.569  1.00  0.00     0.027 C 
BRANCH  15  16
HETATM   16  C21 UNL     1      -7.116   3.232  13.079  1.00  0.00     0.164 C 
BRANCH  16  17
HETATM   17  O1  UNL     1      -8.463   3.675  13.008  1.00  0.00    -0.401 OA
HETATM   18  H32 UNL     1      -9.023   2.983  13.404  1.00  0.00     0.209 HD
ENDBRANCH  16  17
ENDBRANCH  15  16
ENDBRANCH  14  15
ENDBRANCH   4  14
BRANCH  10  19
HETATM   19  O3  UNL     1      -3.097   8.794  14.721  1.00  0.00    -0.389 OA
HETATM   20  H44 UNL     1      -2.939   8.409  15.611  1.00  0.00     0.210 HD
ENDBRANCH  10  19
BRANCH  12  21
HETATM   21  O4  UNL     1      -2.956   6.863  16.418  1.00  0.00    -0.370 OA
HETATM   22  H46 UNL     1      -3.001   6.449  17.302  1.00  0.00     0.212 HD
ENDBRANCH  12  21
BRANCH   1  23
HETATM   23  C14 UNL     1      -7.187   6.910  16.164  1.00  0.00     0.011 C 
HETATM   24  C12 UNL     1      -8.451   7.180  15.772  1.00  0.00    -0.063 C 
HETATM   25  C13 UNL     1      -9.021   6.773  14.438  1.00  0.00     0.048 C 
BRANCH  24  26
HETATM   26  C11 UNL     1      -9.315   7.935  16.684  1.00  0.00     0.006 C 
HETATM   27  C10 UNL     1     -10.027   9.040  16.395  1.00  0.00     0.001 C 
BRANCH  27  28
HETATM   28  C9  UNL     1     -10.804   9.754  17.389  1.00  0.00     0.002 C 
HETATM   29  C7  UNL     1     -10.809  11.085  17.609  1.00  0.00    -0.084 C 
HETATM   30  C8  UNL     1     -10.055  12.109  16.797  1.00  0.00     0.043 C 
BRANCH  29  31
HETATM   31  C6  UNL     1     -11.664  11.663  18.731  1.00  0.00     0.037 C 
BRANCH  31  32
HETATM   32  C5  UNL     1     -11.498  10.975  20.098  1.00  0.00     0.031 C 
BRANCH  32  33
HETATM   33  C4  UNL     1     -10.621  11.740  21.054  1.00  0.00    -0.024 C 
HETATM   34  C2  UNL     1     -10.314  11.439  22.331  1.00  0.00    -0.091 C 
HETATM   35  C1  UNL     1      -9.392  12.334  23.122  1.00  0.00     0.042 C 
HETATM   36  C3  UNL     1     -10.818  10.250  23.102  1.00  0.00     0.042 C 
ENDBRANCH  32  33
ENDBRANCH  31  32
ENDBRANCH  29  31
ENDBRANCH  27  28
ENDBRANCH  24  26
ENDBRANCH   1  23
BRANCH   6  37
HETATM   37  C25 UNL     1      -0.541   3.635  11.690  1.00  0.00     0.265 C 
HETATM   38  O2  UNL     1      -0.293   2.469  11.391  1.00  0.00    -0.302 OA
ENDBRANCH   6  37
TORSDOF 13
ENDMDL
MODEL 5
REMARK minimizedAffinity -7.98900557
REMARK  13 active torsions:
REMARK  status: ('A' for Active; 'I' for Inactive)
REMARK    1  A    between atoms: C4_4  and  C5_5 
REMARK    2  A    between atoms: C5_5  and  C6_6 
REMARK    3  A    between atoms: C6_6  and  C7_7 
REMARK    4  A    between atoms: C9_9  and  C10_10 
REMARK    5  A    between atoms: C11_11  and  C12_12 
REMARK    6  A    between atoms: C14_14  and  C15_15 
REMARK    7  A    between atoms: C18_18  and  C19_19 
REMARK    8  A    between atoms: C19_19  and  C20_20 
REMARK    9  A    between atoms: C20_20  and  C21_21 
REMARK   10  A    between atoms: C21_21  and  O1_22 
REMARK   11  A    between atoms: C23_24  and  C25_26 
REMARK   12  A    between atoms: C28_30  and  O3_32 
REMARK   13  A    between atoms: C30_33  and  O4_34 
ROOT
HETATM    1  C15 UNL     1       0.711   7.791  15.480  1.00  0.00     0.149 C 
HETATM    2  C16 UNL     1      -0.090   8.356  14.317  1.00  0.00     0.054 C 
HETATM    3  C17 UNL     1       0.040   7.303  13.186  1.00  0.00     0.050 C 
HETATM    4  C18 UNL     1      -1.214   6.308  13.141  1.00  0.00     0.032 C 
HETATM    5  C22 UNL     1      -1.219   5.378  11.892  1.00  0.00    -0.066 C 
HETATM    6  C23 UNL     1      -2.245   4.537  11.580  1.00  0.00    -0.021 C 
HETATM    7  C24 UNL     1      -3.606   4.522  12.224  1.00  0.00     0.052 C 
HETATM    8  C26 UNL     1       0.016   5.506  11.014  1.00  0.00     0.038 C 
HETATM    9  C27 UNL     1       0.370   6.952  10.649  1.00  0.00     0.042 C 
HETATM   10  C28 UNL     1       0.125   7.988  11.769  1.00  0.00     0.067 C 
HETATM   11  C29 UNL     1      -1.123   8.825  11.418  1.00  0.00     0.047 C 
HETATM   12  C30 UNL     1       1.369   6.600  13.602  1.00  0.00     0.270 C 
HETATM   13  O5  UNL     1       1.725   6.955  14.930  1.00  0.00    -0.351 OA
ENDROOT
BRANCH   4  14
HETATM   14  C19 UNL     1      -1.580   5.588  14.475  1.00  0.00     0.012 C 
BRANCH  14  15
HETATM   15  C20 UNL     1      -2.940   5.892  15.116  1.00  0.00     0.027 C 
BRANCH  15  16
HETATM   16  C21 UNL     1      -3.007   7.335  15.619  1.00  0.00     0.164 C 
BRANCH  16  17
HETATM   17  O1  UNL     1      -2.592   7.378  16.976  1.00  0.00    -0.401 OA
HETATM   18  H32 UNL     1      -2.713   8.291  17.293  1.00  0.00     0.209 HD
ENDBRANCH  16  17
ENDBRANCH  15  16
ENDBRANCH  14  15
ENDBRANCH   4  14
BRANCH  10  19
HETATM   19  O3  UNL     1       1.201   8.939  11.726  1.00  0.00    -0.389 OA
HETATM   20  H44 UNL     1       2.012   8.446  11.982  1.00  0.00     0.210 HD
ENDBRANCH  10  19
BRANCH  12  21
HETATM   21  O4  UNL     1       2.479   6.979  12.802  1.00  0.00    -0.370 OA
HETATM   22  H46 UNL     1       3.233   6.544  13.247  1.00  0.00     0.212 HD
ENDBRANCH  12  21
BRANCH   1  23
HETATM   23  C14 UNL     1       1.293   8.780  16.452  1.00  0.00     0.011 C 
HETATM   24  C12 UNL     1       0.755   9.893  16.997  1.00  0.00    -0.063 C 
HETATM   25  C13 UNL     1      -0.669  10.331  16.773  1.00  0.00     0.048 C 
BRANCH  24  26
HETATM   26  C11 UNL     1       1.609  10.739  17.835  1.00  0.00     0.006 C 
HETATM   27  C10 UNL     1       2.321  10.356  18.910  1.00  0.00     0.001 C 
BRANCH  27  28
HETATM   28  C9  UNL     1       3.088  11.288  19.714  1.00  0.00     0.002 C 
HETATM   29  C7  UNL     1       3.593  11.068  20.947  1.00  0.00    -0.084 C 
HETATM   30  C8  UNL     1       3.522   9.764  21.702  1.00  0.00     0.043 C 
BRANCH  29  31
HETATM   31  C6  UNL     1       4.345  12.182  21.665  1.00  0.00     0.037 C 
BRANCH  31  32
HETATM   32  C5  UNL     1       5.394  11.707  22.687  1.00  0.00     0.031 C 
BRANCH  32  33
HETATM   33  C4  UNL     1       6.301  12.806  23.174  1.00  0.00    -0.024 C 
HETATM   34  C2  UNL     1       7.586  13.040  22.840  1.00  0.00    -0.091 C 
HETATM   35  C1  UNL     1       8.322  14.218  23.429  1.00  0.00     0.042 C 
HETATM   36  C3  UNL     1       8.417  12.211  21.899  1.00  0.00     0.042 C 
ENDBRANCH  32  33
ENDBRANCH  31  32
ENDBRANCH  29  31
ENDBRANCH  27  28
ENDBRANCH  24  26
ENDBRANCH   1  23
BRANCH   6  37
HETATM   37  C25 UNL     1      -2.118   3.472  10.527  1.00  0.00     0.265 C 
HETATM   38  O2  UNL     1      -1.411   2.475  10.660  1.00  0.00    -0.302 OA
ENDBRANCH   6  37
TORSDOF 13
ENDMDL
MODEL 6
REMARK minimizedAffinity -7.92829323
REMARK  13 active torsions:
REMARK  status: ('A' for Active; 'I' for Inactive)
REMARK    1  A    between atoms: C4_4  and  C5_5 
REMARK    2  A    between atoms: C5_5  and  C6_6 
REMARK    3  A    between atoms: C6_6  and  C7_7 
REMARK    4  A    between atoms: C9_9  and  C10_10 
REMARK    5  A    between atoms: C11_11  and  C12_12 
REMARK    6  A    between atoms: C14_14  and  C15_15 
REMARK    7  A    between atoms: C18_18  and  C19_19 
REMARK    8  A    between atoms: C19_19  and  C20_20 
REMARK    9  A    between atoms: C20_20  and  C21_21 
REMARK   10  A    between atoms: C21_21  and  O1_22 
REMARK   11  A    between atoms: C23_24  and  C25_26 
REMARK   12  A    between atoms: C28_30  and  O3_32 
REMARK   13  A    between atoms: C30_33  and  O4_34 
ROOT
HETATM    1  C15 UNL     1      -1.195   6.176  12.997  1.00  0.00     0.149 C 
HETATM    2  C16 UNL     1      -2.021   5.760  14.205  1.00  0.00     0.054 C 
HETATM    3  C17 UNL     1      -3.460   6.249  13.898  1.00  0.00     0.050 C 
HETATM    4  C18 UNL     1      -4.373   5.085  13.285  1.00  0.00     0.032 C 
HETATM    5  C22 UNL     1      -5.876   5.479  13.164  1.00  0.00    -0.066 C 
HETATM    6  C23 UNL     1      -6.856   4.611  12.784  1.00  0.00    -0.021 C 
HETATM    7  C24 UNL     1      -6.714   3.119  12.644  1.00  0.00     0.052 C 
HETATM    8  C26 UNL     1      -6.175   6.921  13.541  1.00  0.00     0.038 C 
HETATM    9  C27 UNL     1      -5.578   7.347  14.888  1.00  0.00     0.042 C 
HETATM   10  C28 UNL     1      -4.187   6.753  15.203  1.00  0.00     0.067 C 
HETATM   11  C29 UNL     1      -4.338   5.659  16.281  1.00  0.00     0.047 C 
HETATM   12  C30 UNL     1      -3.163   7.396  12.886  1.00  0.00     0.270 C 
HETATM   13  O5  UNL     1      -1.820   7.323  12.429  1.00  0.00    -0.351 OA
ENDROOT
BRANCH   4  14
HETATM   14  C19 UNL     1      -3.806   4.339  12.038  1.00  0.00     0.012 C 
BRANCH  14  15
HETATM   15  C20 UNL     1      -3.307   2.899  12.217  1.00  0.00     0.027 C 
BRANCH  15  16
HETATM   16  C21 UNL     1      -2.218   2.559  11.199  1.00  0.00     0.164 C 
BRANCH  16  17
HETATM   17  O1  UNL     1      -2.260   1.169  10.914  1.00  0.00    -0.401 OA
HETATM   18  H32 UNL     1      -1.514   0.966  10.322  1.00  0.00     0.209 HD
ENDBRANCH  16  17
ENDBRANCH  15  16
ENDBRANCH  14  15
ENDBRANCH   4  14
BRANCH  10  19
HETATM   19  O3  UNL     1      -3.415   7.775  15.854  1.00  0.00    -0.389 OA
HETATM   20  H44 UNL     1      -3.266   8.475  15.181  1.00  0.00     0.210 HD
ENDBRANCH  10  19
BRANCH  12  21
HETATM   21  O4  UNL     1      -3.295   8.693  13.451  1.00  0.00    -0.370 OA
HETATM   22  H46 UNL     1      -2.981   9.280  12.736  1.00  0.00     0.212 HD
ENDBRANCH  12  21
BRANCH   1  23
HETATM   23  C14 UNL     1       0.272   6.415  13.223  1.00  0.00     0.011 C 
HETATM   24  C12 UNL     1       0.902   7.325  13.998  1.00  0.00    -0.063 C 
HETATM   25  C13 UNL     1       0.187   8.286  14.912  1.00  0.00     0.048 C 
BRANCH  24  26
HETATM   26  C11 UNL     1       2.364   7.402  13.930  1.00  0.00     0.006 C 
HETATM   27  C10 UNL     1       3.110   7.694  12.849  1.00  0.00     0.001 C 
BRANCH  27  28
HETATM   28  C9  UNL     1       4.559   7.682  12.871  1.00  0.00     0.002 C 
HETATM   29  C7  UNL     1       5.376   7.025  12.020  1.00  0.00    -0.084 C 
HETATM   30  C8  UNL     1       4.931   6.230  10.818  1.00  0.00     0.043 C 
BRANCH  29  31
HETATM   31  C6  UNL     1       6.886   7.094  12.217  1.00  0.00     0.037 C 
BRANCH  31  32
HETATM   32  C5  UNL     1       7.391   8.348  12.954  1.00  0.00     0.031 C 
BRANCH  32  33
HETATM   33  C4  UNL     1       7.835   8.076  14.368  1.00  0.00    -0.024 C 
HETATM   34  C2  UNL     1       9.090   7.941  14.839  1.00  0.00    -0.091 C 
HETATM   35  C1  UNL     1       9.328   7.688  16.307  1.00  0.00     0.042 C 
HETATM   36  C3  UNL     1      10.351   8.011  14.020  1.00  0.00     0.042 C 
ENDBRANCH  32  33
ENDBRANCH  31  32
ENDBRANCH  29  31
ENDBRANCH  27  28
ENDBRANCH  24  26
ENDBRANCH   1  23
BRANCH   6  37
HETATM   37  C25 UNL     1      -8.241   5.073  12.427  1.00  0.00     0.265 C 
HETATM   38  O2  UNL     1      -8.946   5.735  13.185  1.00  0.00    -0.302 OA
ENDBRANCH   6  37
TORSDOF 13
ENDMDL
MODEL 7
REMARK minimizedAffinity -7.89379501
REMARK  13 active torsions:
REMARK  status: ('A' for Active; 'I' for Inactive)
REMARK    1  A    between atoms: C4_4  and  C5_5 
REMARK    2  A    between atoms: C5_5  and  C6_6 
REMARK    3  A    between atoms: C6_6  and  C7_7 
REMARK    4  A    between atoms: C9_9  and  C10_10 
REMARK    5  A    between atoms: C11_11  and  C12_12 
REMARK    6  A    between atoms: C14_14  and  C15_15 
REMARK    7  A    between atoms: C18_18  and  C19_19 
REMARK    8  A    between atoms: C19_19  and  C20_20 
REMARK    9  A    between atoms: C20_20  and  C21_21 
REMARK   10  A    between atoms: C21_21  and  O1_22 
REMARK   11  A    between atoms: C23_24  and  C25_26 
REMARK   12  A    between atoms: C28_30  and  O3_32 
REMARK   13  A    between atoms: C30_33  and  O4_34 
ROOT
HETATM    1  C15 UNL     1       0.154   7.377  12.399  1.00  0.00     0.149 C 
HETATM    2  C16 UNL     1       0.800   8.698  12.787  1.00  0.00     0.054 C 
HETATM    3  C17 UNL     1       2.205   8.320  13.323  1.00  0.00     0.050 C 
HETATM    4  C18 UNL     1       3.339   8.471  12.201  1.00  0.00     0.032 C 
HETATM    5  C22 UNL     1       4.784   8.305  12.759  1.00  0.00    -0.066 C 
HETATM    6  C23 UNL     1       5.908   8.512  12.016  1.00  0.00    -0.021 C 
HETATM    7  C24 UNL     1       5.965   9.137  10.648  1.00  0.00     0.052 C 
HETATM    8  C26 UNL     1       4.845   7.922  14.229  1.00  0.00     0.038 C 
HETATM    9  C27 UNL     1       3.979   8.805  15.136  1.00  0.00     0.042 C 
HETATM   10  C28 UNL     1       2.632   9.248  14.523  1.00  0.00     0.067 C 
HETATM   11  C29 UNL     1       2.718  10.741  14.143  1.00  0.00     0.047 C 
HETATM   12  C30 UNL     1       1.958   6.842  13.754  1.00  0.00     0.270 C 
HETATM   13  O5  UNL     1       0.733   6.365  13.219  1.00  0.00    -0.351 OA
ENDROOT
BRANCH   4  14
HETATM   14  C19 UNL     1       3.086   7.730  10.853  1.00  0.00     0.012 C 
BRANCH  14  15
HETATM   15  C20 UNL     1       3.573   6.281  10.717  1.00  0.00     0.027 C 
BRANCH  15  16
HETATM   16  C21 UNL     1       2.435   5.350  10.300  1.00  0.00     0.164 C 
BRANCH  16  17
HETATM   17  O1  UNL     1       2.949   4.042  10.099  1.00  0.00    -0.401 OA
HETATM   18  H32 UNL     1       2.222   3.486   9.766  1.00  0.00     0.209 HD
ENDBRANCH  16  17
ENDBRANCH  15  16
ENDBRANCH  14  15
ENDBRANCH   4  14
BRANCH  10  19
HETATM   19  O3  UNL     1       1.647   9.215  15.568  1.00  0.00    -0.389 OA
HETATM   20  H44 UNL     1       1.538   8.269  15.812  1.00  0.00     0.210 HD
ENDBRANCH  10  19
BRANCH  12  21
HETATM   21  O4  UNL     1       1.841   6.680  15.160  1.00  0.00    -0.370 OA
HETATM   22  H46 UNL     1       1.590   5.740  15.255  1.00  0.00     0.212 HD
ENDBRANCH  12  21
BRANCH   1  23
HETATM   23  C14 UNL     1      -1.347   7.313  12.440  1.00  0.00     0.011 C 
HETATM   24  C12 UNL     1      -2.190   7.169  13.486  1.00  0.00    -0.063 C 
HETATM   25  C13 UNL     1      -1.741   7.124  14.924  1.00  0.00     0.048 C 
BRANCH  24  26
HETATM   26  C11 UNL     1      -3.621   7.020  13.210  1.00  0.00     0.006 C 
HETATM   27  C10 UNL     1      -4.638   7.272  14.054  1.00  0.00     0.001 C 
BRANCH  27  28
HETATM   28  C9  UNL     1      -6.025   7.031  13.705  1.00  0.00     0.002 C 
HETATM   29  C7  UNL     1      -6.964   6.445  14.477  1.00  0.00    -0.084 C 
HETATM   30  C8  UNL     1      -6.768   5.995  15.904  1.00  0.00     0.043 C 
BRANCH  29  31
HETATM   31  C6  UNL     1      -8.371   6.237  13.930  1.00  0.00     0.037 C 
BRANCH  31  32
HETATM   32  C5  UNL     1      -8.491   5.163  12.832  1.00  0.00     0.031 C 
BRANCH  32  33
HETATM   33  C4  UNL     1      -7.161   4.642  12.353  1.00  0.00    -0.024 C 
HETATM   34  C2  UNL     1      -6.724   3.368  12.321  1.00  0.00    -0.091 C 
HETATM   35  C1  UNL     1      -5.352   3.049  11.780  1.00  0.00     0.042 C 
HETATM   36  C3  UNL     1      -7.488   2.162  12.796  1.00  0.00     0.042 C 
ENDBRANCH  32  33
ENDBRANCH  31  32
ENDBRANCH  29  31
ENDBRANCH  27  28
ENDBRANCH  24  26
ENDBRANCH   1  23
BRANCH   6  37
HETATM   37  C25 UNL     1       7.272   8.099  12.495  1.00  0.00     0.265 C 
HETATM   38  O2  UNL     1       8.182   8.897  12.704  1.00  0.00    -0.302 OA
ENDBRANCH   6  37
TORSDOF 13
ENDMDL
MODEL 8
REMARK minimizedAffinity -7.83623934
REMARK  13 active torsions:
REMARK  status: ('A' for Active; 'I' for Inactive)
REMARK    1  A    between atoms: C4_4  and  C5_5 
REMARK    2  A    between atoms: C5_5  and  C6_6 
REMARK    3  A    between atoms: C6_6  and  C7_7 
REMARK    4  A    between atoms: C9_9  and  C10_10 
REMARK    5  A    between atoms: C11_11  and  C12_12 
REMARK    6  A    between atoms: C14_14  and  C15_15 
REMARK    7  A    between atoms: C18_18  and  C19_19 
REMARK    8  A    between atoms: C19_19  and  C20_20 
REMARK    9  A    between atoms: C20_20  and  C21_21 
REMARK   10  A    between atoms: C21_21  and  O1_22 
REMARK   11  A    between atoms: C23_24  and  C25_26 
REMARK   12  A    between atoms: C28_30  and  O3_32 
REMARK   13  A    between atoms: C30_33  and  O4_34 
ROOT
HETATM    1  C15 UNL     1      -3.128   7.845  15.111  1.00  0.00     0.149 C 
HETATM    2  C16 UNL     1      -2.413   8.046  13.784  1.00  0.00     0.054 C 
HETATM    3  C17 UNL     1      -1.539   6.779  13.600  1.00  0.00     0.050 C 
HETATM    4  C18 UNL     1      -2.253   5.684  12.674  1.00  0.00     0.032 C 
HETATM    5  C22 UNL     1      -1.321   4.494  12.295  1.00  0.00    -0.066 C 
HETATM    6  C23 UNL     1      -1.671   3.509  11.421  1.00  0.00    -0.021 C 
HETATM    7  C24 UNL     1      -2.878   3.511  10.521  1.00  0.00     0.052 C 
HETATM    8  C26 UNL     1       0.046   4.536  12.961  1.00  0.00     0.038 C 
HETATM    9  C27 UNL     1       0.759   5.887  12.828  1.00  0.00     0.042 C 
HETATM   10  C28 UNL     1      -0.163   7.124  12.911  1.00  0.00     0.067 C 
HETATM   11  C29 UNL     1      -0.319   7.732  11.501  1.00  0.00     0.047 C 
HETATM   12  C30 UNL     1      -1.379   6.323  15.082  1.00  0.00     0.270 C 
HETATM   13  O5  UNL     1      -2.303   7.008  15.916  1.00  0.00    -0.351 OA
ENDROOT
BRANCH   4  14
HETATM   14  C19 UNL     1      -3.695   5.258  13.087  1.00  0.00     0.012 C 
BRANCH  14  15
HETATM   15  C20 UNL     1      -4.470   4.318  12.155  1.00  0.00     0.027 C 
BRANCH  15  16
HETATM   16  C21 UNL     1      -5.813   3.915  12.765  1.00  0.00     0.164 C 
BRANCH  16  17
HETATM   17  O1  UNL     1      -6.479   3.022  11.885  1.00  0.00    -0.401 OA
HETATM   18  H32 UNL     1      -7.358   2.837  12.260  1.00  0.00     0.209 HD
ENDBRANCH  16  17
ENDBRANCH  15  16
ENDBRANCH  14  15
ENDBRANCH   4  14
BRANCH  10  19
HETATM   19  O3  UNL     1       0.535   8.139  13.649  1.00  0.00    -0.389 OA
HETATM   20  H44 UNL     1       0.621   7.800  14.567  1.00  0.00     0.210 HD
ENDBRANCH  10  19
BRANCH  12  21
HETATM   21  O4  UNL     1      -0.099   6.614  15.625  1.00  0.00    -0.370 OA
HETATM   22  H46 UNL     1      -0.196   6.368  16.566  1.00  0.00     0.212 HD
ENDBRANCH  12  21
BRANCH   1  23
HETATM   23  C14 UNL     1      -3.537   9.083  15.861  1.00  0.00     0.011 C 
HETATM   24  C12 UNL     1      -2.785  10.048  16.433  1.00  0.00    -0.063 C 
HETATM   25  C13 UNL     1      -1.282  10.104  16.344  1.00  0.00     0.048 C 
BRANCH  24  26
HETATM   26  C11 UNL     1      -3.464  11.090  17.208  1.00  0.00     0.006 C 
HETATM   27  C10 UNL     1      -3.483  11.220  18.548  1.00  0.00     0.001 C 
BRANCH  27  28
HETATM   28  C9  UNL     1      -4.241  12.254  19.224  1.00  0.00     0.002 C 
HETATM   29  C7  UNL     1      -3.835  13.513  19.489  1.00  0.00    -0.084 C 
HETATM   30  C8  UNL     1      -2.524  14.120  19.054  1.00  0.00     0.043 C 
BRANCH  29  31
HETATM   31  C6  UNL     1      -4.755  14.460  20.250  1.00  0.00     0.037 C 
BRANCH  31  32
HETATM   32  C5  UNL     1      -5.545  13.815  21.404  1.00  0.00     0.031 C 
BRANCH  32  33
HETATM   33  C4  UNL     1      -6.969  13.480  21.045  1.00  0.00    -0.024 C 
HETATM   34  C2  UNL     1      -7.974  13.115  21.864  1.00  0.00    -0.091 C 
HETATM   35  C1  UNL     1      -9.348  12.839  21.304  1.00  0.00     0.042 C 
HETATM   36  C3  UNL     1      -7.876  12.937  23.355  1.00  0.00     0.042 C 
ENDBRANCH  32  33
ENDBRANCH  31  32
ENDBRANCH  29  31
ENDBRANCH  27  28
ENDBRANCH  24  26
ENDBRANCH   1  23
BRANCH   6  37
HETATM   37  C25 UNL     1      -0.868   2.247  11.271  1.00  0.00     0.265 C 
HETATM   38  O2  UNL     1      -0.946   1.512  10.289  1.00  0.00    -0.302 OA
ENDBRANCH   6  37
TORSDOF 13
ENDMDL
MODEL 9
REMARK minimizedAffinity -7.82825804
REMARK  13 active torsions:
REMARK  status: ('A' for Active; 'I' for Inactive)
REMARK    1  A    between atoms: C4_4  and  C5_5 
REMARK    2  A    between atoms: C5_5  and  C6_6 
REMARK    3  A    between atoms: C6_6  and  C7_7 
REMARK    4  A    between atoms: C9_9  and  C10_10 
REMARK    5  A    between atoms: C11_11  and  C12_12 
REMARK    6  A    between atoms: C14_14  and  C15_15 
REMARK    7  A    between atoms: C18_18  and  C19_19 
REMARK    8  A    between atoms: C19_19  and  C20_20 
REMARK    9  A    between atoms: C20_20  and  C21_21 
REMARK   10  A    between atoms: C21_21  and  O1_22 
REMARK   11  A    between atoms: C23_24  and  C25_26 
REMARK   12  A    between atoms: C28_30  and  O3_32 
REMARK   13  A    between atoms: C30_33  and  O4_34 
ROOT
HETATM    1  C15 UNL     1      -4.814   6.738  13.623  1.00  0.00     0.149 C 
HETATM    2  C16 UNL     1      -4.236   8.125  13.858  1.00  0.00     0.054 C 
HETATM    3  C17 UNL     1      -2.864   7.882  14.537  1.00  0.00     0.050 C 
HETATM    4  C18 UNL     1      -1.657   7.916  13.484  1.00  0.00     0.032 C 
HETATM    5  C22 UNL     1      -0.251   7.888  14.157  1.00  0.00    -0.066 C 
HETATM    6  C23 UNL     1       0.917   8.031  13.470  1.00  0.00    -0.021 C 
HETATM    7  C24 UNL     1       1.055   8.457  12.032  1.00  0.00     0.052 C 
HETATM    8  C26 UNL     1      -0.286   7.721  15.668  1.00  0.00     0.038 C 
HETATM    9  C27 UNL     1      -1.240   8.688  16.377  1.00  0.00     0.042 C 
HETATM   10  C28 UNL     1      -2.552   8.987  15.617  1.00  0.00     0.067 C 
HETATM   11  C29 UNL     1      -2.482  10.414  15.032  1.00  0.00     0.047 C 
HETATM   12  C30 UNL     1      -3.098   6.472  15.159  1.00  0.00     0.270 C 
HETATM   13  O5  UNL     1      -4.268   5.877  14.617  1.00  0.00    -0.351 OA
ENDROOT
BRANCH   4  14
HETATM   14  C19 UNL     1      -1.789   6.982  12.243  1.00  0.00     0.012 C 
BRANCH  14  15
HETATM   15  C20 UNL     1      -1.383   5.510  12.394  1.00  0.00     0.027 C 
BRANCH  15  16
HETATM   16  C21 UNL     1      -0.451   5.073  11.264  1.00  0.00     0.164 C 
BRANCH  16  17
HETATM   17  O1  UNL     1      -0.854   3.797  10.791  1.00  0.00    -0.401 OA
HETATM   18  H32 UNL     1      -0.205   3.510  10.124  1.00  0.00     0.209 HD
ENDBRANCH  16  17
ENDBRANCH  15  16
ENDBRANCH  14  15
ENDBRANCH   4  14
BRANCH  10  19
HETATM   19  O3  UNL     1      -3.609   9.064  16.586  1.00  0.00    -0.389 OA
HETATM   20  H44 UNL     1      -3.708   8.159  16.956  1.00  0.00     0.210 HD
ENDBRANCH  10  19
BRANCH  12  21
HETATM   21  O4  UNL     1      -3.312   6.506  16.563  1.00  0.00    -0.370 OA
HETATM   22  H46 UNL     1      -3.542   5.581  16.776  1.00  0.00     0.212 HD
ENDBRANCH  12  21
BRANCH   1  23
HETATM   23  C14 UNL     1      -6.312   6.622  13.571  1.00  0.00     0.011 C 
HETATM   24  C12 UNL     1      -7.245   6.895  14.509  1.00  0.00    -0.063 C 
HETATM   25  C13 UNL     1      -6.929   7.491  15.856  1.00  0.00     0.048 C 
BRANCH  24  26
HETATM   26  C11 UNL     1      -8.643   6.572  14.214  1.00  0.00     0.006 C 
HETATM   27  C10 UNL     1      -9.723   7.328  14.483  1.00  0.00     0.001 C 
BRANCH  27  28
HETATM   28  C9  UNL     1     -11.077   6.888  14.207  1.00  0.00     0.002 C 
HETATM   29  C7  UNL     1     -11.971   7.483  13.390  1.00  0.00    -0.084 C 
HETATM   30  C8  UNL     1     -11.701   8.694  12.531  1.00  0.00     0.043 C 
BRANCH  29  31
HETATM   31  C6  UNL     1     -13.372   6.899  13.249  1.00  0.00     0.037 C 
BRANCH  31  32
HETATM   32  C5  UNL     1     -13.715   5.779  14.248  1.00  0.00     0.031 C 
BRANCH  32  33
HETATM   33  C4  UNL     1     -15.194   5.618  14.486  1.00  0.00    -0.024 C 
HETATM   34  C2  UNL     1     -15.883   4.486  14.731  1.00  0.00    -0.091 C 
HETATM   35  C1  UNL     1     -17.373   4.540  14.964  1.00  0.00     0.042 C 
HETATM   36  C3  UNL     1     -15.305   3.099  14.796  1.00  0.00     0.042 C 
ENDBRANCH  32  33
ENDBRANCH  31  32
ENDBRANCH  29  31
ENDBRANCH  27  28
ENDBRANCH  24  26
ENDBRANCH   1  23
BRANCH   6  37
HETATM   37  C25 UNL     1       2.254   7.743  14.094  1.00  0.00     0.265 C 
HETATM   38  O2  UNL     1       3.301   7.699  13.452  1.00  0.00    -0.302 OA
ENDBRANCH   6  37
TORSDOF 13
ENDMDL
