MODEL 1
REMARK minimizedAffinity -9.74995422
REMARK CNNscore 0.342805862
REMARK CNNaffinity 7.54245138
REMARK  11 active torsions:
REMARK  status: ('A' for Active; 'I' for Inactive)
REMARK    1  A    between atoms: C2_2  and  C3_4 
REMARK    2  A    between atoms: N1_14  and  O2_16 
REMARK    3  A    between atoms: O2_16  and  C13_17 
REMARK    4  A    between atoms: C13_17  and  C14_18 
REMARK       I    between atoms: C14_18  and  N2_20 
REMARK    5  A    between atoms: N2_20  and  C15_21 
REMARK    6  A    between atoms: C15_21  and  C16_22 
REMARK       I    between atoms: C16_22  and  N3_24 
REMARK    7  A    between atoms: N3_24  and  C17_25 
REMARK    8  A    between atoms: C17_25  and  C18_26 
REMARK    9  A    between atoms: C17_25  and  C27_36 
REMARK   10  A    between atoms: C18_26  and  C19_27 
REMARK   11  A    between atoms: C27_36  and  O6_38 
ROOT
HETATM    1  C13 UNL     1     -13.400   7.367  14.487  1.00  0.00     0.303 C 
ENDROOT
BRANCH   1   2
HETATM    2  O2  UNL     1     -12.119   7.299  13.870  1.00  0.00    -0.271 OA
BRANCH   2   3
HETATM    3  N1  UNL     1     -11.183   7.822  14.774  1.00  0.00    -0.271 N 
HETATM    4  C12 UNL     1      -9.975   7.382  14.588  1.00  0.00     0.032 C 
HETATM    5  C11 UNL     1      -9.532   6.480  13.487  1.00  0.00     0.030 C 
HETATM    6  C28 UNL     1      -8.975   7.770  15.663  1.00  0.00     0.060 C 
HETATM    7  C10 UNL     1      -8.371   5.797  13.559  1.00  0.00    -0.069 C 
HETATM    8  C9  UNL     1      -8.067   4.739  12.523  1.00  0.00     0.035 C 
HETATM    9  C30 UNL     1      -7.396   5.955  14.730  1.00  0.00    -0.016 C 
HETATM   10  C8  UNL     1      -6.589   4.583  12.169  1.00  0.00     0.010 C 
HETATM   11  C7  UNL     1      -5.735   4.423  13.436  1.00  0.00    -0.004 C 
HETATM   12  C6  UNL     1      -4.233   4.082  13.231  1.00  0.00    -0.001 C 
HETATM   13  C32 UNL     1      -5.894   5.684  14.321  1.00  0.00     0.002 C 
HETATM   14  C5  UNL     1      -3.887   3.210  12.026  1.00  0.00     0.006 C 
HETATM   15  C35 UNL     1      -3.232   5.284  13.181  1.00  0.00    -0.030 C 
HETATM   16  C4  UNL     1      -2.379   3.388  11.902  1.00  0.00     0.013 C 
HETATM   17  C3  UNL     1      -2.220   4.903  12.045  1.00  0.00     0.063 C 
HETATM   18  C34 UNL     1      -3.956   6.584  12.821  1.00  0.00     0.011 C 
HETATM   19  C36 UNL     1      -2.526   5.418  14.556  1.00  0.00     0.016 C 
HETATM   20  C33 UNL     1      -5.180   6.902  13.680  1.00  0.00     0.007 C 
HETATM   21  C29 UNL     1      -7.544   7.388  15.320  1.00  0.00     0.020 C 
HETATM   22  C31 UNL     1      -7.800   4.919  15.808  1.00  0.00     0.020 C 
ATOM     23  H1  UNL     1     -11.427   8.486  15.508  1.00  0.00     0.194 HD
BRANCH  17  24
HETATM   24  C2  UNL     1      -0.783   5.406  12.233  1.00  0.00     0.128 C 
HETATM   25  C1  UNL     1      -0.479   6.847  11.893  1.00  0.00     0.091 C 
HETATM   26  O1  UNL     1       0.084   4.694  12.757  1.00  0.00    -0.298 OA
ENDBRANCH  17  24
ENDBRANCH   2   3
ENDBRANCH   1   2
BRANCH   1  27
HETATM   27  C14 UNL     1     -14.409   6.318  14.022  1.00  0.00     0.244 C 
HETATM   28  O3  UNL     1     -15.154   6.514  13.064  1.00  0.00    -0.271 OA
HETATM   29  N2  UNL     1     -14.502   5.198  14.817  1.00  0.00    -0.350 N 
HETATM   30  H18 UNL     1     -13.920   5.145  15.644  1.00  0.00     0.163 HD
BRANCH  29  31
HETATM   31  C15 UNL     1     -15.689   4.352  14.758  1.00  0.00     0.225 C 
BRANCH  31  32
HETATM   32  C16 UNL     1     -15.461   2.844  14.693  1.00  0.00     0.236 C 
HETATM   33  O4  UNL     1     -14.328   2.366  14.754  1.00  0.00    -0.272 OA
HETATM   34  N3  UNL     1     -16.590   2.058  14.659  1.00  0.00    -0.345 N 
HETATM   35  H21 UNL     1     -17.446   2.498  14.349  1.00  0.00     0.163 HD
BRANCH  34  36
HETATM   36  C17 UNL     1     -16.463   0.614  14.416  1.00  0.00     0.186 C 
BRANCH  36  37
HETATM   37  C18 UNL     1     -15.762   0.268  13.096  1.00  0.00     0.077 C 
BRANCH  37  38
HETATM   38  C19 UNL     1     -16.325  -0.838  12.245  1.00  0.00    -0.028 A 
HETATM   39  C20 UNL     1     -17.585  -0.968  11.680  1.00  0.00     0.096 A 
HETATM   40  N4  UNL     1     -17.613  -2.138  10.966  1.00  0.00    -0.365 N 
HETATM   41  C21 UNL     1     -16.395  -2.768  11.021  1.00  0.00     0.042 A 
HETATM   42  H26 UNL     1     -18.409  -2.487  10.450  1.00  0.00     0.165 HD
HETATM   43  C22 UNL     1     -15.968  -3.959  10.419  1.00  0.00     0.030 A 
HETATM   44  C26 UNL     1     -15.568  -1.990  11.830  1.00  0.00    -0.002 A 
HETATM   45  C23 UNL     1     -14.651  -4.366  10.655  1.00  0.00     0.002 A 
HETATM   46  C24 UNL     1     -13.803  -3.615  11.469  1.00  0.00     0.001 A 
HETATM   47  C25 UNL     1     -14.249  -2.432  12.065  1.00  0.00     0.014 A 
ENDBRANCH  37  38
ENDBRANCH  36  37
BRANCH  36  48
HETATM   48  C27 UNL     1     -15.826  -0.087  15.618  1.00  0.00     0.163 C 
HETATM   49  O5  UNL     1     -16.327  -0.242  16.723  1.00  0.00    -0.648 OA
BRANCH  48  50
HETATM   50  O6  UNL     1     -14.590  -0.575  15.356  1.00  0.00    -0.775 OA
HETATM   51  H31 UNL     1     -14.327  -1.018  16.196  1.00  0.00     0.167 HD
ENDBRANCH  48  50
ENDBRANCH  36  48
ENDBRANCH  34  36
ENDBRANCH  31  32
ENDBRANCH  29  31
ENDBRANCH   1  27
TORSDOF 11
ENDMDL
MODEL 2
REMARK minimizedAffinity -10.3699284
REMARK CNNscore 0.305514455
REMARK CNNaffinity 6.95042992
REMARK  11 active torsions:
REMARK  status: ('A' for Active; 'I' for Inactive)
REMARK    1  A    between atoms: C2_2  and  C3_4 
REMARK    2  A    between atoms: N1_14  and  O2_16 
REMARK    3  A    between atoms: O2_16  and  C13_17 
REMARK    4  A    between atoms: C13_17  and  C14_18 
REMARK       I    between atoms: C14_18  and  N2_20 
REMARK    5  A    between atoms: N2_20  and  C15_21 
REMARK    6  A    between atoms: C15_21  and  C16_22 
REMARK       I    between atoms: C16_22  and  N3_24 
REMARK    7  A    between atoms: N3_24  and  C17_25 
REMARK    8  A    between atoms: C17_25  and  C18_26 
REMARK    9  A    between atoms: C17_25  and  C27_36 
REMARK   10  A    between atoms: C18_26  and  C19_27 
REMARK   11  A    between atoms: C27_36  and  O6_38 
ROOT
HETATM    1  C13 UNL     1       0.618  13.474  16.499  1.00  0.00     0.303 C 
ENDROOT
BRANCH   1   2
HETATM    2  O2  UNL     1      -0.410  13.270  15.536  1.00  0.00    -0.271 OA
BRANCH   2   3
HETATM    3  N1  UNL     1       0.005  12.239  14.681  1.00  0.00    -0.271 N 
HETATM    4  C12 UNL     1      -0.832  11.249  14.610  1.00  0.00     0.032 C 
HETATM    5  C11 UNL     1      -2.168  11.184  15.271  1.00  0.00     0.030 C 
HETATM    6  C28 UNL     1      -0.331  10.032  13.854  1.00  0.00     0.060 C 
HETATM    7  C10 UNL     1      -2.814  10.012  15.440  1.00  0.00    -0.069 C 
HETATM    8  C9  UNL     1      -4.058   9.969  16.299  1.00  0.00     0.035 C 
HETATM    9  C30 UNL     1      -2.266   8.686  14.905  1.00  0.00    -0.016 C 
HETATM   10  C8  UNL     1      -5.112   8.954  15.862  1.00  0.00     0.010 C 
HETATM   11  C7  UNL     1      -4.488   7.564  15.666  1.00  0.00    -0.004 C 
HETATM   12  C6  UNL     1      -5.467   6.389  15.388  1.00  0.00    -0.001 C 
HETATM   13  C32 UNL     1      -3.402   7.643  14.565  1.00  0.00     0.002 C 
HETATM   14  C5  UNL     1      -6.837   6.464  16.060  1.00  0.00     0.006 C 
HETATM   15  C35 UNL     1      -5.753   6.041  13.889  1.00  0.00    -0.030 C 
HETATM   16  C4  UNL     1      -7.642   5.416  15.302  1.00  0.00     0.013 C 
HETATM   17  C3  UNL     1      -7.289   5.728  13.847  1.00  0.00     0.063 C 
HETATM   18  C34 UNL     1      -5.438   7.233  12.981  1.00  0.00     0.011 C 
HETATM   19  C36 UNL     1      -4.905   4.808  13.481  1.00  0.00     0.016 C 
HETATM   20  C33 UNL     1      -4.046   7.837  13.167  1.00  0.00     0.007 C 
HETATM   21  C29 UNL     1      -1.400   8.971  13.643  1.00  0.00     0.020 C 
HETATM   22  C31 UNL     1      -1.366   8.080  16.010  1.00  0.00     0.020 C 
ATOM     23  H1  UNL     1       0.884  12.263  14.163  1.00  0.00     0.194 HD
BRANCH  17  24
HETATM   24  C2  UNL     1      -7.729   4.679  12.817  1.00  0.00     0.128 C 
HETATM   25  C1  UNL     1      -7.151   3.287  12.920  1.00  0.00     0.091 C 
HETATM   26  O1  UNL     1      -8.620   4.924  11.992  1.00  0.00    -0.298 OA
ENDBRANCH  17  24
ENDBRANCH   2   3
ENDBRANCH   1   2
BRANCH   1  27
HETATM   27  C14 UNL     1       0.260  13.084  17.932  1.00  0.00     0.244 C 
HETATM   28  O3  UNL     1      -0.415  13.815  18.654  1.00  0.00    -0.271 OA
HETATM   29  N2  UNL     1       0.842  11.922  18.389  1.00  0.00    -0.350 N 
HETATM   30  H18 UNL     1       1.462  11.418  17.768  1.00  0.00     0.163 HD
BRANCH  29  31
HETATM   31  C15 UNL     1       0.951  11.670  19.821  1.00  0.00     0.225 C 
BRANCH  31  32
HETATM   32  C16 UNL     1       1.999  10.653  20.266  1.00  0.00     0.236 C 
HETATM   33  O4  UNL     1       2.486   9.848  19.472  1.00  0.00    -0.272 OA
HETATM   34  N3  UNL     1       2.431  10.754  21.569  1.00  0.00    -0.345 N 
HETATM   35  H21 UNL     1       1.823  11.237  22.218  1.00  0.00     0.163 HD
BRANCH  34  36
HETATM   36  C17 UNL     1       3.300   9.709  22.130  1.00  0.00     0.186 C 
BRANCH  36  37
HETATM   37  C18 UNL     1       4.423  10.252  23.022  1.00  0.00     0.077 C 
BRANCH  37  38
HETATM   38  C19 UNL     1       4.794  11.706  22.916  1.00  0.00    -0.028 A 
HETATM   39  C20 UNL     1       3.982  12.818  22.752  1.00  0.00     0.096 A 
HETATM   40  N4  UNL     1       4.782  13.932  22.738  1.00  0.00    -0.365 N 
HETATM   41  C21 UNL     1       6.097  13.585  22.918  1.00  0.00     0.042 A 
HETATM   42  H26 UNL     1       4.456  14.882  22.631  1.00  0.00     0.165 HD
HETATM   43  C22 UNL     1       7.239  14.393  23.002  1.00  0.00     0.030 A 
HETATM   44  C26 UNL     1       6.144  12.194  23.015  1.00  0.00    -0.002 A 
HETATM   45  C23 UNL     1       8.470  13.755  23.190  1.00  0.00     0.002 A 
HETATM   46  C24 UNL     1       8.551  12.364  23.280  1.00  0.00     0.001 A 
HETATM   47  C25 UNL     1       7.400  11.576  23.189  1.00  0.00     0.014 A 
ENDBRANCH  37  38
ENDBRANCH  36  37
BRANCH  36  48
HETATM   48  C27 UNL     1       2.471   8.627  22.827  1.00  0.00     0.163 C 
HETATM   49  O5  UNL     1       1.879   7.702  22.289  1.00  0.00    -0.648 OA
BRANCH  48  50
HETATM   50  O6  UNL     1       2.446   8.761  24.174  1.00  0.00    -0.775 OA
HETATM   51  H31 UNL     1       1.913   7.990  24.478  1.00  0.00     0.167 HD
ENDBRANCH  48  50
ENDBRANCH  36  48
ENDBRANCH  34  36
ENDBRANCH  31  32
ENDBRANCH  29  31
ENDBRANCH   1  27
TORSDOF 11
ENDMDL
MODEL 3
REMARK minimizedAffinity -9.34652138
REMARK CNNscore 0.28114903
REMARK CNNaffinity 7.19292831
REMARK  11 active torsions:
REMARK  status: ('A' for Active; 'I' for Inactive)
REMARK    1  A    between atoms: C2_2  and  C3_4 
REMARK    2  A    between atoms: N1_14  and  O2_16 
REMARK    3  A    between atoms: O2_16  and  C13_17 
REMARK    4  A    between atoms: C13_17  and  C14_18 
REMARK       I    between atoms: C14_18  and  N2_20 
REMARK    5  A    between atoms: N2_20  and  C15_21 
REMARK    6  A    between atoms: C15_21  and  C16_22 
REMARK       I    between atoms: C16_22  and  N3_24 
REMARK    7  A    between atoms: N3_24  and  C17_25 
REMARK    8  A    between atoms: C17_25  and  C18_26 
REMARK    9  A    between atoms: C17_25  and  C27_36 
REMARK   10  A    between atoms: C18_26  and  C19_27 
REMARK   11  A    between atoms: C27_36  and  O6_38 
ROOT
HETATM    1  C13 UNL     1      -7.080   6.826  16.356  1.00  0.00     0.303 C 
ENDROOT
BRANCH   1   2
HETATM    2  O2  UNL     1      -8.493   6.973  16.262  1.00  0.00    -0.271 OA
BRANCH   2   3
HETATM    3  N1  UNL     1      -8.864   6.678  14.941  1.00  0.00    -0.271 N 
HETATM    4  C12 UNL     1     -10.004   7.193  14.592  1.00  0.00     0.032 C 
HETATM    5  C11 UNL     1     -10.849   8.095  15.425  1.00  0.00     0.030 C 
HETATM    6  C28 UNL     1     -10.532   6.736  13.243  1.00  0.00     0.060 C 
HETATM    7  C10 UNL     1     -12.152   8.300  15.144  1.00  0.00    -0.069 C 
HETATM    8  C9  UNL     1     -13.016   9.049  16.133  1.00  0.00     0.035 C 
HETATM    9  C30 UNL     1     -12.835   7.686  13.917  1.00  0.00    -0.016 C 
HETATM   10  C8  UNL     1     -14.129   9.892  15.514  1.00  0.00     0.010 C 
HETATM   11  C7  UNL     1     -14.960   9.063  14.523  1.00  0.00    -0.004 C 
HETATM   12  C6  UNL     1     -16.234   9.735  13.942  1.00  0.00    -0.001 C 
HETATM   13  C32 UNL     1     -14.040   8.557  13.384  1.00  0.00     0.002 C 
HETATM   14  C5  UNL     1     -16.981  10.700  14.861  1.00  0.00     0.006 C 
HETATM   15  C35 UNL     1     -16.082  10.488  12.578  1.00  0.00    -0.030 C 
HETATM   16  C4  UNL     1     -17.900  11.441  13.899  1.00  0.00     0.013 C 
HETATM   17  C3  UNL     1     -16.953  11.781  12.746  1.00  0.00     0.063 C 
HETATM   18  C34 UNL     1     -14.621  10.873  12.326  1.00  0.00     0.011 C 
HETATM   19  C36 UNL     1     -16.611   9.585  11.434  1.00  0.00     0.016 C 
HETATM   20  C33 UNL     1     -13.619   9.725  12.455  1.00  0.00     0.007 C 
HETATM   21  C29 UNL     1     -11.773   7.491  12.796  1.00  0.00     0.020 C 
HETATM   22  C31 UNL     1     -13.385   6.302  14.340  1.00  0.00     0.020 C 
ATOM     23  H1  UNL     1      -8.293   6.112  14.314  1.00  0.00     0.194 HD
BRANCH  17  24
HETATM   24  C2  UNL     1     -17.622  12.307  11.469  1.00  0.00     0.128 C 
HETATM   25  C1  UNL     1     -19.114  12.125  11.315  1.00  0.00     0.091 C 
HETATM   26  O1  UNL     1     -16.986  12.967  10.636  1.00  0.00    -0.298 OA
ENDBRANCH  17  24
ENDBRANCH   2   3
ENDBRANCH   1   2
BRANCH   1  27
HETATM   27  C14 UNL     1      -6.261   7.815  15.529  1.00  0.00     0.244 C 
HETATM   28  O3  UNL     1      -6.589   8.134  14.388  1.00  0.00    -0.271 OA
HETATM   29  N2  UNL     1      -5.079   8.226  16.104  1.00  0.00    -0.350 N 
HETATM   30  H18 UNL     1      -4.827   7.849  17.009  1.00  0.00     0.163 HD
BRANCH  29  31
HETATM   31  C15 UNL     1      -4.019   8.792  15.277  1.00  0.00     0.225 C 
BRANCH  31  32
HETATM   32  C16 UNL     1      -3.175   7.811  14.467  1.00  0.00     0.236 C 
HETATM   33  O4  UNL     1      -2.468   8.195  13.535  1.00  0.00    -0.272 OA
HETATM   34  N3  UNL     1      -3.179   6.504  14.897  1.00  0.00    -0.345 N 
HETATM   35  H21 UNL     1      -3.958   6.213  15.474  1.00  0.00     0.163 HD
BRANCH  34  36
HETATM   36  C17 UNL     1      -2.543   5.465  14.074  1.00  0.00     0.186 C 
BRANCH  36  37
HETATM   37  C18 UNL     1      -2.989   5.479  12.607  1.00  0.00     0.077 C 
BRANCH  37  38
HETATM   38  C19 UNL     1      -3.749   4.297  12.070  1.00  0.00    -0.028 A 
HETATM   39  C20 UNL     1      -3.351   3.321  11.169  1.00  0.00     0.096 A 
HETATM   40  N4  UNL     1      -4.386   2.435  11.014  1.00  0.00    -0.365 N 
HETATM   41  C21 UNL     1      -5.446   2.785  11.812  1.00  0.00     0.042 A 
HETATM   42  H26 UNL     1      -4.373   1.623  10.413  1.00  0.00     0.165 HD
HETATM   43  C22 UNL     1      -6.684   2.155  11.994  1.00  0.00     0.030 A 
HETATM   44  C26 UNL     1      -5.089   3.959  12.475  1.00  0.00    -0.002 A 
HETATM   45  C23 UNL     1      -7.586   2.747  12.884  1.00  0.00     0.002 A 
HETATM   46  C24 UNL     1      -7.262   3.927  13.554  1.00  0.00     0.001 A 
HETATM   47  C25 UNL     1      -6.023   4.544  13.356  1.00  0.00     0.014 A 
ENDBRANCH  37  38
ENDBRANCH  36  37
BRANCH  36  48
HETATM   48  C27 UNL     1      -1.020   5.511  14.223  1.00  0.00     0.163 C 
HETATM   49  O5  UNL     1      -0.197   5.461  13.319  1.00  0.00    -0.648 OA
BRANCH  48  50
HETATM   50  O6  UNL     1      -0.614   5.634  15.508  1.00  0.00    -0.775 OA
HETATM   51  H31 UNL     1       0.368   5.682  15.443  1.00  0.00     0.167 HD
ENDBRANCH  48  50
ENDBRANCH  36  48
ENDBRANCH  34  36
ENDBRANCH  31  32
ENDBRANCH  29  31
ENDBRANCH   1  27
TORSDOF 11
ENDMDL
MODEL 4
REMARK minimizedAffinity -10.0967073
REMARK CNNscore 0.271647692
REMARK CNNaffinity 7.49900198
REMARK  11 active torsions:
REMARK  status: ('A' for Active; 'I' for Inactive)
REMARK    1  A    between atoms: C2_2  and  C3_4 
REMARK    2  A    between atoms: N1_14  and  O2_16 
REMARK    3  A    between atoms: O2_16  and  C13_17 
REMARK    4  A    between atoms: C13_17  and  C14_18 
REMARK       I    between atoms: C14_18  and  N2_20 
REMARK    5  A    between atoms: N2_20  and  C15_21 
REMARK    6  A    between atoms: C15_21  and  C16_22 
REMARK       I    between atoms: C16_22  and  N3_24 
REMARK    7  A    between atoms: N3_24  and  C17_25 
REMARK    8  A    between atoms: C17_25  and  C18_26 
REMARK    9  A    between atoms: C17_25  and  C27_36 
REMARK   10  A    between atoms: C18_26  and  C19_27 
REMARK   11  A    between atoms: C27_36  and  O6_38 
ROOT
HETATM    1  C13 UNL     1      -2.001   5.596  14.409  1.00  0.00     0.303 C 
ENDROOT
BRANCH   1   2
HETATM    2  O2  UNL     1      -2.886   6.149  13.441  1.00  0.00    -0.271 OA
BRANCH   2   3
HETATM    3  N1  UNL     1      -3.821   5.159  13.105  1.00  0.00    -0.271 N 
HETATM    4  C12 UNL     1      -5.052   5.505  13.329  1.00  0.00     0.032 C 
HETATM    5  C11 UNL     1      -5.512   6.840  13.810  1.00  0.00     0.030 C 
HETATM    6  C28 UNL     1      -6.076   4.396  13.165  1.00  0.00     0.060 C 
HETATM    7  C10 UNL     1      -6.738   7.013  14.346  1.00  0.00    -0.069 C 
HETATM    8  C9  UNL     1      -7.078   8.328  15.009  1.00  0.00     0.035 C 
HETATM    9  C30 UNL     1      -7.765   5.879  14.431  1.00  0.00    -0.016 C 
HETATM   10  C8  UNL     1      -8.539   8.758  14.884  1.00  0.00     0.010 C 
HETATM   11  C7  UNL     1      -9.483   7.625  15.313  1.00  0.00    -0.004 C 
HETATM   12  C6  UNL     1     -10.996   7.970  15.404  1.00  0.00    -0.001 C 
HETATM   13  C32 UNL     1      -9.257   6.397  14.397  1.00  0.00     0.002 C 
HETATM   14  C5  UNL     1     -11.350   9.391  15.836  1.00  0.00     0.006 C 
HETATM   15  C35 UNL     1     -11.868   7.687  14.136  1.00  0.00    -0.030 C 
HETATM   16  C4  UNL     1     -12.822   9.502  15.459  1.00  0.00     0.013 C 
HETATM   17  C3  UNL     1     -12.838   8.916  14.046  1.00  0.00     0.063 C 
HETATM   18  C34 UNL     1     -10.996   7.617  12.878  1.00  0.00     0.011 C 
HETATM   19  C36 UNL     1     -12.642   6.358  14.334  1.00  0.00     0.016 C 
HETATM   20  C33 UNL     1      -9.804   6.664  12.970  1.00  0.00     0.007 C 
HETATM   21  C29 UNL     1      -7.513   4.882  13.263  1.00  0.00     0.020 C 
HETATM   22  C31 UNL     1      -7.535   5.151  15.778  1.00  0.00     0.020 C 
ATOM     23  H1  UNL     1      -3.559   4.252  12.720  1.00  0.00     0.194 HD
BRANCH  17  24
HETATM   24  C2  UNL     1     -14.226   8.630  13.460  1.00  0.00     0.128 C 
HETATM   25  C1  UNL     1     -15.419   8.681  14.387  1.00  0.00     0.091 C 
HETATM   26  O1  UNL     1     -14.391   8.476  12.242  1.00  0.00    -0.298 OA
ENDBRANCH  17  24
ENDBRANCH   2   3
ENDBRANCH   1   2
BRANCH   1  27
HETATM   27  C14 UNL     1      -1.123   6.606  15.147  1.00  0.00     0.244 C 
HETATM   28  O3  UNL     1      -1.605   7.543  15.780  1.00  0.00    -0.271 OA
HETATM   29  N2  UNL     1       0.232   6.459  14.955  1.00  0.00    -0.350 N 
HETATM   30  H18 UNL     1       0.555   5.718  14.345  1.00  0.00     0.163 HD
BRANCH  29  31
HETATM   31  C15 UNL     1       1.136   7.573  15.218  1.00  0.00     0.225 C 
BRANCH  31  32
HETATM   32  C16 UNL     1       2.019   8.035  14.061  1.00  0.00     0.236 C 
HETATM   33  O4  UNL     1       1.650   8.922  13.290  1.00  0.00    -0.272 OA
HETATM   34  N3  UNL     1       3.274   7.476  13.992  1.00  0.00    -0.345 N 
HETATM   35  H21 UNL     1       3.411   6.595  14.470  1.00  0.00     0.163 HD
BRANCH  34  36
HETATM   36  C17 UNL     1       4.118   7.728  12.815  1.00  0.00     0.186 C 
BRANCH  36  37
HETATM   37  C18 UNL     1       3.325   7.967  11.525  1.00  0.00     0.077 C 
BRANCH  37  38
HETATM   38  C19 UNL     1       3.414   6.949  10.420  1.00  0.00    -0.028 A 
HETATM   39  C20 UNL     1       4.020   5.702  10.411  1.00  0.00     0.096 A 
HETATM   40  N4  UNL     1       3.808   5.134   9.181  1.00  0.00    -0.365 N 
HETATM   41  C21 UNL     1       3.052   5.962   8.390  1.00  0.00     0.042 A 
HETATM   42  H26 UNL     1       4.141   4.224   8.895  1.00  0.00     0.165 HD
HETATM   43  C22 UNL     1       2.576   5.775   7.085  1.00  0.00     0.030 A 
HETATM   44  C26 UNL     1       2.802   7.118   9.129  1.00  0.00    -0.002 A 
HETATM   45  C23 UNL     1       1.819   6.805   6.519  1.00  0.00     0.002 A 
HETATM   46  C24 UNL     1       1.561   7.979   7.229  1.00  0.00     0.001 A 
HETATM   47  C25 UNL     1       2.050   8.149   8.528  1.00  0.00     0.014 A 
ENDBRANCH  37  38
ENDBRANCH  36  37
BRANCH  36  48
HETATM   48  C27 UNL     1       5.127   8.844  13.097  1.00  0.00     0.163 C 
HETATM   49  O5  UNL     1       4.901   9.909  13.654  1.00  0.00    -0.648 OA
BRANCH  48  50
HETATM   50  O6  UNL     1       6.380   8.548  12.676  1.00  0.00    -0.775 OA
HETATM   51  H31 UNL     1       6.913   9.330  12.951  1.00  0.00     0.167 HD
ENDBRANCH  48  50
ENDBRANCH  36  48
ENDBRANCH  34  36
ENDBRANCH  31  32
ENDBRANCH  29  31
ENDBRANCH   1  27
TORSDOF 11
ENDMDL
MODEL 5
REMARK minimizedAffinity -9.39471149
REMARK CNNscore 0.218824342
REMARK CNNaffinity 7.32375717
REMARK  11 active torsions:
REMARK  status: ('A' for Active; 'I' for Inactive)
REMARK    1  A    between atoms: C2_2  and  C3_4 
REMARK    2  A    between atoms: N1_14  and  O2_16 
REMARK    3  A    between atoms: O2_16  and  C13_17 
REMARK    4  A    between atoms: C13_17  and  C14_18 
REMARK       I    between atoms: C14_18  and  N2_20 
REMARK    5  A    between atoms: N2_20  and  C15_21 
REMARK    6  A    between atoms: C15_21  and  C16_22 
REMARK       I    between atoms: C16_22  and  N3_24 
REMARK    7  A    between atoms: N3_24  and  C17_25 
REMARK    8  A    between atoms: C17_25  and  C18_26 
REMARK    9  A    between atoms: C17_25  and  C27_36 
REMARK   10  A    between atoms: C18_26  and  C19_27 
REMARK   11  A    between atoms: C27_36  and  O6_38 
ROOT
HETATM    1  C13 UNL     1     -11.935   8.388  13.579  1.00  0.00     0.303 C 
ENDROOT
BRANCH   1   2
HETATM    2  O2  UNL     1     -11.645   7.319  14.472  1.00  0.00    -0.271 OA
BRANCH   2   3
HETATM    3  N1  UNL     1     -10.627   7.749  15.336  1.00  0.00    -0.271 N 
HETATM    4  C12 UNL     1      -9.449   7.301  15.021  1.00  0.00     0.032 C 
HETATM    5  C11 UNL     1      -9.118   6.478  13.822  1.00  0.00     0.030 C 
HETATM    6  C28 UNL     1      -8.358   7.582  16.039  1.00  0.00     0.060 C 
HETATM    7  C10 UNL     1      -7.974   5.769  13.748  1.00  0.00    -0.069 C 
HETATM    8  C9  UNL     1      -7.781   4.789  12.613  1.00  0.00     0.035 C 
HETATM    9  C30 UNL     1      -6.906   5.813  14.846  1.00  0.00    -0.016 C 
HETATM   10  C8  UNL     1      -6.340   4.630  12.131  1.00  0.00     0.010 C 
HETATM   11  C7  UNL     1      -5.394   4.353  13.310  1.00  0.00    -0.004 C 
HETATM   12  C6  UNL     1      -3.922   3.999  12.960  1.00  0.00    -0.001 C 
HETATM   13  C32 UNL     1      -5.449   5.543  14.299  1.00  0.00     0.002 C 
HETATM   14  C5  UNL     1      -3.694   3.217  11.667  1.00  0.00     0.006 C 
HETATM   15  C35 UNL     1      -2.896   5.179  12.923  1.00  0.00    -0.030 C 
HETATM   16  C4  UNL     1      -2.197   3.372  11.438  1.00  0.00     0.013 C 
HETATM   17  C3  UNL     1      -1.986   4.868  11.684  1.00  0.00     0.063 C 
HETATM   18  C34 UNL     1      -3.610   6.519  12.722  1.00  0.00     0.011 C 
HETATM   19  C36 UNL     1      -2.082   5.189  14.243  1.00  0.00     0.016 C 
HETATM   20  C33 UNL     1      -4.755   6.793  13.699  1.00  0.00     0.007 C 
HETATM   21  C29 UNL     1      -6.969   7.197  15.554  1.00  0.00     0.020 C 
HETATM   22  C31 UNL     1      -7.253   4.704  15.870  1.00  0.00     0.020 C 
ATOM     23  H1  UNL     1     -10.795   8.358  16.136  1.00  0.00     0.194 HD
BRANCH  17  24
HETATM   24  C2  UNL     1      -0.526   5.325  11.794  1.00  0.00     0.128 C 
HETATM   25  C1  UNL     1       0.559   4.275  11.736  1.00  0.00     0.091 C 
HETATM   26  O1  UNL     1      -0.229   6.527  11.814  1.00  0.00    -0.298 OA
ENDBRANCH  17  24
ENDBRANCH   2   3
ENDBRANCH   1   2
BRANCH   1  27
HETATM   27  C14 UNL     1     -13.386   8.869  13.582  1.00  0.00     0.244 C 
HETATM   28  O3  UNL     1     -14.131   8.678  14.541  1.00  0.00    -0.271 OA
HETATM   29  N2  UNL     1     -13.825   9.420  12.399  1.00  0.00    -0.350 N 
HETATM   30  H18 UNL     1     -13.182   9.461  11.618  1.00  0.00     0.163 HD
BRANCH  29  31
HETATM   31  C15 UNL     1     -15.253   9.506  12.115  1.00  0.00     0.225 C 
BRANCH  31  32
HETATM   32  C16 UNL     1     -15.999   8.190  11.908  1.00  0.00     0.236 C 
HETATM   33  O4  UNL     1     -15.753   7.462  10.946  1.00  0.00    -0.272 OA
HETATM   34  N3  UNL     1     -16.881   7.827  12.900  1.00  0.00    -0.345 N 
HETATM   35  H21 UNL     1     -17.225   8.564  13.501  1.00  0.00     0.163 HD
BRANCH  34  36
HETATM   36  C17 UNL     1     -17.768   6.672  12.696  1.00  0.00     0.186 C 
BRANCH  36  37
HETATM   37  C18 UNL     1     -17.998   5.838  13.963  1.00  0.00     0.077 C 
BRANCH  37  38
HETATM   38  C19 UNL     1     -17.109   4.652  14.220  1.00  0.00    -0.028 A 
HETATM   39  C20 UNL     1     -16.068   4.504  15.125  1.00  0.00     0.096 A 
HETATM   40  N4  UNL     1     -15.578   3.229  15.007  1.00  0.00    -0.365 N 
HETATM   41  C21 UNL     1     -16.289   2.523  14.069  1.00  0.00     0.042 A 
HETATM   42  H26 UNL     1     -14.814   2.846  15.545  1.00  0.00     0.165 HD
HETATM   43  C22 UNL     1     -16.156   1.192  13.652  1.00  0.00     0.030 A 
HETATM   44  C26 UNL     1     -17.246   3.390  13.542  1.00  0.00    -0.002 A 
HETATM   45  C23 UNL     1     -17.033   0.734  12.662  1.00  0.00     0.002 A 
HETATM   46  C24 UNL     1     -17.993   1.581  12.107  1.00  0.00     0.001 A 
HETATM   47  C25 UNL     1     -18.106   2.908  12.533  1.00  0.00     0.014 A 
ENDBRANCH  37  38
ENDBRANCH  36  37
BRANCH  36  48
HETATM   48  C27 UNL     1     -19.079   7.102  12.033  1.00  0.00     0.163 C 
HETATM   49  O5  UNL     1     -20.208   6.779  12.371  1.00  0.00    -0.648 OA
BRANCH  48  50
HETATM   50  O6  UNL     1     -18.894   7.937  10.983  1.00  0.00    -0.775 OA
HETATM   51  H31 UNL     1     -19.810   8.150  10.686  1.00  0.00     0.167 HD
ENDBRANCH  48  50
ENDBRANCH  36  48
ENDBRANCH  34  36
ENDBRANCH  31  32
ENDBRANCH  29  31
ENDBRANCH   1  27
TORSDOF 11
ENDMDL
MODEL 6
REMARK minimizedAffinity -9.65611839
REMARK CNNscore 0.204289794
REMARK CNNaffinity 7.09869957
REMARK  11 active torsions:
REMARK  status: ('A' for Active; 'I' for Inactive)
REMARK    1  A    between atoms: C2_2  and  C3_4 
REMARK    2  A    between atoms: N1_14  and  O2_16 
REMARK    3  A    between atoms: O2_16  and  C13_17 
REMARK    4  A    between atoms: C13_17  and  C14_18 
REMARK       I    between atoms: C14_18  and  N2_20 
REMARK    5  A    between atoms: N2_20  and  C15_21 
REMARK    6  A    between atoms: C15_21  and  C16_22 
REMARK       I    between atoms: C16_22  and  N3_24 
REMARK    7  A    between atoms: N3_24  and  C17_25 
REMARK    8  A    between atoms: C17_25  and  C18_26 
REMARK    9  A    between atoms: C17_25  and  C27_36 
REMARK   10  A    between atoms: C18_26  and  C19_27 
REMARK   11  A    between atoms: C27_36  and  O6_38 
ROOT
HETATM    1  C13 UNL     1      -1.713   5.967  12.690  1.00  0.00     0.303 C 
ENDROOT
BRANCH   1   2
HETATM    2  O2  UNL     1      -2.915   6.232  13.405  1.00  0.00    -0.271 OA
BRANCH   2   3
HETATM    3  N1  UNL     1      -3.845   5.242  13.058  1.00  0.00    -0.271 N 
HETATM    4  C12 UNL     1      -5.078   5.576  13.294  1.00  0.00     0.032 C 
HETATM    5  C11 UNL     1      -5.544   6.900  13.798  1.00  0.00     0.030 C 
HETATM    6  C28 UNL     1      -6.094   4.462  13.117  1.00  0.00     0.060 C 
HETATM    7  C10 UNL     1      -6.768   7.056  14.343  1.00  0.00    -0.069 C 
HETATM    8  C9  UNL     1      -7.114   8.358  15.029  1.00  0.00     0.035 C 
HETATM    9  C30 UNL     1      -7.787   5.914  14.416  1.00  0.00    -0.016 C 
HETATM   10  C8  UNL     1      -8.578   8.779  14.919  1.00  0.00     0.010 C 
HETATM   11  C7  UNL     1      -9.513   7.633  15.334  1.00  0.00    -0.004 C 
HETATM   12  C6  UNL     1     -11.027   7.966  15.438  1.00  0.00    -0.001 C 
HETATM   13  C32 UNL     1      -9.282   6.422  14.397  1.00  0.00     0.002 C 
HETATM   14  C5  UNL     1     -11.389   9.378  15.895  1.00  0.00     0.006 C 
HETATM   15  C35 UNL     1     -11.903   7.698  14.170  1.00  0.00    -0.030 C 
HETATM   16  C4  UNL     1     -12.863   9.485  15.527  1.00  0.00     0.013 C 
HETATM   17  C3  UNL     1     -12.882   8.921  14.104  1.00  0.00     0.063 C 
HETATM   18  C34 UNL     1     -11.038   7.654  12.907  1.00  0.00     0.011 C 
HETATM   19  C36 UNL     1     -12.668   6.360  14.351  1.00  0.00     0.016 C 
HETATM   20  C33 UNL     1      -9.839   6.708  12.978  1.00  0.00     0.007 C 
HETATM   21  C29 UNL     1      -7.534   4.937  13.231  1.00  0.00     0.020 C 
HETATM   22  C31 UNL     1      -7.545   5.166  15.750  1.00  0.00     0.020 C 
ATOM     23  H1  UNL     1      -3.579   4.343  12.657  1.00  0.00     0.194 HD
BRANCH  17  24
HETATM   24  C2  UNL     1     -14.272   8.635  13.521  1.00  0.00     0.128 C 
HETATM   25  C1  UNL     1     -15.456   8.633  14.460  1.00  0.00     0.091 C 
HETATM   26  O1  UNL     1     -14.445   8.523  12.300  1.00  0.00    -0.298 OA
ENDBRANCH  17  24
ENDBRANCH   2   3
ENDBRANCH   1   2
BRANCH   1  27
HETATM   27  C14 UNL     1      -0.423   6.364  13.405  1.00  0.00     0.244 C 
HETATM   28  O3  UNL     1       0.572   5.642  13.397  1.00  0.00    -0.271 OA
HETATM   29  N2  UNL     1      -0.495   7.521  14.149  1.00  0.00    -0.350 N 
HETATM   30  H18 UNL     1      -1.377   8.017  14.184  1.00  0.00     0.163 HD
BRANCH  29  31
HETATM   31  C15 UNL     1       0.478   7.776  15.205  1.00  0.00     0.225 C 
BRANCH  31  32
HETATM   32  C16 UNL     1       0.543   9.197  15.757  1.00  0.00     0.236 C 
HETATM   33  O4  UNL     1       0.411  10.175  15.021  1.00  0.00    -0.272 OA
HETATM   34  N3  UNL     1       0.662   9.315  17.123  1.00  0.00    -0.345 N 
HETATM   35  H21 UNL     1       1.025   8.515  17.624  1.00  0.00     0.163 HD
BRANCH  34  36
HETATM   36  C17 UNL     1       0.911  10.636  17.720  1.00  0.00     0.186 C 
BRANCH  36  37
HETATM   37  C18 UNL     1       0.395  10.773  19.157  1.00  0.00     0.077 C 
BRANCH  37  38
HETATM   38  C19 UNL     1       1.245  11.497  20.166  1.00  0.00    -0.028 A 
HETATM   39  C20 UNL     1       1.429  12.857  20.356  1.00  0.00     0.096 A 
HETATM   40  N4  UNL     1       2.277  13.029  21.420  1.00  0.00    -0.365 N 
HETATM   41  C21 UNL     1       2.632  11.816  21.956  1.00  0.00     0.042 A 
HETATM   42  H26 UNL     1       2.586  13.920  21.781  1.00  0.00     0.165 HD
HETATM   43  C22 UNL     1       3.445  11.521  23.058  1.00  0.00     0.030 A 
HETATM   44  C26 UNL     1       2.018  10.832  21.182  1.00  0.00    -0.002 A 
HETATM   45  C23 UNL     1       3.636  10.172  23.377  1.00  0.00     0.002 A 
HETATM   46  C24 UNL     1       3.043   9.164  22.616  1.00  0.00     0.001 A 
HETATM   47  C25 UNL     1       2.239   9.479  21.517  1.00  0.00     0.014 A 
ENDBRANCH  37  38
ENDBRANCH  36  37
BRANCH  36  48
HETATM   48  C27 UNL     1       2.386  11.023  17.589  1.00  0.00     0.163 C 
HETATM   49  O5  UNL     1       3.349  10.358  17.945  1.00  0.00    -0.648 OA
BRANCH  48  50
HETATM   50  O6  UNL     1       2.570  12.226  16.996  1.00  0.00    -0.775 OA
HETATM   51  H31 UNL     1       3.551  12.321  16.953  1.00  0.00     0.167 HD
ENDBRANCH  48  50
ENDBRANCH  36  48
ENDBRANCH  34  36
ENDBRANCH  31  32
ENDBRANCH  29  31
ENDBRANCH   1  27
TORSDOF 11
ENDMDL
MODEL 7
REMARK minimizedAffinity -10.4833508
REMARK CNNscore 0.203502476
REMARK CNNaffinity 7.5296874
REMARK  11 active torsions:
REMARK  status: ('A' for Active; 'I' for Inactive)
REMARK    1  A    between atoms: C2_2  and  C3_4 
REMARK    2  A    between atoms: N1_14  and  O2_16 
REMARK    3  A    between atoms: O2_16  and  C13_17 
REMARK    4  A    between atoms: C13_17  and  C14_18 
REMARK       I    between atoms: C14_18  and  N2_20 
REMARK    5  A    between atoms: N2_20  and  C15_21 
REMARK    6  A    between atoms: C15_21  and  C16_22 
REMARK       I    between atoms: C16_22  and  N3_24 
REMARK    7  A    between atoms: N3_24  and  C17_25 
REMARK    8  A    between atoms: C17_25  and  C18_26 
REMARK    9  A    between atoms: C17_25  and  C27_36 
REMARK   10  A    between atoms: C18_26  and  C19_27 
REMARK   11  A    between atoms: C27_36  and  O6_38 
ROOT
HETATM    1  C13 UNL     1      -2.562   2.046  11.421  1.00  0.00     0.303 C 
ENDROOT
BRANCH   1   2
HETATM    2  O2  UNL     1      -3.456   3.018  11.952  1.00  0.00    -0.271 OA
BRANCH   2   3
HETATM    3  N1  UNL     1      -4.746   2.466  11.931  1.00  0.00    -0.271 N 
HETATM    4  C12 UNL     1      -5.670   3.283  12.335  1.00  0.00     0.032 C 
HETATM    5  C11 UNL     1      -5.471   4.712  12.714  1.00  0.00     0.030 C 
HETATM    6  C28 UNL     1      -7.045   2.665  12.514  1.00  0.00     0.060 C 
HETATM    7  C10 UNL     1      -6.386   5.382  13.444  1.00  0.00    -0.069 C 
HETATM    8  C9  UNL     1      -6.046   6.754  13.981  1.00  0.00     0.035 C 
HETATM    9  C30 UNL     1      -7.718   4.755  13.869  1.00  0.00    -0.016 C 
HETATM   10  C8  UNL     1      -7.224   7.722  14.078  1.00  0.00     0.010 C 
HETATM   11  C7  UNL     1      -8.404   7.079  14.822  1.00  0.00    -0.004 C 
HETATM   12  C6  UNL     1      -9.611   8.000  15.150  1.00  0.00    -0.001 C 
HETATM   13  C32 UNL     1      -8.870   5.821  14.048  1.00  0.00     0.002 C 
HETATM   14  C5  UNL     1      -9.295   9.464  15.450  1.00  0.00     0.006 C 
HETATM   15  C35 UNL     1     -10.786   8.028  14.116  1.00  0.00    -0.030 C 
HETATM   16  C4  UNL     1     -10.660  10.133  15.345  1.00  0.00     0.013 C 
HETATM   17  C3  UNL     1     -11.213   9.535  14.050  1.00  0.00     0.063 C 
HETATM   18  C34 UNL     1     -10.313   7.559  12.737  1.00  0.00     0.011 C 
HETATM   19  C36 UNL     1     -11.940   7.127  14.630  1.00  0.00     0.016 C 
HETATM   20  C33 UNL     1      -9.581   6.216  12.728  1.00  0.00     0.007 C 
HETATM   21  C29 UNL     1      -8.130   3.686  12.816  1.00  0.00     0.020 C 
HETATM   22  C31 UNL     1      -7.484   4.060  15.233  1.00  0.00     0.020 C 
ATOM     23  H1  UNL     1      -4.939   1.513  11.626  1.00  0.00     0.194 HD
BRANCH  17  24
HETATM   24  C2  UNL     1     -12.700   9.797  13.779  1.00  0.00     0.128 C 
HETATM   25  C1  UNL     1     -13.541  10.376  14.893  1.00  0.00     0.091 C 
HETATM   26  O1  UNL     1     -13.182   9.653  12.647  1.00  0.00    -0.298 OA
ENDBRANCH  17  24
ENDBRANCH   2   3
ENDBRANCH   1   2
BRANCH   1  27
HETATM   27  C14 UNL     1      -1.109   2.498  11.281  1.00  0.00     0.244 C 
HETATM   28  O3  UNL     1      -0.197   1.699  11.081  1.00  0.00    -0.271 OA
HETATM   29  N2  UNL     1      -0.885   3.837  11.511  1.00  0.00    -0.350 N 
HETATM   30  H18 UNL     1      -1.673   4.421  11.762  1.00  0.00     0.163 HD
BRANCH  29  31
HETATM   31  C15 UNL     1       0.453   4.311  11.844  1.00  0.00     0.225 C 
BRANCH  31  32
HETATM   32  C16 UNL     1       0.606   5.800  12.142  1.00  0.00     0.236 C 
HETATM   33  O4  UNL     1      -0.202   6.624  11.712  1.00  0.00    -0.272 OA
HETATM   34  N3  UNL     1       1.632   6.150  12.990  1.00  0.00    -0.345 N 
HETATM   35  H21 UNL     1       2.392   5.489  13.087  1.00  0.00     0.163 HD
BRANCH  34  36
HETATM   36  C17 UNL     1       1.961   7.569  13.187  1.00  0.00     0.186 C 
BRANCH  36  37
HETATM   37  C18 UNL     1       2.698   8.204  12.001  1.00  0.00     0.077 C 
BRANCH  37  38
HETATM   38  C19 UNL     1       3.093   7.330  10.842  1.00  0.00    -0.028 A 
HETATM   39  C20 UNL     1       4.038   6.317  10.777  1.00  0.00     0.096 A 
HETATM   40  N4  UNL     1       4.015   5.792   9.511  1.00  0.00    -0.365 N 
HETATM   41  C21 UNL     1       3.058   6.413   8.747  1.00  0.00     0.042 A 
HETATM   42  H26 UNL     1       4.602   5.040   9.181  1.00  0.00     0.165 HD
HETATM   43  C22 UNL     1       2.671   6.179   7.421  1.00  0.00     0.030 A 
HETATM   44  C26 UNL     1       2.472   7.396   9.545  1.00  0.00    -0.002 A 
HETATM   45  C23 UNL     1       1.651   6.979   6.895  1.00  0.00     0.002 A 
HETATM   46  C24 UNL     1       1.053   7.977   7.664  1.00  0.00     0.001 A 
HETATM   47  C25 UNL     1       1.457   8.198   8.984  1.00  0.00     0.014 A 
ENDBRANCH  37  38
ENDBRANCH  36  37
BRANCH  36  48
HETATM   48  C27 UNL     1       0.718   8.364  13.595  1.00  0.00     0.163 C 
HETATM   49  O5  UNL     1       0.056   8.211  14.612  1.00  0.00    -0.648 OA
BRANCH  48  50
HETATM   50  O6  UNL     1       0.385   9.327  12.703  1.00  0.00    -0.775 OA
HETATM   51  H31 UNL     1      -0.398   9.766  13.111  1.00  0.00     0.167 HD
ENDBRANCH  48  50
ENDBRANCH  36  48
ENDBRANCH  34  36
ENDBRANCH  31  32
ENDBRANCH  29  31
ENDBRANCH   1  27
TORSDOF 11
ENDMDL
MODEL 8
REMARK minimizedAffinity -8.6501894
REMARK CNNscore 0.196918443
REMARK CNNaffinity 6.98242998
REMARK  11 active torsions:
REMARK  status: ('A' for Active; 'I' for Inactive)
REMARK    1  A    between atoms: C2_2  and  C3_4 
REMARK    2  A    between atoms: N1_14  and  O2_16 
REMARK    3  A    between atoms: O2_16  and  C13_17 
REMARK    4  A    between atoms: C13_17  and  C14_18 
REMARK       I    between atoms: C14_18  and  N2_20 
REMARK    5  A    between atoms: N2_20  and  C15_21 
REMARK    6  A    between atoms: C15_21  and  C16_22 
REMARK       I    between atoms: C16_22  and  N3_24 
REMARK    7  A    between atoms: N3_24  and  C17_25 
REMARK    8  A    between atoms: C17_25  and  C18_26 
REMARK    9  A    between atoms: C17_25  and  C27_36 
REMARK   10  A    between atoms: C18_26  and  C19_27 
REMARK   11  A    between atoms: C27_36  and  O6_38 
ROOT
HETATM    1  C13 UNL     1     -13.344   8.019  12.904  1.00  0.00     0.303 C 
ENDROOT
BRANCH   1   2
HETATM    2  O2  UNL     1     -12.407   7.107  13.465  1.00  0.00    -0.271 OA
BRANCH   2   3
HETATM    3  N1  UNL     1     -11.604   7.822  14.366  1.00  0.00    -0.271 N 
HETATM    4  C12 UNL     1     -10.343   7.518  14.298  1.00  0.00     0.032 C 
HETATM    5  C11 UNL     1      -9.721   6.577  13.322  1.00  0.00     0.030 C 
HETATM    6  C28 UNL     1      -9.474   8.122  15.387  1.00  0.00     0.060 C 
HETATM    7  C10 UNL     1      -8.497   6.051  13.531  1.00  0.00    -0.069 C 
HETATM    8  C9  UNL     1      -8.000   4.946  12.627  1.00  0.00     0.035 C 
HETATM    9  C30 UNL     1      -7.633   6.434  14.738  1.00  0.00    -0.016 C 
HETATM   10  C8  UNL     1      -6.493   4.939  12.380  1.00  0.00     0.010 C 
HETATM   11  C7  UNL     1      -5.719   5.002  13.706  1.00  0.00    -0.004 C 
HETATM   12  C6  UNL     1      -4.177   4.830  13.626  1.00  0.00    -0.001 C 
HETATM   13  C32 UNL     1      -6.085   6.311  14.449  1.00  0.00     0.002 C 
HETATM   14  C5  UNL     1      -3.647   3.898  12.538  1.00  0.00     0.006 C 
HETATM   15  C35 UNL     1      -3.320   6.134  13.516  1.00  0.00    -0.030 C 
HETATM   16  C4  UNL     1      -2.164   4.246  12.488  1.00  0.00     0.013 C 
HETATM   17  C3  UNL     1      -2.192   5.776  12.487  1.00  0.00     0.063 C 
HETATM   18  C34 UNL     1      -4.161   7.298  12.984  1.00  0.00     0.011 C 
HETATM   19  C36 UNL     1      -2.735   6.480  14.910  1.00  0.00     0.016 C 
HETATM   20  C33 UNL     1      -5.472   7.542  13.733  1.00  0.00     0.007 C 
HETATM   21  C29 UNL     1      -7.988   7.886  15.170  1.00  0.00     0.020 C 
HETATM   22  C31 UNL     1      -7.991   5.461  15.887  1.00  0.00     0.020 C 
ATOM     23  H1  UNL     1     -11.975   8.516  15.014  1.00  0.00     0.194 HD
BRANCH  17  24
HETATM   24  C2  UNL     1      -0.840   6.466  12.709  1.00  0.00     0.128 C 
HETATM   25  C1  UNL     1       0.329   5.622  13.159  1.00  0.00     0.091 C 
HETATM   26  O1  UNL     1      -0.672   7.658  12.419  1.00  0.00    -0.298 OA
ENDBRANCH  17  24
ENDBRANCH   2   3
ENDBRANCH   1   2
BRANCH   1  27
HETATM   27  C14 UNL     1     -14.418   8.530  13.864  1.00  0.00     0.244 C 
HETATM   28  O3  UNL     1     -14.959   9.623  13.710  1.00  0.00    -0.271 OA
HETATM   29  N2  UNL     1     -14.646   7.737  14.966  1.00  0.00    -0.350 N 
HETATM   30  H18 UNL     1     -14.097   6.894  15.075  1.00  0.00     0.163 HD
BRANCH  29  31
HETATM   31  C15 UNL     1     -15.290   8.295  16.150  1.00  0.00     0.225 C 
BRANCH  31  32
HETATM   32  C16 UNL     1     -15.433   7.373  17.358  1.00  0.00     0.236 C 
HETATM   33  O4  UNL     1     -16.048   6.308  17.280  1.00  0.00    -0.272 OA
HETATM   34  N3  UNL     1     -14.762   7.752  18.498  1.00  0.00    -0.345 N 
HETATM   35  H21 UNL     1     -14.511   8.729  18.579  1.00  0.00     0.163 HD
BRANCH  34  36
HETATM   36  C17 UNL     1     -14.989   7.022  19.754  1.00  0.00     0.186 C 
BRANCH  36  37
HETATM   37  C18 UNL     1     -13.745   6.922  20.645  1.00  0.00     0.077 C 
BRANCH  37  38
HETATM   38  C19 UNL     1     -13.042   8.188  21.052  1.00  0.00    -0.028 A 
HETATM   39  C20 UNL     1     -12.855   9.365  20.344  1.00  0.00     0.096 A 
HETATM   40  N4  UNL     1     -12.177  10.244  21.148  1.00  0.00    -0.365 N 
HETATM   41  C21 UNL     1     -11.939   9.688  22.380  1.00  0.00     0.042 A 
HETATM   42  H26 UNL     1     -11.904  11.181  20.887  1.00  0.00     0.165 HD
HETATM   43  C22 UNL     1     -11.312  10.232  23.508  1.00  0.00     0.030 A 
HETATM   44  C26 UNL     1     -12.452   8.391  22.349  1.00  0.00    -0.002 A 
HETATM   45  C23 UNL     1     -11.207   9.421  24.643  1.00  0.00     0.002 A 
HETATM   46  C24 UNL     1     -11.701   8.115  24.640  1.00  0.00     0.001 A 
HETATM   47  C25 UNL     1     -12.318   7.589  23.502  1.00  0.00     0.014 A 
ENDBRANCH  37  38
ENDBRANCH  36  37
BRANCH  36  48
HETATM   48  C27 UNL     1     -16.200   7.588  20.500  1.00  0.00     0.163 C 
HETATM   49  O5  UNL     1     -16.789   8.630  20.251  1.00  0.00    -0.648 OA
BRANCH  48  50
HETATM   50  O6  UNL     1     -16.616   6.795  21.517  1.00  0.00    -0.775 OA
HETATM   51  H31 UNL     1     -17.406   7.264  21.874  1.00  0.00     0.167 HD
ENDBRANCH  48  50
ENDBRANCH  36  48
ENDBRANCH  34  36
ENDBRANCH  31  32
ENDBRANCH  29  31
ENDBRANCH   1  27
TORSDOF 11
ENDMDL
MODEL 9
REMARK minimizedAffinity -9.14386368
REMARK CNNscore 0.179598674
REMARK CNNaffinity 5.68775415
REMARK  11 active torsions:
REMARK  status: ('A' for Active; 'I' for Inactive)
REMARK    1  A    between atoms: C2_2  and  C3_4 
REMARK    2  A    between atoms: N1_14  and  O2_16 
REMARK    3  A    between atoms: O2_16  and  C13_17 
REMARK    4  A    between atoms: C13_17  and  C14_18 
REMARK       I    between atoms: C14_18  and  N2_20 
REMARK    5  A    between atoms: N2_20  and  C15_21 
REMARK    6  A    between atoms: C15_21  and  C16_22 
REMARK       I    between atoms: C16_22  and  N3_24 
REMARK    7  A    between atoms: N3_24  and  C17_25 
REMARK    8  A    between atoms: C17_25  and  C18_26 
REMARK    9  A    between atoms: C17_25  and  C27_36 
REMARK   10  A    between atoms: C18_26  and  C19_27 
REMARK   11  A    between atoms: C27_36  and  O6_38 
ROOT
HETATM    1  C13 UNL     1      -2.088  10.003  18.506  1.00  0.00     0.303 C 
ENDROOT
BRANCH   1   2
HETATM    2  O2  UNL     1      -1.557  10.960  19.415  1.00  0.00    -0.271 OA
BRANCH   2   3
HETATM    3  N1  UNL     1      -0.863  11.921  18.665  1.00  0.00    -0.271 N 
HETATM    4  C12 UNL     1       0.358  12.113  19.063  1.00  0.00     0.032 C 
HETATM    5  C11 UNL     1       1.055  11.358  20.144  1.00  0.00     0.030 C 
HETATM    6  C28 UNL     1       1.075  13.279  18.406  1.00  0.00     0.060 C 
HETATM    7  C10 UNL     1       2.173  11.835  20.728  1.00  0.00    -0.069 C 
HETATM    8  C9  UNL     1       2.720  11.143  21.956  1.00  0.00     0.035 C 
HETATM    9  C30 UNL     1       2.845  13.136  20.279  1.00  0.00    -0.016 C 
HETATM   10  C8  UNL     1       4.241  11.176  22.095  1.00  0.00     0.010 C 
HETATM   11  C7  UNL     1       4.775  12.609  21.944  1.00  0.00    -0.004 C 
HETATM   12  C6  UNL     1       6.287  12.827  22.231  1.00  0.00    -0.001 C 
HETATM   13  C32 UNL     1       4.402  13.146  20.540  1.00  0.00     0.002 C 
HETATM   14  C5  UNL     1       6.914  11.945  23.309  1.00  0.00     0.006 C 
HETATM   15  C35 UNL     1       7.261  12.753  21.009  1.00  0.00    -0.030 C 
HETATM   16  C4  UNL     1       8.407  12.133  23.073  1.00  0.00     0.013 C 
HETATM   17  C3  UNL     1       8.515  11.983  21.554  1.00  0.00     0.063 C 
HETATM   18  C34 UNL     1       6.631  11.970  19.853  1.00  0.00     0.011 C 
HETATM   19  C36 UNL     1       7.624  14.191  20.557  1.00  0.00     0.016 C 
HETATM   20  C33 UNL     1       5.236  12.441  19.439  1.00  0.00     0.007 C 
HETATM   21  C29 UNL     1       2.550  13.360  18.767  1.00  0.00     0.020 C 
HETATM   22  C31 UNL     1       2.208  14.288  21.095  1.00  0.00     0.020 C 
ATOM     23  H1  UNL     1      -1.279  12.423  17.881  1.00  0.00     0.194 HD
BRANCH  17  24
HETATM   24  C2  UNL     1       9.863  12.382  20.940  1.00  0.00     0.128 C 
HETATM   25  C1  UNL     1      10.306  11.687  19.674  1.00  0.00     0.091 C 
HETATM   26  O1  UNL     1      10.522  13.326  21.396  1.00  0.00    -0.298 OA
ENDBRANCH  17  24
ENDBRANCH   2   3
ENDBRANCH   1   2
BRANCH   1  27
HETATM   27  C14 UNL     1      -2.941  10.575  17.375  1.00  0.00     0.244 C 
HETATM   28  O3  UNL     1      -3.840  11.387  17.587  1.00  0.00    -0.271 OA
HETATM   29  N2  UNL     1      -2.711  10.032  16.131  1.00  0.00    -0.350 N 
HETATM   30  H18 UNL     1      -2.017   9.300  16.046  1.00  0.00     0.163 HD
BRANCH  29  31
HETATM   31  C15 UNL     1      -3.716  10.148  15.081  1.00  0.00     0.225 C 
BRANCH  31  32
HETATM   32  C16 UNL     1      -4.216   8.849  14.455  1.00  0.00     0.236 C 
HETATM   33  O4  UNL     1      -5.321   8.784  13.915  1.00  0.00    -0.272 OA
HETATM   34  N3  UNL     1      -3.330   7.797  14.446  1.00  0.00    -0.345 N 
HETATM   35  H21 UNL     1      -2.574   7.828  15.117  1.00  0.00     0.163 HD
BRANCH  34  36
HETATM   36  C17 UNL     1      -3.788   6.464  14.028  1.00  0.00     0.186 C 
BRANCH  36  37
HETATM   37  C18 UNL     1      -5.101   6.481  13.236  1.00  0.00     0.077 C 
BRANCH  37  38
HETATM   38  C19 UNL     1      -6.095   5.373  13.458  1.00  0.00    -0.028 A 
HETATM   39  C20 UNL     1      -7.211   5.335  14.280  1.00  0.00     0.096 A 
HETATM   40  N4  UNL     1      -7.818   4.117  14.119  1.00  0.00    -0.365 N 
HETATM   41  C21 UNL     1      -7.148   3.361  13.189  1.00  0.00     0.042 A 
HETATM   42  H26 UNL     1      -8.654   3.814  14.598  1.00  0.00     0.165 HD
HETATM   43  C22 UNL     1      -7.430   2.081  12.696  1.00  0.00     0.030 A 
HETATM   44  C26 UNL     1      -6.051   4.112  12.767  1.00  0.00    -0.002 A 
HETATM   45  C23 UNL     1      -6.558   1.551  11.738  1.00  0.00     0.002 A 
HETATM   46  C24 UNL     1      -5.446   2.272  11.304  1.00  0.00     0.001 A 
HETATM   47  C25 UNL     1      -5.179   3.547  11.812  1.00  0.00     0.014 A 
ENDBRANCH  37  38
ENDBRANCH  36  37
BRANCH  36  48
HETATM   48  C27 UNL     1      -2.674   5.710  13.296  1.00  0.00     0.163 C 
HETATM   49  O5  UNL     1      -1.952   6.151  12.413  1.00  0.00    -0.648 OA
BRANCH  48  50
HETATM   50  O6  UNL     1      -2.518   4.438  13.732  1.00  0.00    -0.775 OA
HETATM   51  H31 UNL     1      -1.759   4.098  13.203  1.00  0.00     0.167 HD
ENDBRANCH  48  50
ENDBRANCH  36  48
ENDBRANCH  34  36
ENDBRANCH  31  32
ENDBRANCH  29  31
ENDBRANCH   1  27
TORSDOF 11
ENDMDL
