MODEL 1
REMARK minimizedAffinity -9.69039059
REMARK  8 active torsions:
REMARK  status: ('A' for Active; 'I' for Inactive)
REMARK    1  A    between atoms: C12_14  and  C13_15 
REMARK    2  A    between atoms: C13_15  and  C15_17 
REMARK    3  A    between atoms: C15_17  and  C16_18 
REMARK    4  A    between atoms: C16_18  and  C17_19 
REMARK    5  A    between atoms: C26_28  and  C27_29 
REMARK    6  A    between atoms: C27_29  and  C28_30 
REMARK    7  A    between atoms: C28_30  and  C29_31 
REMARK    8  A    between atoms: C29_31  and  O4_33 
ROOT
HETATM    1  C1  UNL     1       1.336  54.182 -21.442  1.00  0.00     0.025 C 
HETATM    2  C2  UNL     1       0.675  53.056 -21.145  1.00  0.00     0.015 C 
HETATM    3  C3  UNL     1      -0.045  52.934 -19.858  1.00  0.00     0.289 C 
HETATM    4  O1  UNL     1      -0.368  53.844 -19.118  1.00  0.00    -0.260 OA
HETATM    5  O2  UNL     1      -0.273  51.615 -19.639  1.00  0.00    -0.311 OA
HETATM    6  C4  UNL     1       0.396  50.837 -20.643  1.00  0.00     0.142 C 
HETATM    7  C5  UNL     1      -0.401  49.575 -20.922  1.00  0.00     0.039 C 
HETATM    8  C6  UNL     1      -1.804  49.911 -21.447  1.00  0.00     0.006 C 
HETATM    9  C7  UNL     1      -1.694  50.677 -22.789  1.00  0.00    -0.027 A 
HETATM   10  C8  UNL     1      -2.337  49.998 -24.012  1.00  0.00     0.011 C 
HETATM   11  C9  UNL     1      -3.670  49.258 -23.800  1.00  0.00     0.011 C 
HETATM   12  C10 UNL     1      -4.047  49.049 -22.331  1.00  0.00    -0.032 C 
HETATM   13  C11 UNL     1      -4.732  50.343 -21.819  1.00  0.00     0.016 C 
HETATM   14  C12 UNL     1      -4.952  47.809 -22.051  1.00  0.00    -0.002 C 
HETATM   15  C21 UNL     1      -4.640  47.448 -20.579  1.00  0.00     0.006 C 
HETATM   16  C22 UNL     1      -3.352  48.212 -20.198  1.00  0.00     0.011 C 
HETATM   17  C23 UNL     1      -2.743  48.669 -21.540  1.00  0.00    -0.032 C 
HETATM   18  C24 UNL     1      -1.958  47.441 -22.112  1.00  0.00     0.016 C 
HETATM   19  C25 UNL     1      -1.816  52.188 -22.761  1.00  0.00     0.022 A 
HETATM   20  C26 UNL     1      -0.442  51.603 -22.987  1.00  0.00    -0.021 A 
HETATM   21  C30 UNL     1       0.610  51.740 -21.855  1.00  0.00     0.063 C 
ENDROOT
BRANCH  14  22
HETATM   22  C13 UNL     1      -6.434  47.736 -22.522  1.00  0.00    -0.014 C 
HETATM   23  C14 UNL     1      -7.229  48.887 -21.876  1.00  0.00     0.010 C 
BRANCH  22  24
HETATM   24  C15 UNL     1      -6.820  47.581 -24.014  1.00  0.00     0.008 C 
BRANCH  24  25
HETATM   25  C16 UNL     1      -5.940  48.168 -25.126  1.00  0.00     0.028 C 
BRANCH  25  26
HETATM   26  C17 UNL     1      -6.305  47.712 -26.512  1.00  0.00    -0.025 C 
HETATM   27  C18 UNL     1      -5.589  47.846 -27.646  1.00  0.00    -0.091 C 
HETATM   28  C19 UNL     1      -6.134  47.340 -28.956  1.00  0.00     0.042 C 
HETATM   29  C20 UNL     1      -4.223  48.465 -27.746  1.00  0.00     0.042 C 
ENDBRANCH  25  26
ENDBRANCH  24  25
ENDBRANCH  22  24
ENDBRANCH  14  22
BRANCH  20  30
HETATM   30  C27 UNL     1       0.159  51.620 -24.405  1.00  0.00     0.021 C 
BRANCH  30  31
HETATM   31  C28 UNL     1       0.733  52.943 -24.895  1.00  0.00     0.111 C 
BRANCH  31  32
HETATM   32  C29 UNL     1      -0.182  53.675 -25.840  1.00  0.00     0.139 C 
HETATM   33  O3  UNL     1      -1.168  53.242 -26.408  1.00  0.00    -0.650 OA
BRANCH  32  34
HETATM   34  O4  UNL     1       0.248  54.931 -26.079  1.00  0.00    -0.776 OA
HETATM   35  H43 UNL     1      -0.409  55.288 -26.713  1.00  0.00     0.167 HD
ENDBRANCH  32  34
ENDBRANCH  31  32
ENDBRANCH  30  31
ENDBRANCH  20  30
TORSDOF 8
ENDMDL
MODEL 2
REMARK minimizedAffinity -9.03496265
REMARK  8 active torsions:
REMARK  status: ('A' for Active; 'I' for Inactive)
REMARK    1  A    between atoms: C12_14  and  C13_15 
REMARK    2  A    between atoms: C13_15  and  C15_17 
REMARK    3  A    between atoms: C15_17  and  C16_18 
REMARK    4  A    between atoms: C16_18  and  C17_19 
REMARK    5  A    between atoms: C26_28  and  C27_29 
REMARK    6  A    between atoms: C27_29  and  C28_30 
REMARK    7  A    between atoms: C28_30  and  C29_31 
REMARK    8  A    between atoms: C29_31  and  O4_33 
ROOT
HETATM    1  C1  UNL     1       1.358  54.151 -21.599  1.00  0.00     0.025 C 
HETATM    2  C2  UNL     1       0.675  53.051 -21.261  1.00  0.00     0.015 C 
HETATM    3  C3  UNL     1      -0.004  52.972 -19.948  1.00  0.00     0.289 C 
HETATM    4  O1  UNL     1      -0.275  53.903 -19.213  1.00  0.00    -0.260 OA
HETATM    5  O2  UNL     1      -0.264  51.664 -19.699  1.00  0.00    -0.311 OA
HETATM    6  C4  UNL     1       0.346  50.850 -20.710  1.00  0.00     0.142 C 
HETATM    7  C5  UNL     1      -0.497  49.609 -20.940  1.00  0.00     0.039 C 
HETATM    8  C6  UNL     1      -1.906  49.978 -21.424  1.00  0.00     0.006 C 
HETATM    9  C7  UNL     1      -1.819  50.718 -22.782  1.00  0.00    -0.027 A 
HETATM   10  C8  UNL     1      -2.523  50.039 -23.971  1.00  0.00     0.011 C 
HETATM   11  C9  UNL     1      -3.869  49.343 -23.702  1.00  0.00     0.011 C 
HETATM   12  C10 UNL     1      -4.203  49.170 -22.217  1.00  0.00    -0.032 C 
HETATM   13  C11 UNL     1      -4.831  50.493 -21.705  1.00  0.00     0.016 C 
HETATM   14  C12 UNL     1      -5.134  47.964 -21.886  1.00  0.00    -0.002 C 
HETATM   15  C21 UNL     1      -4.783  47.618 -20.419  1.00  0.00     0.006 C 
HETATM   16  C22 UNL     1      -3.461  48.348 -20.094  1.00  0.00     0.011 C 
HETATM   17  C23 UNL     1      -2.884  48.764 -21.464  1.00  0.00    -0.032 C 
HETATM   18  C24 UNL     1      -2.156  47.503 -22.040  1.00  0.00     0.016 C 
HETATM   19  C25 UNL     1      -1.894  52.232 -22.777  1.00  0.00     0.022 A 
HETATM   20  C26 UNL     1      -0.547  51.602 -23.038  1.00  0.00    -0.021 A 
HETATM   21  C30 UNL     1       0.547  51.726 -21.945  1.00  0.00     0.063 C 
ENDROOT
BRANCH  14  22
HETATM   22  C13 UNL     1      -6.632  47.927 -22.305  1.00  0.00    -0.014 C 
HETATM   23  C14 UNL     1      -7.361  49.137 -21.690  1.00  0.00     0.010 C 
BRANCH  22  24
HETATM   24  C15 UNL     1      -7.074  47.720 -23.775  1.00  0.00     0.008 C 
BRANCH  24  25
HETATM   25  C16 UNL     1      -7.716  46.403 -24.232  1.00  0.00     0.028 C 
BRANCH  25  26
HETATM   26  C17 UNL     1      -7.911  46.291 -25.719  1.00  0.00    -0.025 C 
HETATM   27  C18 UNL     1      -8.101  45.175 -26.451  1.00  0.00    -0.091 C 
HETATM   28  C19 UNL     1      -8.257  45.261 -27.947  1.00  0.00     0.042 C 
HETATM   29  C20 UNL     1      -8.195  43.779 -25.902  1.00  0.00     0.042 C 
ENDBRANCH  25  26
ENDBRANCH  24  25
ENDBRANCH  22  24
ENDBRANCH  14  22
BRANCH  20  30
HETATM   30  C27 UNL     1       0.005  51.578 -24.475  1.00  0.00     0.021 C 
BRANCH  30  31
HETATM   31  C28 UNL     1       0.802  52.793 -24.930  1.00  0.00     0.111 C 
BRANCH  31  32
HETATM   32  C29 UNL     1      -0.021  53.791 -25.699  1.00  0.00     0.139 C 
HETATM   33  O3  UNL     1      -0.875  53.564 -26.537  1.00  0.00    -0.650 OA
BRANCH  32  34
HETATM   34  O4  UNL     1       0.335  55.060 -25.412  1.00  0.00    -0.776 OA
HETATM   35  H43 UNL     1      -0.250  55.603 -25.983  1.00  0.00     0.167 HD
ENDBRANCH  32  34
ENDBRANCH  31  32
ENDBRANCH  30  31
ENDBRANCH  20  30
TORSDOF 8
ENDMDL
MODEL 3
REMARK minimizedAffinity -8.95452976
REMARK  8 active torsions:
REMARK  status: ('A' for Active; 'I' for Inactive)
REMARK    1  A    between atoms: C12_14  and  C13_15 
REMARK    2  A    between atoms: C13_15  and  C15_17 
REMARK    3  A    between atoms: C15_17  and  C16_18 
REMARK    4  A    between atoms: C16_18  and  C17_19 
REMARK    5  A    between atoms: C26_28  and  C27_29 
REMARK    6  A    between atoms: C27_29  and  C28_30 
REMARK    7  A    between atoms: C28_30  and  C29_31 
REMARK    8  A    between atoms: C29_31  and  O4_33 
ROOT
HETATM    1  C1  UNL     1       1.359  54.228 -21.501  1.00  0.00     0.025 C 
HETATM    2  C2  UNL     1       0.688  53.120 -21.167  1.00  0.00     0.015 C 
HETATM    3  C3  UNL     1       0.018  53.025 -19.850  1.00  0.00     0.289 C 
HETATM    4  O1  UNL     1      -0.256  53.948 -19.107  1.00  0.00    -0.260 OA
HETATM    5  O2  UNL     1      -0.228  51.713 -19.609  1.00  0.00    -0.311 OA
HETATM    6  C4  UNL     1       0.383  50.912 -20.630  1.00  0.00     0.142 C 
HETATM    7  C5  UNL     1      -0.451  49.664 -20.865  1.00  0.00     0.039 C 
HETATM    8  C6  UNL     1      -1.867  50.025 -21.336  1.00  0.00     0.006 C 
HETATM    9  C7  UNL     1      -1.795  50.775 -22.689  1.00  0.00    -0.027 A 
HETATM   10  C8  UNL     1      -2.501  50.100 -23.879  1.00  0.00     0.011 C 
HETATM   11  C9  UNL     1      -3.839  49.390 -23.606  1.00  0.00     0.011 C 
HETATM   12  C10 UNL     1      -4.161  49.202 -22.121  1.00  0.00    -0.032 C 
HETATM   13  C11 UNL     1      -4.798  50.516 -21.595  1.00  0.00     0.016 C 
HETATM   14  C12 UNL     1      -5.080  47.986 -21.792  1.00  0.00    -0.002 C 
HETATM   15  C21 UNL     1      -4.717  47.632 -20.330  1.00  0.00     0.006 C 
HETATM   16  C22 UNL     1      -3.399  48.371 -20.009  1.00  0.00     0.011 C 
HETATM   17  C23 UNL     1      -2.834  48.803 -21.379  1.00  0.00    -0.032 C 
HETATM   18  C24 UNL     1      -2.099  47.553 -21.969  1.00  0.00     0.016 C 
HETATM   19  C25 UNL     1      -1.884  52.289 -22.672  1.00  0.00     0.022 A 
HETATM   20  C26 UNL     1      -0.532  51.673 -22.947  1.00  0.00    -0.021 A 
HETATM   21  C30 UNL     1       0.567  51.799 -21.860  1.00  0.00     0.063 C 
ENDROOT
BRANCH  14  22
HETATM   22  C13 UNL     1      -6.581  47.939 -22.202  1.00  0.00    -0.014 C 
HETATM   23  C14 UNL     1      -6.821  46.719 -23.111  1.00  0.00     0.010 C 
BRANCH  22  24
HETATM   24  C15 UNL     1      -7.724  48.077 -21.166  1.00  0.00     0.008 C 
BRANCH  24  25
HETATM   25  C16 UNL     1      -7.614  49.056 -19.989  1.00  0.00     0.028 C 
BRANCH  25  26
HETATM   26  C17 UNL     1      -8.120  48.513 -18.681  1.00  0.00    -0.025 C 
HETATM   27  C18 UNL     1      -9.390  48.219 -18.339  1.00  0.00    -0.091 C 
HETATM   28  C19 UNL     1      -9.709  47.700 -16.961  1.00  0.00     0.042 C 
HETATM   29  C20 UNL     1     -10.587  48.346 -19.240  1.00  0.00     0.042 C 
ENDBRANCH  25  26
ENDBRANCH  24  25
ENDBRANCH  22  24
ENDBRANCH  14  22
BRANCH  20  30
HETATM   30  C27 UNL     1       0.010  51.664 -24.388  1.00  0.00     0.021 C 
BRANCH  30  31
HETATM   31  C28 UNL     1       0.768  52.903 -24.848  1.00  0.00     0.111 C 
BRANCH  31  32
HETATM   32  C29 UNL     1      -0.035  53.785 -25.765  1.00  0.00     0.139 C 
HETATM   33  O3  UNL     1       0.251  54.900 -26.165  1.00  0.00    -0.650 OA
BRANCH  32  34
HETATM   34  O4  UNL     1      -1.221  53.228 -26.083  1.00  0.00    -0.776 OA
HETATM   35  H43 UNL     1      -1.649  53.899 -26.657  1.00  0.00     0.167 HD
ENDBRANCH  32  34
ENDBRANCH  31  32
ENDBRANCH  30  31
ENDBRANCH  20  30
TORSDOF 8
ENDMDL
MODEL 4
REMARK minimizedAffinity -8.90581703
REMARK  8 active torsions:
REMARK  status: ('A' for Active; 'I' for Inactive)
REMARK    1  A    between atoms: C12_14  and  C13_15 
REMARK    2  A    between atoms: C13_15  and  C15_17 
REMARK    3  A    between atoms: C15_17  and  C16_18 
REMARK    4  A    between atoms: C16_18  and  C17_19 
REMARK    5  A    between atoms: C26_28  and  C27_29 
REMARK    6  A    between atoms: C27_29  and  C28_30 
REMARK    7  A    between atoms: C28_30  and  C29_31 
REMARK    8  A    between atoms: C29_31  and  O4_33 
ROOT
HETATM    1  C1  UNL     1       0.290  50.204 -16.879  1.00  0.00     0.025 C 
HETATM    2  C2  UNL     1      -0.490  50.659 -17.868  1.00  0.00     0.015 C 
HETATM    3  C3  UNL     1      -0.200  51.965 -18.501  1.00  0.00     0.289 C 
HETATM    4  O1  UNL     1       0.845  52.585 -18.442  1.00  0.00    -0.260 OA
HETATM    5  O2  UNL     1      -1.320  52.360 -19.157  1.00  0.00    -0.311 OA
HETATM    6  C4  UNL     1      -2.394  51.455 -18.865  1.00  0.00     0.142 C 
HETATM    7  C5  UNL     1      -3.320  51.360 -20.065  1.00  0.00     0.039 C 
HETATM    8  C6  UNL     1      -2.577  50.822 -21.296  1.00  0.00     0.006 C 
HETATM    9  C7  UNL     1      -2.061  49.389 -21.014  1.00  0.00    -0.027 A 
HETATM   10  C8  UNL     1      -2.608  48.278 -21.928  1.00  0.00     0.011 C 
HETATM   11  C9  UNL     1      -2.803  48.612 -23.419  1.00  0.00     0.011 C 
HETATM   12  C10 UNL     1      -2.693  50.103 -23.750  1.00  0.00    -0.032 C 
HETATM   13  C11 UNL     1      -1.190  50.453 -23.911  1.00  0.00     0.016 C 
HETATM   14  C12 UNL     1      -3.494  50.560 -25.008  1.00  0.00    -0.002 C 
HETATM   15  C21 UNL     1      -3.768  52.061 -24.746  1.00  0.00     0.006 C 
HETATM   16  C22 UNL     1      -3.466  52.313 -23.252  1.00  0.00     0.011 C 
HETATM   17  C23 UNL     1      -3.412  50.912 -22.609  1.00  0.00    -0.032 C 
HETATM   18  C24 UNL     1      -4.895  50.492 -22.336  1.00  0.00     0.016 C 
HETATM   19  C25 UNL     1      -0.611  49.220 -20.603  1.00  0.00     0.022 A 
HETATM   20  C26 UNL     1      -1.663  49.047 -19.534  1.00  0.00    -0.021 A 
HETATM   21  C30 UNL     1      -1.772  50.131 -18.429  1.00  0.00     0.063 C 
ENDROOT
BRANCH  14  22
HETATM   22  C13 UNL     1      -3.097  50.132 -26.450  1.00  0.00    -0.014 C 
HETATM   23  C14 UNL     1      -3.978  48.947 -26.889  1.00  0.00     0.010 C 
BRANCH  22  24
HETATM   24  C15 UNL     1      -2.952  51.155 -27.605  1.00  0.00     0.008 C 
BRANCH  24  25
HETATM   25  C16 UNL     1      -1.918  52.287 -27.536  1.00  0.00     0.028 C 
BRANCH  25  26
HETATM   26  C17 UNL     1      -0.490  51.819 -27.469  1.00  0.00    -0.025 C 
HETATM   27  C18 UNL     1       0.489  52.254 -26.651  1.00  0.00    -0.091 C 
HETATM   28  C19 UNL     1       1.877  51.675 -26.747  1.00  0.00     0.042 C 
HETATM   29  C20 UNL     1       0.333  53.302 -25.584  1.00  0.00     0.042 C 
ENDBRANCH  25  26
ENDBRANCH  24  25
ENDBRANCH  22  24
ENDBRANCH  14  22
BRANCH  20  30
HETATM   30  C27 UNL     1      -2.023  47.628 -19.057  1.00  0.00     0.021 C 
BRANCH  30  31
HETATM   31  C28 UNL     1      -3.465  47.388 -18.629  1.00  0.00     0.111 C 
BRANCH  31  32
HETATM   32  C29 UNL     1      -3.740  47.797 -17.207  1.00  0.00     0.139 C 
HETATM   33  O3  UNL     1      -3.213  47.372 -16.195  1.00  0.00    -0.650 OA
BRANCH  32  34
HETATM   34  O4  UNL     1      -4.743  48.695 -17.131  1.00  0.00    -0.776 OA
HETATM   35  H43 UNL     1      -4.837  48.861 -16.168  1.00  0.00     0.167 HD
ENDBRANCH  32  34
ENDBRANCH  31  32
ENDBRANCH  30  31
ENDBRANCH  20  30
TORSDOF 8
ENDMDL
MODEL 5
REMARK minimizedAffinity -8.76291275
REMARK  8 active torsions:
REMARK  status: ('A' for Active; 'I' for Inactive)
REMARK    1  A    between atoms: C12_14  and  C13_15 
REMARK    2  A    between atoms: C13_15  and  C15_17 
REMARK    3  A    between atoms: C15_17  and  C16_18 
REMARK    4  A    between atoms: C16_18  and  C17_19 
REMARK    5  A    between atoms: C26_28  and  C27_29 
REMARK    6  A    between atoms: C27_29  and  C28_30 
REMARK    7  A    between atoms: C28_30  and  C29_31 
REMARK    8  A    between atoms: C29_31  and  O4_33 
ROOT
HETATM    1  C1  UNL     1      -7.720  45.258 -22.916  1.00  0.00     0.025 C 
HETATM    2  C2  UNL     1      -6.944  46.122 -22.250  1.00  0.00     0.015 C 
HETATM    3  C3  UNL     1      -5.832  45.626 -21.408  1.00  0.00     0.289 C 
HETATM    4  O1  UNL     1      -5.327  44.521 -21.450  1.00  0.00    -0.260 OA
HETATM    5  O2  UNL     1      -5.480  46.628 -20.563  1.00  0.00    -0.311 OA
HETATM    6  C4  UNL     1      -6.405  47.717 -20.694  1.00  0.00     0.142 C 
HETATM    7  C5  UNL     1      -5.686  49.028 -20.434  1.00  0.00     0.039 C 
HETATM    8  C6  UNL     1      -4.554  49.250 -21.448  1.00  0.00     0.006 C 
HETATM    9  C7  UNL     1      -5.141  49.336 -22.879  1.00  0.00    -0.027 A 
HETATM   10  C8  UNL     1      -4.908  50.661 -23.629  1.00  0.00     0.011 C 
HETATM   11  C9  UNL     1      -3.546  51.355 -23.447  1.00  0.00     0.011 C 
HETATM   12  C10 UNL     1      -2.692  50.780 -22.313  1.00  0.00    -0.032 C 
HETATM   13  C11 UNL     1      -1.940  49.536 -22.857  1.00  0.00     0.016 C 
HETATM   14  C12 UNL     1      -1.687  51.783 -21.670  1.00  0.00    -0.002 C 
HETATM   15  C21 UNL     1      -1.474  51.228 -20.241  1.00  0.00     0.006 C 
HETATM   16  C22 UNL     1      -2.599  50.198 -19.993  1.00  0.00     0.011 C 
HETATM   17  C23 UNL     1      -3.641  50.464 -21.100  1.00  0.00    -0.032 C 
HETATM   18  C24 UNL     1      -4.509  51.670 -20.609  1.00  0.00     0.016 C 
HETATM   19  C25 UNL     1      -5.091  48.095 -23.748  1.00  0.00     0.022 A 
HETATM   20  C26 UNL     1      -6.432  48.494 -23.179  1.00  0.00    -0.021 A 
HETATM   21  C30 UNL     1      -7.054  47.604 -22.071  1.00  0.00     0.063 C 
ENDROOT
BRANCH  14  22
HETATM   22  C13 UNL     1      -0.444  52.323 -22.434  1.00  0.00    -0.014 C 
HETATM   23  C14 UNL     1       0.832  51.965 -21.647  1.00  0.00     0.010 C 
BRANCH  22  24
HETATM   24  C15 UNL     1      -0.233  52.075 -23.948  1.00  0.00     0.008 C 
BRANCH  24  25
HETATM   25  C16 UNL     1       0.320  53.175 -24.864  1.00  0.00     0.028 C 
BRANCH  25  26
HETATM   26  C17 UNL     1       0.343  52.815 -26.324  1.00  0.00    -0.025 C 
HETATM   27  C18 UNL     1       1.234  52.042 -26.975  1.00  0.00    -0.091 C 
HETATM   28  C19 UNL     1       1.104  51.810 -28.458  1.00  0.00     0.042 C 
HETATM   29  C20 UNL     1       2.401  51.334 -26.342  1.00  0.00     0.042 C 
ENDBRANCH  25  26
ENDBRANCH  24  25
ENDBRANCH  22  24
ENDBRANCH  14  22
BRANCH  20  30
HETATM   30  C27 UNL     1      -7.469  49.165 -24.098  1.00  0.00     0.021 C 
BRANCH  30  31
HETATM   31  C28 UNL     1      -8.590  48.285 -24.633  1.00  0.00     0.111 C 
BRANCH  31  32
HETATM   32  C29 UNL     1      -9.244  48.838 -25.870  1.00  0.00     0.139 C 
HETATM   33  O3  UNL     1      -9.487  48.253 -26.910  1.00  0.00    -0.650 OA
BRANCH  32  34
HETATM   34  O4  UNL     1      -9.500  50.157 -25.752  1.00  0.00    -0.776 OA
HETATM   35  H43 UNL     1      -9.899  50.398 -26.616  1.00  0.00     0.167 HD
ENDBRANCH  32  34
ENDBRANCH  31  32
ENDBRANCH  30  31
ENDBRANCH  20  30
TORSDOF 8
ENDMDL
MODEL 6
REMARK minimizedAffinity -8.6342659
REMARK  8 active torsions:
REMARK  status: ('A' for Active; 'I' for Inactive)
REMARK    1  A    between atoms: C12_14  and  C13_15 
REMARK    2  A    between atoms: C13_15  and  C15_17 
REMARK    3  A    between atoms: C15_17  and  C16_18 
REMARK    4  A    between atoms: C16_18  and  C17_19 
REMARK    5  A    between atoms: C26_28  and  C27_29 
REMARK    6  A    between atoms: C27_29  and  C28_30 
REMARK    7  A    between atoms: C28_30  and  C29_31 
REMARK    8  A    between atoms: C29_31  and  O4_33 
ROOT
HETATM    1  C1  UNL     1      -2.163  50.816 -27.759  1.00  0.00     0.025 C 
HETATM    2  C2  UNL     1      -2.714  50.698 -26.545  1.00  0.00     0.015 C 
HETATM    3  C3  UNL     1      -3.378  49.436 -26.149  1.00  0.00     0.289 C 
HETATM    4  O1  UNL     1      -3.251  48.350 -26.683  1.00  0.00    -0.260 OA
HETATM    5  O2  UNL     1      -4.170  49.707 -25.081  1.00  0.00    -0.311 OA
HETATM    6  C4  UNL     1      -4.187  51.121 -24.840  1.00  0.00     0.142 C 
HETATM    7  C5  UNL     1      -4.348  51.382 -23.353  1.00  0.00     0.039 C 
HETATM    8  C6  UNL     1      -3.180  50.785 -22.556  1.00  0.00     0.006 C 
HETATM    9  C7  UNL     1      -1.852  51.457 -22.987  1.00  0.00    -0.027 A 
HETATM   10  C8  UNL     1      -1.088  52.217 -21.887  1.00  0.00     0.011 C 
HETATM   11  C9  UNL     1      -1.071  51.603 -20.475  1.00  0.00     0.011 C 
HETATM   12  C10 UNL     1      -2.061  50.452 -20.278  1.00  0.00    -0.032 C 
HETATM   13  C11 UNL     1      -1.401  49.151 -20.806  1.00  0.00     0.016 C 
HETATM   14  C12 UNL     1      -2.557  50.252 -18.812  1.00  0.00    -0.002 C 
HETATM   15  C21 UNL     1      -3.933  49.565 -18.979  1.00  0.00     0.006 C 
HETATM   16  C22 UNL     1      -4.336  49.730 -20.461  1.00  0.00     0.011 C 
HETATM   17  C23 UNL     1      -3.399  50.825 -21.013  1.00  0.00    -0.032 C 
HETATM   18  C24 UNL     1      -4.023  52.197 -20.592  1.00  0.00     0.016 C 
HETATM   19  C25 UNL     1      -0.975  50.730 -23.987  1.00  0.00     0.022 A 
HETATM   20  C26 UNL     1      -1.740  51.936 -24.479  1.00  0.00    -0.021 A 
HETATM   21  C30 UNL     1      -2.920  51.707 -25.459  1.00  0.00     0.063 C 
ENDROOT
BRANCH  14  22
HETATM   22  C13 UNL     1      -1.621  49.744 -17.678  1.00  0.00    -0.014 C 
HETATM   23  C14 UNL     1      -1.678  48.205 -17.623  1.00  0.00     0.010 C 
BRANCH  22  24
HETATM   24  C15 UNL     1      -0.160  50.237 -17.529  1.00  0.00     0.008 C 
BRANCH  24  25
HETATM   25  C16 UNL     1       0.213  51.315 -16.503  1.00  0.00     0.028 C 
BRANCH  25  26
HETATM   26  C17 UNL     1       1.542  51.974 -16.752  1.00  0.00    -0.025 C 
HETATM   27  C18 UNL     1       2.582  52.092 -15.903  1.00  0.00    -0.091 C 
HETATM   28  C19 UNL     1       3.836  52.812 -16.327  1.00  0.00     0.042 C 
HETATM   29  C20 UNL     1       2.634  51.538 -14.506  1.00  0.00     0.042 C 
ENDBRANCH  25  26
ENDBRANCH  24  25
ENDBRANCH  22  24
ENDBRANCH  14  22
BRANCH  20  30
HETATM   30  C27 UNL     1      -0.991  53.263 -24.700  1.00  0.00     0.021 C 
BRANCH  30  31
HETATM   31  C28 UNL     1       0.193  53.236 -25.657  1.00  0.00     0.111 C 
BRANCH  31  32
HETATM   32  C29 UNL     1      -0.002  54.103 -26.871  1.00  0.00     0.139 C 
HETATM   33  O3  UNL     1      -0.207  53.746 -28.017  1.00  0.00    -0.650 OA
BRANCH  32  34
HETATM   34  O4  UNL     1       0.143  55.412 -26.579  1.00  0.00    -0.776 OA
HETATM   35  H43 UNL     1       0.015  55.861 -27.442  1.00  0.00     0.167 HD
ENDBRANCH  32  34
ENDBRANCH  31  32
ENDBRANCH  30  31
ENDBRANCH  20  30
TORSDOF 8
ENDMDL
MODEL 7
REMARK minimizedAffinity -8.52684021
REMARK  8 active torsions:
REMARK  status: ('A' for Active; 'I' for Inactive)
REMARK    1  A    between atoms: C12_14  and  C13_15 
REMARK    2  A    between atoms: C13_15  and  C15_17 
REMARK    3  A    between atoms: C15_17  and  C16_18 
REMARK    4  A    between atoms: C16_18  and  C17_19 
REMARK    5  A    between atoms: C26_28  and  C27_29 
REMARK    6  A    between atoms: C27_29  and  C28_30 
REMARK    7  A    between atoms: C28_30  and  C29_31 
REMARK    8  A    between atoms: C29_31  and  O4_33 
ROOT
HETATM    1  C1  UNL     1      -0.139  49.628 -17.024  1.00  0.00     0.025 C 
HETATM    2  C2  UNL     1      -0.841  50.217 -17.999  1.00  0.00     0.015 C 
HETATM    3  C3  UNL     1      -0.518  51.599 -18.418  1.00  0.00     0.289 C 
HETATM    4  O1  UNL     1       0.510  52.206 -18.186  1.00  0.00    -0.260 OA
HETATM    5  O2  UNL     1      -1.586  52.081 -19.102  1.00  0.00    -0.311 OA
HETATM    6  C4  UNL     1      -2.668  51.142 -19.029  1.00  0.00     0.142 C 
HETATM    7  C5  UNL     1      -3.491  51.216 -20.303  1.00  0.00     0.039 C 
HETATM    8  C6  UNL     1      -2.643  50.858 -21.532  1.00  0.00     0.006 C 
HETATM    9  C7  UNL     1      -2.133  49.401 -21.412  1.00  0.00    -0.027 A 
HETATM   10  C8  UNL     1      -2.589  48.429 -22.515  1.00  0.00     0.011 C 
HETATM   11  C9  UNL     1      -2.666  48.969 -23.955  1.00  0.00     0.011 C 
HETATM   12  C10 UNL     1      -2.550  50.492 -24.064  1.00  0.00    -0.032 C 
HETATM   13  C11 UNL     1      -1.043  50.863 -24.049  1.00  0.00     0.016 C 
HETATM   14  C12 UNL     1      -3.251  51.121 -25.307  1.00  0.00    -0.002 C 
HETATM   15  C21 UNL     1      -3.564  52.569 -24.861  1.00  0.00     0.006 C 
HETATM   16  C22 UNL     1      -3.389  52.609 -23.326  1.00  0.00     0.011 C 
HETATM   17  C23 UNL     1      -3.369  51.130 -22.884  1.00  0.00    -0.032 C 
HETATM   18  C24 UNL     1      -4.864  50.674 -22.796  1.00  0.00     0.016 C 
HETATM   19  C25 UNL     1      -0.719  49.177 -20.911  1.00  0.00     0.022 A 
HETATM   20  C26 UNL     1      -1.853  48.854 -19.967  1.00  0.00    -0.021 A 
HETATM   21  C30 UNL     1      -2.067  49.770 -18.734  1.00  0.00     0.063 C 
ENDROOT
BRANCH  14  22
HETATM   22  C13 UNL     1      -2.732  50.901 -26.757  1.00  0.00    -0.014 C 
HETATM   23  C14 UNL     1      -1.219  50.612 -26.717  1.00  0.00     0.010 C 
BRANCH  22  24
HETATM   24  C15 UNL     1      -3.439  49.946 -27.751  1.00  0.00     0.008 C 
BRANCH  24  25
HETATM   25  C16 UNL     1      -3.672  48.470 -27.404  1.00  0.00     0.028 C 
BRANCH  25  26
HETATM   26  C17 UNL     1      -5.077  47.990 -27.642  1.00  0.00    -0.025 C 
HETATM   27  C18 UNL     1      -6.057  47.809 -26.735  1.00  0.00    -0.091 C 
HETATM   28  C19 UNL     1      -7.408  47.296 -27.163  1.00  0.00     0.042 C 
HETATM   29  C20 UNL     1      -5.946  48.094 -25.263  1.00  0.00     0.042 C 
ENDBRANCH  25  26
ENDBRANCH  24  25
ENDBRANCH  22  24
ENDBRANCH  14  22
BRANCH  20  30
HETATM   30  C27 UNL     1      -2.232  47.381 -19.725  1.00  0.00     0.021 C 
BRANCH  30  31
HETATM   31  C28 UNL     1      -3.546  47.116 -19.003  1.00  0.00     0.111 C 
BRANCH  31  32
HETATM   32  C29 UNL     1      -3.408  46.165 -17.845  1.00  0.00     0.139 C 
HETATM   33  O3  UNL     1      -3.064  44.997 -17.876  1.00  0.00    -0.650 OA
BRANCH  32  34
HETATM   34  O4  UNL     1      -3.789  46.734 -16.683  1.00  0.00    -0.776 OA
HETATM   35  H43 UNL     1      -3.675  46.018 -16.022  1.00  0.00     0.167 HD
ENDBRANCH  32  34
ENDBRANCH  31  32
ENDBRANCH  30  31
ENDBRANCH  20  30
TORSDOF 8
ENDMDL
MODEL 8
REMARK minimizedAffinity -8.22546673
REMARK  8 active torsions:
REMARK  status: ('A' for Active; 'I' for Inactive)
REMARK    1  A    between atoms: C12_14  and  C13_15 
REMARK    2  A    between atoms: C13_15  and  C15_17 
REMARK    3  A    between atoms: C15_17  and  C16_18 
REMARK    4  A    between atoms: C16_18  and  C17_19 
REMARK    5  A    between atoms: C26_28  and  C27_29 
REMARK    6  A    between atoms: C27_29  and  C28_30 
REMARK    7  A    between atoms: C28_30  and  C29_31 
REMARK    8  A    between atoms: C29_31  and  O4_33 
ROOT
HETATM    1  C1  UNL     1      -2.987  50.681 -27.618  1.00  0.00     0.025 C 
HETATM    2  C2  UNL     1      -3.346  50.450 -26.349  1.00  0.00     0.015 C 
HETATM    3  C3  UNL     1      -3.809  49.104 -25.941  1.00  0.00     0.289 C 
HETATM    4  O1  UNL     1      -3.645  48.064 -26.549  1.00  0.00    -0.260 OA
HETATM    5  O2  UNL     1      -4.467  49.238 -24.762  1.00  0.00    -0.311 OA
HETATM    6  C4  UNL     1      -4.600  50.629 -24.439  1.00  0.00     0.142 C 
HETATM    7  C5  UNL     1      -4.576  50.805 -22.931  1.00  0.00     0.039 C 
HETATM    8  C6  UNL     1      -3.250  50.311 -22.336  1.00  0.00     0.006 C 
HETATM    9  C7  UNL     1      -2.076  51.147 -22.902  1.00  0.00    -0.027 A 
HETATM   10  C8  UNL     1      -1.249  51.940 -21.874  1.00  0.00     0.011 C 
HETATM   11  C9  UNL     1      -0.968  51.272 -20.515  1.00  0.00     0.011 C 
HETATM   12  C10 UNL     1      -1.792  50.008 -20.253  1.00  0.00    -0.032 C 
HETATM   13  C11 UNL     1      -1.079  48.814 -20.941  1.00  0.00     0.016 C 
HETATM   14  C12 UNL     1      -2.053  49.690 -18.748  1.00  0.00    -0.002 C 
HETATM   15  C21 UNL     1      -3.358  48.860 -18.766  1.00  0.00     0.006 C 
HETATM   16  C22 UNL     1      -3.981  49.043 -20.168  1.00  0.00     0.011 C 
HETATM   17  C23 UNL     1      -3.253  50.259 -20.778  1.00  0.00    -0.032 C 
HETATM   18  C24 UNL     1      -3.954  51.532 -20.196  1.00  0.00     0.016 C 
HETATM   19  C25 UNL     1      -1.276  50.568 -24.053  1.00  0.00     0.022 A 
HETATM   20  C26 UNL     1      -2.227  51.699 -24.365  1.00  0.00    -0.021 A 
HETATM   21  C30 UNL     1      -3.502  51.381 -25.188  1.00  0.00     0.063 C 
ENDROOT
BRANCH  14  22
HETATM   22  C13 UNL     1      -0.917  49.243 -17.782  1.00  0.00    -0.014 C 
HETATM   23  C14 UNL     1       0.050  50.421 -17.556  1.00  0.00     0.010 C 
BRANCH  22  24
HETATM   24  C15 UNL     1      -1.209  48.517 -16.446  1.00  0.00     0.008 C 
BRANCH  24  25
HETATM   25  C16 UNL     1      -2.514  48.765 -15.676  1.00  0.00     0.028 C 
BRANCH  25  26
HETATM   26  C17 UNL     1      -2.683  50.175 -15.181  1.00  0.00    -0.025 C 
HETATM   27  C18 UNL     1      -2.852  50.595 -13.912  1.00  0.00    -0.091 C 
HETATM   28  C19 UNL     1      -3.029  52.061 -13.611  1.00  0.00     0.042 C 
HETATM   29  C20 UNL     1      -2.867  49.711 -12.696  1.00  0.00     0.042 C 
ENDBRANCH  25  26
ENDBRANCH  24  25
ENDBRANCH  22  24
ENDBRANCH  14  22
BRANCH  20  30
HETATM   30  C27 UNL     1      -1.661  53.111 -24.607  1.00  0.00     0.021 C 
BRANCH  30  31
HETATM   31  C28 UNL     1      -0.408  53.214 -25.466  1.00  0.00     0.111 C 
BRANCH  31  32
HETATM   32  C29 UNL     1       0.447  54.407 -25.130  1.00  0.00     0.139 C 
HETATM   33  O3  UNL     1       1.204  54.539 -24.186  1.00  0.00    -0.650 OA
BRANCH  32  34
HETATM   34  O4  UNL     1       0.243  55.425 -25.991  1.00  0.00    -0.776 OA
HETATM   35  H43 UNL     1       0.831  56.136 -25.658  1.00  0.00     0.167 HD
ENDBRANCH  32  34
ENDBRANCH  31  32
ENDBRANCH  30  31
ENDBRANCH  20  30
TORSDOF 8
ENDMDL
MODEL 9
REMARK minimizedAffinity -8.1620512
REMARK  8 active torsions:
REMARK  status: ('A' for Active; 'I' for Inactive)
REMARK    1  A    between atoms: C12_14  and  C13_15 
REMARK    2  A    between atoms: C13_15  and  C15_17 
REMARK    3  A    between atoms: C15_17  and  C16_18 
REMARK    4  A    between atoms: C16_18  and  C17_19 
REMARK    5  A    between atoms: C26_28  and  C27_29 
REMARK    6  A    between atoms: C27_29  and  C28_30 
REMARK    7  A    between atoms: C28_30  and  C29_31 
REMARK    8  A    between atoms: C29_31  and  O4_33 
ROOT
HETATM    1  C1  UNL     1       0.846  52.095 -25.037  1.00  0.00     0.025 C 
HETATM    2  C2  UNL     1      -0.416  51.834 -24.678  1.00  0.00     0.015 C 
HETATM    3  C3  UNL     1      -1.305  51.072 -25.583  1.00  0.00     0.289 C 
HETATM    4  O1  UNL     1      -0.963  50.382 -26.525  1.00  0.00    -0.260 OA
HETATM    5  O2  UNL     1      -2.583  51.289 -25.182  1.00  0.00    -0.311 OA
HETATM    6  C4  UNL     1      -2.601  52.283 -24.148  1.00  0.00     0.142 C 
HETATM    7  C5  UNL     1      -3.747  52.000 -23.192  1.00  0.00     0.039 C 
HETATM    8  C6  UNL     1      -3.584  50.629 -22.522  1.00  0.00     0.006 C 
HETATM    9  C7  UNL     1      -2.284  50.606 -21.680  1.00  0.00    -0.027 A 
HETATM   10  C8  UNL     1      -2.457  50.365 -20.170  1.00  0.00     0.011 C 
HETATM   11  C9  UNL     1      -3.529  49.352 -19.727  1.00  0.00     0.011 C 
HETATM   12  C10 UNL     1      -4.486  48.921 -20.841  1.00  0.00    -0.032 C 
HETATM   13  C11 UNL     1      -3.806  47.785 -21.650  1.00  0.00     0.016 C 
HETATM   14  C12 UNL     1      -5.901  48.472 -20.360  1.00  0.00    -0.002 C 
HETATM   15  C21 UNL     1      -6.809  48.736 -21.584  1.00  0.00     0.006 C 
HETATM   16  C22 UNL     1      -6.004  49.638 -22.548  1.00  0.00     0.011 C 
HETATM   17  C23 UNL     1      -4.836  50.188 -21.703  1.00  0.00    -0.032 C 
HETATM   18  C24 UNL     1      -5.406  51.400 -20.894  1.00  0.00     0.016 C 
HETATM   19  C25 UNL     1      -1.049  49.972 -22.290  1.00  0.00     0.022 A 
HETATM   20  C26 UNL     1      -1.082  51.479 -22.192  1.00  0.00    -0.021 A 
HETATM   21  C30 UNL     1      -1.218  52.298 -23.502  1.00  0.00     0.063 C 
ENDROOT
BRANCH  14  22
HETATM   22  C13 UNL     1      -6.130  47.162 -19.552  1.00  0.00    -0.014 C 
HETATM   23  C14 UNL     1      -4.766  46.533 -19.209  1.00  0.00     0.010 C 
BRANCH  22  24
HETATM   24  C15 UNL     1      -7.077  47.102 -18.328  1.00  0.00     0.008 C 
BRANCH  24  25
HETATM   25  C16 UNL     1      -7.969  48.295 -17.955  1.00  0.00     0.028 C 
BRANCH  25  26
HETATM   26  C17 UNL     1      -9.219  48.416 -18.782  1.00  0.00    -0.025 C 
HETATM   27  C18 UNL     1     -10.446  47.931 -18.508  1.00  0.00    -0.091 C 
HETATM   28  C19 UNL     1     -11.582  48.137 -19.477  1.00  0.00     0.042 C 
HETATM   29  C20 UNL     1     -10.829  47.179 -17.264  1.00  0.00     0.042 C 
ENDBRANCH  25  26
ENDBRANCH  24  25
ENDBRANCH  22  24
ENDBRANCH  14  22
BRANCH  20  30
HETATM   30  C27 UNL     1      -0.253  52.179 -21.099  1.00  0.00     0.021 C 
BRANCH  30  31
HETATM   31  C28 UNL     1       1.186  52.536 -21.447  1.00  0.00     0.111 C 
BRANCH  31  32
HETATM   32  C29 UNL     1       1.542  53.961 -21.117  1.00  0.00     0.139 C 
HETATM   33  O3  UNL     1       1.907  54.835 -21.882  1.00  0.00    -0.650 OA
BRANCH  32  34
HETATM   34  O4  UNL     1       1.484  54.195 -19.790  1.00  0.00    -0.776 OA
HETATM   35  H43 UNL     1       1.754  55.135 -19.705  1.00  0.00     0.167 HD
ENDBRANCH  32  34
ENDBRANCH  31  32
ENDBRANCH  30  31
ENDBRANCH  20  30
TORSDOF 8
ENDMDL
