MODEL 1
REMARK minimizedAffinity -8.70490837
REMARK CNNscore 0.569199562
REMARK CNNaffinity 7.47474432
REMARK  9 active torsions:
REMARK  status: ('A' for Active; 'I' for Inactive)
REMARK    1  A    between atoms: O1_2  and  C2_3 
REMARK    2  A    between atoms: C2_3  and  C3_4 
REMARK    3  A    between atoms: C3_4  and  N1_5 
REMARK       I    between atoms: N1_5  and  C4_6 
REMARK    4  A    between atoms: C4_6  and  C5_8 
REMARK    5  A    between atoms: C5_8  and  C7_10 
REMARK    6  A    between atoms: C15_20  and  C16_21 
REMARK    7  A    between atoms: C16_21  and  O3_22 
REMARK    8  A    between atoms: O3_22  and  C17_23 
REMARK    9  A    between atoms: C26_34  and  O4_35 
ROOT
HETATM    1  C7  UNL     1      -2.968  49.187 -25.380  1.00  0.00     0.027 C 
HETATM    2  C8  UNL     1      -1.971  49.752 -26.399  1.00  0.00     0.009 C 
HETATM    3  C9  UNL     1      -0.780  50.382 -25.684  1.00  0.00     0.010 C 
HETATM    4  C10 UNL     1      -1.146  51.528 -24.705  1.00  0.00    -0.033 C 
HETATM    5  C11 UNL     1      -1.559  52.767 -25.549  1.00  0.00     0.016 C 
HETATM    6  C12 UNL     1       0.171  51.936 -23.938  1.00  0.00     0.058 C 
HETATM    7  C13 UNL     1      -0.049  52.141 -22.481  1.00  0.00     0.008 A 
HETATM    8  C14 UNL     1      -1.009  51.504 -21.735  1.00  0.00     0.027 A 
HETATM    9  N2  UNL     1      -1.034  51.822 -20.398  1.00  0.00    -0.354 N 
ATOM     10  H2  UNL     1      -1.701  51.457 -19.718  1.00  0.00     0.166 HD
HETATM   11  C15 UNL     1      -0.060  52.674 -20.130  1.00  0.00     0.076 A 
HETATM   12  S1  UNL     1       0.884  53.160 -21.494  1.00  0.00    -0.077 SA
HETATM   13  C23 UNL     1      -1.990  50.560 -22.356  1.00  0.00     0.040 C 
HETATM   14  C24 UNL     1      -1.451  49.133 -22.326  1.00  0.00     0.017 C 
HETATM   15  C25 UNL     1      -2.371  51.134 -23.762  1.00  0.00     0.033 C 
HETATM   16  C26 UNL     1      -3.489  50.312 -24.459  1.00  0.00     0.128 C 
ENDROOT
BRANCH   1  17
HETATM   17  C5  UNL     1      -4.064  48.325 -26.079  1.00  0.00     0.080 C 
HETATM   18  C6  UNL     1      -4.479  48.783 -27.478  1.00  0.00     0.020 C 
BRANCH  17  19
HETATM   19  C4  UNL     1      -5.295  48.161 -25.179  1.00  0.00     0.222 C 
HETATM   20  N1  UNL     1      -6.498  48.221 -25.852  1.00  0.00    -0.359 N 
HETATM   21  H8  UNL     1      -6.479  48.071 -26.853  1.00  0.00     0.162 HD
HETATM   22  O2  UNL     1      -5.228  47.962 -23.968  1.00  0.00    -0.273 OA
BRANCH  20  23
HETATM   23  C3  UNL     1      -7.746  47.899 -25.181  1.00  0.00     0.148 C 
BRANCH  23  24
HETATM   24  C2  UNL     1      -8.465  49.162 -24.696  1.00  0.00     0.186 C 
BRANCH  24  25
HETATM   25  O1  UNL     1      -9.547  49.507 -25.574  1.00  0.00    -0.394 OA
HETATM   26  C1  UNL     1     -10.004  48.407 -26.348  1.00  0.00     0.201 C 
ENDBRANCH  24  25
ENDBRANCH  23  24
ENDBRANCH  20  23
ENDBRANCH  17  19
ENDBRANCH   1  17
BRANCH  16  27
HETATM   27  O4  UNL     1      -4.277  51.222 -25.234  1.00  0.00    -0.395 OA
HETATM   28  H35 UNL     1      -4.754  51.794 -24.608  1.00  0.00     0.210 HD
ENDBRANCH  16  27
BRANCH  11  29
HETATM   29  C16 UNL     1       0.220  53.241 -18.770  1.00  0.00     0.240 C 
BRANCH  29  30
HETATM   30  O3  UNL     1       0.329  52.166 -17.835  1.00  0.00    -0.345 OA
BRANCH  30  31
HETATM   31  C17 UNL     1       1.374  52.116 -16.959  1.00  0.00     0.070 A 
HETATM   32  C18 UNL     1       2.579  52.814 -17.049  1.00  0.00     0.037 A 
HETATM   33  C19 UNL     1       3.562  52.652 -16.067  1.00  0.00     0.004 A 
HETATM   34  C20 UNL     1       3.347  51.793 -14.990  1.00  0.00     0.024 A 
HETATM   35  C21 UNL     1       2.146  51.096 -14.900  1.00  0.00     0.036 A 
HETATM   36 CL1  UNL     1       1.874  50.032 -13.575  1.00  0.00    -0.084 Cl
HETATM   37  C22 UNL     1       1.166  51.253 -15.877  1.00  0.00     0.060 A 
ENDBRANCH  30  31
ENDBRANCH  29  30
ENDBRANCH  11  29
TORSDOF 9
ENDMDL
MODEL 2
REMARK minimizedAffinity -8.44270706
REMARK CNNscore 0.42923528
REMARK CNNaffinity 7.17315292
REMARK  9 active torsions:
REMARK  status: ('A' for Active; 'I' for Inactive)
REMARK    1  A    between atoms: O1_2  and  C2_3 
REMARK    2  A    between atoms: C2_3  and  C3_4 
REMARK    3  A    between atoms: C3_4  and  N1_5 
REMARK       I    between atoms: N1_5  and  C4_6 
REMARK    4  A    between atoms: C4_6  and  C5_8 
REMARK    5  A    between atoms: C5_8  and  C7_10 
REMARK    6  A    between atoms: C15_20  and  C16_21 
REMARK    7  A    between atoms: C16_21  and  O3_22 
REMARK    8  A    between atoms: O3_22  and  C17_23 
REMARK    9  A    between atoms: C26_34  and  O4_35 
ROOT
HETATM    1  C7  UNL     1      -4.804  48.619 -24.530  1.00  0.00     0.027 C 
HETATM    2  C8  UNL     1      -4.124  48.791 -25.895  1.00  0.00     0.009 C 
HETATM    3  C9  UNL     1      -2.702  49.313 -25.718  1.00  0.00     0.010 C 
HETATM    4  C10 UNL     1      -2.600  50.669 -24.971  1.00  0.00    -0.033 C 
HETATM    5  C11 UNL     1      -3.111  51.783 -25.928  1.00  0.00     0.016 C 
HETATM    6  C12 UNL     1      -1.069  50.964 -24.730  1.00  0.00     0.058 C 
HETATM    7  C13 UNL     1      -0.788  51.473 -23.361  1.00  0.00     0.008 A 
HETATM    8  C14 UNL     1      -1.529  51.174 -22.245  1.00  0.00     0.027 A 
HETATM    9  N2  UNL     1      -1.089  51.736 -21.069  1.00  0.00    -0.354 N 
ATOM     10  H2  UNL     1      -1.543  51.633 -20.161  1.00  0.00     0.166 HD
HETATM   11  C15 UNL     1       0.013  52.429 -21.297  1.00  0.00     0.076 A 
HETATM   12  S1  UNL     1       0.523  52.469 -22.948  1.00  0.00    -0.077 SA
HETATM   13  C23 UNL     1      -2.760  50.328 -22.321  1.00  0.00     0.040 C 
HETATM   14  C24 UNL     1      -2.411  48.857 -22.113  1.00  0.00     0.017 C 
HETATM   15  C25 UNL     1      -3.498  50.689 -23.653  1.00  0.00     0.033 C 
HETATM   16  C26 UNL     1      -4.868  49.972 -23.789  1.00  0.00     0.128 C 
ENDROOT
BRANCH   1  17
HETATM   17  C5  UNL     1      -6.159  47.857 -24.666  1.00  0.00     0.080 C 
HETATM   18  C6  UNL     1      -6.717  47.740 -26.085  1.00  0.00     0.020 C 
BRANCH  17  19
HETATM   19  C4  UNL     1      -7.215  48.438 -23.718  1.00  0.00     0.222 C 
HETATM   20  N1  UNL     1      -7.033  48.095 -22.394  1.00  0.00    -0.359 N 
HETATM   21  H8  UNL     1      -6.115  47.768 -22.119  1.00  0.00     0.162 HD
HETATM   22  O2  UNL     1      -8.130  49.170 -24.087  1.00  0.00    -0.273 OA
BRANCH  20  23
HETATM   23  C3  UNL     1      -7.830  48.711 -21.346  1.00  0.00     0.148 C 
BRANCH  23  24
HETATM   24  C2  UNL     1      -7.684  47.963 -20.017  1.00  0.00     0.186 C 
BRANCH  24  25
HETATM   25  O1  UNL     1      -8.017  48.813 -18.909  1.00  0.00    -0.394 OA
HETATM   26  C1  UNL     1      -8.023  48.124 -17.666  1.00  0.00     0.201 C 
ENDBRANCH  24  25
ENDBRANCH  23  24
ENDBRANCH  20  23
ENDBRANCH  17  19
ENDBRANCH   1  17
BRANCH  16  27
HETATM   27  O4  UNL     1      -5.749  50.850 -24.498  1.00  0.00    -0.395 OA
HETATM   28  H35 UNL     1      -5.932  51.607 -23.914  1.00  0.00     0.210 HD
ENDBRANCH  16  27
BRANCH  11  29
HETATM   29  C16 UNL     1       0.776  53.178 -20.246  1.00  0.00     0.240 C 
BRANCH  29  30
HETATM   30  O3  UNL     1       0.068  53.085 -19.008  1.00  0.00    -0.345 OA
BRANCH  30  31
HETATM   31  C17 UNL     1       0.603  52.400 -17.956  1.00  0.00     0.070 A 
HETATM   32  C18 UNL     1       0.034  51.319 -17.282  1.00  0.00     0.037 A 
HETATM   33  C19 UNL     1       0.708  50.721 -16.211  1.00  0.00     0.004 A 
HETATM   34  C20 UNL     1       1.954  51.200 -15.809  1.00  0.00     0.024 A 
HETATM   35  C21 UNL     1       2.522  52.280 -16.480  1.00  0.00     0.036 A 
HETATM   36 CL1  UNL     1       4.059  52.878 -15.988  1.00  0.00    -0.084 Cl
HETATM   37  C22 UNL     1       1.852  52.877 -17.545  1.00  0.00     0.060 A 
ENDBRANCH  30  31
ENDBRANCH  29  30
ENDBRANCH  11  29
TORSDOF 9
ENDMDL
MODEL 3
REMARK minimizedAffinity -8.84218884
REMARK CNNscore 0.370268643
REMARK CNNaffinity 7.00905991
REMARK  9 active torsions:
REMARK  status: ('A' for Active; 'I' for Inactive)
REMARK    1  A    between atoms: O1_2  and  C2_3 
REMARK    2  A    between atoms: C2_3  and  C3_4 
REMARK    3  A    between atoms: C3_4  and  N1_5 
REMARK       I    between atoms: N1_5  and  C4_6 
REMARK    4  A    between atoms: C4_6  and  C5_8 
REMARK    5  A    between atoms: C5_8  and  C7_10 
REMARK    6  A    between atoms: C15_20  and  C16_21 
REMARK    7  A    between atoms: C16_21  and  O3_22 
REMARK    8  A    between atoms: O3_22  and  C17_23 
REMARK    9  A    between atoms: C26_34  and  O4_35 
ROOT
HETATM    1  C7  UNL     1      -5.161  48.689 -24.217  1.00  0.00     0.027 C 
HETATM    2  C8  UNL     1      -4.491  48.680 -25.597  1.00  0.00     0.009 C 
HETATM    3  C9  UNL     1      -3.033  49.112 -25.483  1.00  0.00     0.010 C 
HETATM    4  C10 UNL     1      -2.822  50.521 -24.870  1.00  0.00    -0.033 C 
HETATM    5  C11 UNL     1      -3.266  51.574 -25.926  1.00  0.00     0.016 C 
HETATM    6  C12 UNL     1      -1.270  50.725 -24.671  1.00  0.00     0.058 C 
HETATM    7  C13 UNL     1      -0.932  51.340 -23.360  1.00  0.00     0.008 A 
HETATM    8  C14 UNL     1      -1.676  51.203 -22.214  1.00  0.00     0.027 A 
HETATM    9  N2  UNL     1      -1.178  51.841 -21.101  1.00  0.00    -0.354 N 
ATOM     10  H2  UNL     1      -1.625  51.858 -20.184  1.00  0.00     0.166 HD
HETATM   11  C15 UNL     1      -0.033  52.426 -21.403  1.00  0.00     0.076 A 
HETATM   12  S1  UNL     1       0.453  52.272 -23.055  1.00  0.00    -0.077 SA
HETATM   13  C23 UNL     1      -2.965  50.446 -22.198  1.00  0.00     0.040 C 
HETATM   14  C24 UNL     1      -2.720  48.980 -21.853  1.00  0.00     0.017 C 
HETATM   15  C25 UNL     1      -3.696  50.732 -23.553  1.00  0.00     0.033 C 
HETATM   16  C26 UNL     1      -5.116  50.107 -23.609  1.00  0.00     0.128 C 
ENDROOT
BRANCH   1  17
HETATM   17  C5  UNL     1      -6.569  48.019 -24.268  1.00  0.00     0.080 C 
HETATM   18  C6  UNL     1      -6.834  46.945 -23.212  1.00  0.00     0.020 C 
BRANCH  17  19
HETATM   19  C4  UNL     1      -6.873  47.482 -25.672  1.00  0.00     0.222 C 
HETATM   20  N1  UNL     1      -6.100  48.040 -26.669  1.00  0.00    -0.359 N 
HETATM   21  H8  UNL     1      -5.242  48.500 -26.390  1.00  0.00     0.162 HD
HETATM   22  O2  UNL     1      -7.708  46.610 -25.899  1.00  0.00    -0.273 OA
BRANCH  20  23
HETATM   23  C3  UNL     1      -6.129  47.511 -28.022  1.00  0.00     0.148 C 
BRANCH  23  24
HETATM   24  C2  UNL     1      -5.371  48.418 -28.996  1.00  0.00     0.186 C 
BRANCH  24  25
HETATM   25  O1  UNL     1      -4.589  47.644 -29.918  1.00  0.00    -0.394 OA
HETATM   26  C1  UNL     1      -5.301  47.305 -31.099  1.00  0.00     0.201 C 
ENDBRANCH  24  25
ENDBRANCH  23  24
ENDBRANCH  20  23
ENDBRANCH  17  19
ENDBRANCH   1  17
BRANCH  16  27
HETATM   27  O4  UNL     1      -5.942  50.976 -24.391  1.00  0.00    -0.395 OA
HETATM   28  H35 UNL     1      -6.061  51.796 -23.881  1.00  0.00     0.210 HD
ENDBRANCH  16  27
BRANCH  11  29
HETATM   29  C16 UNL     1       0.797  53.214 -20.435  1.00  0.00     0.240 C 
BRANCH  29  30
HETATM   30  O3  UNL     1       0.125  53.251 -19.174  1.00  0.00    -0.345 OA
BRANCH  30  31
HETATM   31  C17 UNL     1       0.594  52.522 -18.121  1.00  0.00     0.070 A 
HETATM   32  C18 UNL     1      -0.024  51.425 -17.518  1.00  0.00     0.037 A 
HETATM   33  C19 UNL     1       0.583  50.780 -16.435  1.00  0.00     0.004 A 
HETATM   34  C20 UNL     1       1.810  51.228 -15.948  1.00  0.00     0.024 A 
HETATM   35  C21 UNL     1       2.427  52.322 -16.547  1.00  0.00     0.036 A 
HETATM   36 CL1  UNL     1       3.941  52.881 -15.951  1.00  0.00    -0.084 Cl
HETATM   37  C22 UNL     1       1.824  52.967 -17.625  1.00  0.00     0.060 A 
ENDBRANCH  30  31
ENDBRANCH  29  30
ENDBRANCH  11  29
TORSDOF 9
ENDMDL
MODEL 4
REMARK minimizedAffinity -7.19834852
REMARK CNNscore 0.326000333
REMARK CNNaffinity 6.81339502
REMARK  9 active torsions:
REMARK  status: ('A' for Active; 'I' for Inactive)
REMARK    1  A    between atoms: O1_2  and  C2_3 
REMARK    2  A    between atoms: C2_3  and  C3_4 
REMARK    3  A    between atoms: C3_4  and  N1_5 
REMARK       I    between atoms: N1_5  and  C4_6 
REMARK    4  A    between atoms: C4_6  and  C5_8 
REMARK    5  A    between atoms: C5_8  and  C7_10 
REMARK    6  A    between atoms: C15_20  and  C16_21 
REMARK    7  A    between atoms: C16_21  and  O3_22 
REMARK    8  A    between atoms: O3_22  and  C17_23 
REMARK    9  A    between atoms: C26_34  and  O4_35 
ROOT
HETATM    1  C7  UNL     1      -0.657  53.229  -9.511  1.00  0.00     0.027 C 
HETATM    2  C8  UNL     1      -2.031  52.611  -9.218  1.00  0.00     0.009 C 
HETATM    3  C9  UNL     1      -2.385  51.574 -10.279  1.00  0.00     0.010 C 
HETATM    4  C10 UNL     1      -2.418  52.121 -11.731  1.00  0.00    -0.033 C 
HETATM    5  C11 UNL     1      -3.686  53.009 -11.880  1.00  0.00     0.016 C 
HETATM    6  C12 UNL     1      -2.626  50.890 -12.696  1.00  0.00     0.058 C 
HETATM    7  C13 UNL     1      -1.749  50.942 -13.896  1.00  0.00     0.008 A 
HETATM    8  C14 UNL     1      -0.516  51.544 -13.941  1.00  0.00     0.027 A 
HETATM    9  N2  UNL     1       0.142  51.465 -15.146  1.00  0.00    -0.354 N 
ATOM     10  H2  UNL     1       1.051  51.882 -15.349  1.00  0.00     0.166 HD
HETATM   11  C15 UNL     1      -0.584  50.765 -16.000  1.00  0.00     0.076 A 
HETATM   12  S1  UNL     1      -2.110  50.226 -15.392  1.00  0.00    -0.077 SA
HETATM   13  C23 UNL     1       0.047  52.274 -12.763  1.00  0.00     0.040 C 
HETATM   14  C24 UNL     1       0.874  51.330 -11.895  1.00  0.00     0.017 C 
HETATM   15  C25 UNL     1      -1.138  53.015 -12.058  1.00  0.00     0.033 C 
HETATM   16  C26 UNL     1      -0.665  53.922 -10.891  1.00  0.00     0.128 C 
ENDROOT
BRANCH   1  17
HETATM   17  C5  UNL     1      -0.165  54.104  -8.317  1.00  0.00     0.080 C 
HETATM   18  C6  UNL     1      -0.432  55.605  -8.437  1.00  0.00     0.020 C 
BRANCH  17  19
HETATM   19  C4  UNL     1       1.316  53.842  -8.016  1.00  0.00     0.222 C 
HETATM   20  N1  UNL     1       2.186  54.625  -8.747  1.00  0.00    -0.359 N 
HETATM   21  H8  UNL     1       1.813  55.467  -9.169  1.00  0.00     0.162 HD
HETATM   22  O2  UNL     1       1.706  53.032  -7.179  1.00  0.00    -0.273 OA
BRANCH  20  23
HETATM   23  C3  UNL     1       3.609  54.637  -8.450  1.00  0.00     0.148 C 
BRANCH  23  24
HETATM   24  C2  UNL     1       4.365  55.608  -9.364  1.00  0.00     0.186 C 
BRANCH  24  25
HETATM   25  O1  UNL     1       5.402  54.930 -10.088  1.00  0.00    -0.394 OA
HETATM   26  C1  UNL     1       6.535  54.633  -9.283  1.00  0.00     0.201 C 
ENDBRANCH  24  25
ENDBRANCH  23  24
ENDBRANCH  20  23
ENDBRANCH  17  19
ENDBRANCH   1  17
BRANCH  16  27
HETATM   27  O4  UNL     1      -1.540  55.054 -10.838  1.00  0.00    -0.395 OA
HETATM   28  H35 UNL     1      -1.372  55.584 -11.637  1.00  0.00     0.210 HD
ENDBRANCH  16  27
BRANCH  11  29
HETATM   29  C16 UNL     1      -0.181  50.472 -17.414  1.00  0.00     0.240 C 
BRANCH  29  30
HETATM   30  O3  UNL     1      -0.910  51.335 -18.290  1.00  0.00    -0.345 OA
BRANCH  30  31
HETATM   31  C17 UNL     1      -0.264  52.028 -19.272  1.00  0.00     0.070 A 
HETATM   32  C18 UNL     1       0.658  53.061 -19.102  1.00  0.00     0.037 A 
HETATM   33  C19 UNL     1       1.235  53.681 -20.216  1.00  0.00     0.004 A 
HETATM   34  C20 UNL     1       0.894  53.273 -21.505  1.00  0.00     0.024 A 
HETATM   35  C21 UNL     1      -0.028  52.243 -21.675  1.00  0.00     0.036 A 
HETATM   36 CL1  UNL     1      -0.456  51.734 -23.262  1.00  0.00    -0.084 Cl
HETATM   37  C22 UNL     1      -0.605  51.625 -20.568  1.00  0.00     0.060 A 
ENDBRANCH  30  31
ENDBRANCH  29  30
ENDBRANCH  11  29
TORSDOF 9
ENDMDL
MODEL 5
REMARK minimizedAffinity -7.83218908
REMARK CNNscore 0.23869428
REMARK CNNaffinity 6.92546082
REMARK  9 active torsions:
REMARK  status: ('A' for Active; 'I' for Inactive)
REMARK    1  A    between atoms: O1_2  and  C2_3 
REMARK    2  A    between atoms: C2_3  and  C3_4 
REMARK    3  A    between atoms: C3_4  and  N1_5 
REMARK       I    between atoms: N1_5  and  C4_6 
REMARK    4  A    between atoms: C4_6  and  C5_8 
REMARK    5  A    between atoms: C5_8  and  C7_10 
REMARK    6  A    between atoms: C15_20  and  C16_21 
REMARK    7  A    between atoms: C16_21  and  O3_22 
REMARK    8  A    between atoms: O3_22  and  C17_23 
REMARK    9  A    between atoms: C26_34  and  O4_35 
ROOT
HETATM    1  C7  UNL     1      -1.849  49.813 -14.641  1.00  0.00     0.027 C 
HETATM    2  C8  UNL     1      -2.468  48.492 -15.116  1.00  0.00     0.009 C 
HETATM    3  C9  UNL     1      -1.983  48.153 -16.522  1.00  0.00     0.010 C 
HETATM    4  C10 UNL     1      -2.301  49.230 -17.592  1.00  0.00    -0.033 C 
HETATM    5  C11 UNL     1      -3.828  49.180 -17.883  1.00  0.00     0.016 C 
HETATM    6  C12 UNL     1      -1.584  48.797 -18.929  1.00  0.00     0.058 C 
HETATM    7  C13 UNL     1      -0.909  49.931 -19.616  1.00  0.00     0.008 A 
HETATM    8  C14 UNL     1      -0.396  51.037 -18.985  1.00  0.00     0.027 A 
HETATM    9  N2  UNL     1       0.205  51.965 -19.804  1.00  0.00    -0.354 N 
ATOM     10  H2  UNL     1       0.609  52.850 -19.494  1.00  0.00     0.166 HD
HETATM   11  C15 UNL     1       0.177  51.534 -21.052  1.00  0.00     0.076 A 
HETATM   12  S1  UNL     1      -0.623  50.020 -21.287  1.00  0.00    -0.077 SA
HETATM   13  C23 UNL     1      -0.526  51.232 -17.508  1.00  0.00     0.040 C 
HETATM   14  C24 UNL     1       0.676  50.634 -16.782  1.00  0.00     0.017 C 
HETATM   15  C25 UNL     1      -1.935  50.697 -17.085  1.00  0.00     0.033 C 
HETATM   16  C26 UNL     1      -2.250  50.964 -15.588  1.00  0.00     0.128 C 
ENDROOT
BRANCH   1  17
HETATM   17  C5  UNL     1      -2.129  50.055 -13.125  1.00  0.00     0.080 C 
HETATM   18  C6  UNL     1      -3.321  49.297 -12.539  1.00  0.00     0.020 C 
BRANCH  17  19
HETATM   19  C4  UNL     1      -2.240  51.554 -12.818  1.00  0.00     0.222 C 
HETATM   20  N1  UNL     1      -3.510  51.965 -12.470  1.00  0.00    -0.359 N 
HETATM   21  H8  UNL     1      -4.163  51.254 -12.164  1.00  0.00     0.162 HD
HETATM   22  O2  UNL     1      -1.284  52.325 -12.846  1.00  0.00    -0.273 OA
BRANCH  20  23
HETATM   23  C3  UNL     1      -3.749  53.308 -11.969  1.00  0.00     0.148 C 
BRANCH  23  24
HETATM   24  C2  UNL     1      -4.131  53.295 -10.485  1.00  0.00     0.186 C 
BRANCH  24  25
HETATM   25  O1  UNL     1      -3.005  53.633  -9.662  1.00  0.00    -0.394 OA
HETATM   26  C1  UNL     1      -2.240  52.500  -9.277  1.00  0.00     0.201 C 
ENDBRANCH  24  25
ENDBRANCH  23  24
ENDBRANCH  20  23
ENDBRANCH  17  19
ENDBRANCH   1  17
BRANCH  16  27
HETATM   27  O4  UNL     1      -3.659  51.191 -15.475  1.00  0.00    -0.395 OA
HETATM   28  H35 UNL     1      -3.850  52.038 -15.915  1.00  0.00     0.210 HD
ENDBRANCH  16  27
BRANCH  11  29
HETATM   29  C16 UNL     1       0.742  52.285 -22.221  1.00  0.00     0.240 C 
BRANCH  29  30
HETATM   30  O3  UNL     1      -0.299  52.506 -23.175  1.00  0.00    -0.345 OA
BRANCH  30  31
HETATM   31  C17 UNL     1      -0.238  51.927 -24.409  1.00  0.00     0.070 A 
HETATM   32  C18 UNL     1      -1.249  51.212 -25.051  1.00  0.00     0.037 A 
HETATM   33  C19 UNL     1      -1.032  50.670 -26.323  1.00  0.00     0.004 A 
HETATM   34  C20 UNL     1       0.197  50.841 -26.960  1.00  0.00     0.024 A 
HETATM   35  C21 UNL     1       1.207  51.553 -26.319  1.00  0.00     0.036 A 
HETATM   36 CL1  UNL     1       2.726  51.766 -27.098  1.00  0.00    -0.084 Cl
HETATM   37  C22 UNL     1       0.993  52.091 -25.053  1.00  0.00     0.060 A 
ENDBRANCH  30  31
ENDBRANCH  29  30
ENDBRANCH  11  29
TORSDOF 9
ENDMDL
MODEL 6
REMARK minimizedAffinity -7.13267517
REMARK CNNscore 0.227668092
REMARK CNNaffinity 5.52581739
REMARK  9 active torsions:
REMARK  status: ('A' for Active; 'I' for Inactive)
REMARK    1  A    between atoms: O1_2  and  C2_3 
REMARK    2  A    between atoms: C2_3  and  C3_4 
REMARK    3  A    between atoms: C3_4  and  N1_5 
REMARK       I    between atoms: N1_5  and  C4_6 
REMARK    4  A    between atoms: C4_6  and  C5_8 
REMARK    5  A    between atoms: C5_8  and  C7_10 
REMARK    6  A    between atoms: C15_20  and  C16_21 
REMARK    7  A    between atoms: C16_21  and  O3_22 
REMARK    8  A    between atoms: O3_22  and  C17_23 
REMARK    9  A    between atoms: C26_34  and  O4_35 
ROOT
HETATM    1  C7  UNL     1      -4.282  48.495 -24.917  1.00  0.00     0.027 C 
HETATM    2  C8  UNL     1      -3.074  48.643 -23.983  1.00  0.00     0.009 C 
HETATM    3  C9  UNL     1      -3.462  48.291 -22.551  1.00  0.00     0.010 C 
HETATM    4  C10 UNL     1      -4.614  49.149 -21.965  1.00  0.00    -0.033 C 
HETATM    5  C11 UNL     1      -4.054  50.573 -21.682  1.00  0.00     0.016 C 
HETATM    6  C12 UNL     1      -4.993  48.538 -20.560  1.00  0.00     0.058 C 
HETATM    7  C13 UNL     1      -6.462  48.450 -20.346  1.00  0.00     0.008 A 
HETATM    8  C14 UNL     1      -7.392  48.295 -21.343  1.00  0.00     0.027 A 
HETATM    9  N2  UNL     1      -8.702  48.219 -20.930  1.00  0.00    -0.354 N 
ATOM     10  H2  UNL     1      -9.510  48.131 -21.547  1.00  0.00     0.166 HD
HETATM   11  C15 UNL     1      -8.752  48.277 -19.611  1.00  0.00     0.076 A 
HETATM   12  S1  UNL     1      -7.224  48.480 -18.829  1.00  0.00    -0.077 SA
HETATM   13  C23 UNL     1      -7.000  48.258 -22.786  1.00  0.00     0.040 C 
HETATM   14  C24 UNL     1      -6.730  46.823 -23.230  1.00  0.00     0.017 C 
HETATM   15  C25 UNL     1      -5.833  49.283 -22.984  1.00  0.00     0.033 C 
HETATM   16  C26 UNL     1      -5.421  49.438 -24.473  1.00  0.00     0.128 C 
ENDROOT
BRANCH   1  17
HETATM   17  C5  UNL     1      -3.857  48.607 -26.414  1.00  0.00     0.080 C 
HETATM   18  C6  UNL     1      -3.236  49.941 -26.832  1.00  0.00     0.020 C 
BRANCH  17  19
HETATM   19  C4  UNL     1      -5.018  48.237 -27.346  1.00  0.00     0.222 C 
HETATM   20  N1  UNL     1      -6.139  47.770 -26.691  1.00  0.00    -0.359 N 
HETATM   21  H8  UNL     1      -6.223  47.980 -25.704  1.00  0.00     0.162 HD
HETATM   22  O2  UNL     1      -4.976  48.369 -28.566  1.00  0.00    -0.273 OA
BRANCH  20  23
HETATM   23  C3  UNL     1      -7.385  47.555 -27.406  1.00  0.00     0.148 C 
BRANCH  23  24
HETATM   24  C2  UNL     1      -8.600  47.814 -26.509  1.00  0.00     0.186 C 
BRANCH  24  25
HETATM   25  O1  UNL     1      -9.682  46.932 -26.840  1.00  0.00    -0.394 OA
HETATM   26  C1  UNL     1      -9.513  46.297 -28.100  1.00  0.00     0.201 C 
ENDBRANCH  24  25
ENDBRANCH  23  24
ENDBRANCH  20  23
ENDBRANCH  17  19
ENDBRANCH   1  17
BRANCH  16  27
HETATM   27  O4  UNL     1      -5.006  50.794 -24.669  1.00  0.00    -0.395 OA
HETATM   28  H35 UNL     1      -5.798  51.353 -24.579  1.00  0.00     0.210 HD
ENDBRANCH  16  27
BRANCH  11  29
HETATM   29  C16 UNL     1     -10.017  48.220 -18.808  1.00  0.00     0.240 C 
BRANCH  29  30
HETATM   30  O3  UNL     1     -11.130  48.176 -19.703  1.00  0.00    -0.345 OA
BRANCH  30  31
HETATM   31  C17 UNL     1     -12.404  48.106 -19.218  1.00  0.00     0.070 A 
HETATM   32  C18 UNL     1     -13.536  48.731 -19.741  1.00  0.00     0.037 A 
HETATM   33  C19 UNL     1     -14.781  48.567 -19.124  1.00  0.00     0.004 A 
HETATM   34  C20 UNL     1     -14.901  47.777 -17.981  1.00  0.00     0.024 A 
HETATM   35  C21 UNL     1     -13.771  47.155 -17.457  1.00  0.00     0.036 A 
HETATM   36 CL1  UNL     1     -13.911  46.181 -16.046  1.00  0.00    -0.084 Cl
HETATM   37  C22 UNL     1     -12.531  47.318 -18.069  1.00  0.00     0.060 A 
ENDBRANCH  30  31
ENDBRANCH  29  30
ENDBRANCH  11  29
TORSDOF 9
ENDMDL
MODEL 7
REMARK minimizedAffinity -7.38857555
REMARK CNNscore 0.219182387
REMARK CNNaffinity 5.63046598
REMARK  9 active torsions:
REMARK  status: ('A' for Active; 'I' for Inactive)
REMARK    1  A    between atoms: O1_2  and  C2_3 
REMARK    2  A    between atoms: C2_3  and  C3_4 
REMARK    3  A    between atoms: C3_4  and  N1_5 
REMARK       I    between atoms: N1_5  and  C4_6 
REMARK    4  A    between atoms: C4_6  and  C5_8 
REMARK    5  A    between atoms: C5_8  and  C7_10 
REMARK    6  A    between atoms: C15_20  and  C16_21 
REMARK    7  A    between atoms: C16_21  and  O3_22 
REMARK    8  A    between atoms: O3_22  and  C17_23 
REMARK    9  A    between atoms: C26_34  and  O4_35 
ROOT
HETATM    1  C7  UNL     1      -4.356  48.402 -24.846  1.00  0.00     0.027 C 
HETATM    2  C8  UNL     1      -3.153  48.620 -23.920  1.00  0.00     0.009 C 
HETATM    3  C9  UNL     1      -3.530  48.308 -22.475  1.00  0.00     0.010 C 
HETATM    4  C10 UNL     1      -4.707  49.151 -21.919  1.00  0.00    -0.033 C 
HETATM    5  C11 UNL     1      -4.192  50.600 -21.688  1.00  0.00     0.016 C 
HETATM    6  C12 UNL     1      -5.067  48.580 -20.492  1.00  0.00     0.058 C 
HETATM    7  C13 UNL     1      -6.533  48.454 -20.274  1.00  0.00     0.008 A 
HETATM    8  C14 UNL     1      -7.458  48.234 -21.264  1.00  0.00     0.027 A 
HETATM    9  N2  UNL     1      -8.765  48.132 -20.847  1.00  0.00    -0.354 N 
ATOM     10  H2  UNL     1      -9.570  47.997 -21.459  1.00  0.00     0.166 HD
HETATM   11  C15 UNL     1      -8.816  48.236 -19.531  1.00  0.00     0.076 A 
HETATM   12  S1  UNL     1      -7.295  48.515 -18.758  1.00  0.00    -0.077 SA
HETATM   13  C23 UNL     1      -7.065  48.158 -22.705  1.00  0.00     0.040 C 
HETATM   14  C24 UNL     1      -6.750  46.717 -23.097  1.00  0.00     0.017 C 
HETATM   15  C25 UNL     1      -5.930  49.210 -22.941  1.00  0.00     0.033 C 
HETATM   16  C26 UNL     1      -5.524  49.325 -24.435  1.00  0.00     0.128 C 
ENDROOT
BRANCH   1  17
HETATM   17  C5  UNL     1      -3.934  48.473 -26.346  1.00  0.00     0.080 C 
HETATM   18  C6  UNL     1      -3.248  49.767 -26.784  1.00  0.00     0.020 C 
BRANCH  17  19
HETATM   19  C4  UNL     1      -5.119  48.152 -27.267  1.00  0.00     0.222 C 
HETATM   20  N1  UNL     1      -4.991  48.656 -28.545  1.00  0.00    -0.359 N 
HETATM   21  H8  UNL     1      -4.062  48.915 -28.853  1.00  0.00     0.162 HD
HETATM   22  O2  UNL     1      -6.086  47.481 -26.919  1.00  0.00    -0.273 OA
BRANCH  20  23
HETATM   23  C3  UNL     1      -5.930  48.286 -29.591  1.00  0.00     0.148 C 
BRANCH  23  24
HETATM   24  C2  UNL     1      -5.370  48.596 -30.983  1.00  0.00     0.186 C 
BRANCH  24  25
HETATM   25  O1  UNL     1      -5.848  47.651 -31.952  1.00  0.00    -0.394 OA
HETATM   26  C1  UNL     1      -5.731  46.304 -31.516  1.00  0.00     0.201 C 
ENDBRANCH  24  25
ENDBRANCH  23  24
ENDBRANCH  20  23
ENDBRANCH  17  19
ENDBRANCH   1  17
BRANCH  16  27
HETATM   27  O4  UNL     1      -5.151  50.685 -24.680  1.00  0.00    -0.395 OA
HETATM   28  H35 UNL     1      -5.960  51.222 -24.610  1.00  0.00     0.210 HD
ENDBRANCH  16  27
BRANCH  11  29
HETATM   29  C16 UNL     1     -10.079  48.170 -18.724  1.00  0.00     0.240 C 
BRANCH  29  30
HETATM   30  O3  UNL     1     -11.197  48.205 -19.614  1.00  0.00    -0.345 OA
BRANCH  30  31
HETATM   31  C17 UNL     1     -12.469  48.114 -19.128  1.00  0.00     0.070 A 
HETATM   32  C18 UNL     1     -13.611  48.723 -19.648  1.00  0.00     0.037 A 
HETATM   33  C19 UNL     1     -14.853  48.537 -19.031  1.00  0.00     0.004 A 
HETATM   34  C20 UNL     1     -14.960  47.741 -17.891  1.00  0.00     0.024 A 
HETATM   35  C21 UNL     1     -13.820  47.134 -17.371  1.00  0.00     0.036 A 
HETATM   36 CL1  UNL     1     -13.943  46.152 -15.963  1.00  0.00    -0.084 Cl
HETATM   37  C22 UNL     1     -12.583  47.319 -17.982  1.00  0.00     0.060 A 
ENDBRANCH  30  31
ENDBRANCH  29  30
ENDBRANCH  11  29
TORSDOF 9
ENDMDL
MODEL 8
REMARK minimizedAffinity -7.12109709
REMARK CNNscore 0.210382879
REMARK CNNaffinity 7.13929749
REMARK  9 active torsions:
REMARK  status: ('A' for Active; 'I' for Inactive)
REMARK    1  A    between atoms: O1_2  and  C2_3 
REMARK    2  A    between atoms: C2_3  and  C3_4 
REMARK    3  A    between atoms: C3_4  and  N1_5 
REMARK       I    between atoms: N1_5  and  C4_6 
REMARK    4  A    between atoms: C4_6  and  C5_8 
REMARK    5  A    between atoms: C5_8  and  C7_10 
REMARK    6  A    between atoms: C15_20  and  C16_21 
REMARK    7  A    between atoms: C16_21  and  O3_22 
REMARK    8  A    between atoms: O3_22  and  C17_23 
REMARK    9  A    between atoms: C26_34  and  O4_35 
ROOT
HETATM    1  C7  UNL     1       1.886  51.623 -12.667  1.00  0.00     0.027 C 
HETATM    2  C8  UNL     1       1.361  50.183 -12.593  1.00  0.00     0.009 C 
HETATM    3  C9  UNL     1       1.163  49.617 -13.996  1.00  0.00     0.010 C 
HETATM    4  C10 UNL     1       0.185  50.426 -14.886  1.00  0.00    -0.033 C 
HETATM    5  C11 UNL     1      -1.258  50.180 -14.360  1.00  0.00     0.016 C 
HETATM    6  C12 UNL     1       0.237  49.802 -16.336  1.00  0.00     0.058 C 
HETATM    7  C13 UNL     1       0.285  50.834 -17.406  1.00  0.00     0.008 A 
HETATM    8  C14 UNL     1       0.832  52.085 -17.267  1.00  0.00     0.027 A 
HETATM    9  N2  UNL     1       0.790  52.882 -18.386  1.00  0.00    -0.354 N 
ATOM     10  H2  UNL     1       1.128  53.844 -18.438  1.00  0.00     0.166 HD
HETATM   11  C15 UNL     1       0.243  52.211 -19.385  1.00  0.00     0.076 A 
HETATM   12  S1  UNL     1      -0.286  50.614 -18.989  1.00  0.00    -0.077 SA
HETATM   13  C23 UNL     1       1.394  52.557 -15.964  1.00  0.00     0.040 C 
HETATM   14  C24 UNL     1       2.881  52.228 -15.872  1.00  0.00     0.017 C 
HETATM   15  C25 UNL     1       0.481  51.991 -14.824  1.00  0.00     0.033 C 
HETATM   16  C26 UNL     1       0.882  52.521 -13.420  1.00  0.00     0.128 C 
ENDROOT
BRANCH   1  17
HETATM   17  C5  UNL     1       2.329  52.135 -11.261  1.00  0.00     0.080 C 
HETATM   18  C6  UNL     1       2.638  51.053 -10.225  1.00  0.00     0.020 C 
BRANCH  17  19
HETATM   19  C4  UNL     1       1.322  53.147 -10.701  1.00  0.00     0.222 C 
HETATM   20  N1  UNL     1       0.351  52.589  -9.895  1.00  0.00    -0.359 N 
HETATM   21  H8  UNL     1       0.537  51.671  -9.509  1.00  0.00     0.162 HD
HETATM   22  O2  UNL     1       1.382  54.355 -10.917  1.00  0.00    -0.273 OA
BRANCH  20  23
HETATM   23  C3  UNL     1      -0.563  53.426  -9.137  1.00  0.00     0.148 C 
BRANCH  23  24
HETATM   24  C2  UNL     1      -2.024  53.114  -9.477  1.00  0.00     0.186 C 
BRANCH  24  25
HETATM   25  O1  UNL     1      -2.115  52.008 -10.387  1.00  0.00    -0.394 OA
HETATM   26  C1  UNL     1      -2.907  50.941  -9.884  1.00  0.00     0.201 C 
ENDBRANCH  24  25
ENDBRANCH  23  24
ENDBRANCH  20  23
ENDBRANCH  17  19
ENDBRANCH   1  17
BRANCH  16  27
HETATM   27  O4  UNL     1      -0.315  52.637 -12.643  1.00  0.00    -0.395 OA
HETATM   28  H35 UNL     1      -0.841  53.358 -13.030  1.00  0.00     0.210 HD
ENDBRANCH  16  27
BRANCH  11  29
HETATM   29  C16 UNL     1       0.035  52.762 -20.763  1.00  0.00     0.240 C 
BRANCH  29  30
HETATM   30  O3  UNL     1      -1.091  52.110 -21.356  1.00  0.00    -0.345 OA
BRANCH  30  31
HETATM   31  C17 UNL     1      -1.291  52.167 -22.704  1.00  0.00     0.070 A 
HETATM   32  C18 UNL     1      -2.511  52.309 -23.366  1.00  0.00     0.037 A 
HETATM   33  C19 UNL     1      -2.555  52.346 -24.765  1.00  0.00     0.004 A 
HETATM   34  C20 UNL     1      -1.380  52.240 -25.508  1.00  0.00     0.024 A 
HETATM   35  C21 UNL     1      -0.163  52.096 -24.848  1.00  0.00     0.036 A 
HETATM   36 CL1  UNL     1       1.291  51.963 -25.759  1.00  0.00    -0.084 Cl
HETATM   37  C22 UNL     1      -0.117  52.058 -23.457  1.00  0.00     0.060 A 
ENDBRANCH  30  31
ENDBRANCH  29  30
ENDBRANCH  11  29
TORSDOF 9
ENDMDL
MODEL 9
REMARK minimizedAffinity -7.02809811
REMARK CNNscore 0.199356094
REMARK CNNaffinity 6.12930679
REMARK  9 active torsions:
REMARK  status: ('A' for Active; 'I' for Inactive)
REMARK    1  A    between atoms: O1_2  and  C2_3 
REMARK    2  A    between atoms: C2_3  and  C3_4 
REMARK    3  A    between atoms: C3_4  and  N1_5 
REMARK       I    between atoms: N1_5  and  C4_6 
REMARK    4  A    between atoms: C4_6  and  C5_8 
REMARK    5  A    between atoms: C5_8  and  C7_10 
REMARK    6  A    between atoms: C15_20  and  C16_21 
REMARK    7  A    between atoms: C16_21  and  O3_22 
REMARK    8  A    between atoms: O3_22  and  C17_23 
REMARK    9  A    between atoms: C26_34  and  O4_35 
ROOT
HETATM    1  C7  UNL     1      -1.129  51.494 -20.539  1.00  0.00     0.027 C 
HETATM    2  C8  UNL     1      -0.654  50.066 -20.244  1.00  0.00     0.009 C 
HETATM    3  C9  UNL     1      -1.434  49.061 -21.085  1.00  0.00     0.010 C 
HETATM    4  C10 UNL     1      -2.970  49.095 -20.873  1.00  0.00    -0.033 C 
HETATM    5  C11 UNL     1      -3.275  48.476 -19.479  1.00  0.00     0.016 C 
HETATM    6  C12 UNL     1      -3.617  48.125 -21.936  1.00  0.00     0.058 C 
HETATM    7  C13 UNL     1      -4.827  48.701 -22.581  1.00  0.00     0.008 A 
HETATM    8  C14 UNL     1      -5.053  50.041 -22.770  1.00  0.00     0.027 A 
HETATM    9  N2  UNL     1      -6.230  50.364 -23.404  1.00  0.00    -0.354 N 
ATOM     10  H2  UNL     1      -6.556  51.312 -23.594  1.00  0.00     0.166 HD
HETATM   11  C15 UNL     1      -6.873  49.257 -23.730  1.00  0.00     0.076 A 
HETATM   12  S1  UNL     1      -6.104  47.791 -23.232  1.00  0.00    -0.077 SA
HETATM   13  C23 UNL     1      -4.096  51.078 -22.274  1.00  0.00     0.040 C 
HETATM   14  C24 UNL     1      -3.063  51.410 -23.347  1.00  0.00     0.017 C 
HETATM   15  C25 UNL     1      -3.539  50.584 -20.896  1.00  0.00     0.033 C 
HETATM   16  C26 UNL     1      -2.631  51.638 -20.208  1.00  0.00     0.128 C 
ENDROOT
BRANCH   1  17
HETATM   17  C5  UNL     1      -0.187  52.550 -19.883  1.00  0.00     0.080 C 
HETATM   18  C6  UNL     1       1.076  52.898 -20.672  1.00  0.00     0.020 C 
BRANCH  17  19
HETATM   19  C4  UNL     1       0.168  52.154 -18.444  1.00  0.00     0.222 C 
HETATM   20  N1  UNL     1       1.256  52.826 -17.927  1.00  0.00    -0.359 N 
HETATM   21  H8  UNL     1       1.532  53.686 -18.383  1.00  0.00     0.162 HD
HETATM   22  O2  UNL     1      -0.472  51.335 -17.789  1.00  0.00    -0.273 OA
BRANCH  20  23
HETATM   23  C3  UNL     1       1.608  52.707 -16.522  1.00  0.00     0.148 C 
BRANCH  23  24
HETATM   24  C2  UNL     1       1.754  51.241 -16.102  1.00  0.00     0.186 C 
BRANCH  24  25
HETATM   25  O1  UNL     1       1.044  50.983 -14.881  1.00  0.00    -0.394 OA
HETATM   26  C1  UNL     1       0.729  52.168 -14.163  1.00  0.00     0.201 C 
ENDBRANCH  24  25
ENDBRANCH  23  24
ENDBRANCH  20  23
ENDBRANCH  17  19
ENDBRANCH   1  17
BRANCH  16  27
HETATM   27  O4  UNL     1      -2.810  51.508 -18.793  1.00  0.00    -0.395 OA
HETATM   28  H35 UNL     1      -3.715  51.802 -18.590  1.00  0.00     0.210 HD
ENDBRANCH  16  27
BRANCH  11  29
HETATM   29  C16 UNL     1      -8.195  49.221 -24.437  1.00  0.00     0.240 C 
BRANCH  29  30
HETATM   30  O3  UNL     1      -8.559  47.857 -24.665  1.00  0.00    -0.345 OA
BRANCH  30  31
HETATM   31  C17 UNL     1      -9.863  47.518 -24.883  1.00  0.00     0.070 A 
HETATM   32  C18 UNL     1     -10.704  46.822 -24.014  1.00  0.00     0.037 A 
HETATM   33  C19 UNL     1     -12.025  46.542 -24.384  1.00  0.00     0.004 A 
HETATM   34  C20 UNL     1     -12.510  46.957 -25.624  1.00  0.00     0.024 A 
HETATM   35  C21 UNL     1     -11.671  47.650 -26.491  1.00  0.00     0.036 A 
HETATM   36 CL1  UNL     1     -12.263  48.163 -28.023  1.00  0.00    -0.084 Cl
HETATM   37  C22 UNL     1     -10.356  47.928 -26.126  1.00  0.00     0.060 A 
ENDBRANCH  30  31
ENDBRANCH  29  30
ENDBRANCH  11  29
TORSDOF 9
ENDMDL
