MODEL 1
REMARK minimizedAffinity -7.00563192
REMARK CNNscore 0.319740742
REMARK CNNaffinity 6.18727303
REMARK  13 active torsions:
REMARK  status: ('A' for Active; 'I' for Inactive)
REMARK    1  A    between atoms: O1_2  and  C2_3 
REMARK    2  A    between atoms: C3_5  and  C4_6 
REMARK    3  A    between atoms: C4_6  and  O3_7 
REMARK    4  A    between atoms: C4_6  and  C5_8 
REMARK    5  A    between atoms: C5_8  and  O4_10 
REMARK    6  A    between atoms: C5_8  and  C7_11 
REMARK    7  A    between atoms: C7_11  and  O5_12 
REMARK    8  A    between atoms: C9_14  and  C10_15 
REMARK    9  A    between atoms: C23_28  and  O6_29 
REMARK   10  A    between atoms: O6_29  and  C24_30 
REMARK   11  A    between atoms: C24_30  and  C25_32 
REMARK   12  A    between atoms: C25_32  and  C26_33 
REMARK   13  A    between atoms: C34_41  and  O8_42 
ROOT
HETATM    1  C10 UNL     1      -9.654  -7.963  -3.421  1.00  0.00     0.004 C 
HETATM    2  C11 UNL     1     -11.121  -7.821  -2.943  1.00  0.00     0.007 C 
HETATM    3  C12 UNL     1     -11.183  -8.588  -1.615  1.00  0.00     0.011 C 
HETATM    4  C13 UNL     1      -9.776  -8.492  -1.036  1.00  0.00    -0.021 A 
HETATM    5  C14 UNL     1      -9.198  -7.094  -0.970  1.00  0.00     0.022 A 
HETATM    6  C15 UNL     1      -8.843  -8.013  -2.130  1.00  0.00    -0.027 A 
HETATM    7  C16 UNL     1      -7.415  -8.503  -2.202  1.00  0.00     0.011 C 
HETATM    8  C17 UNL     1      -7.051  -9.640  -1.239  1.00  0.00     0.007 C 
HETATM    9  C18 UNL     1      -7.736  -9.517   0.137  1.00  0.00     0.005 C 
HETATM   10  C19 UNL     1      -7.086 -10.398   1.294  1.00  0.00    -0.035 C 
HETATM   11  C20 UNL     1      -6.999 -11.893   0.911  1.00  0.00     0.016 C 
HETATM   12  C21 UNL     1      -5.617  -9.894   1.528  1.00  0.00     0.012 C 
HETATM   13  C22 UNL     1      -5.215  -9.702   2.995  1.00  0.00     0.034 C 
HETATM   14  C23 UNL     1      -5.756 -10.785   3.929  1.00  0.00     0.140 C 
HETATM   15  C29 UNL     1      -7.324 -10.839   3.915  1.00  0.00    -0.016 C 
HETATM   16  C30 UNL     1      -7.848 -12.272   4.148  1.00  0.00     0.018 C 
HETATM   17  C31 UNL     1      -7.808  -9.999   5.135  1.00  0.00     0.018 C 
HETATM   18  C32 UNL     1      -7.910 -10.162   2.610  1.00  0.00     0.007 C 
HETATM   19  C33 UNL     1      -9.426 -10.396   2.391  1.00  0.00     0.038 C 
HETATM   20  C34 UNL     1     -10.004  -9.451   1.326  1.00  0.00     0.128 C 
HETATM   21  C35 UNL     1      -9.300  -9.613  -0.051  1.00  0.00    -0.005 C 
HETATM   22  C36 UNL     1      -9.726 -10.980  -0.662  1.00  0.00     0.019 C 
ENDROOT
BRANCH   1  23
HETATM   23  C9  UNL     1      -9.323  -6.918  -4.493  1.00  0.00     0.048 C 
HETATM   24  C2  UNL     1      -9.612  -7.190  -5.967  1.00  0.00     0.264 C 
HETATM   25  O2  UNL     1      -9.379  -5.926  -6.611  1.00  0.00    -0.353 OA
HETATM   26  C3  UNL     1      -9.526  -4.867  -5.636  1.00  0.00     0.157 C 
HETATM   27  C8  UNL     1      -9.962  -5.552  -4.338  1.00  0.00     0.044 C 
BRANCH  24  28
HETATM   28  O1  UNL     1     -10.970  -7.540  -6.198  1.00  0.00    -0.366 OA
HETATM   29  C1  UNL     1     -11.111  -8.401  -7.320  1.00  0.00     0.204 C 
ENDBRANCH  24  28
BRANCH  26  30
HETATM   30  C4  UNL     1     -10.553  -3.829  -6.136  1.00  0.00     0.183 C 
BRANCH  30  31
HETATM   31  O3  UNL     1     -10.361  -3.586  -7.537  1.00  0.00    -0.390 OA
HETATM   32  H7  UNL     1      -9.450  -3.884  -7.745  1.00  0.00     0.210 HD
ENDBRANCH  30  31
BRANCH  30  33
HETATM   33  C5  UNL     1     -10.592  -2.485  -5.346  1.00  0.00     0.103 C 
HETATM   34  C6  UNL     1     -11.757  -1.615  -5.843  1.00  0.00     0.051 C 
BRANCH  33  35
HETATM   35  O4  UNL     1     -10.825  -2.769  -3.944  1.00  0.00    -0.385 OA
HETATM   36  H11 UNL     1     -11.750  -3.064  -3.857  1.00  0.00     0.210 HD
ENDBRANCH  33  35
BRANCH  33  37
HETATM   37  C7  UNL     1      -9.290  -1.661  -5.418  1.00  0.00     0.204 C 
BRANCH  37  38
HETATM   38  O5  UNL     1      -8.410  -2.012  -4.350  1.00  0.00    -0.398 OA
HETATM   39  H14 UNL     1      -9.001  -2.152  -3.583  1.00  0.00     0.209 HD
ENDBRANCH  37  38
ENDBRANCH  33  37
ENDBRANCH  30  33
ENDBRANCH  26  30
ENDBRANCH   1  23
BRANCH  20  40
HETATM   40  O8  UNL     1      -9.867  -8.111   1.812  1.00  0.00    -0.395 OA
HETATM   41  H57 UNL     1     -10.423  -8.030   2.605  1.00  0.00     0.210 HD
ENDBRANCH  20  40
BRANCH  14  42
HETATM   42  O6  UNL     1      -5.160 -12.031   3.514  1.00  0.00    -0.315 OA
BRANCH  42  43
HETATM   43  C24 UNL     1      -3.963 -12.376   4.074  1.00  0.00     0.259 C 
HETATM   44  O7  UNL     1      -2.887 -12.359   3.498  1.00  0.00    -0.265 OA
BRANCH  43  45
HETATM   45  C25 UNL     1      -4.199 -12.751   5.523  1.00  0.00     0.115 C 
BRANCH  45  46
HETATM   46  C26 UNL     1      -3.635 -11.787   6.579  1.00  0.00    -0.013 C 
HETATM   47  C27 UNL     1      -2.778 -10.678   5.965  1.00  0.00     0.010 C 
HETATM   48  C28 UNL     1      -4.716 -11.212   7.494  1.00  0.00     0.010 C 
ENDBRANCH  45  46
ENDBRANCH  43  45
ENDBRANCH  42  43
ENDBRANCH  14  42
TORSDOF 13
ENDMDL
MODEL 2
REMARK minimizedAffinity -8.51871681
REMARK CNNscore 0.302382201
REMARK CNNaffinity 6.74890709
REMARK  13 active torsions:
REMARK  status: ('A' for Active; 'I' for Inactive)
REMARK    1  A    between atoms: O1_2  and  C2_3 
REMARK    2  A    between atoms: C3_5  and  C4_6 
REMARK    3  A    between atoms: C4_6  and  O3_7 
REMARK    4  A    between atoms: C4_6  and  C5_8 
REMARK    5  A    between atoms: C5_8  and  O4_10 
REMARK    6  A    between atoms: C5_8  and  C7_11 
REMARK    7  A    between atoms: C7_11  and  O5_12 
REMARK    8  A    between atoms: C9_14  and  C10_15 
REMARK    9  A    between atoms: C23_28  and  O6_29 
REMARK   10  A    between atoms: O6_29  and  C24_30 
REMARK   11  A    between atoms: C24_30  and  C25_32 
REMARK   12  A    between atoms: C25_32  and  C26_33 
REMARK   13  A    between atoms: C34_41  and  O8_42 
ROOT
HETATM    1  C10 UNL     1      -4.625   7.298  15.031  1.00  0.00     0.004 C 
HETATM    2  C11 UNL     1      -5.395   8.318  14.153  1.00  0.00     0.007 C 
HETATM    3  C12 UNL     1      -4.796   9.685  14.512  1.00  0.00     0.011 C 
HETATM    4  C13 UNL     1      -3.360   9.390  14.933  1.00  0.00    -0.021 A 
HETATM    5  C14 UNL     1      -2.561   8.549  13.960  1.00  0.00     0.022 A 
HETATM    6  C15 UNL     1      -3.228   7.898  15.163  1.00  0.00    -0.027 A 
HETATM    7  C16 UNL     1      -2.317   7.357  16.240  1.00  0.00     0.011 C 
HETATM    8  C17 UNL     1      -1.712   8.400  17.188  1.00  0.00     0.007 C 
HETATM    9  C18 UNL     1      -1.343   9.722  16.485  1.00  0.00     0.005 C 
HETATM   10  C19 UNL     1      -0.344  10.660  17.296  1.00  0.00    -0.035 C 
HETATM   11  C20 UNL     1      -0.864  10.978  18.716  1.00  0.00     0.016 C 
HETATM   12  C21 UNL     1       1.019   9.897  17.462  1.00  0.00     0.012 C 
HETATM   13  C22 UNL     1       2.275  10.725  17.164  1.00  0.00     0.034 C 
HETATM   14  C23 UNL     1       2.197  12.167  17.668  1.00  0.00     0.140 C 
HETATM   15  C29 UNL     1       1.000  12.949  17.020  1.00  0.00    -0.016 C 
HETATM   16  C30 UNL     1       0.419  14.003  17.984  1.00  0.00     0.018 C 
HETATM   17  C31 UNL     1       1.590  13.742  15.815  1.00  0.00     0.018 C 
HETATM   18  C32 UNL     1      -0.090  11.955  16.446  1.00  0.00     0.007 C 
HETATM   19  C33 UNL     1      -1.416  12.635  16.020  1.00  0.00     0.038 C 
HETATM   20  C34 UNL     1      -2.289  11.703  15.166  1.00  0.00     0.128 C 
HETATM   21  C35 UNL     1      -2.654  10.388  15.912  1.00  0.00    -0.005 C 
HETATM   22  C36 UNL     1      -3.671  10.729  17.041  1.00  0.00     0.019 C 
ENDROOT
BRANCH   1  23
HETATM   23  C9  UNL     1      -4.798   5.872  14.496  1.00  0.00     0.048 C 
HETATM   24  C2  UNL     1      -6.163   5.373  14.028  1.00  0.00     0.264 C 
HETATM   25  O2  UNL     1      -5.881   4.107  13.408  1.00  0.00    -0.353 OA
HETATM   26  C3  UNL     1      -4.497   4.087  12.988  1.00  0.00     0.157 C 
HETATM   27  C8  UNL     1      -3.942   5.478  13.309  1.00  0.00     0.044 C 
BRANCH  24  28
HETATM   28  O1  UNL     1      -6.738   6.213  13.036  1.00  0.00    -0.366 OA
HETATM   29  C1  UNL     1      -8.080   5.846  12.746  1.00  0.00     0.204 C 
ENDBRANCH  24  28
BRANCH  26  30
HETATM   30  C4  UNL     1      -4.406   3.741  11.486  1.00  0.00     0.183 C 
BRANCH  30  31
HETATM   31  O3  UNL     1      -5.547   2.964  11.093  1.00  0.00    -0.390 OA
HETATM   32  H7  UNL     1      -5.918   2.585  11.918  1.00  0.00     0.210 HD
ENDBRANCH  30  31
BRANCH  30  33
HETATM   33  C5  UNL     1      -3.086   3.047  11.032  1.00  0.00     0.103 C 
HETATM   34  C6  UNL     1      -3.112   1.559  11.420  1.00  0.00     0.051 C 
BRANCH  33  35
HETATM   35  O4  UNL     1      -2.987   3.120   9.588  1.00  0.00    -0.385 OA
HETATM   36  H11 UNL     1      -3.654   2.512   9.220  1.00  0.00     0.210 HD
ENDBRANCH  33  35
BRANCH  33  37
HETATM   37  C7  UNL     1      -1.799   3.684  11.596  1.00  0.00     0.204 C 
BRANCH  37  38
HETATM   38  O5  UNL     1      -0.646   3.161  10.935  1.00  0.00    -0.398 OA
HETATM   39  H14 UNL     1      -0.849   2.213  10.803  1.00  0.00     0.209 HD
ENDBRANCH  37  38
ENDBRANCH  33  37
ENDBRANCH  30  33
ENDBRANCH  26  30
ENDBRANCH   1  23
BRANCH  20  40
HETATM   40  O8  UNL     1      -1.574  11.421  13.959  1.00  0.00    -0.395 OA
HETATM   41  H57 UNL     1      -1.479  12.257  13.473  1.00  0.00     0.210 HD
ENDBRANCH  20  40
BRANCH  14  42
HETATM   42  O6  UNL     1       2.096  12.102  19.105  1.00  0.00    -0.315 OA
BRANCH  42  43
HETATM   43  C24 UNL     1       2.928  11.239  19.758  1.00  0.00     0.259 C 
HETATM   44  O7  UNL     1       4.114  11.084  19.513  1.00  0.00    -0.265 OA
BRANCH  43  45
HETATM   45  C25 UNL     1       2.139  10.538  20.845  1.00  0.00     0.115 C 
BRANCH  45  46
HETATM   46  C26 UNL     1       2.957   9.795  21.913  1.00  0.00    -0.013 C 
HETATM   47  C27 UNL     1       3.348  10.695  23.087  1.00  0.00     0.010 C 
HETATM   48  C28 UNL     1       2.276   8.515  22.398  1.00  0.00     0.010 C 
ENDBRANCH  45  46
ENDBRANCH  43  45
ENDBRANCH  42  43
ENDBRANCH  14  42
TORSDOF 13
ENDMDL
MODEL 3
REMARK minimizedAffinity -6.42952681
REMARK CNNscore 0.289996266
REMARK CNNaffinity 6.29758787
REMARK  13 active torsions:
REMARK  status: ('A' for Active; 'I' for Inactive)
REMARK    1  A    between atoms: O1_2  and  C2_3 
REMARK    2  A    between atoms: C3_5  and  C4_6 
REMARK    3  A    between atoms: C4_6  and  O3_7 
REMARK    4  A    between atoms: C4_6  and  C5_8 
REMARK    5  A    between atoms: C5_8  and  O4_10 
REMARK    6  A    between atoms: C5_8  and  C7_11 
REMARK    7  A    between atoms: C7_11  and  O5_12 
REMARK    8  A    between atoms: C9_14  and  C10_15 
REMARK    9  A    between atoms: C23_28  and  O6_29 
REMARK   10  A    between atoms: O6_29  and  C24_30 
REMARK   11  A    between atoms: C24_30  and  C25_32 
REMARK   12  A    between atoms: C25_32  and  C26_33 
REMARK   13  A    between atoms: C34_41  and  O8_42 
ROOT
HETATM    1  C10 UNL     1      -2.086  13.567  19.107  1.00  0.00     0.004 C 
HETATM    2  C11 UNL     1      -0.790  14.239  18.584  1.00  0.00     0.007 C 
HETATM    3  C12 UNL     1      -0.237  13.270  17.530  1.00  0.00     0.011 C 
HETATM    4  C13 UNL     1      -1.460  12.552  16.970  1.00  0.00    -0.021 A 
HETATM    5  C14 UNL     1      -2.588  13.455  16.517  1.00  0.00     0.022 A 
HETATM    6  C15 UNL     1      -2.631  12.814  17.897  1.00  0.00    -0.027 A 
HETATM    7  C16 UNL     1      -3.688  11.760  18.128  1.00  0.00     0.011 C 
HETATM    8  C17 UNL     1      -3.390  10.376  17.537  1.00  0.00     0.007 C 
HETATM    9  C18 UNL     1      -2.675  10.437  16.172  1.00  0.00     0.005 C 
HETATM   10  C19 UNL     1      -2.722   9.089  15.326  1.00  0.00    -0.035 C 
HETATM   11  C20 UNL     1      -2.179   7.880  16.121  1.00  0.00     0.016 C 
HETATM   12  C21 UNL     1      -4.223   8.779  14.981  1.00  0.00     0.012 C 
HETATM   13  C22 UNL     1      -4.493   8.374  13.527  1.00  0.00     0.034 C 
HETATM   14  C23 UNL     1      -3.419   7.461  12.933  1.00  0.00     0.140 C 
HETATM   15  C29 UNL     1      -2.005   8.141  12.937  1.00  0.00    -0.016 C 
HETATM   16  C30 UNL     1      -0.875   7.106  13.115  1.00  0.00     0.018 C 
HETATM   17  C31 UNL     1      -1.806   8.758  11.521  1.00  0.00     0.018 C 
HETATM   18  C32 UNL     1      -1.941   9.325  13.985  1.00  0.00     0.007 C 
HETATM   19  C33 UNL     1      -0.517   9.883  14.236  1.00  0.00     0.038 C 
HETATM   20  C34 UNL     1      -0.551  11.228  14.978  1.00  0.00     0.128 C 
HETATM   21  C35 UNL     1      -1.266  11.125  16.355  1.00  0.00    -0.005 C 
HETATM   22  C36 UNL     1      -0.351  10.321  17.325  1.00  0.00     0.019 C 
ENDROOT
BRANCH   1  23
HETATM   23  C9  UNL     1      -2.971  14.581  19.840  1.00  0.00     0.048 C 
HETATM   24  C2  UNL     1      -3.083  16.022  19.349  1.00  0.00     0.264 C 
HETATM   25  O2  UNL     1      -4.146  16.582  20.139  1.00  0.00    -0.353 OA
HETATM   26  C3  UNL     1      -4.994  15.511  20.613  1.00  0.00     0.157 C 
HETATM   27  C8  UNL     1      -4.439  14.229  19.986  1.00  0.00     0.044 C 
BRANCH  24  28
HETATM   28  O1  UNL     1      -3.479  16.103  17.986  1.00  0.00    -0.366 OA
HETATM   29  C1  UNL     1      -2.754  17.103  17.283  1.00  0.00     0.204 C 
ENDBRANCH  24  28
BRANCH  26  30
HETATM   30  C4  UNL     1      -6.460  15.783  20.214  1.00  0.00     0.183 C 
BRANCH  30  31
HETATM   31  O3  UNL     1      -7.341  14.976  21.009  1.00  0.00    -0.390 OA
HETATM   32  H7  UNL     1      -6.796  14.243  21.366  1.00  0.00     0.210 HD
ENDBRANCH  30  31
BRANCH  30  33
HETATM   33  C5  UNL     1      -6.787  15.622  18.698  1.00  0.00     0.103 C 
HETATM   34  C6  UNL     1      -8.298  15.783  18.464  1.00  0.00     0.051 C 
BRANCH  33  35
HETATM   35  O4  UNL     1      -6.116  16.671  17.957  1.00  0.00    -0.385 OA
HETATM   36  H11 UNL     1      -6.573  17.508  18.159  1.00  0.00     0.210 HD
ENDBRANCH  33  35
BRANCH  33  37
HETATM   37  C7  UNL     1      -6.328  14.284  18.081  1.00  0.00     0.204 C 
BRANCH  37  38
HETATM   38  O5  UNL     1      -6.602  14.254  16.679  1.00  0.00    -0.398 OA
HETATM   39  H14 UNL     1      -7.467  14.702  16.590  1.00  0.00     0.209 HD
ENDBRANCH  37  38
ENDBRANCH  33  37
ENDBRANCH  30  33
ENDBRANCH  26  30
ENDBRANCH   1  23
BRANCH  20  40
HETATM   40  O8  UNL     1      -1.212  12.175  14.131  1.00  0.00    -0.395 OA
HETATM   41  H57 UNL     1      -0.662  12.293  13.339  1.00  0.00     0.210 HD
ENDBRANCH  20  40
BRANCH  14  42
HETATM   42  O6  UNL     1      -3.442   6.237  13.696  1.00  0.00    -0.315 OA
BRANCH  42  43
HETATM   43  C24 UNL     1      -4.279   5.245  13.274  1.00  0.00     0.259 C 
HETATM   44  O7  UNL     1      -5.443   5.401  12.940  1.00  0.00    -0.265 OA
BRANCH  43  45
HETATM   45  C25 UNL     1      -3.512   3.938  13.267  1.00  0.00     0.115 C 
BRANCH  45  46
HETATM   46  C26 UNL     1      -3.529   3.142  11.952  1.00  0.00    -0.013 C 
HETATM   47  C27 UNL     1      -4.925   2.626  11.594  1.00  0.00     0.010 C 
HETATM   48  C28 UNL     1      -2.906   3.910  10.786  1.00  0.00     0.010 C 
ENDBRANCH  45  46
ENDBRANCH  43  45
ENDBRANCH  42  43
ENDBRANCH  14  42
TORSDOF 13
ENDMDL
MODEL 4
REMARK minimizedAffinity -8.15242004
REMARK CNNscore 0.289795369
REMARK CNNaffinity 6.59116888
REMARK  13 active torsions:
REMARK  status: ('A' for Active; 'I' for Inactive)
REMARK    1  A    between atoms: O1_2  and  C2_3 
REMARK    2  A    between atoms: C3_5  and  C4_6 
REMARK    3  A    between atoms: C4_6  and  O3_7 
REMARK    4  A    between atoms: C4_6  and  C5_8 
REMARK    5  A    between atoms: C5_8  and  O4_10 
REMARK    6  A    between atoms: C5_8  and  C7_11 
REMARK    7  A    between atoms: C7_11  and  O5_12 
REMARK    8  A    between atoms: C9_14  and  C10_15 
REMARK    9  A    between atoms: C23_28  and  O6_29 
REMARK   10  A    between atoms: O6_29  and  C24_30 
REMARK   11  A    between atoms: C24_30  and  C25_32 
REMARK   12  A    between atoms: C25_32  and  C26_33 
REMARK   13  A    between atoms: C34_41  and  O8_42 
ROOT
HETATM    1  C10 UNL     1      -0.439   7.555  13.782  1.00  0.00     0.004 C 
HETATM    2  C11 UNL     1       0.108   6.803  15.022  1.00  0.00     0.007 C 
HETATM    3  C12 UNL     1      -0.058   7.786  16.189  1.00  0.00     0.011 C 
HETATM    4  C13 UNL     1      -1.255   8.652  15.811  1.00  0.00    -0.021 A 
HETATM    5  C14 UNL     1      -2.498   7.892  15.400  1.00  0.00     0.022 A 
HETATM    6  C15 UNL     1      -1.552   8.437  14.340  1.00  0.00    -0.027 A 
HETATM    7  C16 UNL     1      -2.067   9.567  13.479  1.00  0.00     0.011 C 
HETATM    8  C17 UNL     1      -2.072  10.954  14.133  1.00  0.00     0.007 C 
HETATM    9  C18 UNL     1      -2.440  10.921  15.631  1.00  0.00     0.005 C 
HETATM   10  C19 UNL     1      -2.874  12.323  16.249  1.00  0.00    -0.035 C 
HETATM   11  C20 UNL     1      -1.807  13.418  16.021  1.00  0.00     0.016 C 
HETATM   12  C21 UNL     1      -4.184  12.795  15.522  1.00  0.00     0.012 C 
HETATM   13  C22 UNL     1      -5.292  13.323  16.442  1.00  0.00     0.034 C 
HETATM   14  C23 UNL     1      -4.774  14.171  17.605  1.00  0.00     0.140 C 
HETATM   15  C29 UNL     1      -3.795  13.363  18.528  1.00  0.00    -0.016 C 
HETATM   16  C30 UNL     1      -2.715  14.273  19.148  1.00  0.00     0.018 C 
HETATM   17  C31 UNL     1      -4.646  12.829  19.718  1.00  0.00     0.018 C 
HETATM   18  C32 UNL     1      -3.197  12.108  17.770  1.00  0.00     0.007 C 
HETATM   19  C33 UNL     1      -2.034  11.404  18.514  1.00  0.00     0.038 C 
HETATM   20  C34 UNL     1      -1.730  10.020  17.921  1.00  0.00     0.128 C 
HETATM   21  C35 UNL     1      -1.348  10.094  16.415  1.00  0.00    -0.005 C 
HETATM   22  C36 UNL     1       0.063  10.740  16.296  1.00  0.00     0.019 C 
ENDROOT
BRANCH   1  23
HETATM   23  C9  UNL     1      -0.737   6.580  12.637  1.00  0.00     0.048 C 
HETATM   24  C2  UNL     1       0.290   6.328  11.536  1.00  0.00     0.264 C 
HETATM   25  O2  UNL     1      -0.250   5.221  10.796  1.00  0.00    -0.353 OA
HETATM   26  C3  UNL     1      -1.154   4.481  11.649  1.00  0.00     0.157 C 
HETATM   27  C8  UNL     1      -1.077   5.154  13.023  1.00  0.00     0.044 C 
BRANCH  24  28
HETATM   28  O1  UNL     1       1.550   5.920  12.052  1.00  0.00    -0.366 OA
HETATM   29  C1  UNL     1       2.610   6.733  11.566  1.00  0.00     0.204 C 
ENDBRANCH  24  28
BRANCH  26  30
HETATM   30  C4  UNL     1      -0.743   2.994  11.690  1.00  0.00     0.183 C 
BRANCH  30  31
HETATM   31  O3  UNL     1       0.610   2.848  11.235  1.00  0.00    -0.390 OA
HETATM   32  H7  UNL     1       0.817   3.659  10.723  1.00  0.00     0.210 HD
ENDBRANCH  30  31
BRANCH  30  33
HETATM   33  C5  UNL     1      -1.686   2.012  10.930  1.00  0.00     0.103 C 
HETATM   34  C6  UNL     1      -2.981   1.799  11.730  1.00  0.00     0.051 C 
BRANCH  33  35
HETATM   35  O4  UNL     1      -2.051   2.601   9.657  1.00  0.00    -0.385 OA
HETATM   36  H11 UNL     1      -2.660   3.339   9.841  1.00  0.00     0.210 HD
ENDBRANCH  33  35
BRANCH  33  37
HETATM   37  C7  UNL     1      -1.063   0.637  10.618  1.00  0.00     0.204 C 
BRANCH  37  38
HETATM   38  O5  UNL     1      -0.561   0.601   9.281  1.00  0.00    -0.398 OA
HETATM   39  H14 UNL     1      -1.218   1.105   8.760  1.00  0.00     0.209 HD
ENDBRANCH  37  38
ENDBRANCH  33  37
ENDBRANCH  30  33
ENDBRANCH  26  30
ENDBRANCH   1  23
BRANCH  20  40
HETATM   40  O8  UNL     1      -2.887   9.200  18.113  1.00  0.00    -0.395 OA
HETATM   41  H57 UNL     1      -3.009   9.086  19.070  1.00  0.00     0.210 HD
ENDBRANCH  20  40
BRANCH  14  42
HETATM   42  O6  UNL     1      -4.150  15.335  17.028  1.00  0.00    -0.315 OA
BRANCH  42  43
HETATM   43  C24 UNL     1      -4.732  16.547  17.264  1.00  0.00     0.259 C 
HETATM   44  O7  UNL     1      -4.140  17.556  17.613  1.00  0.00    -0.265 OA
BRANCH  43  45
HETATM   45  C25 UNL     1      -6.219  16.429  16.994  1.00  0.00     0.115 C 
BRANCH  45  46
HETATM   46  C26 UNL     1      -6.777  17.293  15.851  1.00  0.00    -0.013 C 
HETATM   47  C27 UNL     1      -7.167  16.465  14.624  1.00  0.00     0.010 C 
HETATM   48  C28 UNL     1      -7.924  18.198  16.298  1.00  0.00     0.010 C 
ENDBRANCH  45  46
ENDBRANCH  43  45
ENDBRANCH  42  43
ENDBRANCH  14  42
TORSDOF 13
ENDMDL
MODEL 5
REMARK minimizedAffinity -8.3872509
REMARK CNNscore 0.282332867
REMARK CNNaffinity 6.53145552
REMARK  13 active torsions:
REMARK  status: ('A' for Active; 'I' for Inactive)
REMARK    1  A    between atoms: O1_2  and  C2_3 
REMARK    2  A    between atoms: C3_5  and  C4_6 
REMARK    3  A    between atoms: C4_6  and  O3_7 
REMARK    4  A    between atoms: C4_6  and  C5_8 
REMARK    5  A    between atoms: C5_8  and  O4_10 
REMARK    6  A    between atoms: C5_8  and  C7_11 
REMARK    7  A    between atoms: C7_11  and  O5_12 
REMARK    8  A    between atoms: C9_14  and  C10_15 
REMARK    9  A    between atoms: C23_28  and  O6_29 
REMARK   10  A    between atoms: O6_29  and  C24_30 
REMARK   11  A    between atoms: C24_30  and  C25_32 
REMARK   12  A    between atoms: C25_32  and  C26_33 
REMARK   13  A    between atoms: C34_41  and  O8_42 
ROOT
HETATM    1  C10 UNL     1      -2.366   7.674  13.897  1.00  0.00     0.004 C 
HETATM    2  C11 UNL     1      -3.704   8.419  13.653  1.00  0.00     0.007 C 
HETATM    3  C12 UNL     1      -3.705   9.576  14.661  1.00  0.00     0.011 C 
HETATM    4  C13 UNL     1      -2.233   9.908  14.886  1.00  0.00    -0.021 A 
HETATM    5  C14 UNL     1      -1.421  10.125  13.627  1.00  0.00     0.022 A 
HETATM    6  C15 UNL     1      -1.399   8.773  14.326  1.00  0.00    -0.027 A 
HETATM    7  C16 UNL     1      -0.102   8.366  14.986  1.00  0.00     0.011 C 
HETATM    8  C17 UNL     1       0.195   9.027  16.338  1.00  0.00     0.007 C 
HETATM    9  C18 UNL     1      -0.253  10.501  16.407  1.00  0.00     0.005 C 
HETATM   10  C19 UNL     1       0.394  11.348  17.590  1.00  0.00    -0.035 C 
HETATM   11  C20 UNL     1       0.168  10.691  18.971  1.00  0.00     0.016 C 
HETATM   12  C21 UNL     1       1.947  11.409  17.356  1.00  0.00     0.012 C 
HETATM   13  C22 UNL     1       2.582  12.793  17.530  1.00  0.00     0.034 C 
HETATM   14  C23 UNL     1       2.002  13.595  18.696  1.00  0.00     0.140 C 
HETATM   15  C29 UNL     1       0.463  13.846  18.526  1.00  0.00    -0.016 C 
HETATM   16  C30 UNL     1      -0.260  13.902  19.888  1.00  0.00     0.018 C 
HETATM   17  C31 UNL     1       0.311  15.263  17.897  1.00  0.00     0.018 C 
HETATM   18  C32 UNL     1      -0.179  12.807  17.518  1.00  0.00     0.007 C 
HETATM   19  C33 UNL     1      -1.728  12.818  17.487  1.00  0.00     0.038 C 
HETATM   20  C34 UNL     1      -2.281  12.060  16.271  1.00  0.00     0.128 C 
HETATM   21  C35 UNL     1      -1.821  10.574  16.242  1.00  0.00    -0.005 C 
HETATM   22  C36 UNL     1      -2.559   9.809  17.379  1.00  0.00     0.019 C 
ENDROOT
BRANCH   1  23
HETATM   23  C9  UNL     1      -2.018   6.769  12.710  1.00  0.00     0.048 C 
HETATM   24  C2  UNL     1      -0.611   6.761  12.118  1.00  0.00     0.264 C 
HETATM   25  O2  UNL     1      -0.622   5.656  11.199  1.00  0.00    -0.353 OA
HETATM   26  C3  UNL     1      -1.656   4.725  11.594  1.00  0.00     0.157 C 
HETATM   27  C8  UNL     1      -2.244   5.281  12.894  1.00  0.00     0.044 C 
BRANCH  24  28
HETATM   28  O1  UNL     1       0.388   6.492  13.093  1.00  0.00    -0.366 OA
HETATM   29  C1  UNL     1       1.682   6.399  12.513  1.00  0.00     0.204 C 
ENDBRANCH  24  28
BRANCH  26  30
HETATM   30  C4  UNL     1      -1.057   3.313  11.767  1.00  0.00     0.183 C 
BRANCH  30  31
HETATM   31  O3  UNL     1       0.343   3.334  11.453  1.00  0.00    -0.390 OA
HETATM   32  H7  UNL     1       0.491   4.139  10.912  1.00  0.00     0.210 HD
ENDBRANCH  30  31
BRANCH  30  33
HETATM   33  C5  UNL     1      -1.778   2.174  10.985  1.00  0.00     0.103 C 
HETATM   34  C6  UNL     1      -3.020   1.705  11.760  1.00  0.00     0.051 C 
BRANCH  33  35
HETATM   35  O4  UNL     1      -2.229   2.691   9.708  1.00  0.00    -0.385 OA
HETATM   36  H11 UNL     1      -2.973   3.295   9.886  1.00  0.00     0.210 HD
ENDBRANCH  33  35
BRANCH  33  37
HETATM   37  C7  UNL     1      -0.893   0.949  10.676  1.00  0.00     0.204 C 
BRANCH  37  38
HETATM   38  O5  UNL     1      -0.826   0.716   9.268  1.00  0.00    -0.398 OA
HETATM   39  H14 UNL     1      -1.728   0.914   8.945  1.00  0.00     0.209 HD
ENDBRANCH  37  38
ENDBRANCH  33  37
ENDBRANCH  30  33
ENDBRANCH  26  30
ENDBRANCH   1  23
BRANCH  20  40
HETATM   40  O8  UNL     1      -1.849  12.749  15.093  1.00  0.00    -0.395 OA
HETATM   41  H57 UNL     1      -2.262  13.628  15.101  1.00  0.00     0.210 HD
ENDBRANCH  20  40
BRANCH  14  42
HETATM   42  O6  UNL     1       2.310  12.864  19.900  1.00  0.00    -0.315 OA
BRANCH  42  43
HETATM   43  C24 UNL     1       3.607  12.865  20.327  1.00  0.00     0.259 C 
HETATM   44  O7  UNL     1       4.339  13.843  20.351  1.00  0.00    -0.265 OA
BRANCH  43  45
HETATM   45  C25 UNL     1       3.966  11.466  20.784  1.00  0.00     0.115 C 
BRANCH  45  46
HETATM   46  C26 UNL     1       4.175  11.273  22.295  1.00  0.00    -0.013 C 
HETATM   47  C27 UNL     1       3.217  12.122  23.135  1.00  0.00     0.010 C 
HETATM   48  C28 UNL     1       4.131   9.805  22.717  1.00  0.00     0.010 C 
ENDBRANCH  45  46
ENDBRANCH  43  45
ENDBRANCH  42  43
ENDBRANCH  14  42
TORSDOF 13
ENDMDL
MODEL 6
REMARK minimizedAffinity -6.91151428
REMARK CNNscore 0.258846521
REMARK CNNaffinity 5.41018915
REMARK  13 active torsions:
REMARK  status: ('A' for Active; 'I' for Inactive)
REMARK    1  A    between atoms: O1_2  and  C2_3 
REMARK    2  A    between atoms: C3_5  and  C4_6 
REMARK    3  A    between atoms: C4_6  and  O3_7 
REMARK    4  A    between atoms: C4_6  and  C5_8 
REMARK    5  A    between atoms: C5_8  and  O4_10 
REMARK    6  A    between atoms: C5_8  and  C7_11 
REMARK    7  A    between atoms: C7_11  and  O5_12 
REMARK    8  A    between atoms: C9_14  and  C10_15 
REMARK    9  A    between atoms: C23_28  and  O6_29 
REMARK   10  A    between atoms: O6_29  and  C24_30 
REMARK   11  A    between atoms: C24_30  and  C25_32 
REMARK   12  A    between atoms: C25_32  and  C26_33 
REMARK   13  A    between atoms: C34_41  and  O8_42 
ROOT
HETATM    1  C10 UNL     1     -17.042   2.560  15.002  1.00  0.00     0.004 C 
HETATM    2  C11 UNL     1     -16.778   2.312  16.510  1.00  0.00     0.007 C 
HETATM    3  C12 UNL     1     -16.494   0.808  16.622  1.00  0.00     0.011 C 
HETATM    4  C13 UNL     1     -15.896   0.415  15.275  1.00  0.00    -0.021 A 
HETATM    5  C14 UNL     1     -14.743   1.276  14.805  1.00  0.00     0.022 A 
HETATM    6  C15 UNL     1     -16.152   1.543  14.295  1.00  0.00    -0.027 A 
HETATM    7  C16 UNL     1     -16.416   1.256  12.834  1.00  0.00     0.011 C 
HETATM    8  C17 UNL     1     -16.604  -0.222  12.469  1.00  0.00     0.007 C 
HETATM    9  C18 UNL     1     -15.687  -1.169  13.267  1.00  0.00     0.005 C 
HETATM   10  C19 UNL     1     -15.525  -2.629  12.651  1.00  0.00    -0.035 C 
HETATM   11  C20 UNL     1     -16.888  -3.323  12.428  1.00  0.00     0.016 C 
HETATM   12  C21 UNL     1     -14.839  -2.494  11.244  1.00  0.00     0.012 C 
HETATM   13  C22 UNL     1     -13.696  -3.479  10.974  1.00  0.00     0.034 C 
HETATM   14  C23 UNL     1     -13.957  -4.888  11.510  1.00  0.00     0.140 C 
HETATM   15  C29 UNL     1     -14.173  -4.892  13.064  1.00  0.00    -0.016 C 
HETATM   16  C30 UNL     1     -15.152  -6.001  13.501  1.00  0.00     0.018 C 
HETATM   17  C31 UNL     1     -12.798  -5.253  13.701  1.00  0.00     0.018 C 
HETATM   18  C32 UNL     1     -14.577  -3.455  13.591  1.00  0.00     0.007 C 
HETATM   19  C33 UNL     1     -15.054  -3.423  15.065  1.00  0.00     0.038 C 
HETATM   20  C34 UNL     1     -15.101  -1.992  15.621  1.00  0.00     0.128 C 
HETATM   21  C35 UNL     1     -16.046  -1.070  14.801  1.00  0.00    -0.005 C 
HETATM   22  C36 UNL     1     -17.516  -1.501  15.080  1.00  0.00     0.019 C 
ENDROOT
BRANCH   1  23
HETATM   23  C9  UNL     1     -16.921   4.050  14.662  1.00  0.00     0.048 C 
HETATM   24  C2  UNL     1     -17.619   5.106  15.515  1.00  0.00     0.264 C 
HETATM   25  O2  UNL     1     -17.099   6.354  15.026  1.00  0.00    -0.353 OA
HETATM   26  C3  UNL     1     -15.818   6.116  14.397  1.00  0.00     0.157 C 
HETATM   27  C8  UNL     1     -15.521   4.628  14.606  1.00  0.00     0.044 C 
BRANCH  24  28
HETATM   28  O1  UNL     1     -17.271   5.011  16.890  1.00  0.00    -0.366 OA
HETATM   29  C1  UNL     1     -18.287   5.544  17.730  1.00  0.00     0.204 C 
ENDBRANCH  24  28
BRANCH  26  30
HETATM   30  C4  UNL     1     -14.745   7.031  15.023  1.00  0.00     0.183 C 
BRANCH  30  31
HETATM   31  O3  UNL     1     -15.367   8.180  15.616  1.00  0.00    -0.390 OA
HETATM   32  H7  UNL     1     -16.254   8.256  15.204  1.00  0.00     0.210 HD
ENDBRANCH  30  31
BRANCH  30  33
HETATM   33  C5  UNL     1     -13.588   7.463  14.072  1.00  0.00     0.103 C 
HETATM   34  C6  UNL     1     -12.312   6.670  14.398  1.00  0.00     0.051 C 
BRANCH  33  35
HETATM   35  O4  UNL     1     -13.960   7.150  12.706  1.00  0.00    -0.385 OA
HETATM   36  H11 UNL     1     -13.928   6.181  12.611  1.00  0.00     0.210 HD
ENDBRANCH  33  35
BRANCH  33  37
HETATM   37  C7  UNL     1     -13.259   8.970  14.105  1.00  0.00     0.204 C 
BRANCH  37  38
HETATM   38  O5  UNL     1     -12.858   9.428  12.812  1.00  0.00    -0.398 OA
HETATM   39  H14 UNL     1     -12.322   8.694  12.449  1.00  0.00     0.209 HD
ENDBRANCH  37  38
ENDBRANCH  33  37
ENDBRANCH  30  33
ENDBRANCH  26  30
ENDBRANCH   1  23
BRANCH  20  40
HETATM   40  O8  UNL     1     -13.764  -1.481  15.619  1.00  0.00    -0.395 OA
HETATM   41  H57 UNL     1     -13.244  -2.018  16.240  1.00  0.00     0.210 HD
ENDBRANCH  20  40
BRANCH  14  42
HETATM   42  O6  UNL     1     -15.100  -5.401  10.796  1.00  0.00    -0.315 OA
BRANCH  42  43
HETATM   43  C24 UNL     1     -14.907  -6.483   9.987  1.00  0.00     0.259 C 
HETATM   44  O7  UNL     1     -14.650  -7.613  10.373  1.00  0.00    -0.265 OA
BRANCH  43  45
HETATM   45  C25 UNL     1     -15.090  -6.048   8.547  1.00  0.00     0.115 C 
BRANCH  45  46
HETATM   46  C26 UNL     1     -13.818  -5.633   7.790  1.00  0.00    -0.013 C 
HETATM   47  C27 UNL     1     -13.171  -6.801   7.042  1.00  0.00     0.010 C 
HETATM   48  C28 UNL     1     -14.041  -4.437   6.866  1.00  0.00     0.010 C 
ENDBRANCH  45  46
ENDBRANCH  43  45
ENDBRANCH  42  43
ENDBRANCH  14  42
TORSDOF 13
ENDMDL
MODEL 7
REMARK minimizedAffinity -7.29839277
REMARK CNNscore 0.224085942
REMARK CNNaffinity 6.52248192
REMARK  13 active torsions:
REMARK  status: ('A' for Active; 'I' for Inactive)
REMARK    1  A    between atoms: O1_2  and  C2_3 
REMARK    2  A    between atoms: C3_5  and  C4_6 
REMARK    3  A    between atoms: C4_6  and  O3_7 
REMARK    4  A    between atoms: C4_6  and  C5_8 
REMARK    5  A    between atoms: C5_8  and  O4_10 
REMARK    6  A    between atoms: C5_8  and  C7_11 
REMARK    7  A    between atoms: C7_11  and  O5_12 
REMARK    8  A    between atoms: C9_14  and  C10_15 
REMARK    9  A    between atoms: C23_28  and  O6_29 
REMARK   10  A    between atoms: O6_29  and  C24_30 
REMARK   11  A    between atoms: C24_30  and  C25_32 
REMARK   12  A    between atoms: C25_32  and  C26_33 
REMARK   13  A    between atoms: C34_41  and  O8_42 
ROOT
HETATM    1  C10 UNL     1      -0.262   6.811  13.244  1.00  0.00     0.004 C 
HETATM    2  C11 UNL     1      -1.652   6.227  12.885  1.00  0.00     0.007 C 
HETATM    3  C12 UNL     1      -2.635   6.929  13.833  1.00  0.00     0.011 C 
HETATM    4  C13 UNL     1      -2.004   8.286  14.125  1.00  0.00    -0.021 A 
HETATM    5  C14 UNL     1      -1.576   9.076  12.906  1.00  0.00     0.022 A 
HETATM    6  C15 UNL     1      -0.557   8.244  13.673  1.00  0.00    -0.027 A 
HETATM    7  C16 UNL     1       0.513   9.000  14.427  1.00  0.00     0.011 C 
HETATM    8  C17 UNL     1       0.076   9.624  15.758  1.00  0.00     0.007 C 
HETATM    9  C18 UNL     1      -1.360  10.185  15.727  1.00  0.00     0.005 C 
HETATM   10  C19 UNL     1      -1.712  11.201  16.902  1.00  0.00    -0.035 C 
HETATM   11  C20 UNL     1      -1.443  10.596  18.298  1.00  0.00     0.016 C 
HETATM   12  C21 UNL     1      -0.784  12.460  16.756  1.00  0.00     0.012 C 
HETATM   13  C22 UNL     1      -1.489  13.814  16.896  1.00  0.00     0.034 C 
HETATM   14  C23 UNL     1      -2.563  13.840  17.985  1.00  0.00     0.140 C 
HETATM   15  C29 UNL     1      -3.697  12.790  17.713  1.00  0.00    -0.016 C 
HETATM   16  C30 UNL     1      -4.290  12.239  19.026  1.00  0.00     0.018 C 
HETATM   17  C31 UNL     1      -4.853  13.558  17.005  1.00  0.00     0.018 C 
HETATM   18  C32 UNL     1      -3.204  11.657  16.723  1.00  0.00     0.007 C 
HETATM   19  C33 UNL     1      -4.167  10.449  16.601  1.00  0.00     0.038 C 
HETATM   20  C34 UNL     1      -3.822   9.562  15.395  1.00  0.00     0.128 C 
HETATM   21  C35 UNL     1      -2.373   9.002  15.467  1.00  0.00    -0.005 C 
HETATM   22  C36 UNL     1      -2.316   7.933  16.597  1.00  0.00     0.019 C 
ENDROOT
BRANCH   1  23
HETATM   23  C9  UNL     1       0.752   6.539  12.126  1.00  0.00     0.048 C 
HETATM   24  C2  UNL     1       0.388   6.782  10.664  1.00  0.00     0.264 C 
HETATM   25  O2  UNL     1       1.632   6.632   9.961  1.00  0.00    -0.353 OA
HETATM   26  C3  UNL     1       2.724   6.873  10.880  1.00  0.00     0.157 C 
HETATM   27  C8  UNL     1       2.072   7.280  12.205  1.00  0.00     0.044 C 
BRANCH  24  28
HETATM   28  O1  UNL     1      -0.074   8.106  10.431  1.00  0.00    -0.366 OA
HETATM   29  C1  UNL     1      -0.041   8.443   9.051  1.00  0.00     0.204 C 
ENDBRANCH  24  28
BRANCH  26  30
HETATM   30  C4  UNL     1       3.657   7.965  10.315  1.00  0.00     0.183 C 
BRANCH  30  31
HETATM   31  O3  UNL     1       3.611   7.953   8.881  1.00  0.00    -0.390 OA
HETATM   32  H7  UNL     1       3.263   7.073   8.624  1.00  0.00     0.210 HD
ENDBRANCH  30  31
BRANCH  30  33
HETATM   33  C5  UNL     1       5.132   7.918  10.818  1.00  0.00     0.103 C 
HETATM   34  C6  UNL     1       5.166   7.928  12.354  1.00  0.00     0.051 C 
BRANCH  33  35
HETATM   35  O4  UNL     1       5.741   6.680  10.375  1.00  0.00    -0.385 OA
HETATM   36  H11 UNL     1       5.343   5.958  10.895  1.00  0.00     0.210 HD
ENDBRANCH  33  35
BRANCH  33  37
HETATM   37  C7  UNL     1       6.025   9.061  10.294  1.00  0.00     0.204 C 
BRANCH  37  38
HETATM   38  O5  UNL     1       5.612  10.315  10.838  1.00  0.00    -0.398 OA
HETATM   39  H14 UNL     1       4.635  10.263  10.855  1.00  0.00     0.209 HD
ENDBRANCH  37  38
ENDBRANCH  33  37
ENDBRANCH  30  33
ENDBRANCH  26  30
ENDBRANCH   1  23
BRANCH  20  40
HETATM   40  O8  UNL     1      -4.006  10.346  14.211  1.00  0.00    -0.395 OA
HETATM   41  H57 UNL     1      -4.950  10.567  14.150  1.00  0.00     0.210 HD
ENDBRANCH  20  40
BRANCH  14  42
HETATM   42  O6  UNL     1      -1.891  13.611  19.240  1.00  0.00    -0.315 OA
BRANCH  42  43
HETATM   43  C24 UNL     1      -1.597  14.700  20.008  1.00  0.00     0.259 C 
HETATM   44  O7  UNL     1      -0.523  14.910  20.549  1.00  0.00    -0.265 OA
BRANCH  43  45
HETATM   45  C25 UNL     1      -2.812  15.605  20.047  1.00  0.00     0.115 C 
BRANCH  45  46
HETATM   46  C26 UNL     1      -3.880  15.269  21.101  1.00  0.00    -0.013 C 
HETATM   47  C27 UNL     1      -3.619  15.957  22.442  1.00  0.00     0.010 C 
HETATM   48  C28 UNL     1      -5.303  15.534  20.609  1.00  0.00     0.010 C 
ENDBRANCH  45  46
ENDBRANCH  43  45
ENDBRANCH  42  43
ENDBRANCH  14  42
TORSDOF 13
ENDMDL
MODEL 8
REMARK minimizedAffinity -7.74906158
REMARK CNNscore 0.192968979
REMARK CNNaffinity 6.39160013
REMARK  13 active torsions:
REMARK  status: ('A' for Active; 'I' for Inactive)
REMARK    1  A    between atoms: O1_2  and  C2_3 
REMARK    2  A    between atoms: C3_5  and  C4_6 
REMARK    3  A    between atoms: C4_6  and  O3_7 
REMARK    4  A    between atoms: C4_6  and  C5_8 
REMARK    5  A    between atoms: C5_8  and  O4_10 
REMARK    6  A    between atoms: C5_8  and  C7_11 
REMARK    7  A    between atoms: C7_11  and  O5_12 
REMARK    8  A    between atoms: C9_14  and  C10_15 
REMARK    9  A    between atoms: C23_28  and  O6_29 
REMARK   10  A    between atoms: O6_29  and  C24_30 
REMARK   11  A    between atoms: C24_30  and  C25_32 
REMARK   12  A    between atoms: C25_32  and  C26_33 
REMARK   13  A    between atoms: C34_41  and  O8_42 
ROOT
HETATM    1  C10 UNL     1      -6.899   7.000  13.813  1.00  0.00     0.004 C 
HETATM    2  C11 UNL     1      -6.364   5.718  13.126  1.00  0.00     0.007 C 
HETATM    3  C12 UNL     1      -4.845   5.918  13.037  1.00  0.00     0.011 C 
HETATM    4  C13 UNL     1      -4.494   6.815  14.220  1.00  0.00    -0.021 A 
HETATM    5  C14 UNL     1      -5.027   6.356  15.560  1.00  0.00     0.022 A 
HETATM    6  C15 UNL     1      -5.778   7.412  14.761  1.00  0.00    -0.027 A 
HETATM    7  C16 UNL     1      -5.802   8.811  15.333  1.00  0.00     0.011 C 
HETATM    8  C17 UNL     1      -4.520   9.632  15.142  1.00  0.00     0.007 C 
HETATM    9  C18 UNL     1      -3.233   8.791  15.266  1.00  0.00     0.005 C 
HETATM   10  C19 UNL     1      -1.901   9.630  15.502  1.00  0.00    -0.035 C 
HETATM   11  C20 UNL     1      -1.689  10.709  14.416  1.00  0.00     0.016 C 
HETATM   12  C21 UNL     1      -2.029  10.378  16.878  1.00  0.00     0.012 C 
HETATM   13  C22 UNL     1      -0.797  10.297  17.787  1.00  0.00     0.034 C 
HETATM   14  C23 UNL     1       0.531  10.405  17.035  1.00  0.00     0.140 C 
HETATM   15  C29 UNL     1       0.699   9.260  15.976  1.00  0.00    -0.016 C 
HETATM   16  C30 UNL     1       1.514   9.729  14.753  1.00  0.00     0.018 C 
HETATM   17  C31 UNL     1       1.547   8.146  16.659  1.00  0.00     0.018 C 
HETATM   18  C32 UNL     1      -0.698   8.624  15.592  1.00  0.00     0.007 C 
HETATM   19  C33 UNL     1      -0.654   7.668  14.373  1.00  0.00     0.038 C 
HETATM   20  C34 UNL     1      -1.935   6.826  14.259  1.00  0.00     0.128 C 
HETATM   21  C35 UNL     1      -3.210   7.706  14.120  1.00  0.00    -0.005 C 
HETATM   22  C36 UNL     1      -3.204   8.358  12.706  1.00  0.00     0.019 C 
ENDROOT
BRANCH   1  23
HETATM   23  C9  UNL     1      -8.317   6.781  14.354  1.00  0.00     0.048 C 
HETATM   24  C2  UNL     1      -8.958   7.793  15.300  1.00  0.00     0.264 C 
HETATM   25  O2  UNL     1     -10.326   7.362  15.401  1.00  0.00    -0.353 OA
HETATM   26  C3  UNL     1     -10.662   6.582  14.230  1.00  0.00     0.157 C 
HETATM   27  C8  UNL     1      -9.424   6.627  13.330  1.00  0.00     0.044 C 
BRANCH  24  28
HETATM   28  O1  UNL     1      -8.966   9.109  14.764  1.00  0.00    -0.366 OA
HETATM   29  C1  UNL     1      -9.629  10.027  15.625  1.00  0.00     0.204 C 
ENDBRANCH  24  28
BRANCH  26  30
HETATM   30  C4  UNL     1     -11.916   7.168  13.548  1.00  0.00     0.183 C 
BRANCH  30  31
HETATM   31  O3  UNL     1     -11.670   8.527  13.157  1.00  0.00    -0.390 OA
HETATM   32  H7  UNL     1     -10.909   8.834  13.694  1.00  0.00     0.210 HD
ENDBRANCH  30  31
BRANCH  30  33
HETATM   33  C5  UNL     1     -13.240   7.063  14.364  1.00  0.00     0.103 C 
HETATM   34  C6  UNL     1     -13.670   5.592  14.484  1.00  0.00     0.051 C 
BRANCH  33  35
HETATM   35  O4  UNL     1     -13.007   7.560  15.705  1.00  0.00    -0.385 OA
HETATM   36  H11 UNL     1     -12.451   6.906  16.166  1.00  0.00     0.210 HD
ENDBRANCH  33  35
BRANCH  33  37
HETATM   37  C7  UNL     1     -14.415   7.879  13.789  1.00  0.00     0.204 C 
BRANCH  37  38
HETATM   38  O5  UNL     1     -14.303   7.994  12.369  1.00  0.00    -0.398 OA
HETATM   39  H14 UNL     1     -13.344   8.109  12.209  1.00  0.00     0.209 HD
ENDBRANCH  37  38
ENDBRANCH  33  37
ENDBRANCH  30  33
ENDBRANCH  26  30
ENDBRANCH   1  23
BRANCH  20  40
HETATM   40  O8  UNL     1      -2.015   5.995  15.422  1.00  0.00    -0.395 OA
HETATM   41  H57 UNL     1      -1.261   5.383  15.397  1.00  0.00     0.210 HD
ENDBRANCH  20  40
BRANCH  14  42
HETATM   42  O6  UNL     1       0.565  11.717  16.436  1.00  0.00    -0.315 OA
BRANCH  42  43
HETATM   43  C24 UNL     1       1.308  12.677  17.059  1.00  0.00     0.259 C 
HETATM   44  O7  UNL     1       1.468  13.818  16.653  1.00  0.00    -0.265 OA
BRANCH  43  45
HETATM   45  C25 UNL     1       1.870  12.096  18.341  1.00  0.00     0.115 C 
BRANCH  45  46
HETATM   46  C26 UNL     1       1.484  12.813  19.644  1.00  0.00    -0.013 C 
HETATM   47  C27 UNL     1       0.016  13.244  19.666  1.00  0.00     0.010 C 
HETATM   48  C28 UNL     1       1.845  12.009  20.893  1.00  0.00     0.010 C 
ENDBRANCH  45  46
ENDBRANCH  43  45
ENDBRANCH  42  43
ENDBRANCH  14  42
TORSDOF 13
ENDMDL
MODEL 9
REMARK minimizedAffinity -6.57036257
REMARK CNNscore 0.191688895
REMARK CNNaffinity 5.49709082
REMARK  13 active torsions:
REMARK  status: ('A' for Active; 'I' for Inactive)
REMARK    1  A    between atoms: O1_2  and  C2_3 
REMARK    2  A    between atoms: C3_5  and  C4_6 
REMARK    3  A    between atoms: C4_6  and  O3_7 
REMARK    4  A    between atoms: C4_6  and  C5_8 
REMARK    5  A    between atoms: C5_8  and  O4_10 
REMARK    6  A    between atoms: C5_8  and  C7_11 
REMARK    7  A    between atoms: C7_11  and  O5_12 
REMARK    8  A    between atoms: C9_14  and  C10_15 
REMARK    9  A    between atoms: C23_28  and  O6_29 
REMARK   10  A    between atoms: O6_29  and  C24_30 
REMARK   11  A    between atoms: C24_30  and  C25_32 
REMARK   12  A    between atoms: C25_32  and  C26_33 
REMARK   13  A    between atoms: C34_41  and  O8_42 
ROOT
HETATM    1  C10 UNL     1      -1.116  11.025  16.494  1.00  0.00     0.004 C 
HETATM    2  C11 UNL     1      -0.154  12.195  16.165  1.00  0.00     0.007 C 
HETATM    3  C12 UNL     1      -0.843  13.447  16.725  1.00  0.00     0.011 C 
HETATM    4  C13 UNL     1      -1.679  12.947  17.899  1.00  0.00    -0.021 A 
HETATM    5  C14 UNL     1      -0.936  12.091  18.903  1.00  0.00     0.022 A 
HETATM    6  C15 UNL     1      -1.769  11.437  17.810  1.00  0.00    -0.027 A 
HETATM    7  C16 UNL     1      -3.019  10.707  18.247  1.00  0.00     0.011 C 
HETATM    8  C17 UNL     1      -4.225  11.593  18.583  1.00  0.00     0.007 C 
HETATM    9  C18 UNL     1      -3.837  12.910  19.287  1.00  0.00     0.005 C 
HETATM   10  C19 UNL     1      -5.034  13.654  20.029  1.00  0.00    -0.035 C 
HETATM   11  C20 UNL     1      -6.228  13.924  19.087  1.00  0.00     0.016 C 
HETATM   12  C21 UNL     1      -5.554  12.719  21.180  1.00  0.00     0.012 C 
HETATM   13  C22 UNL     1      -5.783  13.407  22.531  1.00  0.00     0.034 C 
HETATM   14  C23 UNL     1      -6.392  14.805  22.415  1.00  0.00     0.140 C 
HETATM   15  C29 UNL     1      -5.478  15.775  21.587  1.00  0.00    -0.016 C 
HETATM   16  C30 UNL     1      -6.308  16.816  20.809  1.00  0.00     0.018 C 
HETATM   17  C31 UNL     1      -4.634  16.579  22.620  1.00  0.00     0.018 C 
HETATM   18  C32 UNL     1      -4.467  14.969  20.673  1.00  0.00     0.007 C 
HETATM   19  C33 UNL     1      -3.707  15.837  19.639  1.00  0.00     0.038 C 
HETATM   20  C34 UNL     1      -2.513  15.087  19.029  1.00  0.00     0.128 C 
HETATM   21  C35 UNL     1      -2.942  13.773  18.315  1.00  0.00    -0.005 C 
HETATM   22  C36 UNL     1      -3.702  14.150  17.010  1.00  0.00     0.019 C 
ENDROOT
BRANCH   1  23
HETATM   23  C9  UNL     1      -0.396   9.676  16.387  1.00  0.00     0.048 C 
HETATM   24  C2  UNL     1      -1.185   8.375  16.267  1.00  0.00     0.264 C 
HETATM   25  O2  UNL     1      -0.187   7.383  15.970  1.00  0.00    -0.353 OA
HETATM   26  C3  UNL     1       0.961   8.034  15.379  1.00  0.00     0.157 C 
HETATM   27  C8  UNL     1       0.578   9.510  15.237  1.00  0.00     0.044 C 
BRANCH  24  28
HETATM   28  O1  UNL     1      -2.101   8.393  15.180  1.00  0.00    -0.366 OA
HETATM   29  C1  UNL     1      -2.647   7.105  14.926  1.00  0.00     0.204 C 
ENDBRANCH  24  28
BRANCH  26  30
HETATM   30  C4  UNL     1       1.302   7.374  14.025  1.00  0.00     0.183 C 
BRANCH  30  31
HETATM   31  O3  UNL     1       1.470   5.960  14.199  1.00  0.00    -0.390 OA
HETATM   32  H7  UNL     1       1.642   5.819  15.155  1.00  0.00     0.210 HD
ENDBRANCH  30  31
BRANCH  30  33
HETATM   33  C5  UNL     1       2.520   7.983  13.266  1.00  0.00     0.103 C 
HETATM   34  C6  UNL     1       3.093   9.171  14.055  1.00  0.00     0.051 C 
BRANCH  33  35
HETATM   35  O4  UNL     1       3.562   6.980  13.168  1.00  0.00    -0.385 OA
HETATM   36  H11 UNL     1       3.938   6.863  14.060  1.00  0.00     0.210 HD
ENDBRANCH  33  35
BRANCH  33  37
HETATM   37  C7  UNL     1       2.214   8.443  11.827  1.00  0.00     0.204 C 
BRANCH  37  38
HETATM   38  O5  UNL     1       1.152   9.398  11.817  1.00  0.00    -0.398 OA
HETATM   39  H14 UNL     1       0.530   9.077  12.500  1.00  0.00     0.209 HD
ENDBRANCH  37  38
ENDBRANCH  33  37
ENDBRANCH  30  33
ENDBRANCH  26  30
ENDBRANCH   1  23
BRANCH  20  40
HETATM   40  O8  UNL     1      -1.586  14.812  20.085  1.00  0.00    -0.395 OA
HETATM   41  H57 UNL     1      -1.256  15.665  20.414  1.00  0.00     0.210 HD
ENDBRANCH  20  40
BRANCH  14  42
HETATM   42  O6  UNL     1      -7.698  14.644  21.826  1.00  0.00    -0.315 OA
BRANCH  42  43
HETATM   43  C24 UNL     1      -8.783  14.865  22.624  1.00  0.00     0.259 C 
HETATM   44  O7  UNL     1      -9.697  15.635  22.371  1.00  0.00    -0.265 OA
BRANCH  43  45
HETATM   45  C25 UNL     1      -8.671  13.979  23.848  1.00  0.00     0.115 C 
BRANCH  45  46
HETATM   46  C26 UNL     1      -9.586  12.744  23.884  1.00  0.00    -0.013 C 
HETATM   47  C27 UNL     1     -10.971  13.055  24.455  1.00  0.00     0.010 C 
HETATM   48  C28 UNL     1      -9.688  12.042  22.530  1.00  0.00     0.010 C 
ENDBRANCH  45  46
ENDBRANCH  43  45
ENDBRANCH  42  43
ENDBRANCH  14  42
TORSDOF 13
ENDMDL
