MODEL 1
REMARK minimizedAffinity -8.15502548
REMARK  6 active torsions:
REMARK  status: ('A' for Active; 'I' for Inactive)
REMARK    1  A    between atoms: C2_2  and  C3_3 
REMARK    2  A    between atoms: C2_2  and  C9_10 
REMARK    3  A    between atoms: C3_3  and  C4_4 
REMARK    4  A    between atoms: C4_4  and  C5_5 
REMARK    5  A    between atoms: C17_18  and  C18_19 
REMARK    6  A    between atoms: C18_19  and  O2_22 
ROOT
HETATM    1  C9  UNL     1      -2.478   8.726  15.250  1.00  0.00    -0.002 C 
HETATM    2  C10 UNL     1      -1.542   8.043  16.300  1.00  0.00     0.006 C 
HETATM    3  C11 UNL     1      -0.378   7.392  15.519  1.00  0.00     0.011 C 
HETATM    4  C12 UNL     1      -0.859   7.375  14.059  1.00  0.00    -0.032 C 
HETATM    5  C13 UNL     1      -1.828   6.149  13.953  1.00  0.00     0.016 C 
HETATM    6  C14 UNL     1       0.259   7.303  12.977  1.00  0.00     0.003 C 
HETATM    7  C15 UNL     1       1.215   6.101  13.079  1.00  0.00     0.009 C 
HETATM    8  C16 UNL     1       1.941   5.786  11.769  1.00  0.00     0.042 C 
HETATM    9  C17 UNL     1       2.306   6.992  10.845  1.00  0.00     0.095 C 
HETATM   10  O3  UNL     1       2.632   6.327   9.603  1.00  0.00    -0.377 OA
HETATM   11  C21 UNL     1       2.824   7.098   8.428  1.00  0.00     0.169 C 
HETATM   12  C22 UNL     1       1.923   8.313   8.301  1.00  0.00     0.027 C 
HETATM   13  C23 UNL     1       0.686   8.177   9.162  1.00  0.00     0.010 C 
HETATM   14  C24 UNL     1       1.036   7.918  10.648  1.00  0.00     0.032 C 
HETATM   15  C25 UNL     1      -0.254   7.528  11.509  1.00  0.00    -0.033 C 
HETATM   16  C26 UNL     1      -0.966   6.266  10.936  1.00  0.00     0.016 C 
HETATM   17  C27 UNL     1      -1.276   8.724  11.439  1.00  0.00     0.011 C 
HETATM   18  C28 UNL     1      -2.284   8.853  12.602  1.00  0.00     0.011 C 
HETATM   19  C29 UNL     1      -1.585   8.781  13.971  1.00  0.00    -0.032 C 
HETATM   20  C30 UNL     1      -0.632  10.010  14.079  1.00  0.00     0.016 C 
ENDROOT
BRANCH   1  21
HETATM   21  C2  UNL     1      -3.259   9.952  15.813  1.00  0.00    -0.014 C 
HETATM   22  C1  UNL     1      -2.951  11.323  15.199  1.00  0.00     0.010 C 
BRANCH  21  23
HETATM   23  C3  UNL     1      -4.781   9.691  15.834  1.00  0.00     0.007 C 
BRANCH  23  24
HETATM   24  C4  UNL     1      -5.270   8.813  14.674  1.00  0.00     0.035 C 
BRANCH  24  25
HETATM   25  C5  UNL     1      -6.655   8.301  14.936  1.00  0.00     0.156 A 
HETATM   26  O1  UNL     1      -6.723   7.198  15.850  1.00  0.00    -0.370 OA
HETATM   27  C6  UNL     1      -7.140   6.927  14.503  1.00  0.00     0.080 A 
HETATM   28  C7  UNL     1      -8.615   6.701  14.366  1.00  0.00     0.048 C 
HETATM   29  C8  UNL     1      -6.250   5.976  13.767  1.00  0.00     0.048 C 
ENDBRANCH  24  25
ENDBRANCH  23  24
ENDBRANCH  21  23
ENDBRANCH   1  21
BRANCH   9  30
HETATM   30  C18 UNL     1       3.594   7.752  11.451  1.00  0.00     0.082 C 
HETATM   31  C19 UNL     1       4.655   8.042  10.367  1.00  0.00     0.049 C 
HETATM   32  C20 UNL     1       3.324   9.081  12.175  1.00  0.00     0.049 C 
BRANCH  30  33
HETATM   33  O2  UNL     1       4.219   6.921  12.445  1.00  0.00    -0.388 OA
HETATM   34  H35 UNL     1       5.092   7.299  12.655  1.00  0.00     0.210 HD
ENDBRANCH  30  33
ENDBRANCH   9  30
TORSDOF 6
ENDMDL
MODEL 2
REMARK minimizedAffinity -8.13066578
REMARK  6 active torsions:
REMARK  status: ('A' for Active; 'I' for Inactive)
REMARK    1  A    between atoms: C2_2  and  C3_3 
REMARK    2  A    between atoms: C2_2  and  C9_10 
REMARK    3  A    between atoms: C3_3  and  C4_4 
REMARK    4  A    between atoms: C4_4  and  C5_5 
REMARK    5  A    between atoms: C17_18  and  C18_19 
REMARK    6  A    between atoms: C18_19  and  O2_22 
ROOT
HETATM    1  C9  UNL     1      -1.572   7.062  14.163  1.00  0.00    -0.002 C 
HETATM    2  C10 UNL     1      -1.858   7.455  12.677  1.00  0.00     0.006 C 
HETATM    3  C11 UNL     1      -0.538   8.002  12.087  1.00  0.00     0.011 C 
HETATM    4  C12 UNL     1       0.346   8.273  13.316  1.00  0.00    -0.032 C 
HETATM    5  C13 UNL     1      -0.151   9.641  13.895  1.00  0.00     0.016 C 
HETATM    6  C14 UNL     1       1.882   8.298  13.055  1.00  0.00     0.003 C 
HETATM    7  C15 UNL     1       2.367   9.311  12.003  1.00  0.00     0.009 C 
HETATM    8  C16 UNL     1       3.851   9.663  12.134  1.00  0.00     0.042 C 
HETATM    9  C17 UNL     1       4.814   8.537  12.628  1.00  0.00     0.095 C 
HETATM   10  O3  UNL     1       6.002   9.287  12.965  1.00  0.00    -0.377 OA
HETATM   11  C21 UNL     1       7.061   8.644  13.654  1.00  0.00     0.169 C 
HETATM   12  C22 UNL     1       6.629   7.613  14.680  1.00  0.00     0.027 C 
HETATM   13  C23 UNL     1       5.200   7.838  15.122  1.00  0.00     0.010 C 
HETATM   14  C24 UNL     1       4.216   7.855  13.928  1.00  0.00     0.032 C 
HETATM   15  C25 UNL     1       2.753   8.337  14.361  1.00  0.00    -0.033 C 
HETATM   16  C26 UNL     1       2.785   9.757  15.003  1.00  0.00     0.016 C 
HETATM   17  C27 UNL     1       2.204   7.336  15.445  1.00  0.00     0.011 C 
HETATM   18  C28 UNL     1       0.669   7.229  15.584  1.00  0.00     0.011 C 
HETATM   19  C29 UNL     1      -0.013   7.021  14.219  1.00  0.00    -0.032 C 
HETATM   20  C30 UNL     1       0.473   5.653  13.653  1.00  0.00     0.016 C 
ENDROOT
BRANCH   1  21
HETATM   21  C2  UNL     1      -2.486   5.916  14.694  1.00  0.00    -0.014 C 
HETATM   22  C1  UNL     1      -3.642   6.313  15.620  1.00  0.00     0.010 C 
BRANCH  21  23
HETATM   23  C3  UNL     1      -2.990   5.016  13.544  1.00  0.00     0.007 C 
BRANCH  23  24
HETATM   24  C4  UNL     1      -4.416   5.345  13.086  1.00  0.00     0.035 C 
BRANCH  24  25
HETATM   25  C5  UNL     1      -5.269   4.111  13.061  1.00  0.00     0.156 A 
HETATM   26  O1  UNL     1      -5.946   3.877  11.818  1.00  0.00    -0.370 OA
HETATM   27  C6  UNL     1      -6.785   4.137  12.955  1.00  0.00     0.080 A 
HETATM   28  C7  UNL     1      -7.555   2.939  13.420  1.00  0.00     0.048 C 
HETATM   29  C8  UNL     1      -7.543   5.425  12.871  1.00  0.00     0.048 C 
ENDBRANCH  24  25
ENDBRANCH  23  24
ENDBRANCH  21  23
ENDBRANCH   1  21
BRANCH   9  30
HETATM   30  C18 UNL     1       5.098   7.514  11.413  1.00  0.00     0.082 C 
HETATM   31  C19 UNL     1       4.442   7.985  10.097  1.00  0.00     0.049 C 
HETATM   32  C20 UNL     1       6.575   7.225  11.095  1.00  0.00     0.049 C 
BRANCH  30  33
HETATM   33  O2  UNL     1       4.539   6.226  11.728  1.00  0.00    -0.388 OA
HETATM   34  H35 UNL     1       4.542   5.684  10.919  1.00  0.00     0.210 HD
ENDBRANCH  30  33
ENDBRANCH   9  30
TORSDOF 6
ENDMDL
MODEL 3
REMARK minimizedAffinity -8.06844902
REMARK  6 active torsions:
REMARK  status: ('A' for Active; 'I' for Inactive)
REMARK    1  A    between atoms: C2_2  and  C3_3 
REMARK    2  A    between atoms: C2_2  and  C9_10 
REMARK    3  A    between atoms: C3_3  and  C4_4 
REMARK    4  A    between atoms: C4_4  and  C5_5 
REMARK    5  A    between atoms: C17_18  and  C18_19 
REMARK    6  A    between atoms: C18_19  and  O2_22 
ROOT
HETATM    1  C9  UNL     1      -5.149   6.668  14.157  1.00  0.00    -0.002 C 
HETATM    2  C10 UNL     1      -4.503   5.917  12.948  1.00  0.00     0.006 C 
HETATM    3  C11 UNL     1      -3.047   6.420  12.823  1.00  0.00     0.011 C 
HETATM    4  C12 UNL     1      -3.008   7.695  13.682  1.00  0.00    -0.032 C 
HETATM    5  C13 UNL     1      -3.644   8.818  12.794  1.00  0.00     0.016 C 
HETATM    6  C14 UNL     1      -1.603   8.119  14.204  1.00  0.00     0.003 C 
HETATM    7  C15 UNL     1      -0.530   8.352  13.125  1.00  0.00     0.009 C 
HETATM    8  C16 UNL     1       0.633   9.226  13.601  1.00  0.00     0.042 C 
HETATM    9  C17 UNL     1       1.053   9.106  15.101  1.00  0.00     0.095 C 
HETATM   10  O3  UNL     1       1.887  10.275  15.271  1.00  0.00    -0.377 OA
HETATM   11  C21 UNL     1       2.309  10.647  16.573  1.00  0.00     0.169 C 
HETATM   12  C22 UNL     1       1.292  10.405  17.673  1.00  0.00     0.027 C 
HETATM   13  C23 UNL     1      -0.111  10.305  17.117  1.00  0.00     0.010 C 
HETATM   14  C24 UNL     1      -0.230   9.215  16.026  1.00  0.00     0.032 C 
HETATM   15  C25 UNL     1      -1.636   9.276  15.266  1.00  0.00    -0.033 C 
HETATM   16  C26 UNL     1      -1.873  10.669  14.609  1.00  0.00     0.016 C 
HETATM   17  C27 UNL     1      -2.780   9.047  16.324  1.00  0.00     0.011 C 
HETATM   18  C28 UNL     1      -4.121   8.491  15.796  1.00  0.00     0.011 C 
HETATM   19  C29 UNL     1      -3.912   7.252  14.907  1.00  0.00    -0.032 C 
HETATM   20  C30 UNL     1      -3.292   6.132  15.797  1.00  0.00     0.016 C 
ENDROOT
BRANCH   1  21
HETATM   21  C2  UNL     1      -6.285   5.863  14.859  1.00  0.00    -0.014 C 
HETATM   22  C1  UNL     1      -7.102   6.592  15.933  1.00  0.00     0.010 C 
BRANCH  21  23
HETATM   23  C3  UNL     1      -7.215   5.183  13.830  1.00  0.00     0.007 C 
BRANCH  23  24
HETATM   24  C4  UNL     1      -6.915   3.693  13.621  1.00  0.00     0.035 C 
BRANCH  24  25
HETATM   25  C5  UNL     1      -6.851   3.360  12.160  1.00  0.00     0.156 A 
HETATM   26  O1  UNL     1      -6.698   1.963  11.871  1.00  0.00    -0.370 OA
HETATM   27  C6  UNL     1      -5.609   2.813  11.475  1.00  0.00     0.080 A 
HETATM   28  C7  UNL     1      -5.483   2.974   9.991  1.00  0.00     0.048 C 
HETATM   29  C8  UNL     1      -4.340   2.571  12.229  1.00  0.00     0.048 C 
ENDBRANCH  24  25
ENDBRANCH  23  24
ENDBRANCH  21  23
ENDBRANCH   1  21
BRANCH   9  30
HETATM   30  C18 UNL     1       1.905   7.751  15.305  1.00  0.00     0.082 C 
HETATM   31  C19 UNL     1       1.660   6.739  14.164  1.00  0.00     0.049 C 
HETATM   32  C20 UNL     1       3.428   7.915  15.434  1.00  0.00     0.049 C 
BRANCH  30  33
HETATM   33  O2  UNL     1       1.507   7.113  16.531  1.00  0.00    -0.388 OA
HETATM   34  H35 UNL     1       1.877   6.212  16.542  1.00  0.00     0.210 HD
ENDBRANCH  30  33
ENDBRANCH   9  30
TORSDOF 6
ENDMDL
MODEL 4
REMARK minimizedAffinity -8.05057907
REMARK  6 active torsions:
REMARK  status: ('A' for Active; 'I' for Inactive)
REMARK    1  A    between atoms: C2_2  and  C3_3 
REMARK    2  A    between atoms: C2_2  and  C9_10 
REMARK    3  A    between atoms: C3_3  and  C4_4 
REMARK    4  A    between atoms: C4_4  and  C5_5 
REMARK    5  A    between atoms: C17_18  and  C18_19 
REMARK    6  A    between atoms: C18_19  and  O2_22 
ROOT
HETATM    1  C9  UNL     1       0.996   6.531  10.798  1.00  0.00    -0.002 C 
HETATM    2  C10 UNL     1      -0.103   5.423  10.717  1.00  0.00     0.006 C 
HETATM    3  C11 UNL     1      -1.073   5.655  11.898  1.00  0.00     0.011 C 
HETATM    4  C12 UNL     1      -0.317   6.616  12.831  1.00  0.00    -0.032 C 
HETATM    5  C13 UNL     1       0.692   5.720  13.625  1.00  0.00     0.016 C 
HETATM    6  C14 UNL     1      -1.201   7.460  13.796  1.00  0.00     0.003 C 
HETATM    7  C15 UNL     1      -2.120   6.659  14.736  1.00  0.00     0.009 C 
HETATM    8  C16 UNL     1      -2.568   7.449  15.969  1.00  0.00     0.042 C 
HETATM    9  C17 UNL     1      -2.785   8.986  15.796  1.00  0.00     0.095 C 
HETATM   10  O3  UNL     1      -2.842   9.435  17.168  1.00  0.00    -0.377 OA
HETATM   11  C21 UNL     1      -2.826  10.825  17.449  1.00  0.00     0.169 C 
HETATM   12  C22 UNL     1      -1.956  11.658  16.526  1.00  0.00     0.027 C 
HETATM   13  C23 UNL     1      -0.907  10.811  15.841  1.00  0.00     0.010 C 
HETATM   14  C24 UNL     1      -1.530   9.624  15.068  1.00  0.00     0.032 C 
HETATM   15  C25 UNL     1      -0.420   8.592  14.555  1.00  0.00    -0.033 C 
HETATM   16  C26 UNL     1       0.428   8.030  15.735  1.00  0.00     0.016 C 
HETATM   17  C27 UNL     1       0.558   9.358  13.588  1.00  0.00     0.011 C 
HETATM   18  C28 UNL     1       1.317   8.510  12.543  1.00  0.00     0.011 C 
HETATM   19  C29 UNL     1       0.368   7.576  11.771  1.00  0.00    -0.032 C 
HETATM   20  C30 UNL     1      -0.626   8.471  10.971  1.00  0.00     0.016 C 
ENDROOT
BRANCH   1  21
HETATM   21  C2  UNL     1       1.615   6.900   9.415  1.00  0.00    -0.014 C 
HETATM   22  C1  UNL     1       0.994   8.082   8.661  1.00  0.00     0.010 C 
BRANCH  21  23
HETATM   23  C3  UNL     1       3.149   7.053   9.505  1.00  0.00     0.007 C 
BRANCH  23  24
HETATM   24  C4  UNL     1       3.780   6.255  10.654  1.00  0.00     0.035 C 
BRANCH  24  25
HETATM   25  C5  UNL     1       4.766   7.094  11.411  1.00  0.00     0.156 A 
HETATM   26  O1  UNL     1       5.778   7.708  10.599  1.00  0.00    -0.370 OA
HETATM   27  C6  UNL     1       6.237   6.739  11.555  1.00  0.00     0.080 A 
HETATM   28  C7  UNL     1       7.008   7.337  12.692  1.00  0.00     0.048 C 
HETATM   29  C8  UNL     1       6.809   5.500  10.942  1.00  0.00     0.048 C 
ENDBRANCH  24  25
ENDBRANCH  23  24
ENDBRANCH  21  23
ENDBRANCH   1  21
BRANCH   9  30
HETATM   30  C18 UNL     1      -4.189   9.241  15.043  1.00  0.00     0.082 C 
HETATM   31  C19 UNL     1      -4.098   8.927  13.533  1.00  0.00     0.049 C 
HETATM   32  C20 UNL     1      -5.404   8.471  15.585  1.00  0.00     0.049 C 
BRANCH  30  33
HETATM   33  O2  UNL     1      -4.556  10.626  15.166  1.00  0.00    -0.388 OA
HETATM   34  H35 UNL     1      -5.289  10.805  14.550  1.00  0.00     0.210 HD
ENDBRANCH  30  33
ENDBRANCH   9  30
TORSDOF 6
ENDMDL
MODEL 5
REMARK minimizedAffinity -8.01335335
REMARK  6 active torsions:
REMARK  status: ('A' for Active; 'I' for Inactive)
REMARK    1  A    between atoms: C2_2  and  C3_3 
REMARK    2  A    between atoms: C2_2  and  C9_10 
REMARK    3  A    between atoms: C3_3  and  C4_4 
REMARK    4  A    between atoms: C4_4  and  C5_5 
REMARK    5  A    between atoms: C17_18  and  C18_19 
REMARK    6  A    between atoms: C18_19  and  O2_22 
ROOT
HETATM    1  C9  UNL     1      -4.789   3.840  12.619  1.00  0.00    -0.002 C 
HETATM    2  C10 UNL     1      -5.306   5.280  12.937  1.00  0.00     0.006 C 
HETATM    3  C11 UNL     1      -4.084   6.225  12.887  1.00  0.00     0.011 C 
HETATM    4  C12 UNL     1      -2.869   5.283  12.931  1.00  0.00    -0.032 C 
HETATM    5  C13 UNL     1      -2.704   4.885  14.437  1.00  0.00     0.016 C 
HETATM    6  C14 UNL     1      -1.543   5.858  12.352  1.00  0.00     0.003 C 
HETATM    7  C15 UNL     1      -1.039   7.162  12.998  1.00  0.00     0.009 C 
HETATM    8  C16 UNL     1       0.455   7.412  12.780  1.00  0.00     0.042 C 
HETATM    9  C17 UNL     1       1.075   6.924  11.432  1.00  0.00     0.095 C 
HETATM   10  O3  UNL     1       2.491   6.993  11.712  1.00  0.00    -0.377 OA
HETATM   11  C21 UNL     1       3.413   6.429  10.794  1.00  0.00     0.169 C 
HETATM   12  C22 UNL     1       2.943   5.158  10.110  1.00  0.00     0.027 C 
HETATM   13  C23 UNL     1       1.845   4.479  10.897  1.00  0.00     0.010 C 
HETATM   14  C24 UNL     1       0.646   5.423  11.159  1.00  0.00     0.032 C 
HETATM   15  C25 UNL     1      -0.398   4.795  12.195  1.00  0.00    -0.033 C 
HETATM   16  C26 UNL     1       0.280   4.456  13.557  1.00  0.00     0.016 C 
HETATM   17  C27 UNL     1      -0.947   3.449  11.589  1.00  0.00     0.011 C 
HETATM   18  C28 UNL     1      -2.333   2.975  12.078  1.00  0.00     0.011 C 
HETATM   19  C29 UNL     1      -3.379   4.103  12.003  1.00  0.00    -0.032 C 
HETATM   20  C30 UNL     1      -3.552   4.486  10.503  1.00  0.00     0.016 C 
ENDROOT
BRANCH   1  21
HETATM   21  C2  UNL     1      -5.862   2.921  11.959  1.00  0.00    -0.014 C 
HETATM   22  C1  UNL     1      -5.385   1.577  11.395  1.00  0.00     0.010 C 
BRANCH  21  23
HETATM   23  C3  UNL     1      -7.083   2.724  12.884  1.00  0.00     0.007 C 
BRANCH  23  24
HETATM   24  C4  UNL     1      -7.432   3.967  13.713  1.00  0.00     0.035 C 
BRANCH  24  25
HETATM   25  C5  UNL     1      -8.637   4.663  13.154  1.00  0.00     0.156 A 
HETATM   26  O1  UNL     1      -8.343   5.730  12.241  1.00  0.00    -0.370 OA
HETATM   27  C6  UNL     1      -8.995   6.108  13.464  1.00  0.00     0.080 A 
HETATM   28  C7  UNL     1     -10.414   6.548  13.276  1.00  0.00     0.048 C 
HETATM   29  C8  UNL     1      -8.152   6.947  14.371  1.00  0.00     0.048 C 
ENDBRANCH  24  25
ENDBRANCH  23  24
ENDBRANCH  21  23
ENDBRANCH   1  21
BRANCH   9  30
HETATM   30  C18 UNL     1       0.666   7.954  10.258  1.00  0.00     0.082 C 
HETATM   31  C19 UNL     1       0.387   7.227   8.925  1.00  0.00     0.049 C 
HETATM   32  C20 UNL     1      -0.549   8.856  10.535  1.00  0.00     0.049 C 
BRANCH  30  33
HETATM   33  O2  UNL     1       1.749   8.871  10.024  1.00  0.00    -0.388 OA
HETATM   34  H35 UNL     1       1.571   9.349   9.194  1.00  0.00     0.210 HD
ENDBRANCH  30  33
ENDBRANCH   9  30
TORSDOF 6
ENDMDL
MODEL 6
REMARK minimizedAffinity -7.93745279
REMARK  6 active torsions:
REMARK  status: ('A' for Active; 'I' for Inactive)
REMARK    1  A    between atoms: C2_2  and  C3_3 
REMARK    2  A    between atoms: C2_2  and  C9_10 
REMARK    3  A    between atoms: C3_3  and  C4_4 
REMARK    4  A    between atoms: C4_4  and  C5_5 
REMARK    5  A    between atoms: C17_18  and  C18_19 
REMARK    6  A    between atoms: C18_19  and  O2_22 
ROOT
HETATM    1  C9  UNL     1      -1.066   5.449  11.536  1.00  0.00    -0.002 C 
HETATM    2  C10 UNL     1       0.369   5.554  10.925  1.00  0.00     0.006 C 
HETATM    3  C11 UNL     1       1.089   6.714  11.649  1.00  0.00     0.011 C 
HETATM    4  C12 UNL     1      -0.039   7.482  12.359  1.00  0.00    -0.032 C 
HETATM    5  C13 UNL     1      -0.701   8.370  11.252  1.00  0.00     0.016 C 
HETATM    6  C14 UNL     1       0.391   8.340  13.586  1.00  0.00     0.003 C 
HETATM    7  C15 UNL     1       1.467   9.406  13.313  1.00  0.00     0.009 C 
HETATM    8  C16 UNL     1       1.494  10.526  14.357  1.00  0.00     0.042 C 
HETATM    9  C17 UNL     1       1.137  10.142  15.829  1.00  0.00     0.095 C 
HETATM   10  O3  UNL     1       0.918  11.438  16.430  1.00  0.00    -0.377 OA
HETATM   11  C21 UNL     1       0.366  11.518  17.734  1.00  0.00     0.169 C 
HETATM   12  C22 UNL     1      -0.677  10.464  18.057  1.00  0.00     0.027 C 
HETATM   13  C23 UNL     1      -1.281   9.880  16.799  1.00  0.00     0.010 C 
HETATM   14  C24 UNL     1      -0.205   9.299  15.851  1.00  0.00     0.032 C 
HETATM   15  C25 UNL     1      -0.810   8.910  14.422  1.00  0.00    -0.033 C 
HETATM   16  C26 UNL     1      -1.477  10.136  13.729  1.00  0.00     0.016 C 
HETATM   17  C27 UNL     1      -1.924   7.819  14.637  1.00  0.00     0.011 C 
HETATM   18  C28 UNL     1      -2.232   6.887  13.444  1.00  0.00     0.011 C 
HETATM   19  C29 UNL     1      -0.947   6.279  12.852  1.00  0.00    -0.032 C 
HETATM   20  C30 UNL     1      -0.298   5.385  13.951  1.00  0.00     0.016 C 
ENDROOT
BRANCH   1  21
HETATM   21  C2  UNL     1      -1.669   4.013  11.472  1.00  0.00    -0.014 C 
HETATM   22  C1  UNL     1      -0.691   2.835  11.567  1.00  0.00     0.010 C 
BRANCH  21  23
HETATM   23  C3  UNL     1      -2.831   3.842  12.476  1.00  0.00     0.007 C 
BRANCH  23  24
HETATM   24  C4  UNL     1      -4.160   4.427  11.983  1.00  0.00     0.035 C 
BRANCH  24  25
HETATM   25  C5  UNL     1      -5.313   3.566  12.406  1.00  0.00     0.156 A 
HETATM   26  O1  UNL     1      -6.487   3.694  11.591  1.00  0.00    -0.370 OA
HETATM   27  C6  UNL     1      -6.618   4.119  12.957  1.00  0.00     0.080 A 
HETATM   28  C7  UNL     1      -7.483   3.218  13.785  1.00  0.00     0.048 C 
HETATM   29  C8  UNL     1      -6.840   5.590  13.120  1.00  0.00     0.048 C 
ENDBRANCH  24  25
ENDBRANCH  23  24
ENDBRANCH  21  23
ENDBRANCH   1  21
BRANCH   9  30
HETATM   30  C18 UNL     1       2.400   9.396  16.502  1.00  0.00     0.082 C 
HETATM   31  C19 UNL     1       2.335   7.865  16.309  1.00  0.00     0.049 C 
HETATM   32  C20 UNL     1       3.791   9.845  16.026  1.00  0.00     0.049 C 
BRANCH  30  33
HETATM   33  O2  UNL     1       2.406   9.644  17.919  1.00  0.00    -0.388 OA
HETATM   34  H35 UNL     1       3.045   9.037  18.334  1.00  0.00     0.210 HD
ENDBRANCH  30  33
ENDBRANCH   9  30
TORSDOF 6
ENDMDL
MODEL 7
REMARK minimizedAffinity -7.82015467
REMARK  6 active torsions:
REMARK  status: ('A' for Active; 'I' for Inactive)
REMARK    1  A    between atoms: C2_2  and  C3_3 
REMARK    2  A    between atoms: C2_2  and  C9_10 
REMARK    3  A    between atoms: C3_3  and  C4_4 
REMARK    4  A    between atoms: C4_4  and  C5_5 
REMARK    5  A    between atoms: C17_18  and  C18_19 
REMARK    6  A    between atoms: C18_19  and  O2_22 
ROOT
HETATM    1  C9  UNL     1      -2.252   4.108  11.593  1.00  0.00    -0.002 C 
HETATM    2  C10 UNL     1      -0.907   3.313  11.635  1.00  0.00     0.006 C 
HETATM    3  C11 UNL     1       0.181   4.282  12.152  1.00  0.00     0.011 C 
HETATM    4  C12 UNL     1      -0.457   5.675  12.025  1.00  0.00    -0.032 C 
HETATM    5  C13 UNL     1      -0.314   6.064  10.515  1.00  0.00     0.016 C 
HETATM    6  C14 UNL     1       0.136   6.780  12.949  1.00  0.00     0.003 C 
HETATM    7  C15 UNL     1       1.647   7.036  12.803  1.00  0.00     0.009 C 
HETATM    8  C16 UNL     1       2.085   8.409  13.318  1.00  0.00     0.042 C 
HETATM    9  C17 UNL     1       1.313   8.995  14.544  1.00  0.00     0.095 C 
HETATM   10  O3  UNL     1       1.727  10.380  14.522  1.00  0.00    -0.377 OA
HETATM   11  C21 UNL     1       1.079  11.315  15.368  1.00  0.00     0.169 C 
HETATM   12  C22 UNL     1      -0.407  11.081  15.566  1.00  0.00     0.027 C 
HETATM   13  C23 UNL     1      -0.988  10.241  14.451  1.00  0.00     0.010 C 
HETATM   14  C24 UNL     1      -0.248   8.891  14.292  1.00  0.00     0.032 C 
HETATM   15  C25 UNL     1      -0.692   8.115  12.966  1.00  0.00    -0.033 C 
HETATM   16  C26 UNL     1      -0.445   8.974  11.689  1.00  0.00     0.016 C 
HETATM   17  C27 UNL     1      -2.237   7.827  13.055  1.00  0.00     0.011 C 
HETATM   18  C28 UNL     1      -2.776   6.634  12.235  1.00  0.00     0.011 C 
HETATM   19  C29 UNL     1      -1.945   5.360  12.473  1.00  0.00    -0.032 C 
HETATM   20  C30 UNL     1      -2.101   4.967  13.973  1.00  0.00     0.016 C 
ENDROOT
BRANCH   1  21
HETATM   21  C2  UNL     1      -3.514   3.212  11.775  1.00  0.00    -0.014 C 
HETATM   22  C1  UNL     1      -3.296   1.694  11.831  1.00  0.00     0.010 C 
BRANCH  21  23
HETATM   23  C3  UNL     1      -4.376   3.685  12.966  1.00  0.00     0.007 C 
BRANCH  23  24
HETATM   24  C4  UNL     1      -5.740   4.252  12.550  1.00  0.00     0.035 C 
BRANCH  24  25
HETATM   25  C5  UNL     1      -6.342   5.065  13.657  1.00  0.00     0.156 A 
HETATM   26  O1  UNL     1      -7.489   4.469  14.282  1.00  0.00    -0.370 OA
HETATM   27  C6  UNL     1      -7.721   5.701  13.580  1.00  0.00     0.080 A 
HETATM   28  C7  UNL     1      -8.026   6.857  14.484  1.00  0.00     0.048 C 
HETATM   29  C8  UNL     1      -8.584   5.559  12.366  1.00  0.00     0.048 C 
ENDBRANCH  24  25
ENDBRANCH  23  24
ENDBRANCH  21  23
ENDBRANCH   1  21
BRANCH   9  30
HETATM   30  C18 UNL     1       1.819   8.259  15.887  1.00  0.00     0.082 C 
HETATM   31  C19 UNL     1       3.125   7.468  15.655  1.00  0.00     0.049 C 
HETATM   32  C20 UNL     1       2.057   9.160  17.111  1.00  0.00     0.049 C 
BRANCH  30  33
HETATM   33  O2  UNL     1       0.824   7.316  16.323  1.00  0.00    -0.388 OA
HETATM   34  H35 UNL     1       1.219   6.747  17.007  1.00  0.00     0.210 HD
ENDBRANCH  30  33
ENDBRANCH   9  30
TORSDOF 6
ENDMDL
MODEL 8
REMARK minimizedAffinity -7.65211582
REMARK  6 active torsions:
REMARK  status: ('A' for Active; 'I' for Inactive)
REMARK    1  A    between atoms: C2_2  and  C3_3 
REMARK    2  A    between atoms: C2_2  and  C9_10 
REMARK    3  A    between atoms: C3_3  and  C4_4 
REMARK    4  A    between atoms: C4_4  and  C5_5 
REMARK    5  A    between atoms: C17_18  and  C18_19 
REMARK    6  A    between atoms: C18_19  and  O2_22 
ROOT
HETATM    1  C9  UNL     1      -6.596   6.806  14.697  1.00  0.00    -0.002 C 
HETATM    2  C10 UNL     1      -6.313   8.074  15.566  1.00  0.00     0.006 C 
HETATM    3  C11 UNL     1      -4.788   8.322  15.528  1.00  0.00     0.011 C 
HETATM    4  C12 UNL     1      -4.200   7.010  14.985  1.00  0.00    -0.032 C 
HETATM    5  C13 UNL     1      -4.173   6.027  16.204  1.00  0.00     0.016 C 
HETATM    6  C14 UNL     1      -2.795   7.119  14.320  1.00  0.00     0.003 C 
HETATM    7  C15 UNL     1      -1.679   7.701  15.205  1.00  0.00     0.009 C 
HETATM    8  C16 UNL     1      -0.271   7.334  14.730  1.00  0.00     0.042 C 
HETATM    9  C17 UNL     1      -0.047   7.194  13.190  1.00  0.00     0.095 C 
HETATM   10  O3  UNL     1       1.229   6.518  13.134  1.00  0.00    -0.377 OA
HETATM   11  C21 UNL     1       1.700   6.016  11.894  1.00  0.00     0.169 C 
HETATM   12  C22 UNL     1       0.627   5.461  10.976  1.00  0.00     0.027 C 
HETATM   13  C23 UNL     1      -0.620   5.086  11.746  1.00  0.00     0.010 C 
HETATM   14  C24 UNL     1      -1.177   6.273  12.568  1.00  0.00     0.032 C 
HETATM   15  C25 UNL     1      -2.338   5.818  13.569  1.00  0.00    -0.033 C 
HETATM   16  C26 UNL     1      -1.846   4.715  14.554  1.00  0.00     0.016 C 
HETATM   17  C27 UNL     1      -3.514   5.207  12.718  1.00  0.00     0.011 C 
HETATM   18  C28 UNL     1      -4.924   5.240  13.347  1.00  0.00     0.011 C 
HETATM   19  C29 UNL     1      -5.276   6.640  13.881  1.00  0.00    -0.032 C 
HETATM   20  C30 UNL     1      -5.316   7.612  12.664  1.00  0.00     0.016 C 
ENDROOT
BRANCH   1  21
HETATM   21  C2  UNL     1      -8.016   6.790  14.056  1.00  0.00    -0.014 C 
HETATM   22  C1  UNL     1      -8.385   5.576  13.195  1.00  0.00     0.010 C 
BRANCH  21  23
HETATM   23  C3  UNL     1      -9.114   7.071  15.106  1.00  0.00     0.007 C 
BRANCH  23  24
HETATM   24  C4  UNL     1     -10.162   8.091  14.641  1.00  0.00     0.035 C 
BRANCH  24  25
HETATM   25  C5  UNL     1     -11.357   7.400  14.054  1.00  0.00     0.156 A 
HETATM   26  O1  UNL     1     -11.353   7.311  12.622  1.00  0.00    -0.370 OA
HETATM   27  C6  UNL     1     -12.401   8.103  13.202  1.00  0.00     0.080 A 
HETATM   28  C7  UNL     1     -13.759   7.483  13.080  1.00  0.00     0.048 C 
HETATM   29  C8  UNL     1     -12.305   9.564  12.891  1.00  0.00     0.048 C 
ENDBRANCH  24  25
ENDBRANCH  23  24
ENDBRANCH  21  23
ENDBRANCH   1  21
BRANCH   9  30
HETATM   30  C18 UNL     1       0.046   8.664  12.533  1.00  0.00     0.082 C 
HETATM   31  C19 UNL     1       1.459   8.963  11.986  1.00  0.00     0.049 C 
HETATM   32  C20 UNL     1      -0.944   8.968  11.396  1.00  0.00     0.049 C 
BRANCH  30  33
HETATM   33  O2  UNL     1      -0.240   9.657  13.534  1.00  0.00    -0.388 OA
HETATM   34  H35 UNL     1       0.011  10.530  13.181  1.00  0.00     0.210 HD
ENDBRANCH  30  33
ENDBRANCH   9  30
TORSDOF 6
ENDMDL
MODEL 9
REMARK minimizedAffinity -7.59058857
REMARK  6 active torsions:
REMARK  status: ('A' for Active; 'I' for Inactive)
REMARK    1  A    between atoms: C2_2  and  C3_3 
REMARK    2  A    between atoms: C2_2  and  C9_10 
REMARK    3  A    between atoms: C3_3  and  C4_4 
REMARK    4  A    between atoms: C4_4  and  C5_5 
REMARK    5  A    between atoms: C17_18  and  C18_19 
REMARK    6  A    between atoms: C18_19  and  O2_22 
ROOT
HETATM    1  C9  UNL     1      -1.788   9.126  15.683  1.00  0.00    -0.002 C 
HETATM    2  C10 UNL     1      -0.784   8.357  16.600  1.00  0.00     0.006 C 
HETATM    3  C11 UNL     1       0.155   7.550  15.674  1.00  0.00     0.011 C 
HETATM    4  C12 UNL     1      -0.555   7.560  14.309  1.00  0.00    -0.032 C 
HETATM    5  C13 UNL     1      -1.666   6.461  14.409  1.00  0.00     0.016 C 
HETATM    6  C14 UNL     1       0.357   7.326  13.069  1.00  0.00     0.003 C 
HETATM    7  C15 UNL     1       1.168   6.018  13.069  1.00  0.00     0.009 C 
HETATM    8  C16 UNL     1       1.631   5.587  11.676  1.00  0.00     0.042 C 
HETATM    9  C17 UNL     1       1.983   6.717  10.656  1.00  0.00     0.095 C 
HETATM   10  O3  UNL     1       2.023   5.990   9.407  1.00  0.00    -0.377 OA
HETATM   11  C21 UNL     1       2.113   6.704   8.186  1.00  0.00     0.169 C 
HETATM   12  C22 UNL     1       1.353   8.018   8.152  1.00  0.00     0.027 C 
HETATM   13  C23 UNL     1       0.264   8.055   9.202  1.00  0.00     0.010 C 
HETATM   14  C24 UNL     1       0.816   7.789  10.623  1.00  0.00     0.032 C 
HETATM   15  C25 UNL     1      -0.355   7.580  11.692  1.00  0.00    -0.033 C 
HETATM   16  C26 UNL     1      -1.294   6.403  11.292  1.00  0.00     0.016 C 
HETATM   17  C27 UNL     1      -1.226   8.891  11.734  1.00  0.00     0.011 C 
HETATM   18  C28 UNL     1      -2.012   9.170  13.035  1.00  0.00     0.011 C 
HETATM   19  C29 UNL     1      -1.114   9.043  14.279  1.00  0.00    -0.032 C 
HETATM   20  C30 UNL     1      -0.018  10.146  14.184  1.00  0.00     0.016 C 
ENDROOT
BRANCH   1  21
HETATM   21  C2  UNL     1      -2.318  10.452  16.310  1.00  0.00    -0.014 C 
HETATM   22  C1  UNL     1      -3.562  10.359  17.203  1.00  0.00     0.010 C 
BRANCH  21  23
HETATM   23  C3  UNL     1      -1.190  11.231  17.022  1.00  0.00     0.007 C 
BRANCH  23  24
HETATM   24  C4  UNL     1      -1.513  11.584  18.480  1.00  0.00     0.035 C 
BRANCH  24  25
HETATM   25  C5  UNL     1      -0.536  12.588  19.016  1.00  0.00     0.156 A 
HETATM   26  O1  UNL     1       0.782  12.500  18.456  1.00  0.00    -0.370 OA
HETATM   27  C6  UNL     1       0.673  12.218  19.861  1.00  0.00     0.080 A 
HETATM   28  C7  UNL     1       1.284  13.271  20.733  1.00  0.00     0.048 C 
HETATM   29  C8  UNL     1       0.972  10.797  20.222  1.00  0.00     0.048 C 
ENDBRANCH  24  25
ENDBRANCH  23  24
ENDBRANCH  21  23
ENDBRANCH   1  21
BRANCH   9  30
HETATM   30  C18 UNL     1       3.432   7.326  11.019  1.00  0.00     0.082 C 
HETATM   31  C19 UNL     1       4.206   7.765   9.757  1.00  0.00     0.049 C 
HETATM   32  C20 UNL     1       3.447   8.520  11.988  1.00  0.00     0.049 C 
BRANCH  30  33
HETATM   33  O2  UNL     1       4.225   6.321  11.675  1.00  0.00    -0.388 OA
HETATM   34  H35 UNL     1       5.148   6.632  11.708  1.00  0.00     0.210 HD
ENDBRANCH  30  33
ENDBRANCH   9  30
TORSDOF 6
ENDMDL
