MODEL 1
REMARK minimizedAffinity -9.9714613
REMARK  6 active torsions:
REMARK  status: ('A' for Active; 'I' for Inactive)
REMARK    1  A    between atoms: C2_2  and  C30_31 
REMARK    2  A    between atoms: C3_3  and  C4_4 
REMARK    3  A    between atoms: C4_4  and  C5_5 
REMARK    4  A    between atoms: C5_5  and  C6_6 
REMARK    5  A    between atoms: C6_6  and  C8_8 
REMARK    6  A    between atoms: C30_31  and  O3_33 
ROOT
HETATM    1  C8  UNL     1      -5.240   7.024  15.042  1.00  0.00    -0.002 C 
HETATM    2  C9  UNL     1      -5.777   8.221  14.204  1.00  0.00     0.007 C 
HETATM    3  C10 UNL     1      -4.618   8.720  13.318  1.00  0.00     0.015 C 
HETATM    4  C11 UNL     1      -3.365   8.017  13.877  1.00  0.00    -0.013 C 
HETATM    5  C12 UNL     1      -2.892   8.881  15.092  1.00  0.00     0.021 C 
HETATM    6  C13 UNL     1      -2.152   7.875  12.961  1.00  0.00    -0.070 C 
HETATM    7  C14 UNL     1      -1.824   8.826  12.061  1.00  0.00    -0.022 C 
HETATM    8  C15 UNL     1      -0.596   8.794  11.192  1.00  0.00     0.034 C 
HETATM    9  C16 UNL     1       0.109   7.430  11.243  1.00  0.00     0.013 C 
HETATM   10  C17 UNL     1       1.388   7.285  10.358  1.00  0.00     0.018 C 
HETATM   11  C18 UNL     1       2.589   8.121  10.814  1.00  0.00     0.023 C 
HETATM   12  C19 UNL     1       1.067   7.658   8.894  1.00  0.00     0.023 C 
HETATM   13  C20 UNL     1       1.811   5.803  10.373  1.00  0.00     0.135 C 
HETATM   14  O1  UNL     1       2.620   5.349   9.562  1.00  0.00    -0.297 OA
HETATM   15  C21 UNL     1       1.180   4.902  11.416  1.00  0.00     0.080 C 
HETATM   16  C22 UNL     1       1.117   5.626  12.753  1.00  0.00     0.017 C 
HETATM   17  C23 UNL     1       0.232   6.907  12.728  1.00  0.00    -0.031 C 
HETATM   18  C24 UNL     1       0.876   7.929  13.703  1.00  0.00     0.016 C 
HETATM   19  C25 UNL     1      -1.261   6.631  13.182  1.00  0.00     0.024 C 
HETATM   20  C26 UNL     1      -1.431   6.044  14.604  1.00  0.00     0.010 C 
HETATM   21  C27 UNL     1      -2.896   5.821  15.057  1.00  0.00     0.011 C 
HETATM   22  C28 UNL     1      -3.951   6.612  14.255  1.00  0.00    -0.029 C 
HETATM   23  C29 UNL     1      -4.387   5.765  13.016  1.00  0.00     0.016 C 
ENDROOT
BRANCH   1  24
HETATM   24  C6  UNL     1      -6.336   5.961  15.330  1.00  0.00    -0.014 C 
HETATM   25  C7  UNL     1      -7.065   6.213  16.654  1.00  0.00     0.010 C 
BRANCH  24  26
HETATM   26  C5  UNL     1      -7.371   5.829  14.180  1.00  0.00     0.008 C 
BRANCH  26  27
HETATM   27  C4  UNL     1      -7.709   4.393  13.766  1.00  0.00     0.028 C 
BRANCH  27  28
HETATM   28  C3  UNL     1      -6.765   3.907  12.700  1.00  0.00    -0.013 C 
HETATM   29  C2  UNL     1      -6.668   2.659  12.196  1.00  0.00     0.008 C 
HETATM   30  C1  UNL     1      -7.467   1.468  12.633  1.00  0.00     0.055 C 
BRANCH  29  31
HETATM   31  C30 UNL     1      -5.656   2.455  11.127  1.00  0.00     0.171 C 
HETATM   32  O2  UNL     1      -5.175   3.309  10.403  1.00  0.00    -0.646 OA
BRANCH  31  33
HETATM   33  O3  UNL     1      -5.292   1.168  11.009  1.00  0.00    -0.773 OA
HETATM   34  H46 UNL     1      -4.637   1.185  10.280  1.00  0.00     0.167 HD
ENDBRANCH  31  33
ENDBRANCH  29  31
ENDBRANCH  27  28
ENDBRANCH  26  27
ENDBRANCH  24  26
ENDBRANCH   1  24
TORSDOF 6
ENDMDL
MODEL 2
REMARK minimizedAffinity -9.78770542
REMARK  6 active torsions:
REMARK  status: ('A' for Active; 'I' for Inactive)
REMARK    1  A    between atoms: C2_2  and  C30_31 
REMARK    2  A    between atoms: C3_3  and  C4_4 
REMARK    3  A    between atoms: C4_4  and  C5_5 
REMARK    4  A    between atoms: C5_5  and  C6_6 
REMARK    5  A    between atoms: C6_6  and  C8_8 
REMARK    6  A    between atoms: C30_31  and  O3_33 
ROOT
HETATM    1  C8  UNL     1      -3.340   7.676  14.452  1.00  0.00    -0.002 C 
HETATM    2  C9  UNL     1      -4.161   8.522  13.434  1.00  0.00     0.007 C 
HETATM    3  C10 UNL     1      -3.234   8.836  12.243  1.00  0.00     0.015 C 
HETATM    4  C11 UNL     1      -1.824   8.439  12.727  1.00  0.00    -0.013 C 
HETATM    5  C12 UNL     1      -1.290   9.660  13.545  1.00  0.00     0.021 C 
HETATM    6  C13 UNL     1      -0.762   8.138  11.673  1.00  0.00    -0.070 C 
HETATM    7  C14 UNL     1      -0.711   8.806  10.501  1.00  0.00    -0.022 C 
HETATM    8  C15 UNL     1       0.358   8.625   9.458  1.00  0.00     0.034 C 
HETATM    9  C16 UNL     1       1.244   7.403   9.749  1.00  0.00     0.013 C 
HETATM   10  C17 UNL     1       2.377   7.114   8.713  1.00  0.00     0.018 C 
HETATM   11  C18 UNL     1       3.507   8.148   8.686  1.00  0.00     0.023 C 
HETATM   12  C19 UNL     1       1.782   7.009   7.291  1.00  0.00     0.023 C 
HETATM   13  C20 UNL     1       2.995   5.745   9.055  1.00  0.00     0.135 C 
HETATM   14  O1  UNL     1       3.722   5.143   8.263  1.00  0.00    -0.297 OA
HETATM   15  C21 UNL     1       2.664   5.141  10.405  1.00  0.00     0.080 C 
HETATM   16  C22 UNL     1       2.712   6.218  11.479  1.00  0.00     0.017 C 
HETATM   17  C23 UNL     1       1.667   7.354  11.269  1.00  0.00    -0.031 C 
HETATM   18  C24 UNL     1       2.309   8.669  11.785  1.00  0.00     0.016 C 
HETATM   19  C25 UNL     1       0.315   7.097  12.055  1.00  0.00     0.024 C 
HETATM   20  C26 UNL     1       0.451   6.942  13.589  1.00  0.00     0.010 C 
HETATM   21  C27 UNL     1      -0.880   6.738  14.355  1.00  0.00     0.011 C 
HETATM   22  C28 UNL     1      -2.147   7.163  13.580  1.00  0.00    -0.029 C 
HETATM   23  C29 UNL     1      -2.650   5.954  12.728  1.00  0.00     0.016 C 
ENDROOT
BRANCH   1  24
HETATM   24  C6  UNL     1      -4.223   6.655  15.223  1.00  0.00    -0.014 C 
HETATM   25  C7  UNL     1      -5.641   7.178  15.476  1.00  0.00     0.010 C 
BRANCH  24  26
HETATM   26  C5  UNL     1      -4.292   5.268  14.531  1.00  0.00     0.008 C 
BRANCH  26  27
HETATM   27  C4  UNL     1      -5.636   4.929  13.878  1.00  0.00     0.028 C 
BRANCH  27  28
HETATM   28  C3  UNL     1      -5.454   3.941  12.758  1.00  0.00    -0.013 C 
HETATM   29  C2  UNL     1      -6.325   2.997  12.347  1.00  0.00     0.008 C 
HETATM   30  C1  UNL     1      -7.662   2.705  12.958  1.00  0.00     0.055 C 
BRANCH  29  31
HETATM   31  C30 UNL     1      -5.897   2.160  11.195  1.00  0.00     0.171 C 
HETATM   32  O2  UNL     1      -6.290   1.041  10.918  1.00  0.00    -0.646 OA
BRANCH  31  33
HETATM   33  O3  UNL     1      -4.975   2.774  10.435  1.00  0.00    -0.773 OA
HETATM   34  H46 UNL     1      -4.788   2.117   9.732  1.00  0.00     0.167 HD
ENDBRANCH  31  33
ENDBRANCH  29  31
ENDBRANCH  27  28
ENDBRANCH  26  27
ENDBRANCH  24  26
ENDBRANCH   1  24
TORSDOF 6
ENDMDL
MODEL 3
REMARK minimizedAffinity -9.708251
REMARK  6 active torsions:
REMARK  status: ('A' for Active; 'I' for Inactive)
REMARK    1  A    between atoms: C2_2  and  C30_31 
REMARK    2  A    between atoms: C3_3  and  C4_4 
REMARK    3  A    between atoms: C4_4  and  C5_5 
REMARK    4  A    between atoms: C5_5  and  C6_6 
REMARK    5  A    between atoms: C6_6  and  C8_8 
REMARK    6  A    between atoms: C30_31  and  O3_33 
ROOT
HETATM    1  C8  UNL     1       0.680   7.363  12.076  1.00  0.00    -0.002 C 
HETATM    2  C9  UNL     1       0.464   6.212  11.050  1.00  0.00     0.007 C 
HETATM    3  C10 UNL     1      -0.903   5.570  11.359  1.00  0.00     0.015 C 
HETATM    4  C11 UNL     1      -1.307   6.146  12.731  1.00  0.00    -0.013 C 
HETATM    5  C12 UNL     1      -0.582   5.264  13.799  1.00  0.00     0.021 C 
HETATM    6  C13 UNL     1      -2.787   6.135  13.107  1.00  0.00    -0.070 C 
HETATM    7  C14 UNL     1      -3.610   5.134  12.730  1.00  0.00    -0.022 C 
HETATM    8  C15 UNL     1      -5.053   5.013  13.139  1.00  0.00     0.034 C 
HETATM    9  C16 UNL     1      -5.568   6.293  13.815  1.00  0.00     0.013 C 
HETATM   10  C17 UNL     1      -7.065   6.279  14.262  1.00  0.00     0.018 C 
HETATM   11  C18 UNL     1      -7.385   5.328  15.421  1.00  0.00     0.023 C 
HETATM   12  C19 UNL     1      -7.973   5.909  13.068  1.00  0.00     0.023 C 
HETATM   13  C20 UNL     1      -7.443   7.706  14.703  1.00  0.00     0.135 C 
HETATM   14  O1  UNL     1      -8.616   8.051  14.854  1.00  0.00    -0.297 OA
HETATM   15  C21 UNL     1      -6.316   8.693  14.931  1.00  0.00     0.080 C 
HETATM   16  C22 UNL     1      -5.173   8.012  15.669  1.00  0.00     0.017 C 
HETATM   17  C23 UNL     1      -4.533   6.833  14.878  1.00  0.00    -0.031 C 
HETATM   18  C24 UNL     1      -4.087   5.771  15.917  1.00  0.00     0.016 C 
HETATM   19  C25 UNL     1      -3.275   7.280  14.023  1.00  0.00     0.024 C 
HETATM   20  C26 UNL     1      -2.113   7.914  14.824  1.00  0.00     0.010 C 
HETATM   21  C27 UNL     1      -0.868   8.305  13.989  1.00  0.00     0.011 C 
HETATM   22  C28 UNL     1      -0.769   7.615  12.611  1.00  0.00    -0.029 C 
HETATM   23  C29 UNL     1      -1.535   8.475  11.555  1.00  0.00     0.016 C 
ENDROOT
BRANCH   1  24
HETATM   24  C6  UNL     1       1.495   8.544  11.480  1.00  0.00    -0.014 C 
HETATM   25  C7  UNL     1       2.489   9.137  12.484  1.00  0.00     0.010 C 
BRANCH  24  26
HETATM   26  C5  UNL     1       2.236   8.170  10.169  1.00  0.00     0.008 C 
BRANCH  26  27
HETATM   27  C4  UNL     1       3.712   7.792  10.336  1.00  0.00     0.028 C 
BRANCH  27  28
HETATM   28  C3  UNL     1       3.905   6.308  10.182  1.00  0.00    -0.013 C 
HETATM   29  C2  UNL     1       3.490   5.527   9.163  1.00  0.00     0.008 C 
HETATM   30  C1  UNL     1       2.700   5.980   7.972  1.00  0.00     0.055 C 
BRANCH  29  31
HETATM   31  C30 UNL     1       3.834   4.084   9.254  1.00  0.00     0.171 C 
HETATM   32  O2  UNL     1       4.799   3.530   8.759  1.00  0.00    -0.646 OA
BRANCH  31  33
HETATM   33  O3  UNL     1       2.933   3.390   9.969  1.00  0.00    -0.773 OA
HETATM   34  H46 UNL     1       3.280   2.474   9.941  1.00  0.00     0.167 HD
ENDBRANCH  31  33
ENDBRANCH  29  31
ENDBRANCH  27  28
ENDBRANCH  26  27
ENDBRANCH  24  26
ENDBRANCH   1  24
TORSDOF 6
ENDMDL
MODEL 4
REMARK minimizedAffinity -9.46372509
REMARK  6 active torsions:
REMARK  status: ('A' for Active; 'I' for Inactive)
REMARK    1  A    between atoms: C2_2  and  C30_31 
REMARK    2  A    between atoms: C3_3  and  C4_4 
REMARK    3  A    between atoms: C4_4  and  C5_5 
REMARK    4  A    between atoms: C5_5  and  C6_6 
REMARK    5  A    between atoms: C6_6  and  C8_8 
REMARK    6  A    between atoms: C30_31  and  O3_33 
ROOT
HETATM    1  C8  UNL     1      -5.465   6.803  15.014  1.00  0.00    -0.002 C 
HETATM    2  C9  UNL     1      -6.008   8.022  14.211  1.00  0.00     0.007 C 
HETATM    3  C10 UNL     1      -4.843   8.567  13.359  1.00  0.00     0.015 C 
HETATM    4  C11 UNL     1      -3.589   7.861  13.911  1.00  0.00    -0.013 C 
HETATM    5  C12 UNL     1      -3.143   8.688  15.161  1.00  0.00     0.021 C 
HETATM    6  C13 UNL     1      -2.362   7.767  13.007  1.00  0.00    -0.070 C 
HETATM    7  C14 UNL     1      -2.035   8.753  12.145  1.00  0.00    -0.022 C 
HETATM    8  C15 UNL     1      -0.796   8.768  11.292  1.00  0.00     0.034 C 
HETATM    9  C16 UNL     1      -0.072   7.412  11.306  1.00  0.00     0.013 C 
HETATM   10  C17 UNL     1       1.220   7.315  10.434  1.00  0.00     0.018 C 
HETATM   11  C18 UNL     1       2.403   8.150  10.935  1.00  0.00     0.023 C 
HETATM   12  C19 UNL     1       0.913   7.735   8.980  1.00  0.00     0.023 C 
HETATM   13  C20 UNL     1       1.662   5.840  10.403  1.00  0.00     0.135 C 
HETATM   14  O1  UNL     1       2.488   5.424   9.588  1.00  0.00    -0.297 OA
HETATM   15  C21 UNL     1       1.030   4.894  11.405  1.00  0.00     0.080 C 
HETATM   16  C22 UNL     1       0.939   5.570  12.766  1.00  0.00     0.017 C 
HETATM   17  C23 UNL     1       0.038   6.839  12.773  1.00  0.00    -0.031 C 
HETATM   18  C24 UNL     1       0.655   7.834  13.792  1.00  0.00     0.016 C 
HETATM   19  C25 UNL     1      -1.458   6.528  13.196  1.00  0.00     0.024 C 
HETATM   20  C26 UNL     1      -1.639   5.889  14.594  1.00  0.00     0.010 C 
HETATM   21  C27 UNL     1      -3.105   5.632  15.020  1.00  0.00     0.011 C 
HETATM   22  C28 UNL     1      -4.161   6.436  14.231  1.00  0.00    -0.029 C 
HETATM   23  C29 UNL     1      -4.569   5.627  12.958  1.00  0.00     0.016 C 
ENDROOT
BRANCH   1  24
HETATM   24  C6  UNL     1      -6.551   5.717  15.250  1.00  0.00    -0.014 C 
HETATM   25  C7  UNL     1      -7.540   6.105  16.354  1.00  0.00     0.010 C 
BRANCH  24  26
HETATM   26  C5  UNL     1      -7.328   5.345  13.959  1.00  0.00     0.008 C 
BRANCH  26  27
HETATM   27  C4  UNL     1      -8.219   6.454  13.388  1.00  0.00     0.028 C 
BRANCH  27  28
HETATM   28  C3  UNL     1      -9.549   6.488  14.090  1.00  0.00    -0.013 C 
HETATM   29  C2  UNL     1     -10.727   6.921  13.595  1.00  0.00     0.008 C 
HETATM   30  C1  UNL     1     -10.949   7.507  12.233  1.00  0.00     0.055 C 
BRANCH  29  31
HETATM   31  C30 UNL     1     -11.899   6.823  14.503  1.00  0.00     0.171 C 
HETATM   32  O2  UNL     1     -12.879   6.113  14.359  1.00  0.00    -0.646 OA
BRANCH  31  33
HETATM   33  O3  UNL     1     -11.791   7.640  15.564  1.00  0.00    -0.773 OA
HETATM   34  H46 UNL     1     -12.619   7.474  16.062  1.00  0.00     0.167 HD
ENDBRANCH  31  33
ENDBRANCH  29  31
ENDBRANCH  27  28
ENDBRANCH  26  27
ENDBRANCH  24  26
ENDBRANCH   1  24
TORSDOF 6
ENDMDL
MODEL 5
REMARK minimizedAffinity -9.25401115
REMARK  6 active torsions:
REMARK  status: ('A' for Active; 'I' for Inactive)
REMARK    1  A    between atoms: C2_2  and  C30_31 
REMARK    2  A    between atoms: C3_3  and  C4_4 
REMARK    3  A    between atoms: C4_4  and  C5_5 
REMARK    4  A    between atoms: C5_5  and  C6_6 
REMARK    5  A    between atoms: C6_6  and  C8_8 
REMARK    6  A    between atoms: C30_31  and  O3_33 
ROOT
HETATM    1  C8  UNL     1      -3.428   7.495  14.423  1.00  0.00    -0.002 C 
HETATM    2  C9  UNL     1      -4.232   8.386  13.430  1.00  0.00     0.007 C 
HETATM    3  C10 UNL     1      -3.289   8.740  12.262  1.00  0.00     0.015 C 
HETATM    4  C11 UNL     1      -1.888   8.315  12.746  1.00  0.00    -0.013 C 
HETATM    5  C12 UNL     1      -1.355   9.500  13.616  1.00  0.00     0.021 C 
HETATM    6  C13 UNL     1      -0.816   8.048  11.693  1.00  0.00    -0.070 C 
HETATM    7  C14 UNL     1      -0.747   8.760  10.548  1.00  0.00    -0.022 C 
HETATM    8  C15 UNL     1       0.332   8.612   9.511  1.00  0.00     0.034 C 
HETATM    9  C16 UNL     1       1.206   7.374   9.763  1.00  0.00     0.013 C 
HETATM   10  C17 UNL     1       2.349   7.118   8.729  1.00  0.00     0.018 C 
HETATM   11  C18 UNL     1       3.486   8.144   8.755  1.00  0.00     0.023 C 
HETATM   12  C19 UNL     1       1.770   7.073   7.298  1.00  0.00     0.023 C 
HETATM   13  C20 UNL     1       2.954   5.732   9.024  1.00  0.00     0.135 C 
HETATM   14  O1  UNL     1       3.686   5.156   8.217  1.00  0.00    -0.297 OA
HETATM   15  C21 UNL     1       2.604   5.078  10.346  1.00  0.00     0.080 C 
HETATM   16  C22 UNL     1       2.647   6.113  11.461  1.00  0.00     0.017 C 
HETATM   17  C23 UNL     1       1.612   7.263  11.285  1.00  0.00    -0.031 C 
HETATM   18  C24 UNL     1       2.257   8.552  11.859  1.00  0.00     0.016 C 
HETATM   19  C25 UNL     1       0.249   6.985  12.045  1.00  0.00     0.024 C 
HETATM   20  C26 UNL     1       0.367   6.770  13.573  1.00  0.00     0.010 C 
HETATM   21  C27 UNL     1      -0.973   6.545  14.316  1.00  0.00     0.011 C 
HETATM   22  C28 UNL     1      -2.228   7.008  13.545  1.00  0.00    -0.029 C 
HETATM   23  C29 UNL     1      -2.730   5.837  12.640  1.00  0.00     0.016 C 
ENDROOT
BRANCH   1  24
HETATM   24  C6  UNL     1      -4.326   6.452  15.144  1.00  0.00    -0.014 C 
HETATM   25  C7  UNL     1      -5.505   7.099  15.878  1.00  0.00     0.010 C 
BRANCH  24  26
HETATM   26  C5  UNL     1      -4.847   5.340  14.194  1.00  0.00     0.008 C 
BRANCH  26  27
HETATM   27  C4  UNL     1      -5.736   5.825  13.044  1.00  0.00     0.028 C 
BRANCH  27  28
HETATM   28  C3  UNL     1      -7.060   6.319  13.561  1.00  0.00    -0.013 C 
HETATM   29  C2  UNL     1      -8.266   5.730  13.424  1.00  0.00     0.008 C 
HETATM   30  C1  UNL     1      -8.546   4.460  12.678  1.00  0.00     0.055 C 
BRANCH  29  31
HETATM   31  C30 UNL     1      -9.416   6.427  14.055  1.00  0.00     0.171 C 
HETATM   32  O2  UNL     1     -10.283   7.070  13.488  1.00  0.00    -0.646 OA
BRANCH  31  33
HETATM   33  O3  UNL     1      -9.424   6.290  15.391  1.00  0.00    -0.773 OA
HETATM   34  H46 UNL     1     -10.219   6.794  15.665  1.00  0.00     0.167 HD
ENDBRANCH  31  33
ENDBRANCH  29  31
ENDBRANCH  27  28
ENDBRANCH  26  27
ENDBRANCH  24  26
ENDBRANCH   1  24
TORSDOF 6
ENDMDL
MODEL 6
REMARK minimizedAffinity -9.14185905
REMARK  6 active torsions:
REMARK  status: ('A' for Active; 'I' for Inactive)
REMARK    1  A    between atoms: C2_2  and  C30_31 
REMARK    2  A    between atoms: C3_3  and  C4_4 
REMARK    3  A    between atoms: C4_4  and  C5_5 
REMARK    4  A    between atoms: C5_5  and  C6_6 
REMARK    5  A    between atoms: C6_6  and  C8_8 
REMARK    6  A    between atoms: C30_31  and  O3_33 
ROOT
HETATM    1  C8  UNL     1      -3.153   7.743  15.290  1.00  0.00    -0.002 C 
HETATM    2  C9  UNL     1      -2.209   8.098  16.476  1.00  0.00     0.007 C 
HETATM    3  C10 UNL     1      -0.759   7.945  15.972  1.00  0.00     0.015 C 
HETATM    4  C11 UNL     1      -0.888   7.215  14.620  1.00  0.00    -0.013 C 
HETATM    5  C12 UNL     1      -0.996   5.693  14.961  1.00  0.00     0.021 C 
HETATM    6  C13 UNL     1       0.259   7.345  13.621  1.00  0.00    -0.070 C 
HETATM    7  C14 UNL     1       1.546   7.420  14.021  1.00  0.00    -0.022 C 
HETATM    8  C15 UNL     1       2.729   7.459  13.092  1.00  0.00     0.034 C 
HETATM    9  C16 UNL     1       2.307   7.674  11.631  1.00  0.00     0.013 C 
HETATM   10  C17 UNL     1       3.465   7.749  10.585  1.00  0.00     0.018 C 
HETATM   11  C18 UNL     1       4.217   6.434  10.358  1.00  0.00     0.023 C 
HETATM   12  C19 UNL     1       4.489   8.827  11.003  1.00  0.00     0.023 C 
HETATM   13  C20 UNL     1       2.860   8.187   9.238  1.00  0.00     0.135 C 
HETATM   14  O1  UNL     1       3.564   8.582   8.306  1.00  0.00    -0.297 OA
HETATM   15  C21 UNL     1       1.352   8.137   9.093  1.00  0.00     0.080 C 
HETATM   16  C22 UNL     1       0.816   6.857   9.718  1.00  0.00     0.017 C 
HETATM   17  C23 UNL     1       1.087   6.749  11.248  1.00  0.00    -0.031 C 
HETATM   18  C24 UNL     1       1.312   5.247  11.568  1.00  0.00     0.016 C 
HETATM   19  C25 UNL     1      -0.119   7.289  12.124  1.00  0.00     0.024 C 
HETATM   20  C26 UNL     1      -1.479   6.586  11.897  1.00  0.00     0.010 C 
HETATM   21  C27 UNL     1      -2.641   7.087  12.790  1.00  0.00     0.011 C 
HETATM   22  C28 UNL     1      -2.202   7.859  14.054  1.00  0.00    -0.029 C 
HETATM   23  C29 UNL     1      -2.050   9.373  13.697  1.00  0.00     0.016 C 
ENDROOT
BRANCH   1  24
HETATM   24  C6  UNL     1      -4.476   8.557  15.321  1.00  0.00    -0.014 C 
HETATM   25  C7  UNL     1      -4.235  10.070  15.314  1.00  0.00     0.010 C 
BRANCH  24  26
HETATM   26  C5  UNL     1      -5.451   8.176  14.175  1.00  0.00     0.008 C 
BRANCH  26  27
HETATM   27  C4  UNL     1      -5.178   6.825  13.505  1.00  0.00     0.028 C 
BRANCH  27  28
HETATM   28  C3  UNL     1      -6.290   5.853  13.788  1.00  0.00    -0.013 C 
HETATM   29  C2  UNL     1      -6.373   4.565  13.395  1.00  0.00     0.008 C 
HETATM   30  C1  UNL     1      -5.377   3.837  12.544  1.00  0.00     0.055 C 
BRANCH  29  31
HETATM   31  C30 UNL     1      -7.581   3.818  13.833  1.00  0.00     0.171 C 
HETATM   32  O2  UNL     1      -8.225   3.018  13.176  1.00  0.00    -0.646 OA
BRANCH  31  33
HETATM   33  O3  UNL     1      -7.938   4.120  15.092  1.00  0.00    -0.773 OA
HETATM   34  H46 UNL     1      -8.734   3.568  15.240  1.00  0.00     0.167 HD
ENDBRANCH  31  33
ENDBRANCH  29  31
ENDBRANCH  27  28
ENDBRANCH  26  27
ENDBRANCH  24  26
ENDBRANCH   1  24
TORSDOF 6
ENDMDL
MODEL 7
REMARK minimizedAffinity -9.00048256
REMARK  6 active torsions:
REMARK  status: ('A' for Active; 'I' for Inactive)
REMARK    1  A    between atoms: C2_2  and  C30_31 
REMARK    2  A    between atoms: C3_3  and  C4_4 
REMARK    3  A    between atoms: C4_4  and  C5_5 
REMARK    4  A    between atoms: C5_5  and  C6_6 
REMARK    5  A    between atoms: C6_6  and  C8_8 
REMARK    6  A    between atoms: C30_31  and  O3_33 
ROOT
HETATM    1  C8  UNL     1      -3.999   6.375  14.239  1.00  0.00    -0.002 C 
HETATM    2  C9  UNL     1      -4.526   5.144  13.445  1.00  0.00     0.007 C 
HETATM    3  C10 UNL     1      -6.067   5.210  13.461  1.00  0.00     0.015 C 
HETATM    4  C11 UNL     1      -6.402   6.288  14.511  1.00  0.00    -0.013 C 
HETATM    5  C12 UNL     1      -6.358   5.568  15.898  1.00  0.00     0.021 C 
HETATM    6  C13 UNL     1      -7.767   6.968  14.430  1.00  0.00    -0.070 C 
HETATM    7  C14 UNL     1      -8.873   6.302  14.036  1.00  0.00    -0.022 C 
HETATM    8  C15 UNL     1     -10.261   6.882  14.020  1.00  0.00     0.034 C 
HETATM    9  C16 UNL     1     -10.252   8.402  14.246  1.00  0.00     0.013 C 
HETATM   10  C17 UNL     1     -11.646   9.107  14.228  1.00  0.00     0.018 C 
HETATM   11  C18 UNL     1     -12.561   8.759  15.407  1.00  0.00     0.023 C 
HETATM   12  C19 UNL     1     -12.394   8.772  12.919  1.00  0.00     0.023 C 
HETATM   13  C20 UNL     1     -11.408  10.628  14.245  1.00  0.00     0.135 C 
HETATM   14  O1  UNL     1     -12.304  11.430  13.974  1.00  0.00    -0.297 OA
HETATM   15  C21 UNL     1     -10.017  11.120  14.592  1.00  0.00     0.080 C 
HETATM   16  C22 UNL     1      -9.459  10.311  15.754  1.00  0.00     0.017 C 
HETATM   17  C23 UNL     1      -9.292   8.796  15.436  1.00  0.00    -0.031 C 
HETATM   18  C24 UNL     1      -9.568   8.018  16.750  1.00  0.00     0.016 C 
HETATM   19  C25 UNL     1      -7.839   8.434  14.917  1.00  0.00     0.024 C 
HETATM   20  C26 UNL     1      -6.678   8.780  15.880  1.00  0.00     0.010 C 
HETATM   21  C27 UNL     1      -5.266   8.380  15.386  1.00  0.00     0.011 C 
HETATM   22  C28 UNL     1      -5.246   7.320  14.264  1.00  0.00    -0.029 C 
HETATM   23  C29 UNL     1      -5.338   8.042  12.881  1.00  0.00     0.016 C 
ENDROOT
BRANCH   1  24
HETATM   24  C6  UNL     1      -2.646   6.903  13.686  1.00  0.00    -0.014 C 
HETATM   25  C7  UNL     1      -2.043   8.005  14.563  1.00  0.00     0.010 C 
BRANCH  24  26
HETATM   26  C5  UNL     1      -1.600   5.778  13.464  1.00  0.00     0.008 C 
BRANCH  26  27
HETATM   27  C4  UNL     1      -1.213   5.522  12.004  1.00  0.00     0.028 C 
BRANCH  27  28
HETATM   28  C3  UNL     1      -0.992   4.055  11.757  1.00  0.00    -0.013 C 
HETATM   29  C2  UNL     1      -1.786   3.209  11.068  1.00  0.00     0.008 C 
HETATM   30  C1  UNL     1      -3.097   3.555  10.430  1.00  0.00     0.055 C 
BRANCH  29  31
HETATM   31  C30 UNL     1      -1.316   1.804  10.961  1.00  0.00     0.171 C 
HETATM   32  O2  UNL     1      -0.162   1.423  10.864  1.00  0.00    -0.646 OA
BRANCH  31  33
HETATM   33  O3  UNL     1      -2.331   0.925  10.972  1.00  0.00    -0.773 OA
HETATM   34  H46 UNL     1      -1.881   0.058  10.892  1.00  0.00     0.167 HD
ENDBRANCH  31  33
ENDBRANCH  29  31
ENDBRANCH  27  28
ENDBRANCH  26  27
ENDBRANCH  24  26
ENDBRANCH   1  24
TORSDOF 6
ENDMDL
MODEL 8
REMARK minimizedAffinity -8.87987518
REMARK  6 active torsions:
REMARK  status: ('A' for Active; 'I' for Inactive)
REMARK    1  A    between atoms: C2_2  and  C30_31 
REMARK    2  A    between atoms: C3_3  and  C4_4 
REMARK    3  A    between atoms: C4_4  and  C5_5 
REMARK    4  A    between atoms: C5_5  and  C6_6 
REMARK    5  A    between atoms: C6_6  and  C8_8 
REMARK    6  A    between atoms: C30_31  and  O3_33 
ROOT
HETATM    1  C8  UNL     1       0.666   7.335  12.037  1.00  0.00    -0.002 C 
HETATM    2  C9  UNL     1       0.429   6.199  11.000  1.00  0.00     0.007 C 
HETATM    3  C10 UNL     1      -0.941   5.566  11.314  1.00  0.00     0.015 C 
HETATM    4  C11 UNL     1      -1.326   6.129  12.696  1.00  0.00    -0.013 C 
HETATM    5  C12 UNL     1      -0.599   5.227  13.747  1.00  0.00     0.021 C 
HETATM    6  C13 UNL     1      -2.802   6.128  13.086  1.00  0.00    -0.070 C 
HETATM    7  C14 UNL     1      -3.639   5.139  12.706  1.00  0.00    -0.022 C 
HETATM    8  C15 UNL     1      -5.079   5.026  13.128  1.00  0.00     0.034 C 
HETATM    9  C16 UNL     1      -5.576   6.303  13.823  1.00  0.00     0.013 C 
HETATM   10  C17 UNL     1      -7.068   6.297  14.285  1.00  0.00     0.018 C 
HETATM   11  C18 UNL     1      -7.385   5.335  15.435  1.00  0.00     0.023 C 
HETATM   12  C19 UNL     1      -7.991   5.951  13.096  1.00  0.00     0.023 C 
HETATM   13  C20 UNL     1      -7.428   7.722  14.746  1.00  0.00     0.135 C 
HETATM   14  O1  UNL     1      -8.596   8.077  14.913  1.00  0.00    -0.297 OA
HETATM   15  C21 UNL     1      -6.290   8.696  14.975  1.00  0.00     0.080 C 
HETATM   16  C22 UNL     1      -5.147   7.995  15.695  1.00  0.00     0.017 C 
HETATM   17  C23 UNL     1      -4.525   6.820  14.883  1.00  0.00    -0.031 C 
HETATM   18  C24 UNL     1      -4.080   5.741  15.905  1.00  0.00     0.016 C 
HETATM   19  C25 UNL     1      -3.271   7.265  14.021  1.00  0.00     0.024 C 
HETATM   20  C26 UNL     1      -2.095   7.880  14.819  1.00  0.00     0.010 C 
HETATM   21  C27 UNL     1      -0.855   8.268  13.976  1.00  0.00     0.011 C 
HETATM   22  C28 UNL     1      -0.775   7.594  12.589  1.00  0.00    -0.029 C 
HETATM   23  C29 UNL     1      -1.544   8.475  11.552  1.00  0.00     0.016 C 
ENDROOT
BRANCH   1  24
HETATM   24  C6  UNL     1       1.486   8.516  11.448  1.00  0.00    -0.014 C 
HETATM   25  C7  UNL     1       2.338   9.225  12.506  1.00  0.00     0.010 C 
BRANCH  24  26
HETATM   26  C5  UNL     1       2.380   8.096  10.251  1.00  0.00     0.008 C 
BRANCH  26  27
HETATM   27  C4  UNL     1       2.867   6.643  10.275  1.00  0.00     0.028 C 
BRANCH  27  28
HETATM   28  C3  UNL     1       4.311   6.569  10.689  1.00  0.00    -0.013 C 
HETATM   29  C2  UNL     1       5.242   7.542  10.598  1.00  0.00     0.008 C 
HETATM   30  C1  UNL     1       5.035   8.908  10.017  1.00  0.00     0.055 C 
BRANCH  29  31
HETATM   31  C30 UNL     1       6.599   7.206  11.103  1.00  0.00     0.171 C 
HETATM   32  O2  UNL     1       7.333   7.922  11.761  1.00  0.00    -0.646 OA
BRANCH  31  33
HETATM   33  O3  UNL     1       6.982   5.969  10.748  1.00  0.00    -0.773 OA
HETATM   34  H46 UNL     1       7.878   5.889  11.139  1.00  0.00     0.167 HD
ENDBRANCH  31  33
ENDBRANCH  29  31
ENDBRANCH  27  28
ENDBRANCH  26  27
ENDBRANCH  24  26
ENDBRANCH   1  24
TORSDOF 6
ENDMDL
MODEL 9
REMARK minimizedAffinity -8.78325748
REMARK  6 active torsions:
REMARK  status: ('A' for Active; 'I' for Inactive)
REMARK    1  A    between atoms: C2_2  and  C30_31 
REMARK    2  A    between atoms: C3_3  and  C4_4 
REMARK    3  A    between atoms: C4_4  and  C5_5 
REMARK    4  A    between atoms: C5_5  and  C6_6 
REMARK    5  A    between atoms: C6_6  and  C8_8 
REMARK    6  A    between atoms: C30_31  and  O3_33 
ROOT
HETATM    1  C8  UNL     1      -1.780   6.323  12.873  1.00  0.00    -0.002 C 
HETATM    2  C9  UNL     1      -1.669   5.619  11.488  1.00  0.00     0.007 C 
HETATM    3  C10 UNL     1      -0.252   5.891  10.945  1.00  0.00     0.015 C 
HETATM    4  C11 UNL     1       0.317   6.990  11.865  1.00  0.00    -0.013 C 
HETATM    5  C12 UNL     1      -0.224   8.345  11.305  1.00  0.00     0.021 C 
HETATM    6  C13 UNL     1       1.834   7.142  11.948  1.00  0.00    -0.070 C 
HETATM    7  C14 UNL     1       2.631   6.933  10.879  1.00  0.00    -0.022 C 
HETATM    8  C15 UNL     1       4.119   7.151  10.864  1.00  0.00     0.034 C 
HETATM    9  C16 UNL     1       4.680   7.383  12.276  1.00  0.00     0.013 C 
HETATM   10  C17 UNL     1       6.223   7.602  12.374  1.00  0.00     0.018 C 
HETATM   11  C18 UNL     1       6.730   8.914  11.767  1.00  0.00     0.023 C 
HETATM   12  C19 UNL     1       6.971   6.433  11.695  1.00  0.00     0.023 C 
HETATM   13  C20 UNL     1       6.611   7.590  13.865  1.00  0.00     0.135 C 
HETATM   14  O1  UNL     1       7.782   7.477  14.233  1.00  0.00    -0.297 OA
HETATM   15  C21 UNL     1       5.494   7.704  14.883  1.00  0.00     0.080 C 
HETATM   16  C22 UNL     1       4.487   8.751  14.430  1.00  0.00     0.017 C 
HETATM   17  C23 UNL     1       3.784   8.399  13.086  1.00  0.00    -0.031 C 
HETATM   18  C24 UNL     1       3.520   9.736  12.343  1.00  0.00     0.016 C 
HETATM   19  C25 UNL     1       2.406   7.643  13.294  1.00  0.00     0.024 C 
HETATM   20  C26 UNL     1       1.344   8.403  14.126  1.00  0.00     0.010 C 
HETATM   21  C27 UNL     1      -0.015   7.678  14.284  1.00  0.00     0.011 C 
HETATM   22  C28 UNL     1      -0.280   6.561  13.252  1.00  0.00    -0.029 C 
HETATM   23  C29 UNL     1       0.305   5.218  13.795  1.00  0.00     0.016 C 
ENDROOT
BRANCH   1  24
HETATM   24  C6  UNL     1      -2.707   5.556  13.855  1.00  0.00    -0.014 C 
HETATM   25  C7  UNL     1      -2.762   6.208  15.241  1.00  0.00     0.010 C 
BRANCH  24  26
HETATM   26  C5  UNL     1      -4.148   5.367  13.309  1.00  0.00     0.008 C 
BRANCH  26  27
HETATM   27  C4  UNL     1      -4.305   4.275  12.244  1.00  0.00     0.028 C 
BRANCH  27  28
HETATM   28  C3  UNL     1      -5.559   3.478  12.477  1.00  0.00    -0.013 C 
HETATM   29  C2  UNL     1      -6.805   3.950  12.691  1.00  0.00     0.008 C 
HETATM   30  C1  UNL     1      -7.195   5.395  12.784  1.00  0.00     0.055 C 
BRANCH  29  31
HETATM   31  C30 UNL     1      -7.874   2.934  12.873  1.00  0.00     0.171 C 
HETATM   32  O2  UNL     1      -7.738   1.723  12.881  1.00  0.00    -0.646 OA
BRANCH  31  33
HETATM   33  O3  UNL     1      -9.085   3.492  13.032  1.00  0.00    -0.773 OA
HETATM   34  H46 UNL     1      -9.678   2.718  13.135  1.00  0.00     0.167 HD
ENDBRANCH  31  33
ENDBRANCH  29  31
ENDBRANCH  27  28
ENDBRANCH  26  27
ENDBRANCH  24  26
ENDBRANCH   1  24
TORSDOF 6
ENDMDL
