MODEL 1
REMARK minimizedAffinity -10.1328821
REMARK  7 active torsions:
REMARK  status: ('A' for Active; 'I' for Inactive)
REMARK    1  A    between atoms: C2_2  and  C4_4 
REMARK    2  A    between atoms: C4_4  and  C6_6 
REMARK    3  A    between atoms: C7_7  and  C8_8 
REMARK    4  A    between atoms: C8_8  and  O1_10 
REMARK    5  A    between atoms: C8_8  and  C10_11 
REMARK    6  A    between atoms: C15_16  and  O2_17 
REMARK    7  A    between atoms: C26_29  and  O4_30 
ROOT
HETATM    1  C10 UNL     1      -0.529  51.692 -25.149  1.00  0.00     0.034 C 
HETATM    2  C11 UNL     1       0.147  53.100 -25.171  1.00  0.00     0.009 C 
HETATM    3  C12 UNL     1       0.381  53.502 -23.708  1.00  0.00     0.006 C 
HETATM    4  C13 UNL     1       0.023  52.250 -22.917  1.00  0.00     0.003 C 
HETATM    5  C14 UNL     1      -0.243  52.402 -21.410  1.00  0.00     0.024 C 
HETATM    6  C15 UNL     1       0.915  53.109 -20.679  1.00  0.00     0.123 C 
HETATM    7  C16 UNL     1       0.711  53.139 -19.165  1.00  0.00     0.038 C 
HETATM    8  C17 UNL     1       0.425  51.749 -18.574  1.00  0.00     0.003 C 
HETATM    9  C18 UNL     1       0.254  51.855 -17.050  1.00  0.00     0.083 C 
HETATM   10  C19 UNL     1      -0.291  50.575 -16.459  1.00  0.00     0.127 C 
HETATM   11  O3  UNL     1      -0.690  50.529 -15.297  1.00  0.00    -0.298 OA
HETATM   12  C20 UNL     1      -0.243  49.343 -17.325  1.00  0.00     0.079 C 
HETATM   13  C21 UNL     1      -0.865  49.569 -18.704  1.00  0.00     0.017 C 
HETATM   14  C22 UNL     1      -0.777  51.027 -19.260  1.00  0.00    -0.035 C 
HETATM   15  C23 UNL     1      -2.115  51.746 -18.935  1.00  0.00     0.016 C 
HETATM   16  C24 UNL     1      -0.528  50.988 -20.816  1.00  0.00     0.003 C 
HETATM   17  C25 UNL     1      -1.635  50.253 -21.614  1.00  0.00     0.038 C 
HETATM   18  C26 UNL     1      -1.382  50.213 -23.135  1.00  0.00     0.127 C 
HETATM   19  C27 UNL     1      -1.158  51.626 -23.716  1.00  0.00    -0.007 C 
HETATM   20  C28 UNL     1      -2.456  52.465 -23.612  1.00  0.00     0.019 C 
ENDROOT
BRANCH   1  21
HETATM   21  C8  UNL     1      -1.303  51.352 -26.464  1.00  0.00     0.076 C 
HETATM   22  C9  UNL     1      -2.131  52.499 -27.056  1.00  0.00     0.051 C 
BRANCH  21  23
HETATM   23  C7  UNL     1      -2.089  50.056 -26.347  1.00  0.00     0.007 C 
HETATM   24  C6  UNL     1      -3.351  49.845 -26.762  1.00  0.00    -0.023 C 
BRANCH  24  25
HETATM   25  C4  UNL     1      -4.076  48.522 -26.635  1.00  0.00     0.007 C 
HETATM   26  C5  UNL     1      -4.436  48.010 -28.033  1.00  0.00     0.014 C 
BRANCH  25  27
HETATM   27  C2  UNL     1      -5.317  48.573 -25.700  1.00  0.00    -0.015 C 
HETATM   28  C1  UNL     1      -6.468  47.721 -26.245  1.00  0.00     0.010 C 
HETATM   29  C3  UNL     1      -5.032  48.181 -24.246  1.00  0.00     0.010 C 
ENDBRANCH  25  27
ENDBRANCH  24  25
ENDBRANCH  21  23
BRANCH  21  30
HETATM   30  O1  UNL     1      -0.283  51.084 -27.451  1.00  0.00    -0.386 OA
HETATM   31  H17 UNL     1      -0.040  50.145 -27.377  1.00  0.00     0.211 HD
ENDBRANCH  21  30
ENDBRANCH   1  21
BRANCH  18  32
HETATM   32  O4  UNL     1      -2.501  49.592 -23.751  1.00  0.00    -0.395 OA
HETATM   33  H43 UNL     1      -2.599  48.700 -23.377  1.00  0.00     0.210 HD
ENDBRANCH  18  32
BRANCH   6  34
HETATM   34  O2  UNL     1       2.172  52.510 -20.979  1.00  0.00    -0.395 OA
HETATM   35  H26 UNL     1       2.160  51.580 -20.704  1.00  0.00     0.210 HD
ENDBRANCH   6  34
TORSDOF 7
ENDMDL
MODEL 2
REMARK minimizedAffinity -9.78672028
REMARK  7 active torsions:
REMARK  status: ('A' for Active; 'I' for Inactive)
REMARK    1  A    between atoms: C2_2  and  C4_4 
REMARK    2  A    between atoms: C4_4  and  C6_6 
REMARK    3  A    between atoms: C7_7  and  C8_8 
REMARK    4  A    between atoms: C8_8  and  O1_10 
REMARK    5  A    between atoms: C8_8  and  C10_11 
REMARK    6  A    between atoms: C15_16  and  O2_17 
REMARK    7  A    between atoms: C26_29  and  O4_30 
ROOT
HETATM    1  C10 UNL     1      -0.134  51.679 -21.337  1.00  0.00     0.034 C 
HETATM    2  C11 UNL     1       0.207  53.183 -21.089  1.00  0.00     0.009 C 
HETATM    3  C12 UNL     1       0.446  53.339 -19.581  1.00  0.00     0.006 C 
HETATM    4  C13 UNL     1       0.434  51.910 -19.052  1.00  0.00     0.003 C 
HETATM    5  C14 UNL     1       0.245  51.705 -17.539  1.00  0.00     0.024 C 
HETATM    6  C15 UNL     1       1.264  52.508 -16.707  1.00  0.00     0.123 C 
HETATM    7  C16 UNL     1       1.165  52.198 -15.215  1.00  0.00     0.038 C 
HETATM    8  C17 UNL     1       1.239  50.693 -14.912  1.00  0.00     0.003 C 
HETATM    9  C18 UNL     1       1.156  50.461 -13.394  1.00  0.00     0.083 C 
HETATM   10  C19 UNL     1       0.953  49.001 -13.063  1.00  0.00     0.127 C 
HETATM   11  O3  UNL     1       0.656  48.640 -11.925  1.00  0.00    -0.298 OA
HETATM   12  C20 UNL     1       1.214  48.004 -14.162  1.00  0.00     0.079 C 
HETATM   13  C21 UNL     1       0.464  48.339 -15.451  1.00  0.00     0.017 C 
HETATM   14  C22 UNL     1       0.184  49.856 -15.702  1.00  0.00    -0.035 C 
HETATM   15  C23 UNL     1      -1.254  50.167 -15.206  1.00  0.00     0.016 C 
HETATM   16  C24 UNL     1       0.326  50.176 -17.239  1.00  0.00     0.003 C 
HETATM   17  C25 UNL     1      -0.641  49.371 -18.143  1.00  0.00     0.038 C 
HETATM   18  C26 UNL     1      -0.492  49.683 -19.646  1.00  0.00     0.127 C 
HETATM   19  C27 UNL     1      -0.631  51.194 -19.933  1.00  0.00    -0.007 C 
HETATM   20  C28 UNL     1      -2.073  51.671 -19.630  1.00  0.00     0.019 C 
ENDROOT
BRANCH   1  21
HETATM   21  C8  UNL     1      -0.903  51.427 -22.675  1.00  0.00     0.076 C 
HETATM   22  C9  UNL     1      -1.618  50.075 -22.779  1.00  0.00     0.051 C 
BRANCH  21  23
HETATM   23  C7  UNL     1      -0.048  51.738 -23.894  1.00  0.00     0.007 C 
HETATM   24  C6  UNL     1      -0.299  52.670 -24.831  1.00  0.00    -0.023 C 
BRANCH  24  25
HETATM   25  C4  UNL     1       0.602  52.947 -26.015  1.00  0.00     0.007 C 
HETATM   26  C5  UNL     1      -0.109  53.910 -26.972  1.00  0.00     0.014 C 
BRANCH  25  27
HETATM   27  C2  UNL     1       1.092  51.664 -26.744  1.00  0.00    -0.015 C 
HETATM   28  C1  UNL     1       0.713  51.679 -28.229  1.00  0.00     0.010 C 
HETATM   29  C3  UNL     1       2.594  51.389 -26.602  1.00  0.00     0.010 C 
ENDBRANCH  25  27
ENDBRANCH  24  25
ENDBRANCH  21  23
BRANCH  21  30
HETATM   30  O1  UNL     1      -1.961  52.410 -22.699  1.00  0.00    -0.386 OA
HETATM   31  H17 UNL     1      -1.599  53.225 -23.086  1.00  0.00     0.211 HD
ENDBRANCH  21  30
ENDBRANCH   1  21
BRANCH  18  32
HETATM   32  O4  UNL     1      -1.484  48.949 -20.349  1.00  0.00    -0.395 OA
HETATM   33  H43 UNL     1      -1.354  48.004 -20.161  1.00  0.00     0.210 HD
ENDBRANCH  18  32
BRANCH   6  34
HETATM   34  O2  UNL     1       2.600  52.287 -17.152  1.00  0.00    -0.395 OA
HETATM   35  H26 UNL     1       2.815  51.345 -17.072  1.00  0.00     0.210 HD
ENDBRANCH   6  34
TORSDOF 7
ENDMDL
MODEL 3
REMARK minimizedAffinity -9.42453766
REMARK  7 active torsions:
REMARK  status: ('A' for Active; 'I' for Inactive)
REMARK    1  A    between atoms: C2_2  and  C4_4 
REMARK    2  A    between atoms: C4_4  and  C6_6 
REMARK    3  A    between atoms: C7_7  and  C8_8 
REMARK    4  A    between atoms: C8_8  and  O1_10 
REMARK    5  A    between atoms: C8_8  and  C10_11 
REMARK    6  A    between atoms: C15_16  and  O2_17 
REMARK    7  A    between atoms: C26_29  and  O4_30 
ROOT
HETATM    1  C10 UNL     1      -1.914  50.363 -24.881  1.00  0.00     0.034 C 
HETATM    2  C11 UNL     1      -1.491  51.804 -25.307  1.00  0.00     0.009 C 
HETATM    3  C12 UNL     1      -1.034  52.527 -24.033  1.00  0.00     0.006 C 
HETATM    4  C13 UNL     1      -1.020  51.435 -22.970  1.00  0.00     0.003 C 
HETATM    5  C14 UNL     1      -0.998  51.867 -21.494  1.00  0.00     0.024 C 
HETATM    6  C15 UNL     1       0.155  52.842 -21.186  1.00  0.00     0.123 C 
HETATM    7  C16 UNL     1       0.258  53.163 -19.696  1.00  0.00     0.038 C 
HETATM    8  C17 UNL     1       0.323  51.903 -18.817  1.00  0.00     0.003 C 
HETATM    9  C18 UNL     1       0.449  52.305 -17.339  1.00  0.00     0.083 C 
HETATM   10  C19 UNL     1       0.245  51.122 -16.420  1.00  0.00     0.127 C 
HETATM   11  O3  UNL     1       0.101  51.273 -15.207  1.00  0.00    -0.298 OA
HETATM   12  C20 UNL     1       0.314  49.750 -17.040  1.00  0.00     0.079 C 
HETATM   13  C21 UNL     1      -0.600  49.609 -18.257  1.00  0.00     0.017 C 
HETATM   14  C22 UNL     1      -0.861  50.918 -19.070  1.00  0.00    -0.035 C 
HETATM   15  C23 UNL     1      -2.203  51.528 -18.580  1.00  0.00     0.016 C 
HETATM   16  C24 UNL     1      -0.928  50.585 -20.609  1.00  0.00     0.003 C 
HETATM   17  C25 UNL     1      -2.041  49.575 -20.988  1.00  0.00     0.038 C 
HETATM   18  C26 UNL     1      -2.096  49.248 -22.494  1.00  0.00     0.127 C 
HETATM   19  C27 UNL     1      -2.222  50.524 -23.353  1.00  0.00    -0.007 C 
HETATM   20  C28 UNL     1      -3.590  51.209 -23.105  1.00  0.00     0.019 C 
ENDROOT
BRANCH   1  21
HETATM   21  C8  UNL     1      -2.873  49.668 -25.901  1.00  0.00     0.076 C 
HETATM   22  C9  UNL     1      -2.887  50.273 -27.310  1.00  0.00     0.051 C 
BRANCH  21  23
HETATM   23  C7  UNL     1      -4.269  49.467 -25.330  1.00  0.00     0.007 C 
HETATM   24  C6  UNL     1      -5.070  48.405 -25.528  1.00  0.00    -0.023 C 
BRANCH  24  25
HETATM   25  C4  UNL     1      -6.445  48.254 -24.916  1.00  0.00     0.007 C 
HETATM   26  C5  UNL     1      -6.316  47.555 -23.558  1.00  0.00     0.014 C 
BRANCH  25  27
HETATM   27  C2  UNL     1      -7.469  47.537 -25.840  1.00  0.00    -0.015 C 
HETATM   28  C1  UNL     1      -6.938  47.401 -27.271  1.00  0.00     0.010 C 
HETATM   29  C3  UNL     1      -7.930  46.166 -25.332  1.00  0.00     0.010 C 
ENDBRANCH  25  27
ENDBRANCH  24  25
ENDBRANCH  21  23
BRANCH  21  30
HETATM   30  O1  UNL     1      -2.345  48.335 -26.075  1.00  0.00    -0.386 OA
HETATM   31  H17 UNL     1      -2.719  47.774 -25.374  1.00  0.00     0.211 HD
ENDBRANCH  21  30
ENDBRANCH   1  21
BRANCH  18  32
HETATM   32  O4  UNL     1      -3.203  48.385 -22.716  1.00  0.00    -0.395 OA
HETATM   33  H43 UNL     1      -3.079  47.586 -22.177  1.00  0.00     0.210 HD
ENDBRANCH  18  32
BRANCH   6  34
HETATM   34  O2  UNL     1       1.406  52.344 -21.654  1.00  0.00    -0.395 OA
HETATM   35  H26 UNL     1       1.598  51.497 -21.223  1.00  0.00     0.210 HD
ENDBRANCH   6  34
TORSDOF 7
ENDMDL
MODEL 4
REMARK minimizedAffinity -9.38018036
REMARK  7 active torsions:
REMARK  status: ('A' for Active; 'I' for Inactive)
REMARK    1  A    between atoms: C2_2  and  C4_4 
REMARK    2  A    between atoms: C4_4  and  C6_6 
REMARK    3  A    between atoms: C7_7  and  C8_8 
REMARK    4  A    between atoms: C8_8  and  O1_10 
REMARK    5  A    between atoms: C8_8  and  C10_11 
REMARK    6  A    between atoms: C15_16  and  O2_17 
REMARK    7  A    between atoms: C26_29  and  O4_30 
ROOT
HETATM    1  C10 UNL     1      -0.546  52.528 -20.794  1.00  0.00     0.034 C 
HETATM    2  C11 UNL     1       0.202  52.094 -22.094  1.00  0.00     0.009 C 
HETATM    3  C12 UNL     1      -0.663  51.016 -22.763  1.00  0.00     0.006 C 
HETATM    4  C13 UNL     1      -1.949  51.012 -21.947  1.00  0.00     0.003 C 
HETATM    5  C14 UNL     1      -2.880  49.795 -22.077  1.00  0.00     0.024 C 
HETATM    6  C15 UNL     1      -3.249  49.493 -23.543  1.00  0.00     0.123 C 
HETATM    7  C16 UNL     1      -4.279  48.371 -23.662  1.00  0.00     0.038 C 
HETATM    8  C17 UNL     1      -5.526  48.613 -22.796  1.00  0.00     0.003 C 
HETATM    9  C18 UNL     1      -6.523  47.458 -22.984  1.00  0.00     0.083 C 
HETATM   10  C19 UNL     1      -7.636  47.508 -21.962  1.00  0.00     0.127 C 
HETATM   11  O3  UNL     1      -8.410  46.564 -21.815  1.00  0.00    -0.298 OA
HETATM   12  C20 UNL     1      -7.806  48.794 -21.195  1.00  0.00     0.079 C 
HETATM   13  C21 UNL     1      -6.505  49.272 -20.551  1.00  0.00     0.017 C 
HETATM   14  C22 UNL     1      -5.189  48.871 -21.294  1.00  0.00    -0.035 C 
HETATM   15  C23 UNL     1      -4.632  47.586 -20.622  1.00  0.00     0.016 C 
HETATM   16  C24 UNL     1      -4.146  50.048 -21.201  1.00  0.00     0.003 C 
HETATM   17  C25 UNL     1      -3.759  50.435 -19.750  1.00  0.00     0.038 C 
HETATM   18  C26 UNL     1      -2.743  51.593 -19.666  1.00  0.00     0.127 C 
HETATM   19  C27 UNL     1      -1.473  51.301 -20.494  1.00  0.00    -0.007 C 
HETATM   20  C28 UNL     1      -0.687  50.116 -19.879  1.00  0.00     0.019 C 
ENDROOT
BRANCH   1  21
HETATM   21  C8  UNL     1       0.386  53.203 -19.735  1.00  0.00     0.076 C 
HETATM   22  C9  UNL     1       1.641  53.880 -20.299  1.00  0.00     0.051 C 
BRANCH  21  23
HETATM   23  C7  UNL     1       0.688  52.279 -18.566  1.00  0.00     0.007 C 
HETATM   24  C6  UNL     1       1.510  52.537 -17.533  1.00  0.00    -0.023 C 
BRANCH  24  25
HETATM   25  C4  UNL     1       1.756  51.582 -16.385  1.00  0.00     0.007 C 
HETATM   26  C5  UNL     1       0.424  51.275 -15.693  1.00  0.00     0.014 C 
BRANCH  25  27
HETATM   27  C2  UNL     1       2.832  52.076 -15.377  1.00  0.00    -0.015 C 
HETATM   28  C1  UNL     1       3.174  50.997 -14.344  1.00  0.00     0.010 C 
HETATM   29  C3  UNL     1       4.121  52.590 -16.027  1.00  0.00     0.010 C 
ENDBRANCH  25  27
ENDBRANCH  24  25
ENDBRANCH  21  23
BRANCH  21  30
HETATM   30  O1  UNL     1      -0.394  54.279 -19.170  1.00  0.00    -0.386 OA
HETATM   31  H17 UNL     1      -0.921  53.911 -18.441  1.00  0.00     0.211 HD
ENDBRANCH  21  30
ENDBRANCH   1  21
BRANCH  18  32
HETATM   32  O4  UNL     1      -2.412  51.789 -18.299  1.00  0.00    -0.395 OA
HETATM   33  H43 UNL     1      -3.230  51.990 -17.813  1.00  0.00     0.210 HD
ENDBRANCH  18  32
BRANCH   6  34
HETATM   34  O2  UNL     1      -3.729  50.654 -24.216  1.00  0.00    -0.395 OA
HETATM   35  H26 UNL     1      -4.521  50.985 -23.764  1.00  0.00     0.210 HD
ENDBRANCH   6  34
TORSDOF 7
ENDMDL
MODEL 5
REMARK minimizedAffinity -9.30838871
REMARK  7 active torsions:
REMARK  status: ('A' for Active; 'I' for Inactive)
REMARK    1  A    between atoms: C2_2  and  C4_4 
REMARK    2  A    between atoms: C4_4  and  C6_6 
REMARK    3  A    between atoms: C7_7  and  C8_8 
REMARK    4  A    between atoms: C8_8  and  O1_10 
REMARK    5  A    between atoms: C8_8  and  C10_11 
REMARK    6  A    between atoms: C15_16  and  O2_17 
REMARK    7  A    between atoms: C26_29  and  O4_30 
ROOT
HETATM    1  C10 UNL     1      -1.909  51.734 -21.909  1.00  0.00     0.034 C 
HETATM    2  C11 UNL     1      -2.227  51.736 -23.438  1.00  0.00     0.009 C 
HETATM    3  C12 UNL     1      -3.528  50.942 -23.621  1.00  0.00     0.006 C 
HETATM    4  C13 UNL     1      -4.011  50.688 -22.198  1.00  0.00     0.003 C 
HETATM    5  C14 UNL     1      -5.065  49.588 -21.982  1.00  0.00     0.024 C 
HETATM    6  C15 UNL     1      -6.305  49.780 -22.877  1.00  0.00     0.123 C 
HETATM    7  C16 UNL     1      -7.406  48.768 -22.565  1.00  0.00     0.038 C 
HETATM    8  C17 UNL     1      -7.776  48.730 -21.073  1.00  0.00     0.003 C 
HETATM    9  C18 UNL     1      -8.902  47.709 -20.841  1.00  0.00     0.083 C 
HETATM   10  C19 UNL     1      -9.115  47.438 -19.369  1.00  0.00     0.127 C 
HETATM   11  O3  UNL     1      -9.821  46.506 -18.988  1.00  0.00    -0.298 OA
HETATM   12  C20 UNL     1      -8.498  48.409 -18.396  1.00  0.00     0.079 C 
HETATM   13  C21 UNL     1      -7.010  48.639 -18.657  1.00  0.00     0.017 C 
HETATM   14  C22 UNL     1      -6.547  48.485 -20.142  1.00  0.00    -0.035 C 
HETATM   15  C23 UNL     1      -5.991  47.047 -20.325  1.00  0.00     0.016 C 
HETATM   16  C24 UNL     1      -5.439  49.558 -20.468  1.00  0.00     0.003 C 
HETATM   17  C25 UNL     1      -4.176  49.452 -19.576  1.00  0.00     0.038 C 
HETATM   18  C26 UNL     1      -3.099  50.508 -19.895  1.00  0.00     0.127 C 
HETATM   19  C27 UNL     1      -2.700  50.486 -21.386  1.00  0.00    -0.007 C 
HETATM   20  C28 UNL     1      -1.983  49.158 -21.734  1.00  0.00     0.019 C 
ENDROOT
BRANCH   1  21
HETATM   21  C8  UNL     1      -0.407  52.021 -21.584  1.00  0.00     0.076 C 
HETATM   22  C9  UNL     1      -0.157  52.939 -20.381  1.00  0.00     0.051 C 
BRANCH  21  23
HETATM   23  C7  UNL     1       0.377  52.438 -22.818  1.00  0.00     0.007 C 
HETATM   24  C6  UNL     1       0.113  52.088 -24.090  1.00  0.00    -0.023 C 
BRANCH  24  25
HETATM   25  C4  UNL     1       0.922  52.552 -25.282  1.00  0.00     0.007 C 
HETATM   26  C5  UNL     1       0.168  53.683 -25.990  1.00  0.00     0.014 C 
BRANCH  25  27
HETATM   27  C2  UNL     1       1.304  51.409 -26.265  1.00  0.00    -0.015 C 
HETATM   28  C1  UNL     1       0.211  51.178 -27.313  1.00  0.00     0.010 C 
HETATM   29  C3  UNL     1       2.654  51.603 -26.966  1.00  0.00     0.010 C 
ENDBRANCH  25  27
ENDBRANCH  24  25
ENDBRANCH  21  23
BRANCH  21  30
HETATM   30  O1  UNL     1       0.151  50.745 -21.199  1.00  0.00    -0.386 OA
HETATM   31  H17 UNL     1       0.436  50.290 -22.009  1.00  0.00     0.211 HD
ENDBRANCH  21  30
ENDBRANCH   1  21
BRANCH  18  32
HETATM   32  O4  UNL     1      -1.971  50.249 -19.072  1.00  0.00    -0.395 OA
HETATM   33  H43 UNL     1      -2.255  50.291 -18.143  1.00  0.00     0.210 HD
ENDBRANCH  18  32
BRANCH   6  34
HETATM   34  O2  UNL     1      -6.829  51.101 -22.775  1.00  0.00    -0.395 OA
HETATM   35  H26 UNL     1      -7.085  51.277 -21.856  1.00  0.00     0.210 HD
ENDBRANCH   6  34
TORSDOF 7
ENDMDL
MODEL 6
REMARK minimizedAffinity -9.06828308
REMARK  7 active torsions:
REMARK  status: ('A' for Active; 'I' for Inactive)
REMARK    1  A    between atoms: C2_2  and  C4_4 
REMARK    2  A    between atoms: C4_4  and  C6_6 
REMARK    3  A    between atoms: C7_7  and  C8_8 
REMARK    4  A    between atoms: C8_8  and  O1_10 
REMARK    5  A    between atoms: C8_8  and  C10_11 
REMARK    6  A    between atoms: C15_16  and  O2_17 
REMARK    7  A    between atoms: C26_29  and  O4_30 
ROOT
HETATM    1  C10 UNL     1      -0.839  51.095 -15.748  1.00  0.00     0.034 C 
HETATM    2  C11 UNL     1       0.670  51.494 -15.681  1.00  0.00     0.009 C 
HETATM    3  C12 UNL     1       1.118  51.773 -17.122  1.00  0.00     0.006 C 
HETATM    4  C13 UNL     1      -0.173  51.723 -17.930  1.00  0.00     0.003 C 
HETATM    5  C14 UNL     1      -0.061  51.562 -19.455  1.00  0.00     0.024 C 
HETATM    6  C15 UNL     1       0.854  52.627 -20.091  1.00  0.00     0.123 C 
HETATM    7  C16 UNL     1       0.856  52.551 -21.617  1.00  0.00     0.038 C 
HETATM    8  C17 UNL     1      -0.558  52.580 -22.218  1.00  0.00     0.003 C 
HETATM    9  C18 UNL     1      -0.475  52.523 -23.752  1.00  0.00     0.083 C 
HETATM   10  C19 UNL     1      -1.829  52.277 -24.376  1.00  0.00     0.127 C 
HETATM   11  O3  UNL     1      -1.940  51.994 -25.568  1.00  0.00    -0.298 OA
HETATM   12  C20 UNL     1      -3.037  52.478 -23.498  1.00  0.00     0.079 C 
HETATM   13  C21 UNL     1      -2.941  51.710 -22.180  1.00  0.00     0.017 C 
HETATM   14  C22 UNL     1      -1.496  51.478 -21.631  1.00  0.00    -0.035 C 
HETATM   15  C23 UNL     1      -1.035  50.063 -22.075  1.00  0.00     0.016 C 
HETATM   16  C24 UNL     1      -1.499  51.596 -20.059  1.00  0.00     0.003 C 
HETATM   17  C25 UNL     1      -2.432  50.581 -19.352  1.00  0.00     0.038 C 
HETATM   18  C26 UNL     1      -2.436  50.706 -17.815  1.00  0.00     0.127 C 
HETATM   19  C27 UNL     1      -1.011  50.614 -17.229  1.00  0.00    -0.007 C 
HETATM   20  C28 UNL     1      -0.426  49.197 -17.451  1.00  0.00     0.019 C 
ENDROOT
BRANCH   1  21
HETATM   21  C8  UNL     1      -1.326  50.287 -14.501  1.00  0.00     0.076 C 
HETATM   22  C9  UNL     1      -2.695  49.612 -14.648  1.00  0.00     0.051 C 
BRANCH  21  23
HETATM   23  C7  UNL     1      -1.198  51.088 -13.214  1.00  0.00     0.007 C 
HETATM   24  C6  UNL     1      -2.112  51.930 -12.701  1.00  0.00    -0.023 C 
BRANCH  24  25
HETATM   25  C4  UNL     1      -1.934  52.686 -11.402  1.00  0.00     0.007 C 
HETATM   26  C5  UNL     1      -0.665  52.188 -10.701  1.00  0.00     0.014 C 
BRANCH  25  27
HETATM   27  C2  UNL     1      -3.173  52.625 -10.465  1.00  0.00    -0.015 C 
HETATM   28  C1  UNL     1      -3.920  53.963 -10.429  1.00  0.00     0.010 C 
HETATM   29  C3  UNL     1      -4.159  51.497 -10.791  1.00  0.00     0.010 C 
ENDBRANCH  25  27
ENDBRANCH  24  25
ENDBRANCH  21  23
BRANCH  21  30
HETATM   30  O1  UNL     1      -0.388  49.199 -14.360  1.00  0.00    -0.386 OA
HETATM   31  H17 UNL     1       0.362  49.520 -13.831  1.00  0.00     0.211 HD
ENDBRANCH  21  30
ENDBRANCH   1  21
BRANCH  18  32
HETATM   32  O4  UNL     1      -3.258  49.673 -17.291  1.00  0.00    -0.395 OA
HETATM   33  H43 UNL     1      -4.150  49.774 -17.664  1.00  0.00     0.210 HD
ENDBRANCH  18  32
BRANCH   6  34
HETATM   34  O2  UNL     1       0.496  53.944 -19.680  1.00  0.00    -0.395 OA
HETATM   35  H26 UNL     1      -0.419  54.128 -19.946  1.00  0.00     0.210 HD
ENDBRANCH   6  34
TORSDOF 7
ENDMDL
MODEL 7
REMARK minimizedAffinity -8.97459412
REMARK  7 active torsions:
REMARK  status: ('A' for Active; 'I' for Inactive)
REMARK    1  A    between atoms: C2_2  and  C4_4 
REMARK    2  A    between atoms: C4_4  and  C6_6 
REMARK    3  A    between atoms: C7_7  and  C8_8 
REMARK    4  A    between atoms: C8_8  and  O1_10 
REMARK    5  A    between atoms: C8_8  and  C10_11 
REMARK    6  A    between atoms: C15_16  and  O2_17 
REMARK    7  A    between atoms: C26_29  and  O4_30 
ROOT
HETATM    1  C10 UNL     1      -3.188  50.725 -24.901  1.00  0.00     0.034 C 
HETATM    2  C11 UNL     1      -3.224  49.845 -26.191  1.00  0.00     0.009 C 
HETATM    3  C12 UNL     1      -4.271  48.749 -25.950  1.00  0.00     0.006 C 
HETATM    4  C13 UNL     1      -4.932  49.149 -24.637  1.00  0.00     0.003 C 
HETATM    5  C14 UNL     1      -5.747  48.081 -23.887  1.00  0.00     0.024 C 
HETATM    6  C15 UNL     1      -6.822  47.431 -24.778  1.00  0.00     0.123 C 
HETATM    7  C16 UNL     1      -7.718  46.470 -23.998  1.00  0.00     0.038 C 
HETATM    8  C17 UNL     1      -8.328  47.112 -22.742  1.00  0.00     0.003 C 
HETATM    9  C18 UNL     1      -9.231  46.096 -22.023  1.00  0.00     0.083 C 
HETATM   10  C19 UNL     1      -9.637  46.583 -20.651  1.00  0.00     0.127 C 
HETATM   11  O3  UNL     1     -10.183  45.832 -19.844  1.00  0.00    -0.298 OA
HETATM   12  C20 UNL     1      -9.424  48.043 -20.349  1.00  0.00     0.079 C 
HETATM   13  C21 UNL     1      -7.997  48.504 -20.647  1.00  0.00     0.017 C 
HETATM   14  C22 UNL     1      -7.258  47.736 -21.790  1.00  0.00    -0.035 C 
HETATM   15  C23 UNL     1      -6.384  46.630 -21.139  1.00  0.00     0.016 C 
HETATM   16  C24 UNL     1      -6.367  48.740 -22.615  1.00  0.00     0.003 C 
HETATM   17  C25 UNL     1      -5.287  49.465 -21.772  1.00  0.00     0.038 C 
HETATM   18  C26 UNL     1      -4.423  50.451 -22.583  1.00  0.00     0.127 C 
HETATM   19  C27 UNL     1      -3.771  49.769 -23.806  1.00  0.00    -0.007 C 
HETATM   20  C28 UNL     1      -2.737  48.711 -23.347  1.00  0.00     0.019 C 
ENDROOT
BRANCH   1  21
HETATM   21  C8  UNL     1      -1.863  51.540 -24.740  1.00  0.00     0.076 C 
HETATM   22  C9  UNL     1      -0.863  51.407 -25.895  1.00  0.00     0.051 C 
BRANCH  21  23
HETATM   23  C7  UNL     1      -1.222  51.327 -23.377  1.00  0.00     0.007 C 
HETATM   24  C6  UNL     1      -0.159  51.984 -22.881  1.00  0.00    -0.023 C 
BRANCH  24  25
HETATM   25  C4  UNL     1       0.423  51.740 -21.505  1.00  0.00     0.007 C 
HETATM   26  C5  UNL     1      -0.130  50.422 -20.953  1.00  0.00     0.014 C 
BRANCH  25  27
HETATM   27  C2  UNL     1       0.207  52.918 -20.514  1.00  0.00    -0.015 C 
HETATM   28  C1  UNL     1       0.032  52.420 -19.075  1.00  0.00     0.010 C 
HETATM   29  C3  UNL     1       1.303  53.990 -20.555  1.00  0.00     0.010 C 
ENDBRANCH  25  27
ENDBRANCH  24  25
ENDBRANCH  21  23
BRANCH  21  30
HETATM   30  O1  UNL     1      -2.263  52.927 -24.752  1.00  0.00    -0.386 OA
HETATM   31  H17 UNL     1      -2.501  53.175 -23.843  1.00  0.00     0.211 HD
ENDBRANCH  21  30
ENDBRANCH   1  21
BRANCH  18  32
HETATM   32  O4  UNL     1      -3.428  50.979 -21.718  1.00  0.00    -0.395 OA
HETATM   33  H43 UNL     1      -3.873  51.417 -20.973  1.00  0.00     0.210 HD
ENDBRANCH  18  32
BRANCH   6  34
HETATM   34  O2  UNL     1      -7.627  48.408 -25.432  1.00  0.00    -0.395 OA
HETATM   35  H26 UNL     1      -8.072  48.957 -24.768  1.00  0.00     0.210 HD
ENDBRANCH   6  34
TORSDOF 7
ENDMDL
MODEL 8
REMARK minimizedAffinity -8.92425156
REMARK  7 active torsions:
REMARK  status: ('A' for Active; 'I' for Inactive)
REMARK    1  A    between atoms: C2_2  and  C4_4 
REMARK    2  A    between atoms: C4_4  and  C6_6 
REMARK    3  A    between atoms: C7_7  and  C8_8 
REMARK    4  A    between atoms: C8_8  and  O1_10 
REMARK    5  A    between atoms: C8_8  and  C10_11 
REMARK    6  A    between atoms: C15_16  and  O2_17 
REMARK    7  A    between atoms: C26_29  and  O4_30 
ROOT
HETATM    1  C10 UNL     1      -4.008  48.591 -23.740  1.00  0.00     0.034 C 
HETATM    2  C11 UNL     1      -2.780  48.199 -22.859  1.00  0.00     0.009 C 
HETATM    3  C12 UNL     1      -3.317  47.926 -21.447  1.00  0.00     0.006 C 
HETATM    4  C13 UNL     1      -4.832  47.973 -21.610  1.00  0.00     0.003 C 
HETATM    5  C14 UNL     1      -5.687  48.138 -20.342  1.00  0.00     0.024 C 
HETATM    6  C15 UNL     1      -5.359  47.079 -19.272  1.00  0.00     0.123 C 
HETATM    7  C16 UNL     1      -6.300  47.159 -18.071  1.00  0.00     0.038 C 
HETATM    8  C17 UNL     1      -7.783  47.126 -18.473  1.00  0.00     0.003 C 
HETATM    9  C18 UNL     1      -8.666  47.187 -17.216  1.00  0.00     0.083 C 
HETATM   10  C19 UNL     1     -10.117  47.429 -17.563  1.00  0.00     0.127 C 
HETATM   11  O3  UNL     1     -10.942  47.714 -16.696  1.00  0.00    -0.298 OA
HETATM   12  C20 UNL     1     -10.524  47.219 -18.998  1.00  0.00     0.079 C 
HETATM   13  C21 UNL     1      -9.635  47.984 -19.980  1.00  0.00     0.017 C 
HETATM   14  C22 UNL     1      -8.160  48.221 -19.520  1.00  0.00    -0.035 C 
HETATM   15  C23 UNL     1      -8.075  49.640 -18.893  1.00  0.00     0.016 C 
HETATM   16  C24 UNL     1      -7.191  48.099 -20.757  1.00  0.00     0.003 C 
HETATM   17  C25 UNL     1      -7.489  49.108 -21.895  1.00  0.00     0.038 C 
HETATM   18  C26 UNL     1      -6.542  48.978 -23.105  1.00  0.00     0.127 C 
HETATM   19  C27 UNL     1      -5.060  49.075 -22.684  1.00  0.00    -0.007 C 
HETATM   20  C28 UNL     1      -4.740  50.496 -22.156  1.00  0.00     0.019 C 
ENDROOT
BRANCH   1  21
HETATM   21  C8  UNL     1      -3.622  49.393 -25.026  1.00  0.00     0.076 C 
HETATM   22  C9  UNL     1      -3.725  48.614 -26.343  1.00  0.00     0.051 C 
BRANCH  21  23
HETATM   23  C7  UNL     1      -2.295  50.119 -24.871  1.00  0.00     0.007 C 
HETATM   24  C6  UNL     1      -1.452  50.464 -25.860  1.00  0.00    -0.023 C 
BRANCH  24  25
HETATM   25  C4  UNL     1      -0.150  51.206 -25.645  1.00  0.00     0.007 C 
HETATM   26  C5  UNL     1      -0.453  52.684 -25.377  1.00  0.00     0.014 C 
BRANCH  25  27
HETATM   27  C2  UNL     1       0.874  51.026 -26.801  1.00  0.00    -0.015 C 
HETATM   28  C1  UNL     1       0.446  51.793 -28.057  1.00  0.00     0.010 C 
HETATM   29  C3  UNL     1       2.314  51.404 -26.436  1.00  0.00     0.010 C 
ENDBRANCH  25  27
ENDBRANCH  24  25
ENDBRANCH  21  23
BRANCH  21  30
HETATM   30  O1  UNL     1      -4.612  50.439 -25.135  1.00  0.00    -0.386 OA
HETATM   31  H17 UNL     1      -4.307  51.192 -24.601  1.00  0.00     0.211 HD
ENDBRANCH  21  30
ENDBRANCH   1  21
BRANCH  18  32
HETATM   32  O4  UNL     1      -6.867  50.006 -24.030  1.00  0.00    -0.395 OA
HETATM   33  H43 UNL     1      -7.798  49.901 -24.287  1.00  0.00     0.210 HD
ENDBRANCH  18  32
BRANCH   6  34
HETATM   34  O2  UNL     1      -5.383  45.760 -19.810  1.00  0.00    -0.395 OA
HETATM   35  H26 UNL     1      -6.267  45.572 -20.164  1.00  0.00     0.210 HD
ENDBRANCH   6  34
TORSDOF 7
ENDMDL
MODEL 9
REMARK minimizedAffinity -8.9069252
REMARK  7 active torsions:
REMARK  status: ('A' for Active; 'I' for Inactive)
REMARK    1  A    between atoms: C2_2  and  C4_4 
REMARK    2  A    between atoms: C4_4  and  C6_6 
REMARK    3  A    between atoms: C7_7  and  C8_8 
REMARK    4  A    between atoms: C8_8  and  O1_10 
REMARK    5  A    between atoms: C8_8  and  C10_11 
REMARK    6  A    between atoms: C15_16  and  O2_17 
REMARK    7  A    between atoms: C26_29  and  O4_30 
ROOT
HETATM    1  C10 UNL     1      -2.879  49.594 -18.682  1.00  0.00     0.034 C 
HETATM    2  C11 UNL     1      -2.925  51.129 -18.397  1.00  0.00     0.009 C 
HETATM    3  C12 UNL     1      -2.945  51.833 -19.761  1.00  0.00     0.006 C 
HETATM    4  C13 UNL     1      -3.112  50.697 -20.763  1.00  0.00     0.003 C 
HETATM    5  C14 UNL     1      -2.775  50.982 -22.236  1.00  0.00     0.024 C 
HETATM    6  C15 UNL     1      -3.531  52.210 -22.783  1.00  0.00     0.123 C 
HETATM    7  C16 UNL     1      -3.302  52.411 -24.280  1.00  0.00     0.038 C 
HETATM    8  C17 UNL     1      -3.594  51.147 -25.103  1.00  0.00     0.003 C 
HETATM    9  C18 UNL     1      -3.364  51.432 -26.596  1.00  0.00     0.083 C 
HETATM   10  C19 UNL     1      -3.375  50.161 -27.415  1.00  0.00     0.127 C 
HETATM   11  O3  UNL     1      -3.005  50.156 -28.588  1.00  0.00    -0.298 OA
HETATM   12  C20 UNL     1      -3.937  48.926 -26.761  1.00  0.00     0.079 C 
HETATM   13  C21 UNL     1      -3.305  48.644 -25.397  1.00  0.00     0.017 C 
HETATM   14  C22 UNL     1      -2.804  49.895 -24.606  1.00  0.00    -0.035 C 
HETATM   15  C23 UNL     1      -1.283  50.056 -24.877  1.00  0.00     0.016 C 
HETATM   16  C24 UNL     1      -3.079  49.697 -23.067  1.00  0.00     0.003 C 
HETATM   17  C25 UNL     1      -2.383  48.454 -22.457  1.00  0.00     0.038 C 
HETATM   18  C26 UNL     1      -2.661  48.261 -20.952  1.00  0.00     0.127 C 
HETATM   19  C27 UNL     1      -2.303  49.523 -20.138  1.00  0.00    -0.007 C 
HETATM   20  C28 UNL     1      -0.774  49.771 -20.169  1.00  0.00     0.019 C 
ENDROOT
BRANCH   1  21
HETATM   21  C8  UNL     1      -2.337  48.752 -17.482  1.00  0.00     0.076 C 
HETATM   22  C9  UNL     1      -3.401  48.011 -16.663  1.00  0.00     0.051 C 
BRANCH  21  23
HETATM   23  C7  UNL     1      -1.372  49.546 -16.615  1.00  0.00     0.007 C 
HETATM   24  C6  UNL     1      -0.062  49.743 -16.849  1.00  0.00    -0.023 C 
BRANCH  24  25
HETATM   25  C4  UNL     1       0.845  50.562 -15.956  1.00  0.00     0.007 C 
HETATM   26  C5  UNL     1       0.266  50.585 -14.538  1.00  0.00     0.014 C 
BRANCH  25  27
HETATM   27  C2  UNL     1       1.125  51.995 -16.490  1.00  0.00    -0.015 C 
HETATM   28  C1  UNL     1       2.602  52.373 -16.344  1.00  0.00     0.010 C 
HETATM   29  C3  UNL     1       0.676  52.231 -17.937  1.00  0.00     0.010 C 
ENDBRANCH  25  27
ENDBRANCH  24  25
ENDBRANCH  21  23
BRANCH  21  30
HETATM   30  O1  UNL     1      -1.534  47.710 -18.078  1.00  0.00    -0.386 OA
HETATM   31  H17 UNL     1      -0.638  48.064 -18.207  1.00  0.00     0.211 HD
ENDBRANCH  21  30
ENDBRANCH   1  21
BRANCH  18  32
HETATM   32  O4  UNL     1      -1.904  47.147 -20.503  1.00  0.00    -0.395 OA
HETATM   33  H43 UNL     1      -2.169  46.369 -21.022  1.00  0.00     0.210 HD
ENDBRANCH  18  32
BRANCH   6  34
HETATM   34  O2  UNL     1      -4.929  52.128 -22.521  1.00  0.00    -0.395 OA
HETATM   35  H26 UNL     1      -5.291  51.334 -22.944  1.00  0.00     0.210 HD
ENDBRANCH   6  34
TORSDOF 7
ENDMDL
