MODEL 1
REMARK minimizedAffinity -8.68173599
REMARK CNNscore 0.78958863
REMARK CNNaffinity 7.48369837
REMARK  8 active torsions:
REMARK  status: ('A' for Active; 'I' for Inactive)
REMARK    1  A    between atoms: O1_2  and  C2_3 
REMARK    2  A    between atoms: C5_6  and  N1_7 
REMARK    3  A    between atoms: N1_7  and  C6_8 
REMARK    4  A    between atoms: C16_25  and  O4_26 
REMARK    5  A    between atoms: O4_26  and  C17_27 
REMARK    6  A    between atoms: C17_27  and  C18_28 
REMARK    7  A    between atoms: C18_28  and  C19_29 
REMARK    8  A    between atoms: C19_29  and  N4_30 
ROOT
HETATM    1  C2  UNL     1       6.117  -6.758  29.409  1.00  0.00     0.102 A 
HETATM    2  C3  UNL     1       7.058  -6.076  30.181  1.00  0.00     0.057 A 
HETATM    3  C4  UNL     1       6.793  -4.773  30.676  1.00  0.00     0.038 A 
HETATM    4  C5  UNL     1       7.669  -4.004  31.470  1.00  0.00     0.119 A 
HETATM    5  N2  UNL     1       7.367  -2.762  31.887  1.00  0.00    -0.338 N 
ATOM      6  H2  UNL     1       8.021  -2.207  32.438  1.00  0.00     0.168 HD
HETATM    7  C13 UNL     1       6.168  -2.295  31.541  1.00  0.00     0.182 A 
HETATM    8  N3  UNL     1       5.251  -2.935  30.805  1.00  0.00    -0.351 N 
ATOM      9  H3  UNL     1       4.353  -2.507  30.579  1.00  0.00     0.166 HD
HETATM   10  C14 UNL     1       5.570  -4.160  30.379  1.00  0.00     0.050 A 
HETATM   11  C15 UNL     1       4.644  -4.849  29.605  1.00  0.00     0.070 A 
HETATM   12  C16 UNL     1       4.897  -6.133  29.113  1.00  0.00     0.104 A 
ENDROOT
BRANCH   4  13
HETATM   13  N1  UNL     1       8.941  -4.490  31.842  1.00  0.00    -0.338 N 
HETATM   14  H5  UNL     1       8.933  -5.507  31.860  1.00  0.00     0.167 HD
BRANCH  13  15
HETATM   15  C6  UNL     1       9.739  -3.983  32.899  1.00  0.00     0.092 A 
HETATM   16  C7  UNL     1       9.616  -4.511  34.204  1.00  0.00     0.063 A 
HETATM   17 CL1  UNL     1       8.394  -5.687  34.559  1.00  0.00    -0.082 Cl
HETATM   18  C8  UNL     1      10.443  -4.083  35.261  1.00  0.00     0.029 A 
HETATM   19  C9  UNL     1      11.431  -3.126  35.038  1.00  0.00     0.041 A 
HETATM   20  C10 UNL     1      11.561  -2.631  33.759  1.00  0.00     0.107 A 
HETATM   21  C11 UNL     1      10.752  -3.046  32.720  1.00  0.00     0.133 A 
HETATM   22  O3  UNL     1      12.479  -1.702  33.375  1.00  0.00    -0.323 OA
HETATM   23  O2  UNL     1      11.078  -2.413  31.556  1.00  0.00    -0.321 OA
HETATM   24  C12 UNL     1      12.184  -1.591  31.969  1.00  0.00     0.352 A 
ENDBRANCH  13  15
ENDBRANCH   4  13
BRANCH   1  25
HETATM   25  O1  UNL     1       6.300  -8.014  28.893  1.00  0.00    -0.353 OA
HETATM   26  C1  UNL     1       7.605  -8.573  28.954  1.00  0.00     0.210 C 
ENDBRANCH   1  25
BRANCH  12  27
HETATM   27  O4  UNL     1       4.017  -6.860  28.351  1.00  0.00    -0.348 OA
BRANCH  27  28
HETATM   28  C17 UNL     1       2.624  -6.614  28.521  1.00  0.00     0.177 C 
BRANCH  28  29
HETATM   29  C18 UNL     1       1.833  -7.520  27.576  1.00  0.00     0.057 C 
BRANCH  29  30
HETATM   30  C19 UNL     1       2.754  -8.466  26.791  1.00  0.00     0.274 C 
BRANCH  30  31
HETATM   31  N4  UNL     1       2.144  -8.923  25.531  1.00  0.00     0.088 N 
HETATM   32  C20 UNL     1       3.136  -8.883  24.440  1.00  0.00     0.272 C 
HETATM   33  C21 UNL     1       2.522  -8.817  23.034  1.00  0.00     0.030 C 
HETATM   34  C22 UNL     1       1.164  -9.498  22.986  1.00  0.00     0.003 C 
HETATM   35  C23 UNL     1       0.211  -8.889  24.016  1.00  0.00     0.030 C 
HETATM   36  C24 UNL     1       0.935  -8.184  25.171  1.00  0.00     0.272 C 
ENDBRANCH  30  31
ENDBRANCH  29  30
ENDBRANCH  28  29
ENDBRANCH  27  28
ENDBRANCH  12  27
TORSDOF 8
ENDMDL
MODEL 2
REMARK minimizedAffinity -7.97540092
REMARK CNNscore 0.77241528
REMARK CNNaffinity 7.77313471
REMARK  8 active torsions:
REMARK  status: ('A' for Active; 'I' for Inactive)
REMARK    1  A    between atoms: O1_2  and  C2_3 
REMARK    2  A    between atoms: C5_6  and  N1_7 
REMARK    3  A    between atoms: N1_7  and  C6_8 
REMARK    4  A    between atoms: C16_25  and  O4_26 
REMARK    5  A    between atoms: O4_26  and  C17_27 
REMARK    6  A    between atoms: C17_27  and  C18_28 
REMARK    7  A    between atoms: C18_28  and  C19_29 
REMARK    8  A    between atoms: C19_29  and  N4_30 
ROOT
HETATM    1  C2  UNL     1       5.851  -7.785  28.702  1.00  0.00     0.102 A 
HETATM    2  C3  UNL     1       6.656  -7.100  29.613  1.00  0.00     0.057 A 
HETATM    3  C4  UNL     1       6.314  -5.795  30.054  1.00  0.00     0.038 A 
HETATM    4  C5  UNL     1       7.051  -5.023  30.975  1.00  0.00     0.119 A 
HETATM    5  N2  UNL     1       6.687  -3.779  31.333  1.00  0.00    -0.338 N 
ATOM      6  H2  UNL     1       7.244  -3.221  31.980  1.00  0.00     0.168 HD
HETATM    7  C13 UNL     1       5.559  -3.314  30.797  1.00  0.00     0.182 A 
HETATM    8  N3  UNL     1       4.773  -3.957  29.925  1.00  0.00    -0.351 N 
ATOM      9  H3  UNL     1       3.923  -3.530  29.556  1.00  0.00     0.166 HD
HETATM   10  C14 UNL     1       5.156  -5.184  29.561  1.00  0.00     0.050 A 
HETATM   11  C15 UNL     1       4.366  -5.876  28.651  1.00  0.00     0.070 A 
HETATM   12  C16 UNL     1       4.694  -7.162  28.210  1.00  0.00     0.104 A 
ENDROOT
BRANCH   4  13
HETATM   13  N1  UNL     1       8.246  -5.507  31.549  1.00  0.00    -0.338 N 
HETATM   14  H5  UNL     1       8.039  -6.251  32.209  1.00  0.00     0.167 HD
BRANCH  13  15
HETATM   15  C6  UNL     1       9.314  -4.704  32.029  1.00  0.00     0.092 A 
HETATM   16  C7  UNL     1       9.556  -4.594  33.417  1.00  0.00     0.063 A 
HETATM   17 CL1  UNL     1       8.474  -5.326  34.554  1.00  0.00    -0.082 Cl
HETATM   18  C8  UNL     1      10.649  -3.866  33.926  1.00  0.00     0.029 A 
HETATM   19  C9  UNL     1      11.543  -3.241  33.058  1.00  0.00     0.041 A 
HETATM   20  C10 UNL     1      11.314  -3.370  31.705  1.00  0.00     0.107 A 
HETATM   21  C11 UNL     1      10.243  -4.081  31.202  1.00  0.00     0.133 A 
HETATM   22  O3  UNL     1      12.095  -2.831  30.730  1.00  0.00    -0.323 OA
HETATM   23  O2  UNL     1      10.235  -4.064  29.837  1.00  0.00    -0.321 OA
HETATM   24  C12 UNL     1      11.418  -3.300  29.547  1.00  0.00     0.352 A 
ENDBRANCH  13  15
ENDBRANCH   4  13
BRANCH   1  25
HETATM   25  O1  UNL     1       6.114  -9.043  28.227  1.00  0.00    -0.353 OA
HETATM   26  C1  UNL     1       7.386  -9.608  28.513  1.00  0.00     0.210 C 
ENDBRANCH   1  25
BRANCH  12  27
HETATM   27  O4  UNL     1       3.948  -7.892  27.320  1.00  0.00    -0.348 OA
BRANCH  27  28
HETATM   28  C17 UNL     1       2.653  -8.324  27.728  1.00  0.00     0.177 C 
BRANCH  28  29
HETATM   29  C18 UNL     1       2.069  -9.247  26.659  1.00  0.00     0.057 C 
BRANCH  29  30
HETATM   30  C19 UNL     1       0.850  -8.618  25.968  1.00  0.00     0.274 C 
BRANCH  30  31
HETATM   31  N4  UNL     1       0.743  -9.013  24.553  1.00  0.00     0.088 N 
HETATM   32  C20 UNL     1       2.071  -8.984  23.912  1.00  0.00     0.272 C 
HETATM   33  C21 UNL     1       2.028  -8.853  22.382  1.00  0.00     0.030 C 
HETATM   34  C22 UNL     1       0.767  -9.474  21.804  1.00  0.00     0.003 C 
HETATM   35  C23 UNL     1      -0.484  -8.854  22.431  1.00  0.00     0.030 C 
HETATM   36  C24 UNL     1      -0.223  -8.213  23.800  1.00  0.00     0.272 C 
ENDBRANCH  30  31
ENDBRANCH  29  30
ENDBRANCH  28  29
ENDBRANCH  27  28
ENDBRANCH  12  27
TORSDOF 8
ENDMDL
MODEL 3
REMARK minimizedAffinity -8.28552532
REMARK CNNscore 0.73182261
REMARK CNNaffinity 7.60832596
REMARK  8 active torsions:
REMARK  status: ('A' for Active; 'I' for Inactive)
REMARK    1  A    between atoms: O1_2  and  C2_3 
REMARK    2  A    between atoms: C5_6  and  N1_7 
REMARK    3  A    between atoms: N1_7  and  C6_8 
REMARK    4  A    between atoms: C16_25  and  O4_26 
REMARK    5  A    between atoms: O4_26  and  C17_27 
REMARK    6  A    between atoms: C17_27  and  C18_28 
REMARK    7  A    between atoms: C18_28  and  C19_29 
REMARK    8  A    between atoms: C19_29  and  N4_30 
ROOT
HETATM    1  C2  UNL     1       6.173  -6.749  29.215  1.00  0.00     0.102 A 
HETATM    2  C3  UNL     1       7.068  -6.112  30.075  1.00  0.00     0.057 A 
HETATM    3  C4  UNL     1       6.791  -4.821  30.595  1.00  0.00     0.038 A 
HETATM    4  C5  UNL     1       7.621  -4.097  31.475  1.00  0.00     0.119 A 
HETATM    5  N2  UNL     1       7.312  -2.863  31.912  1.00  0.00    -0.338 N 
ATOM      6  H2  UNL     1       7.934  -2.340  32.527  1.00  0.00     0.168 HD
HETATM    7  C13 UNL     1       6.149  -2.361  31.498  1.00  0.00     0.182 A 
HETATM    8  N3  UNL     1       5.277  -2.957  30.676  1.00  0.00    -0.351 N 
ATOM      9  H3  UNL     1       4.405  -2.504  30.402  1.00  0.00     0.166 HD
HETATM   10  C14 UNL     1       5.604  -4.174  30.232  1.00  0.00     0.050 A 
HETATM   11  C15 UNL     1       4.724  -4.818  29.372  1.00  0.00     0.070 A 
HETATM   12  C16 UNL     1       4.988  -6.090  28.854  1.00  0.00     0.104 A 
ENDROOT
BRANCH   4  13
HETATM   13  N1  UNL     1       8.854  -4.620  31.920  1.00  0.00    -0.338 N 
HETATM   14  H5  UNL     1       8.776  -5.624  32.058  1.00  0.00     0.167 HD
BRANCH  13  15
HETATM   15  C6  UNL     1       9.679  -4.047  32.922  1.00  0.00     0.092 A 
HETATM   16  C7  UNL     1       9.608  -4.506  34.256  1.00  0.00     0.063 A 
HETATM   17 CL1  UNL     1       8.418  -5.679  34.713  1.00  0.00    -0.082 Cl
HETATM   18  C8  UNL     1      10.462  -4.012  35.260  1.00  0.00     0.029 A 
HETATM   19  C9  UNL     1      11.427  -3.053  34.954  1.00  0.00     0.041 A 
HETATM   20  C10 UNL     1      11.506  -2.624  33.646  1.00  0.00     0.107 A 
HETATM   21  C11 UNL     1      10.670  -3.105  32.659  1.00  0.00     0.133 A 
HETATM   22  O3  UNL     1      12.396  -1.704  33.183  1.00  0.00    -0.323 OA
HETATM   23  O2  UNL     1      10.947  -2.530  31.453  1.00  0.00    -0.321 OA
HETATM   24  C12 UNL     1      12.052  -1.672  31.784  1.00  0.00     0.352 A 
ENDBRANCH  13  15
ENDBRANCH   4  13
BRANCH   1  25
HETATM   25  O1  UNL     1       6.370  -7.991  28.670  1.00  0.00    -0.353 OA
HETATM   26  C1  UNL     1       7.568  -8.679  29.004  1.00  0.00     0.210 C 
ENDBRANCH   1  25
BRANCH  12  27
HETATM   27  O4  UNL     1       4.153  -6.774  28.007  1.00  0.00    -0.348 OA
BRANCH  27  28
HETATM   28  C17 UNL     1       2.779  -6.884  28.368  1.00  0.00     0.177 C 
BRANCH  28  29
HETATM   29  C18 UNL     1       2.234  -8.225  27.875  1.00  0.00     0.057 C 
BRANCH  29  30
HETATM   30  C19 UNL     1       1.417  -8.067  26.584  1.00  0.00     0.274 C 
BRANCH  30  31
HETATM   31  N4  UNL     1      -0.030  -8.207  26.816  1.00  0.00     0.088 N 
HETATM   32  C20 UNL     1      -0.281  -9.129  27.941  1.00  0.00     0.272 C 
HETATM   33  C21 UNL     1      -1.682  -9.757  27.939  1.00  0.00     0.030 C 
HETATM   34  C22 UNL     1      -2.704  -8.838  27.288  1.00  0.00     0.003 C 
HETATM   35  C23 UNL     1      -2.280  -8.470  25.865  1.00  0.00     0.030 C 
HETATM   36  C24 UNL     1      -0.772  -8.617  25.624  1.00  0.00     0.272 C 
ENDBRANCH  30  31
ENDBRANCH  29  30
ENDBRANCH  28  29
ENDBRANCH  27  28
ENDBRANCH  12  27
TORSDOF 8
ENDMDL
MODEL 4
REMARK minimizedAffinity -8.41265297
REMARK CNNscore 0.608537555
REMARK CNNaffinity 7.27392817
REMARK  8 active torsions:
REMARK  status: ('A' for Active; 'I' for Inactive)
REMARK    1  A    between atoms: O1_2  and  C2_3 
REMARK    2  A    between atoms: C5_6  and  N1_7 
REMARK    3  A    between atoms: N1_7  and  C6_8 
REMARK    4  A    between atoms: C16_25  and  O4_26 
REMARK    5  A    between atoms: O4_26  and  C17_27 
REMARK    6  A    between atoms: C17_27  and  C18_28 
REMARK    7  A    between atoms: C18_28  and  C19_29 
REMARK    8  A    between atoms: C19_29  and  N4_30 
ROOT
HETATM    1  C2  UNL     1       6.231  -6.962  29.006  1.00  0.00     0.102 A 
HETATM    2  C3  UNL     1       7.179  -6.296  29.785  1.00  0.00     0.057 A 
HETATM    3  C4  UNL     1       6.885  -5.044  30.384  1.00  0.00     0.038 A 
HETATM    4  C5  UNL     1       7.765  -4.297  31.194  1.00  0.00     0.119 A 
HETATM    5  N2  UNL     1       7.435  -3.101  31.711  1.00  0.00    -0.338 N 
ATOM      6  H2  UNL     1       8.091  -2.559  32.274  1.00  0.00     0.168 HD
HETATM    7  C13 UNL     1       6.204  -2.662  31.451  1.00  0.00     0.182 A 
HETATM    8  N3  UNL     1       5.281  -3.286  30.709  1.00  0.00    -0.351 N 
ATOM      9  H3  UNL     1       4.357  -2.881  30.553  1.00  0.00     0.166 HD
HETATM   10  C14 UNL     1       5.627  -4.463  30.183  1.00  0.00     0.050 A 
HETATM   11  C15 UNL     1       4.695  -5.134  29.401  1.00  0.00     0.070 A 
HETATM   12  C16 UNL     1       4.975  -6.369  28.807  1.00  0.00     0.104 A 
ENDROOT
BRANCH   4  13
HETATM   13  N1  UNL     1       9.070  -4.754  31.476  1.00  0.00    -0.338 N 
HETATM   14  H5  UNL     1       9.086  -5.771  31.499  1.00  0.00     0.167 HD
BRANCH  13  15
HETATM   15  C6  UNL     1       9.932  -4.225  32.471  1.00  0.00     0.092 A 
HETATM   16  C7  UNL     1      11.102  -3.522  32.104  1.00  0.00     0.063 A 
HETATM   17 CL1  UNL     1      11.570  -3.415  30.440  1.00  0.00    -0.082 Cl
HETATM   18  C8  UNL     1      11.940  -2.921  33.063  1.00  0.00     0.029 A 
HETATM   19  C9  UNL     1      11.623  -2.991  34.418  1.00  0.00     0.041 A 
HETATM   20  C10 UNL     1      10.469  -3.659  34.768  1.00  0.00     0.107 A 
HETATM   21  C11 UNL     1       9.645  -4.251  33.833  1.00  0.00     0.133 A 
HETATM   22  O3  UNL     1      10.014  -3.809  36.042  1.00  0.00    -0.323 OA
HETATM   23  O2  UNL     1       8.569  -4.846  34.426  1.00  0.00    -0.321 OA
HETATM   24  C12 UNL     1       8.793  -4.538  35.813  1.00  0.00     0.352 A 
ENDBRANCH  13  15
ENDBRANCH   4  13
BRANCH   1  25
HETATM   25  O1  UNL     1       6.439  -8.169  28.393  1.00  0.00    -0.353 OA
HETATM   26  C1  UNL     1       7.382  -9.056  28.978  1.00  0.00     0.210 C 
ENDBRANCH   1  25
BRANCH  12  27
HETATM   27  O4  UNL     1       4.091  -7.077  28.032  1.00  0.00    -0.348 OA
BRANCH  27  28
HETATM   28  C17 UNL     1       2.704  -6.982  28.344  1.00  0.00     0.177 C 
BRANCH  28  29
HETATM   29  C18 UNL     1       1.972  -8.192  27.761  1.00  0.00     0.057 C 
BRANCH  29  30
HETATM   30  C19 UNL     1       0.906  -7.773  26.739  1.00  0.00     0.274 C 
BRANCH  30  31
HETATM   31  N4  UNL     1       1.304  -8.083  25.356  1.00  0.00     0.088 N 
HETATM   32  C20 UNL     1       0.244  -8.854  24.678  1.00  0.00     0.272 C 
HETATM   33  C21 UNL     1       0.731  -9.669  23.472  1.00  0.00     0.030 C 
HETATM   34  C22 UNL     1       1.929  -9.014  22.804  1.00  0.00     0.003 C 
HETATM   35  C23 UNL     1       3.067  -8.806  23.805  1.00  0.00     0.030 C 
HETATM   36  C24 UNL     1       2.593  -8.769  25.264  1.00  0.00     0.272 C 
ENDBRANCH  30  31
ENDBRANCH  29  30
ENDBRANCH  28  29
ENDBRANCH  27  28
ENDBRANCH  12  27
TORSDOF 8
ENDMDL
MODEL 5
REMARK minimizedAffinity -7.89919519
REMARK CNNscore 0.458268493
REMARK CNNaffinity 7.35187578
REMARK  8 active torsions:
REMARK  status: ('A' for Active; 'I' for Inactive)
REMARK    1  A    between atoms: O1_2  and  C2_3 
REMARK    2  A    between atoms: C5_6  and  N1_7 
REMARK    3  A    between atoms: N1_7  and  C6_8 
REMARK    4  A    between atoms: C16_25  and  O4_26 
REMARK    5  A    between atoms: O4_26  and  C17_27 
REMARK    6  A    between atoms: C17_27  and  C18_28 
REMARK    7  A    between atoms: C18_28  and  C19_29 
REMARK    8  A    between atoms: C19_29  and  N4_30 
ROOT
HETATM    1  C2  UNL     1       5.714  -8.255  28.137  1.00  0.00     0.102 A 
HETATM    2  C3  UNL     1       6.536  -7.471  28.947  1.00  0.00     0.057 A 
HETATM    3  C4  UNL     1       6.073  -6.244  29.490  1.00  0.00     0.038 A 
HETATM    4  C5  UNL     1       6.817  -5.386  30.325  1.00  0.00     0.119 A 
HETATM    5  N2  UNL     1       6.329  -4.221  30.786  1.00  0.00    -0.338 N 
ATOM      6  H2  UNL     1       6.888  -3.597  31.368  1.00  0.00     0.168 HD
HETATM    7  C13 UNL     1       5.075  -3.926  30.443  1.00  0.00     0.182 A 
HETATM    8  N3  UNL     1       4.271  -4.666  29.670  1.00  0.00    -0.351 N 
ATOM      9  H3  UNL     1       3.320  -4.370  29.450  1.00  0.00     0.166 HD
HETATM   10  C14 UNL     1       4.774  -5.811  29.200  1.00  0.00     0.050 A 
HETATM   11  C15 UNL     1       3.969  -6.599  28.388  1.00  0.00     0.070 A 
HETATM   12  C16 UNL     1       4.416  -7.810  27.849  1.00  0.00     0.104 A 
ENDROOT
BRANCH   4  13
HETATM   13  N1  UNL     1       8.145  -5.689  30.694  1.00  0.00    -0.338 N 
HETATM   14  H5  UNL     1       8.150  -6.304  31.504  1.00  0.00     0.167 HD
BRANCH  13  15
HETATM   15  C6  UNL     1       9.211  -4.756  30.777  1.00  0.00     0.092 A 
HETATM   16  C7  UNL     1       9.660  -4.293  32.034  1.00  0.00     0.063 A 
HETATM   17 CL1  UNL     1       8.828  -4.753  33.482  1.00  0.00    -0.082 Cl
HETATM   18  C8  UNL     1      10.762  -3.425  32.158  1.00  0.00     0.029 A 
HETATM   19  C9  UNL     1      11.458  -3.007  31.025  1.00  0.00     0.041 A 
HETATM   20  C10 UNL     1      11.029  -3.479  29.803  1.00  0.00     0.107 A 
HETATM   21  C11 UNL     1       9.950  -4.329  29.677  1.00  0.00     0.133 A 
HETATM   22  O3  UNL     1      11.605  -3.175  28.608  1.00  0.00    -0.323 OA
HETATM   23  O2  UNL     1       9.726  -4.655  28.371  1.00  0.00    -0.321 OA
HETATM   24  C12 UNL     1      10.788  -3.949  27.707  1.00  0.00     0.352 A 
ENDBRANCH  13  15
ENDBRANCH   4  13
BRANCH   1  25
HETATM   25  O1  UNL     1       6.088  -9.447  27.573  1.00  0.00    -0.353 OA
HETATM   26  C1  UNL     1       7.094  -9.419  26.569  1.00  0.00     0.210 C 
ENDBRANCH   1  25
BRANCH  12  27
HETATM   27  O4  UNL     1       3.661  -8.629  27.047  1.00  0.00    -0.348 OA
BRANCH  27  28
HETATM   28  C17 UNL     1       2.249  -8.628  27.231  1.00  0.00     0.177 C 
BRANCH  28  29
HETATM   29  C18 UNL     1       1.578  -8.043  25.988  1.00  0.00     0.057 C 
BRANCH  29  30
HETATM   30  C19 UNL     1       1.190  -9.137  24.983  1.00  0.00     0.274 C 
BRANCH  30  31
HETATM   31  N4  UNL     1       0.989  -8.604  23.625  1.00  0.00     0.088 N 
HETATM   32  C20 UNL     1      -0.424  -8.226  23.428  1.00  0.00     0.272 C 
HETATM   33  C21 UNL     1      -0.860  -8.169  21.957  1.00  0.00     0.030 C 
HETATM   34  C22 UNL     1       0.300  -7.806  21.044  1.00  0.00     0.003 C 
HETATM   35  C23 UNL     1       1.462  -8.786  21.221  1.00  0.00     0.030 C 
HETATM   36  C24 UNL     1       1.443  -9.512  22.572  1.00  0.00     0.272 C 
ENDBRANCH  30  31
ENDBRANCH  29  30
ENDBRANCH  28  29
ENDBRANCH  27  28
ENDBRANCH  12  27
TORSDOF 8
ENDMDL
MODEL 6
REMARK minimizedAffinity -8.04222298
REMARK CNNscore 0.44877404
REMARK CNNaffinity 7.10597372
REMARK  8 active torsions:
REMARK  status: ('A' for Active; 'I' for Inactive)
REMARK    1  A    between atoms: O1_2  and  C2_3 
REMARK    2  A    between atoms: C5_6  and  N1_7 
REMARK    3  A    between atoms: N1_7  and  C6_8 
REMARK    4  A    between atoms: C16_25  and  O4_26 
REMARK    5  A    between atoms: O4_26  and  C17_27 
REMARK    6  A    between atoms: C17_27  and  C18_28 
REMARK    7  A    between atoms: C18_28  and  C19_29 
REMARK    8  A    between atoms: C19_29  and  N4_30 
ROOT
HETATM    1  C2  UNL     1       5.882  -7.184  28.968  1.00  0.00     0.102 A 
HETATM    2  C3  UNL     1       6.851  -6.537  29.735  1.00  0.00     0.057 A 
HETATM    3  C4  UNL     1       6.613  -5.248  30.280  1.00  0.00     0.038 A 
HETATM    4  C5  UNL     1       7.519  -4.514  31.073  1.00  0.00     0.119 A 
HETATM    5  N2  UNL     1       7.242  -3.284  31.538  1.00  0.00    -0.338 N 
ATOM      6  H2  UNL     1       7.917  -2.753  32.089  1.00  0.00     0.168 HD
HETATM    7  C13 UNL     1       6.039  -2.794  31.242  1.00  0.00     0.182 A 
HETATM    8  N3  UNL     1       5.095  -3.400  30.511  1.00  0.00    -0.351 N 
ATOM      9  H3  UNL     1       4.195  -2.957  30.325  1.00  0.00     0.166 HD
HETATM   10  C14 UNL     1       5.389  -4.614  30.037  1.00  0.00     0.050 A 
HETATM   11  C15 UNL     1       4.435  -5.268  29.268  1.00  0.00     0.070 A 
HETATM   12  C16 UNL     1       4.660  -6.538  28.727  1.00  0.00     0.104 A 
ENDROOT
BRANCH   4  13
HETATM   13  N1  UNL     1       8.796  -5.024  31.393  1.00  0.00    -0.338 N 
HETATM   14  H5  UNL     1       8.736  -6.023  31.572  1.00  0.00     0.167 HD
BRANCH  13  15
HETATM   15  C6  UNL     1       9.727  -4.419  32.275  1.00  0.00     0.092 A 
HETATM   16  C7  UNL     1      10.849  -3.728  31.766  1.00  0.00     0.063 A 
HETATM   17 CL1  UNL     1      11.175  -3.726  30.065  1.00  0.00    -0.082 Cl
HETATM   18  C8  UNL     1      11.754  -3.053  32.609  1.00  0.00     0.029 A 
HETATM   19  C9  UNL     1      11.552  -3.037  33.987  1.00  0.00     0.041 A 
HETATM   20  C10 UNL     1      10.444  -3.695  34.477  1.00  0.00     0.107 A 
HETATM   21  C11 UNL     1       9.555  -4.358  33.655  1.00  0.00     0.133 A 
HETATM   22  O3  UNL     1      10.100  -3.764  35.792  1.00  0.00    -0.323 OA
HETATM   23  O2  UNL     1       8.544  -4.925  34.375  1.00  0.00    -0.321 OA
HETATM   24  C12 UNL     1       8.877  -4.523  35.715  1.00  0.00     0.352 A 
ENDBRANCH  13  15
ENDBRANCH   4  13
BRANCH   1  25
HETATM   25  O1  UNL     1       6.036  -8.424  28.406  1.00  0.00    -0.353 OA
HETATM   26  C1  UNL     1       7.294  -9.069  28.559  1.00  0.00     0.210 C 
ENDBRANCH   1  25
BRANCH  12  27
HETATM   27  O4  UNL     1       3.752  -7.231  27.967  1.00  0.00    -0.348 OA
BRANCH  27  28
HETATM   28  C17 UNL     1       2.368  -6.944  28.151  1.00  0.00     0.177 C 
BRANCH  28  29
HETATM   29  C18 UNL     1       1.561  -7.625  27.045  1.00  0.00     0.057 C 
BRANCH  29  30
HETATM   30  C19 UNL     1       1.317  -9.110  27.351  1.00  0.00     0.274 C 
BRANCH  30  31
HETATM   31  N4  UNL     1      -0.039  -9.359  27.870  1.00  0.00     0.088 N 
HETATM   32  C20 UNL     1      -0.404 -10.777  27.685  1.00  0.00     0.272 C 
HETATM   33  C21 UNL     1      -1.917 -11.041  27.684  1.00  0.00     0.030 C 
HETATM   34  C22 UNL     1      -2.661 -10.028  28.539  1.00  0.00     0.003 C 
HETATM   35  C23 UNL     1      -2.366  -8.600  28.075  1.00  0.00     0.030 C 
HETATM   36  C24 UNL     1      -1.052  -8.475  27.294  1.00  0.00     0.272 C 
ENDBRANCH  30  31
ENDBRANCH  29  30
ENDBRANCH  28  29
ENDBRANCH  27  28
ENDBRANCH  12  27
TORSDOF 8
ENDMDL
MODEL 7
REMARK minimizedAffinity -7.52939796
REMARK CNNscore 0.446856499
REMARK CNNaffinity 7.29302168
REMARK  8 active torsions:
REMARK  status: ('A' for Active; 'I' for Inactive)
REMARK    1  A    between atoms: O1_2  and  C2_3 
REMARK    2  A    between atoms: C5_6  and  N1_7 
REMARK    3  A    between atoms: N1_7  and  C6_8 
REMARK    4  A    between atoms: C16_25  and  O4_26 
REMARK    5  A    between atoms: O4_26  and  C17_27 
REMARK    6  A    between atoms: C17_27  and  C18_28 
REMARK    7  A    between atoms: C18_28  and  C19_29 
REMARK    8  A    between atoms: C19_29  and  N4_30 
ROOT
HETATM    1  C2  UNL     1       5.434  -8.213  28.026  1.00  0.00     0.102 A 
HETATM    2  C3  UNL     1       6.339  -7.485  28.800  1.00  0.00     0.057 A 
HETATM    3  C4  UNL     1       5.964  -6.256  29.403  1.00  0.00     0.038 A 
HETATM    4  C5  UNL     1       6.795  -5.451  30.208  1.00  0.00     0.119 A 
HETATM    5  N2  UNL     1       6.387  -4.281  30.730  1.00  0.00    -0.338 N 
ATOM      6  H2  UNL     1       7.008  -3.696  31.288  1.00  0.00     0.168 HD
HETATM    7  C13 UNL     1       5.127  -3.927  30.477  1.00  0.00     0.182 A 
HETATM    8  N3  UNL     1       4.244  -4.612  29.740  1.00  0.00    -0.351 N 
ATOM      9  H3  UNL     1       3.294  -4.272  29.591  1.00  0.00     0.166 HD
HETATM   10  C14 UNL     1       4.668  -5.763  29.210  1.00  0.00     0.050 A 
HETATM   11  C15 UNL     1       3.779  -6.496  28.434  1.00  0.00     0.070 A 
HETATM   12  C16 UNL     1       4.139  -7.708  27.836  1.00  0.00     0.104 A 
ENDROOT
BRANCH   4  13
HETATM   13  N1  UNL     1       8.131  -5.818  30.482  1.00  0.00    -0.338 N 
HETATM   14  H5  UNL     1       8.154  -6.544  31.193  1.00  0.00     0.167 HD
BRANCH  13  15
HETATM   15  C6  UNL     1       9.212  -4.917  30.661  1.00  0.00     0.092 A 
HETATM   16  C7  UNL     1       9.659  -4.586  31.960  1.00  0.00     0.063 A 
HETATM   17 CL1  UNL     1       8.807  -5.168  33.351  1.00  0.00    -0.082 Cl
HETATM   18  C8  UNL     1      10.775  -3.753  32.173  1.00  0.00     0.029 A 
HETATM   19  C9  UNL     1      11.488  -3.241  31.091  1.00  0.00     0.041 A 
HETATM   20  C10 UNL     1      11.060  -3.585  29.826  1.00  0.00     0.107 A 
HETATM   21  C11 UNL     1       9.967  -4.399  29.612  1.00  0.00     0.133 A 
HETATM   22  O3  UNL     1      11.650  -3.178  28.669  1.00  0.00    -0.323 OA
HETATM   23  O2  UNL     1       9.748  -4.593  28.279  1.00  0.00    -0.321 OA
HETATM   24  C12 UNL     1      10.827  -3.846  27.693  1.00  0.00     0.352 A 
ENDBRANCH  13  15
ENDBRANCH   4  13
BRANCH   1  25
HETATM   25  O1  UNL     1       5.721  -9.403  27.410  1.00  0.00    -0.353 OA
HETATM   26  C1  UNL     1       6.512  -9.365  26.230  1.00  0.00     0.210 C 
ENDBRANCH   1  25
BRANCH  12  27
HETATM   27  O4  UNL     1       3.301  -8.474  27.066  1.00  0.00    -0.348 OA
BRANCH  27  28
HETATM   28  C17 UNL     1       1.983  -8.715  27.549  1.00  0.00     0.177 C 
BRANCH  28  29
HETATM   29  C18 UNL     1       0.976  -8.418  26.438  1.00  0.00     0.057 C 
BRANCH  29  30
HETATM   30  C19 UNL     1      -0.312  -9.239  26.602  1.00  0.00     0.274 C 
BRANCH  30  31
HETATM   31  N4  UNL     1      -1.523  -8.412  26.474  1.00  0.00     0.088 N 
HETATM   32  C20 UNL     1      -2.209  -8.303  27.776  1.00  0.00     0.272 C 
HETATM   33  C21 UNL     1      -3.698  -7.943  27.675  1.00  0.00     0.030 C 
HETATM   34  C22 UNL     1      -3.986  -7.108  26.437  1.00  0.00     0.003 C 
HETATM   35  C23 UNL     1      -3.523  -7.830  25.171  1.00  0.00     0.030 C 
HETATM   36  C24 UNL     1      -2.439  -8.883  25.435  1.00  0.00     0.272 C 
ENDBRANCH  30  31
ENDBRANCH  29  30
ENDBRANCH  28  29
ENDBRANCH  27  28
ENDBRANCH  12  27
TORSDOF 8
ENDMDL
MODEL 8
REMARK minimizedAffinity -8.01953316
REMARK CNNscore 0.43023631
REMARK CNNaffinity 7.18204689
REMARK  8 active torsions:
REMARK  status: ('A' for Active; 'I' for Inactive)
REMARK    1  A    between atoms: O1_2  and  C2_3 
REMARK    2  A    between atoms: C5_6  and  N1_7 
REMARK    3  A    between atoms: N1_7  and  C6_8 
REMARK    4  A    between atoms: C16_25  and  O4_26 
REMARK    5  A    between atoms: O4_26  and  C17_27 
REMARK    6  A    between atoms: C17_27  and  C18_28 
REMARK    7  A    between atoms: C18_28  and  C19_29 
REMARK    8  A    between atoms: C19_29  and  N4_30 
ROOT
HETATM    1  C2  UNL     1       5.894  -8.017  28.535  1.00  0.00     0.102 A 
HETATM    2  C3  UNL     1       6.658  -7.213  29.382  1.00  0.00     0.057 A 
HETATM    3  C4  UNL     1       6.174  -5.956  29.831  1.00  0.00     0.038 A 
HETATM    4  C5  UNL     1       6.860  -5.076  30.693  1.00  0.00     0.119 A 
HETATM    5  N2  UNL     1       6.357  -3.885  31.061  1.00  0.00    -0.338 N 
ATOM      6  H2  UNL     1       6.875  -3.246  31.664  1.00  0.00     0.168 HD
HETATM    7  C13 UNL     1       5.145  -3.583  30.597  1.00  0.00     0.182 A 
HETATM    8  N3  UNL     1       4.397  -4.341  29.786  1.00  0.00    -0.351 N 
ATOM      9  H3  UNL     1       3.475  -4.038  29.470  1.00  0.00     0.166 HD
HETATM   10  C14 UNL     1       4.915  -5.514  29.410  1.00  0.00     0.050 A 
HETATM   11  C15 UNL     1       4.168  -6.322  28.563  1.00  0.00     0.070 A 
HETATM   12  C16 UNL     1       4.635  -7.562  28.115  1.00  0.00     0.104 A 
ENDROOT
BRANCH   4  13
HETATM   13  N1  UNL     1       8.144  -5.386  31.191  1.00  0.00    -0.338 N 
HETATM   14  H5  UNL     1       8.065  -5.850  32.092  1.00  0.00     0.167 HD
BRANCH  13  15
HETATM   15  C6  UNL     1       9.264  -4.515  31.181  1.00  0.00     0.092 A 
HETATM   16  C7  UNL     1       9.785  -4.008  32.392  1.00  0.00     0.063 A 
HETATM   17 CL1  UNL     1       8.983  -4.333  33.893  1.00  0.00    -0.082 Cl
HETATM   18  C8  UNL     1      10.939  -3.201  32.425  1.00  0.00     0.029 A 
HETATM   19  C9  UNL     1      11.615  -2.892  31.247  1.00  0.00     0.041 A 
HETATM   20  C10 UNL     1      11.114  -3.407  30.070  1.00  0.00     0.107 A 
HETATM   21  C11 UNL     1       9.983  -4.198  30.033  1.00  0.00     0.133 A 
HETATM   22  O3  UNL     1      11.661  -3.208  28.840  1.00  0.00    -0.323 OA
HETATM   23  O2  UNL     1       9.692  -4.584  28.757  1.00  0.00    -0.321 OA
HETATM   24  C12 UNL     1      10.767  -3.982  28.016  1.00  0.00     0.352 A 
ENDBRANCH  13  15
ENDBRANCH   4  13
BRANCH   1  25
HETATM   25  O1  UNL     1       6.291  -9.238  28.056  1.00  0.00    -0.353 OA
HETATM   26  C1  UNL     1       7.622  -9.655  28.328  1.00  0.00     0.210 C 
ENDBRANCH   1  25
BRANCH  12  27
HETATM   27  O4  UNL     1       3.937  -8.401  27.284  1.00  0.00    -0.348 OA
BRANCH  27  28
HETATM   28  C17 UNL     1       2.516  -8.412  27.384  1.00  0.00     0.177 C 
BRANCH  28  29
HETATM   29  C18 UNL     1       1.997  -9.810  27.046  1.00  0.00     0.057 C 
BRANCH  29  30
HETATM   30  C19 UNL     1       0.578  -9.764  26.462  1.00  0.00     0.274 C 
BRANCH  30  31
HETATM   31  N4  UNL     1      -0.353 -10.648  27.183  1.00  0.00     0.088 N 
HETATM   32  C20 UNL     1      -1.042  -9.900  28.253  1.00  0.00     0.272 C 
HETATM   33  C21 UNL     1      -1.606 -10.783  29.375  1.00  0.00     0.030 C 
HETATM   34  C22 UNL     1      -1.982 -12.164  28.862  1.00  0.00     0.003 C 
HETATM   35  C23 UNL     1      -0.783 -12.844  28.196  1.00  0.00     0.030 C 
HETATM   36  C24 UNL     1       0.284 -11.854  27.711  1.00  0.00     0.272 C 
ENDBRANCH  30  31
ENDBRANCH  29  30
ENDBRANCH  28  29
ENDBRANCH  27  28
ENDBRANCH  12  27
TORSDOF 8
ENDMDL
MODEL 9
REMARK minimizedAffinity -8.59463215
REMARK CNNscore 0.285069078
REMARK CNNaffinity 6.59831429
REMARK  8 active torsions:
REMARK  status: ('A' for Active; 'I' for Inactive)
REMARK    1  A    between atoms: O1_2  and  C2_3 
REMARK    2  A    between atoms: C5_6  and  N1_7 
REMARK    3  A    between atoms: N1_7  and  C6_8 
REMARK    4  A    between atoms: C16_25  and  O4_26 
REMARK    5  A    between atoms: O4_26  and  C17_27 
REMARK    6  A    between atoms: C17_27  and  C18_28 
REMARK    7  A    between atoms: C18_28  and  C19_29 
REMARK    8  A    between atoms: C19_29  and  N4_30 
ROOT
HETATM    1  C2  UNL     1      10.596  -6.196  30.591  1.00  0.00     0.102 A 
HETATM    2  C3  UNL     1       9.713  -5.308  31.208  1.00  0.00     0.057 A 
HETATM    3  C4  UNL     1       8.387  -5.141  30.728  1.00  0.00     0.038 A 
HETATM    4  C5  UNL     1       7.418  -4.282  31.283  1.00  0.00     0.119 A 
HETATM    5  N2  UNL     1       6.185  -4.150  30.764  1.00  0.00    -0.338 N 
ATOM      6  H2  UNL     1       5.502  -3.504  31.159  1.00  0.00     0.168 HD
HETATM    7  C13 UNL     1       5.902  -4.908  29.705  1.00  0.00     0.182 A 
HETATM    8  N3  UNL     1       6.734  -5.766  29.101  1.00  0.00    -0.351 N 
ATOM      9  H3  UNL     1       6.443  -6.311  28.290  1.00  0.00     0.166 HD
HETATM   10  C14 UNL     1       7.963  -5.874  29.613  1.00  0.00     0.050 A 
HETATM   11  C15 UNL     1       8.854  -6.750  29.006  1.00  0.00     0.070 A 
HETATM   12  C16 UNL     1      10.161  -6.921  29.471  1.00  0.00     0.104 A 
ENDROOT
BRANCH   4  13
HETATM   13  N1  UNL     1       7.707  -3.475  32.405  1.00  0.00    -0.338 N 
HETATM   14  H5  UNL     1       7.197  -2.597  32.343  1.00  0.00     0.167 HD
BRANCH  13  15
HETATM   15  C6  UNL     1       8.997  -3.259  32.953  1.00  0.00     0.092 A 
HETATM   16  C7  UNL     1       9.492  -4.105  33.971  1.00  0.00     0.063 A 
HETATM   17 CL1  UNL     1       8.480  -5.333  34.655  1.00  0.00    -0.082 Cl
HETATM   18  C8  UNL     1      10.795  -3.965  34.487  1.00  0.00     0.029 A 
HETATM   19  C9  UNL     1      11.648  -2.982  33.987  1.00  0.00     0.041 A 
HETATM   20  C10 UNL     1      11.166  -2.173  32.980  1.00  0.00     0.107 A 
HETATM   21  C11 UNL     1       9.890  -2.306  32.472  1.00  0.00     0.133 A 
HETATM   22  O3  UNL     1      11.873  -1.177  32.379  1.00  0.00    -0.323 OA
HETATM   23  O2  UNL     1       9.653  -1.394  31.485  1.00  0.00    -0.321 OA
HETATM   24  C12 UNL     1      10.913  -0.706  31.412  1.00  0.00     0.352 A 
ENDBRANCH  13  15
ENDBRANCH   4  13
BRANCH   1  25
HETATM   25  O1  UNL     1      11.888  -6.409  30.992  1.00  0.00    -0.353 OA
HETATM   26  C1  UNL     1      12.670  -5.275  31.342  1.00  0.00     0.210 C 
ENDBRANCH   1  25
BRANCH  12  27
HETATM   27  O4  UNL     1      11.079  -7.776  28.915  1.00  0.00    -0.348 OA
BRANCH  27  28
HETATM   28  C17 UNL     1      10.902  -9.174  29.123  1.00  0.00     0.177 C 
BRANCH  28  29
HETATM   29  C18 UNL     1      12.271  -9.839  29.271  1.00  0.00     0.057 C 
BRANCH  29  30
HETATM   30  C19 UNL     1      12.894  -9.559  30.647  1.00  0.00     0.274 C 
BRANCH  30  31
HETATM   31  N4  UNL     1      13.974 -10.504  30.975  1.00  0.00     0.088 N 
HETATM   32  C20 UNL     1      13.765 -11.071  32.322  1.00  0.00     0.272 C 
HETATM   33  C21 UNL     1      15.039 -11.626  32.975  1.00  0.00     0.030 C 
HETATM   34  C22 UNL     1      16.026 -12.130  31.934  1.00  0.00     0.003 C 
HETATM   35  C23 UNL     1      16.374 -11.026  30.933  1.00  0.00     0.030 C 
HETATM   36  C24 UNL     1      15.310  -9.923  30.850  1.00  0.00     0.272 C 
ENDBRANCH  30  31
ENDBRANCH  29  30
ENDBRANCH  28  29
ENDBRANCH  27  28
ENDBRANCH  12  27
TORSDOF 8
ENDMDL
