MODEL 1
REMARK minimizedAffinity -7.15824842
REMARK CNNscore 0.580180764
REMARK CNNaffinity 6.67620087
REMARK  9 active torsions:
REMARK  status: ('A' for Active; 'I' for Inactive)
REMARK    1  A    between atoms: C2_2  and  C3_3 
REMARK    2  A    between atoms: C2_2  and  C9_12 
REMARK    3  A    between atoms: C3_3  and  C4_4 
REMARK    4  A    between atoms: C4_4  and  O1_5 
REMARK    5  A    between atoms: C4_4  and  C5_6 
REMARK    6  A    between atoms: C5_6  and  O2_7 
REMARK    7  A    between atoms: C5_6  and  C6_8 
REMARK    8  A    between atoms: C6_8  and  O3_11 
REMARK    9  A    between atoms: C16_19  and  O4_20 
ROOT
HETATM    1  C9  UNL     1       1.395  53.215 -10.852  1.00  0.00     0.097 A 
HETATM    2  C10 UNL     1       2.784  52.815 -11.255  1.00  0.00     0.042 C 
HETATM    3  C11 UNL     1       3.728  53.822 -10.581  1.00  0.00     0.016 C 
HETATM    4  C12 UNL     1       2.883  55.024 -10.015  1.00  0.00    -0.002 C 
HETATM    5  C13 UNL     1       3.104  56.237 -10.954  1.00  0.00     0.019 C 
HETATM    6  C14 UNL     1       1.436  54.549 -10.139  1.00  0.00     0.104 A 
HETATM    7  C15 UNL     1       0.354  55.204  -9.337  1.00  0.00     0.074 C 
HETATM    8  C16 UNL     1       0.752  55.655  -7.925  1.00  0.00     0.126 C 
HETATM    9  C17 UNL     1       2.165  56.314  -7.865  1.00  0.00     0.032 C 
HETATM   10  C18 UNL     1       2.622  57.057  -6.486  1.00  0.00    -0.032 C 
HETATM   11  C19 UNL     1       2.717  58.572  -6.828  1.00  0.00     0.016 C 
HETATM   12  C20 UNL     1       1.597  56.865  -5.341  1.00  0.00     0.017 C 
HETATM   13  C21 UNL     1       1.979  57.405  -3.968  1.00  0.00     0.080 C 
HETATM   14  C22 UNL     1       3.384  57.920  -3.824  1.00  0.00     0.135 C 
HETATM   15  O5  UNL     1       3.611  58.818  -3.008  1.00  0.00    -0.297 OA
HETATM   16  C23 UNL     1       4.513  57.240  -4.600  1.00  0.00     0.017 C 
HETATM   17  C24 UNL     1       5.619  58.292  -4.843  1.00  0.00     0.023 C 
HETATM   18  C25 UNL     1       5.101  56.172  -3.649  1.00  0.00     0.023 C 
HETATM   19  C26 UNL     1       3.992  56.539  -5.919  1.00  0.00     0.009 C 
HETATM   20  C27 UNL     1       5.086  56.372  -6.986  1.00  0.00     0.007 C 
HETATM   21  C28 UNL     1       4.607  56.010  -8.382  1.00  0.00     0.011 C 
HETATM   22  C29 UNL     1       3.228  55.326  -8.473  1.00  0.00    -0.027 C 
HETATM   23  C30 UNL     1       3.233  53.990  -7.665  1.00  0.00     0.016 C 
HETATM   24  O6  UNL     1       0.988  54.414 -11.510  1.00  0.00    -0.362 OA
ENDROOT
BRANCH   1  25
HETATM   25  C2  UNL     1       0.280  52.193 -10.777  1.00  0.00     0.022 C 
HETATM   26  C1  UNL     1       0.848  50.789 -10.564  1.00  0.00     0.013 C 
BRANCH  25  27
HETATM   27  C3  UNL     1      -0.608  52.281 -12.037  1.00  0.00     0.041 C 
BRANCH  27  28
HETATM   28  C4  UNL     1      -0.476  51.133 -13.052  1.00  0.00     0.150 C 
BRANCH  28  29
HETATM   29  O1  UNL     1      -1.078  49.969 -12.461  1.00  0.00    -0.393 OA
HETATM   30  H8  UNL     1      -2.016  50.170 -12.285  1.00  0.00     0.210 HD
ENDBRANCH  28  29
BRANCH  28  31
HETATM   31  C5  UNL     1       0.986  50.797 -13.459  1.00  0.00     0.180 C 
BRANCH  31  32
HETATM   32  O2  UNL     1       1.111  49.385 -13.678  1.00  0.00    -0.390 OA
HETATM   33  H10 UNL     1       1.115  48.939 -12.811  1.00  0.00     0.210 HD
ENDBRANCH  31  32
BRANCH  31  34
HETATM   34  C6  UNL     1       1.478  51.550 -14.743  1.00  0.00     0.079 C 
HETATM   35  C7  UNL     1       0.939  50.872 -16.006  1.00  0.00     0.048 C 
HETATM   36  C8  UNL     1       3.008  51.610 -14.811  1.00  0.00     0.048 C 
BRANCH  34  37
HETATM   37  O3  UNL     1       1.009  52.904 -14.780  1.00  0.00    -0.388 OA
HETATM   38  H17 UNL     1       0.697  53.118 -13.873  1.00  0.00     0.210 HD
ENDBRANCH  34  37
ENDBRANCH  31  34
ENDBRANCH  28  31
ENDBRANCH  27  28
ENDBRANCH  25  27
ENDBRANCH   1  25
BRANCH   8  39
HETATM   39  O4  UNL     1      -0.239  56.592  -7.517  1.00  0.00    -0.395 OA
HETATM   40  H28 UNL     1      -1.106  56.153  -7.541  1.00  0.00     0.210 HD
ENDBRANCH   8  39
TORSDOF 9
ENDMDL
MODEL 2
REMARK minimizedAffinity -8.09631348
REMARK CNNscore 0.514900208
REMARK CNNaffinity 6.07830858
REMARK  9 active torsions:
REMARK  status: ('A' for Active; 'I' for Inactive)
REMARK    1  A    between atoms: C2_2  and  C3_3 
REMARK    2  A    between atoms: C2_2  and  C9_12 
REMARK    3  A    between atoms: C3_3  and  C4_4 
REMARK    4  A    between atoms: C4_4  and  O1_5 
REMARK    5  A    between atoms: C4_4  and  C5_6 
REMARK    6  A    between atoms: C5_6  and  O2_7 
REMARK    7  A    between atoms: C5_6  and  C6_8 
REMARK    8  A    between atoms: C6_8  and  O3_11 
REMARK    9  A    between atoms: C16_19  and  O4_20 
ROOT
HETATM    1  C9  UNL     1     -11.327  46.058 -28.161  1.00  0.00     0.097 A 
HETATM    2  C10 UNL     1     -11.416  44.844 -29.038  1.00  0.00     0.042 C 
HETATM    3  C11 UNL     1     -12.518  43.961 -28.432  1.00  0.00     0.016 C 
HETATM    4  C12 UNL     1     -12.885  44.504 -27.000  1.00  0.00    -0.002 C 
HETATM    5  C13 UNL     1     -12.263  43.540 -25.958  1.00  0.00     0.019 C 
HETATM    6  C14 UNL     1     -12.174  45.855 -26.924  1.00  0.00     0.104 A 
HETATM    7  C15 UNL     1     -12.600  46.876 -25.914  1.00  0.00     0.074 C 
HETATM    8  C16 UNL     1     -14.105  46.938 -25.623  1.00  0.00     0.126 C 
HETATM    9  C17 UNL     1     -14.769  45.530 -25.516  1.00  0.00     0.032 C 
HETATM   10  C18 UNL     1     -16.305  45.430 -24.973  1.00  0.00    -0.032 C 
HETATM   11  C19 UNL     1     -16.225  44.707 -23.597  1.00  0.00     0.016 C 
HETATM   12  C20 UNL     1     -16.955  46.821 -24.772  1.00  0.00     0.017 C 
HETATM   13  C21 UNL     1     -18.430  46.851 -24.391  1.00  0.00     0.080 C 
HETATM   14  C22 UNL     1     -19.149  45.531 -24.415  1.00  0.00     0.135 C 
HETATM   15  O5  UNL     1     -20.102  45.355 -23.651  1.00  0.00    -0.297 OA
HETATM   16  C23 UNL     1     -18.761  44.487 -25.464  1.00  0.00     0.017 C 
HETATM   17  C24 UNL     1     -19.086  43.092 -24.883  1.00  0.00     0.023 C 
HETATM   18  C25 UNL     1     -19.712  44.714 -26.662  1.00  0.00     0.023 C 
HETATM   19  C26 UNL     1     -17.264  44.651 -25.944  1.00  0.00     0.009 C 
HETATM   20  C27 UNL     1     -16.663  43.352 -26.504  1.00  0.00     0.007 C 
HETATM   21  C28 UNL     1     -15.154  43.336 -26.684  1.00  0.00     0.011 C 
HETATM   22  C29 UNL     1     -14.471  44.711 -26.827  1.00  0.00    -0.027 C 
HETATM   23  C30 UNL     1     -15.039  45.471 -28.066  1.00  0.00     0.016 C 
HETATM   24  O6  UNL     1     -10.730  45.747 -26.902  1.00  0.00    -0.362 OA
ENDROOT
BRANCH   1  25
HETATM   25  C2  UNL     1     -10.849  47.385 -28.711  1.00  0.00     0.022 C 
HETATM   26  C1  UNL     1     -11.975  48.091 -29.469  1.00  0.00     0.013 C 
BRANCH  25  27
HETATM   27  C3  UNL     1      -9.594  47.178 -29.587  1.00  0.00     0.041 C 
BRANCH  27  28
HETATM   28  C4  UNL     1      -8.339  47.970 -29.185  1.00  0.00     0.150 C 
BRANCH  28  29
HETATM   29  O1  UNL     1      -8.782  49.207 -28.602  1.00  0.00    -0.393 OA
HETATM   30  H8  UNL     1      -9.325  48.995 -27.819  1.00  0.00     0.210 HD
ENDBRANCH  28  29
BRANCH  28  31
HETATM   31  C5  UNL     1      -7.369  48.281 -30.360  1.00  0.00     0.180 C 
BRANCH  31  32
HETATM   32  O2  UNL     1      -7.547  49.641 -30.781  1.00  0.00    -0.390 OA
HETATM   33  H10 UNL     1      -8.380  49.700 -31.285  1.00  0.00     0.210 HD
ENDBRANCH  31  32
BRANCH  31  34
HETATM   34  C6  UNL     1      -5.857  48.057 -30.013  1.00  0.00     0.079 C 
HETATM   35  C7  UNL     1      -5.265  46.940 -30.878  1.00  0.00     0.048 C 
HETATM   36  C8  UNL     1      -5.662  47.713 -28.533  1.00  0.00     0.048 C 
BRANCH  34  37
HETATM   37  O3  UNL     1      -5.071  49.227 -30.272  1.00  0.00    -0.388 OA
HETATM   38  H17 UNL     1      -5.703  49.973 -30.372  1.00  0.00     0.210 HD
ENDBRANCH  34  37
ENDBRANCH  31  34
ENDBRANCH  28  31
ENDBRANCH  27  28
ENDBRANCH  25  27
ENDBRANCH   1  25
BRANCH   8  39
HETATM   39  O4  UNL     1     -14.239  47.633 -24.388  1.00  0.00    -0.395 OA
HETATM   40  H28 UNL     1     -13.839  48.513 -24.485  1.00  0.00     0.210 HD
ENDBRANCH   8  39
TORSDOF 9
ENDMDL
MODEL 3
REMARK minimizedAffinity -7.61138105
REMARK CNNscore 0.47337085
REMARK CNNaffinity 5.98522186
REMARK  9 active torsions:
REMARK  status: ('A' for Active; 'I' for Inactive)
REMARK    1  A    between atoms: C2_2  and  C3_3 
REMARK    2  A    between atoms: C2_2  and  C9_12 
REMARK    3  A    between atoms: C3_3  and  C4_4 
REMARK    4  A    between atoms: C4_4  and  O1_5 
REMARK    5  A    between atoms: C4_4  and  C5_6 
REMARK    6  A    between atoms: C5_6  and  O2_7 
REMARK    7  A    between atoms: C5_6  and  C6_8 
REMARK    8  A    between atoms: C6_8  and  O3_11 
REMARK    9  A    between atoms: C16_19  and  O4_20 
ROOT
HETATM    1  C9  UNL     1     -11.467  45.666 -28.584  1.00  0.00     0.097 A 
HETATM    2  C10 UNL     1     -11.631  44.429 -29.416  1.00  0.00     0.042 C 
HETATM    3  C11 UNL     1     -12.719  43.593 -28.726  1.00  0.00     0.016 C 
HETATM    4  C12 UNL     1     -12.997  44.188 -27.295  1.00  0.00    -0.002 C 
HETATM    5  C13 UNL     1     -12.343  43.240 -26.257  1.00  0.00     0.019 C 
HETATM    6  C14 UNL     1     -12.252  45.521 -27.298  1.00  0.00     0.104 A 
HETATM    7  C15 UNL     1     -12.599  46.583 -26.300  1.00  0.00     0.074 C 
HETATM    8  C16 UNL     1     -14.085  46.692 -25.932  1.00  0.00     0.126 C 
HETATM    9  C17 UNL     1     -14.775  45.304 -25.746  1.00  0.00     0.032 C 
HETATM   10  C18 UNL     1     -16.281  45.258 -25.120  1.00  0.00    -0.032 C 
HETATM   11  C19 UNL     1     -16.145  44.575 -23.729  1.00  0.00     0.016 C 
HETATM   12  C20 UNL     1     -16.887  46.671 -24.929  1.00  0.00     0.017 C 
HETATM   13  C21 UNL     1     -18.338  46.749 -24.473  1.00  0.00     0.080 C 
HETATM   14  C22 UNL     1     -19.089  45.447 -24.418  1.00  0.00     0.135 C 
HETATM   15  O5  UNL     1     -20.004  45.318 -23.599  1.00  0.00    -0.297 OA
HETATM   16  C23 UNL     1     -18.782  44.363 -25.452  1.00  0.00     0.017 C 
HETATM   17  C24 UNL     1     -19.107  42.995 -24.812  1.00  0.00     0.023 C 
HETATM   18  C25 UNL     1     -19.790  44.578 -26.605  1.00  0.00     0.023 C 
HETATM   19  C26 UNL     1     -17.308  44.476 -26.015  1.00  0.00     0.009 C 
HETATM   20  C27 UNL     1     -16.769  43.145 -26.565  1.00  0.00     0.007 C 
HETATM   21  C28 UNL     1     -15.273  43.086 -26.824  1.00  0.00     0.011 C 
HETATM   22  C29 UNL     1     -14.567  44.439 -27.045  1.00  0.00    -0.027 C 
HETATM   23  C30 UNL     1     -15.182  45.176 -28.276  1.00  0.00     0.016 C 
HETATM   24  O6  UNL     1     -10.812  45.378 -27.349  1.00  0.00    -0.362 OA
ENDROOT
BRANCH   1  25
HETATM   25  C2  UNL     1     -10.989  46.964 -29.200  1.00  0.00     0.022 C 
HETATM   26  C1  UNL     1     -11.286  46.991 -30.700  1.00  0.00     0.013 C 
BRANCH  25  27
HETATM   27  C3  UNL     1      -9.490  47.177 -28.895  1.00  0.00     0.041 C 
BRANCH  27  28
HETATM   28  C4  UNL     1      -9.150  48.215 -27.813  1.00  0.00     0.150 C 
BRANCH  28  29
HETATM   29  O1  UNL     1      -8.628  49.376 -28.482  1.00  0.00    -0.393 OA
HETATM   30  H8  UNL     1      -9.318  49.714 -29.083  1.00  0.00     0.210 HD
ENDBRANCH  28  29
BRANCH  28  31
HETATM   31  C5  UNL     1      -8.118  47.731 -26.756  1.00  0.00     0.180 C 
BRANCH  31  32
HETATM   32  O2  UNL     1      -6.794  48.077 -27.185  1.00  0.00    -0.390 OA
HETATM   33  H10 UNL     1      -6.535  47.471 -27.903  1.00  0.00     0.210 HD
ENDBRANCH  31  32
BRANCH  31  34
HETATM   34  C6  UNL     1      -8.351  48.320 -25.322  1.00  0.00     0.079 C 
HETATM   35  C7  UNL     1      -7.051  48.302 -24.513  1.00  0.00     0.048 C 
HETATM   36  C8  UNL     1      -9.434  47.545 -24.563  1.00  0.00     0.048 C 
BRANCH  34  37
HETATM   37  O3  UNL     1      -8.778  49.687 -25.370  1.00  0.00    -0.388 OA
HETATM   38  H17 UNL     1      -9.063  49.860 -26.295  1.00  0.00     0.210 HD
ENDBRANCH  34  37
ENDBRANCH  31  34
ENDBRANCH  28  31
ENDBRANCH  27  28
ENDBRANCH  25  27
ENDBRANCH   1  25
BRANCH   8  39
HETATM   39  O4  UNL     1     -14.136  47.426 -24.713  1.00  0.00    -0.395 OA
HETATM   40  H28 UNL     1     -13.721  48.292 -24.859  1.00  0.00     0.210 HD
ENDBRANCH   8  39
TORSDOF 9
ENDMDL
MODEL 4
REMARK minimizedAffinity -7.25708437
REMARK CNNscore 0.472699344
REMARK CNNaffinity 6.62615919
REMARK  9 active torsions:
REMARK  status: ('A' for Active; 'I' for Inactive)
REMARK    1  A    between atoms: C2_2  and  C3_3 
REMARK    2  A    between atoms: C2_2  and  C9_12 
REMARK    3  A    between atoms: C3_3  and  C4_4 
REMARK    4  A    between atoms: C4_4  and  O1_5 
REMARK    5  A    between atoms: C4_4  and  C5_6 
REMARK    6  A    between atoms: C5_6  and  O2_7 
REMARK    7  A    between atoms: C5_6  and  C6_8 
REMARK    8  A    between atoms: C6_8  and  O3_11 
REMARK    9  A    between atoms: C16_19  and  O4_20 
ROOT
HETATM    1  C9  UNL     1       2.056  55.256  -8.579  1.00  0.00     0.097 A 
HETATM    2  C10 UNL     1       1.163  56.335  -8.042  1.00  0.00     0.042 C 
HETATM    3  C11 UNL     1       1.823  56.827  -6.746  1.00  0.00     0.016 C 
HETATM    4  C12 UNL     1       2.965  55.824  -6.334  1.00  0.00    -0.002 C 
HETATM    5  C13 UNL     1       2.446  54.987  -5.137  1.00  0.00     0.019 C 
HETATM    6  C14 UNL     1       3.117  54.917  -7.554  1.00  0.00     0.104 A 
HETATM    7  C15 UNL     1       4.364  54.110  -7.744  1.00  0.00     0.074 C 
HETATM    8  C16 UNL     1       5.668  54.779  -7.289  1.00  0.00     0.126 C 
HETATM    9  C17 UNL     1       5.527  55.540  -5.935  1.00  0.00     0.032 C 
HETATM   10  C18 UNL     1       6.878  56.094  -5.205  1.00  0.00    -0.032 C 
HETATM   11  C19 UNL     1       7.031  55.261  -3.900  1.00  0.00     0.016 C 
HETATM   12  C20 UNL     1       8.144  55.900  -6.076  1.00  0.00     0.017 C 
HETATM   13  C21 UNL     1       9.446  56.495  -5.555  1.00  0.00     0.080 C 
HETATM   14  C22 UNL     1       9.336  57.359  -4.329  1.00  0.00     0.135 C 
HETATM   15  O5  UNL     1      10.296  57.424  -3.555  1.00  0.00    -0.297 OA
HETATM   16  C23 UNL     1       8.091  58.226  -4.133  1.00  0.00     0.017 C 
HETATM   17  C24 UNL     1       7.893  58.431  -2.614  1.00  0.00     0.023 C 
HETATM   18  C25 UNL     1       8.435  59.607  -4.738  1.00  0.00     0.023 C 
HETATM   19  C26 UNL     1       6.827  57.629  -4.871  1.00  0.00     0.009 C 
HETATM   20  C27 UNL     1       5.495  58.088  -4.256  1.00  0.00     0.007 C 
HETATM   21  C28 UNL     1       4.258  57.320  -4.690  1.00  0.00     0.011 C 
HETATM   22  C29 UNL     1       4.353  56.583  -6.041  1.00  0.00    -0.027 C 
HETATM   23  C30 UNL     1       4.649  57.598  -7.190  1.00  0.00     0.016 C 
HETATM   24  O6  UNL     1       1.968  54.069  -7.791  1.00  0.00    -0.362 OA
ENDROOT
BRANCH   1  25
HETATM   25  C2  UNL     1       2.116  54.957 -10.062  1.00  0.00     0.022 C 
HETATM   26  C1  UNL     1       3.121  55.877 -10.757  1.00  0.00     0.013 C 
BRANCH  25  27
HETATM   27  C3  UNL     1       0.705  55.056 -10.682  1.00  0.00     0.041 C 
BRANCH  27  28
HETATM   28  C4  UNL     1      -0.016  53.727 -10.963  1.00  0.00     0.150 C 
BRANCH  28  29
HETATM   29  O1  UNL     1       0.129  53.449 -12.366  1.00  0.00    -0.393 OA
HETATM   30  H8  UNL     1       1.082  53.376 -12.562  1.00  0.00     0.210 HD
ENDBRANCH  28  29
BRANCH  28  31
HETATM   31  C5  UNL     1      -1.528  53.724 -10.598  1.00  0.00     0.180 C 
BRANCH  31  32
HETATM   32  O2  UNL     1      -2.095  55.008 -10.893  1.00  0.00    -0.390 OA
HETATM   33  H10 UNL     1      -1.800  55.638 -10.209  1.00  0.00     0.210 HD
ENDBRANCH  31  32
BRANCH  31  34
HETATM   34  C6  UNL     1      -2.360  52.624 -11.343  1.00  0.00     0.079 C 
HETATM   35  C7  UNL     1      -3.839  52.713 -10.958  1.00  0.00     0.048 C 
HETATM   36  C8  UNL     1      -1.837  51.216 -11.036  1.00  0.00     0.048 C 
BRANCH  34  37
HETATM   37  O3  UNL     1      -2.302  52.785 -12.766  1.00  0.00    -0.388 OA
HETATM   38  H17 UNL     1      -1.555  53.396 -12.950  1.00  0.00     0.210 HD
ENDBRANCH  34  37
ENDBRANCH  31  34
ENDBRANCH  28  31
ENDBRANCH  27  28
ENDBRANCH  25  27
ENDBRANCH   1  25
BRANCH   8  39
HETATM   39  O4  UNL     1       6.624  53.732  -7.161  1.00  0.00    -0.395 OA
HETATM   40  H28 UNL     1       6.711  53.287  -8.020  1.00  0.00     0.210 HD
ENDBRANCH   8  39
TORSDOF 9
ENDMDL
MODEL 5
REMARK minimizedAffinity -7.71393394
REMARK CNNscore 0.45747757
REMARK CNNaffinity 5.83710289
REMARK  9 active torsions:
REMARK  status: ('A' for Active; 'I' for Inactive)
REMARK    1  A    between atoms: C2_2  and  C3_3 
REMARK    2  A    between atoms: C2_2  and  C9_12 
REMARK    3  A    between atoms: C3_3  and  C4_4 
REMARK    4  A    between atoms: C4_4  and  O1_5 
REMARK    5  A    between atoms: C4_4  and  C5_6 
REMARK    6  A    between atoms: C5_6  and  O2_7 
REMARK    7  A    between atoms: C5_6  and  C6_8 
REMARK    8  A    between atoms: C6_8  and  O3_11 
REMARK    9  A    between atoms: C16_19  and  O4_20 
ROOT
HETATM    1  C9  UNL     1     -12.920  45.849 -26.995  1.00  0.00     0.097 A 
HETATM    2  C10 UNL     1     -13.468  44.874 -27.995  1.00  0.00     0.042 C 
HETATM    3  C11 UNL     1     -12.740  45.167 -29.316  1.00  0.00     0.016 C 
HETATM    4  C12 UNL     1     -11.969  46.534 -29.189  1.00  0.00    -0.002 C 
HETATM    5  C13 UNL     1     -12.760  47.597 -29.993  1.00  0.00     0.019 C 
HETATM    6  C14 UNL     1     -12.049  46.866 -27.700  1.00  0.00     0.104 A 
HETATM    7  C15 UNL     1     -11.096  47.849 -27.093  1.00  0.00     0.074 C 
HETATM    8  C16 UNL     1      -9.670  47.831 -27.659  1.00  0.00     0.126 C 
HETATM    9  C17 UNL     1      -9.627  47.682 -29.212  1.00  0.00     0.032 C 
HETATM   10  C18 UNL     1      -8.201  47.890 -29.978  1.00  0.00    -0.032 C 
HETATM   11  C19 UNL     1      -8.354  49.188 -30.823  1.00  0.00     0.016 C 
HETATM   12  C20 UNL     1      -7.020  48.070 -28.992  1.00  0.00     0.017 C 
HETATM   13  C21 UNL     1      -5.620  48.143 -29.590  1.00  0.00     0.080 C 
HETATM   14  C22 UNL     1      -5.512  47.862 -31.064  1.00  0.00     0.135 C 
HETATM   15  O5  UNL     1      -4.607  48.398 -31.710  1.00  0.00    -0.297 OA
HETATM   16  C23 UNL     1      -6.446  46.831 -31.699  1.00  0.00     0.017 C 
HETATM   17  C24 UNL     1      -6.631  47.215 -33.185  1.00  0.00     0.023 C 
HETATM   18  C25 UNL     1      -5.681  45.487 -31.667  1.00  0.00     0.023 C 
HETATM   19  C26 UNL     1      -7.802  46.682 -30.900  1.00  0.00     0.009 C 
HETATM   20  C27 UNL     1      -8.957  46.150 -31.764  1.00  0.00     0.007 C 
HETATM   21  C28 UNL     1     -10.350  46.281 -31.171  1.00  0.00     0.011 C 
HETATM   22  C29 UNL     1     -10.429  46.396 -29.636  1.00  0.00    -0.027 C 
HETATM   23  C30 UNL     1      -9.799  45.135 -28.966  1.00  0.00     0.016 C 
HETATM   24  O6  UNL     1     -13.390  47.173 -27.248  1.00  0.00    -0.362 OA
ENDROOT
BRANCH   1  25
HETATM   25  C2  UNL     1     -12.896  45.521 -25.517  1.00  0.00     0.022 C 
HETATM   26  C1  UNL     1     -11.638  44.728 -25.161  1.00  0.00     0.013 C 
BRANCH  25  27
HETATM   27  C3  UNL     1     -14.189  44.778 -25.116  1.00  0.00     0.041 C 
BRANCH  27  28
HETATM   28  C4  UNL     1     -15.186  45.559 -24.242  1.00  0.00     0.150 C 
BRANCH  28  29
HETATM   29  O1  UNL     1     -16.300  45.916 -25.078  1.00  0.00    -0.393 OA
HETATM   30  H8  UNL     1     -16.702  45.093 -25.414  1.00  0.00     0.210 HD
ENDBRANCH  28  29
BRANCH  28  31
HETATM   31  C5  UNL     1     -14.604  46.846 -23.593  1.00  0.00     0.180 C 
BRANCH  31  32
HETATM   32  O2  UNL     1     -15.277  47.996 -24.123  1.00  0.00    -0.390 OA
HETATM   33  H10 UNL     1     -14.952  48.152 -25.029  1.00  0.00     0.210 HD
ENDBRANCH  31  32
BRANCH  31  34
HETATM   34  C6  UNL     1     -14.714  46.876 -22.029  1.00  0.00     0.079 C 
HETATM   35  C7  UNL     1     -13.771  45.845 -21.402  1.00  0.00     0.048 C 
HETATM   36  C8  UNL     1     -16.148  46.609 -21.559  1.00  0.00     0.048 C 
BRANCH  34  37
HETATM   37  O3  UNL     1     -14.334  48.150 -21.493  1.00  0.00    -0.388 OA
HETATM   38  H17 UNL     1     -14.331  48.782 -22.245  1.00  0.00     0.210 HD
ENDBRANCH  34  37
ENDBRANCH  31  34
ENDBRANCH  28  31
ENDBRANCH  27  28
ENDBRANCH  25  27
ENDBRANCH   1  25
BRANCH   8  39
HETATM   39  O4  UNL     1      -9.077  49.067 -27.273  1.00  0.00    -0.395 OA
HETATM   40  H28 UNL     1      -9.096  49.127 -26.304  1.00  0.00     0.210 HD
ENDBRANCH   8  39
TORSDOF 9
ENDMDL
MODEL 6
REMARK minimizedAffinity -7.26619673
REMARK CNNscore 0.412522972
REMARK CNNaffinity 6.52333212
REMARK  9 active torsions:
REMARK  status: ('A' for Active; 'I' for Inactive)
REMARK    1  A    between atoms: C2_2  and  C3_3 
REMARK    2  A    between atoms: C2_2  and  C9_12 
REMARK    3  A    between atoms: C3_3  and  C4_4 
REMARK    4  A    between atoms: C4_4  and  O1_5 
REMARK    5  A    between atoms: C4_4  and  C5_6 
REMARK    6  A    between atoms: C5_6  and  O2_7 
REMARK    7  A    between atoms: C5_6  and  C6_8 
REMARK    8  A    between atoms: C6_8  and  O3_11 
REMARK    9  A    between atoms: C16_19  and  O4_20 
ROOT
HETATM    1  C9  UNL     1      -3.146  51.556 -11.113  1.00  0.00     0.097 A 
HETATM    2  C10 UNL     1      -3.761  52.922 -11.205  1.00  0.00     0.042 C 
HETATM    3  C11 UNL     1      -2.795  53.872 -10.480  1.00  0.00     0.016 C 
HETATM    4  C12 UNL     1      -1.740  53.022  -9.678  1.00  0.00    -0.002 C 
HETATM    5  C13 UNL     1      -2.117  53.100  -8.176  1.00  0.00     0.019 C 
HETATM    6  C14 UNL     1      -1.957  51.595 -10.178  1.00  0.00     0.104 A 
HETATM    7  C15 UNL     1      -0.893  50.558  -9.988  1.00  0.00     0.074 C 
HETATM    8  C16 UNL     1       0.553  51.057 -10.112  1.00  0.00     0.126 C 
HETATM    9  C17 UNL     1       0.789  52.435  -9.420  1.00  0.00     0.032 C 
HETATM   10  C18 UNL     1       2.320  52.976  -9.258  1.00  0.00    -0.032 C 
HETATM   11  C19 UNL     1       2.617  52.967  -7.731  1.00  0.00     0.016 C 
HETATM   12  C20 UNL     1       3.349  52.068  -9.975  1.00  0.00     0.017 C 
HETATM   13  C21 UNL     1       4.796  52.543 -10.002  1.00  0.00     0.080 C 
HETATM   14  C22 UNL     1       5.051  53.929  -9.477  1.00  0.00     0.135 C 
HETATM   15  O5  UNL     1       6.145  54.183  -8.966  1.00  0.00    -0.297 OA
HETATM   16  C23 UNL     1       3.997  55.016  -9.695  1.00  0.00     0.017 C 
HETATM   17  C24 UNL     1       4.136  56.043  -8.549  1.00  0.00     0.023 C 
HETATM   18  C25 UNL     1       4.396  55.737 -11.004  1.00  0.00     0.023 C 
HETATM   19  C26 UNL     1       2.543  54.415  -9.848  1.00  0.00     0.009 C 
HETATM   20  C27 UNL     1       1.435  55.417  -9.485  1.00  0.00     0.007 C 
HETATM   21  C28 UNL     1       0.044  54.835  -9.294  1.00  0.00     0.011 C 
HETATM   22  C29 UNL     1      -0.232  53.488  -9.992  1.00  0.00    -0.027 C 
HETATM   23  C30 UNL     1      -0.038  53.629 -11.535  1.00  0.00     0.016 C 
HETATM   24  O6  UNL     1      -3.234  51.034  -9.788  1.00  0.00    -0.362 OA
ENDROOT
BRANCH   1  25
HETATM   25  C2  UNL     1      -3.424  50.503 -12.165  1.00  0.00     0.022 C 
HETATM   26  C1  UNL     1      -3.880  49.197 -11.513  1.00  0.00     0.013 C 
BRANCH  25  27
HETATM   27  C3  UNL     1      -2.184  50.307 -13.064  1.00  0.00     0.041 C 
BRANCH  27  28
HETATM   28  C4  UNL     1      -2.126  51.153 -14.347  1.00  0.00     0.150 C 
BRANCH  28  29
HETATM   29  O1  UNL     1      -3.471  51.279 -14.838  1.00  0.00    -0.393 OA
HETATM   30  H8  UNL     1      -4.003  51.724 -14.152  1.00  0.00     0.210 HD
ENDBRANCH  28  29
BRANCH  28  31
HETATM   31  C5  UNL     1      -1.229  50.561 -15.471  1.00  0.00     0.180 C 
BRANCH  31  32
HETATM   32  O2  UNL     1      -1.839  50.799 -16.747  1.00  0.00    -0.390 OA
HETATM   33  H10 UNL     1      -2.590  50.186 -16.847  1.00  0.00     0.210 HD
ENDBRANCH  31  32
BRANCH  31  34
HETATM   34  C6  UNL     1       0.227  51.141 -15.494  1.00  0.00     0.079 C 
HETATM   35  C7  UNL     1       0.643  51.499 -16.924  1.00  0.00     0.048 C 
HETATM   36  C8  UNL     1       1.238  50.152 -14.903  1.00  0.00     0.048 C 
BRANCH  34  37
HETATM   37  O3  UNL     1       0.333  52.348 -14.729  1.00  0.00    -0.388 OA
HETATM   38  H17 UNL     1      -0.471  52.395 -14.166  1.00  0.00     0.210 HD
ENDBRANCH  34  37
ENDBRANCH  31  34
ENDBRANCH  28  31
ENDBRANCH  27  28
ENDBRANCH  25  27
ENDBRANCH   1  25
BRANCH   8  39
HETATM   39  O4  UNL     1       1.366  50.061  -9.500  1.00  0.00    -0.395 OA
HETATM   40  H28 UNL     1       1.219  49.218  -9.960  1.00  0.00     0.210 HD
ENDBRANCH   8  39
TORSDOF 9
ENDMDL
MODEL 7
REMARK minimizedAffinity -7.12343073
REMARK CNNscore 0.394493729
REMARK CNNaffinity 6.0264287
REMARK  9 active torsions:
REMARK  status: ('A' for Active; 'I' for Inactive)
REMARK    1  A    between atoms: C2_2  and  C3_3 
REMARK    2  A    between atoms: C2_2  and  C9_12 
REMARK    3  A    between atoms: C3_3  and  C4_4 
REMARK    4  A    between atoms: C4_4  and  O1_5 
REMARK    5  A    between atoms: C4_4  and  C5_6 
REMARK    6  A    between atoms: C5_6  and  O2_7 
REMARK    7  A    between atoms: C5_6  and  C6_8 
REMARK    8  A    between atoms: C6_8  and  O3_11 
REMARK    9  A    between atoms: C16_19  and  O4_20 
ROOT
HETATM    1  C9  UNL     1       5.420  66.978 -14.457  1.00  0.00     0.097 A 
HETATM    2  C10 UNL     1       5.130  66.576 -13.041  1.00  0.00     0.042 C 
HETATM    3  C11 UNL     1       6.323  65.719 -12.590  1.00  0.00     0.016 C 
HETATM    4  C12 UNL     1       7.195  65.345 -13.846  1.00  0.00    -0.002 C 
HETATM    5  C13 UNL     1       6.922  63.857 -14.182  1.00  0.00     0.019 C 
HETATM    6  C14 UNL     1       6.632  66.225 -14.961  1.00  0.00     0.104 A 
HETATM    7  C15 UNL     1       7.439  66.489 -16.195  1.00  0.00     0.074 C 
HETATM    8  C16 UNL     1       8.953  66.628 -15.985  1.00  0.00     0.126 C 
HETATM    9  C17 UNL     1       9.532  65.585 -14.980  1.00  0.00     0.032 C 
HETATM   10  C18 UNL     1      11.152  65.452 -14.840  1.00  0.00    -0.032 C 
HETATM   11  C19 UNL     1      11.516  64.047 -15.401  1.00  0.00     0.016 C 
HETATM   12  C20 UNL     1      11.909  66.529 -15.655  1.00  0.00     0.017 C 
HETATM   13  C21 UNL     1      13.423  66.585 -15.498  1.00  0.00     0.080 C 
HETATM   14  C22 UNL     1      14.014  65.699 -14.437  1.00  0.00     0.135 C 
HETATM   15  O5  UNL     1      15.162  65.271 -14.586  1.00  0.00    -0.297 OA
HETATM   16  C23 UNL     1      13.228  65.448 -13.149  1.00  0.00     0.017 C 
HETATM   17  C24 UNL     1      13.655  64.070 -12.596  1.00  0.00     0.023 C 
HETATM   18  C25 UNL     1      13.714  66.515 -12.140  1.00  0.00     0.023 C 
HETATM   19  C26 UNL     1      11.668  65.600 -13.363  1.00  0.00     0.009 C 
HETATM   20  C27 UNL     1      10.839  64.819 -12.331  1.00  0.00     0.007 C 
HETATM   21  C28 UNL     1       9.363  64.648 -12.652  1.00  0.00     0.011 C 
HETATM   22  C29 UNL     1       8.752  65.683 -13.617  1.00  0.00    -0.027 C 
HETATM   23  C30 UNL     1       8.894  67.122 -13.028  1.00  0.00     0.016 C 
HETATM   24  O6  UNL     1       5.282  65.872 -15.349  1.00  0.00    -0.362 OA
ENDROOT
BRANCH   1  25
HETATM   25  C2  UNL     1       4.856  68.258 -15.036  1.00  0.00     0.022 C 
HETATM   26  C1  UNL     1       5.592  69.475 -14.473  1.00  0.00     0.013 C 
BRANCH  25  27
HETATM   27  C3  UNL     1       3.333  68.328 -14.789  1.00  0.00     0.041 C 
BRANCH  27  28
HETATM   28  C4  UNL     1       2.430  68.154 -16.021  1.00  0.00     0.150 C 
BRANCH  28  29
HETATM   29  O1  UNL     1       2.526  66.780 -16.433  1.00  0.00    -0.393 OA
HETATM   30  H8  UNL     1       2.219  66.221 -15.695  1.00  0.00     0.210 HD
ENDBRANCH  28  29
BRANCH  28  31
HETATM   31  C5  UNL     1       2.793  69.071 -17.223  1.00  0.00     0.180 C 
BRANCH  31  32
HETATM   32  O2  UNL     1       2.991  68.269 -18.395  1.00  0.00    -0.390 OA
HETATM   33  H10 UNL     1       3.850  67.816 -18.316  1.00  0.00     0.210 HD
ENDBRANCH  31  32
BRANCH  31  34
HETATM   34  C6  UNL     1       1.715  70.165 -17.538  1.00  0.00     0.079 C 
HETATM   35  C7  UNL     1       2.265  71.564 -17.250  1.00  0.00     0.048 C 
HETATM   36  C8  UNL     1       0.433  69.944 -16.728  1.00  0.00     0.048 C 
BRANCH  34  37
HETATM   37  O3  UNL     1       1.336  70.157 -18.921  1.00  0.00    -0.388 OA
HETATM   38  H17 UNL     1       1.657  69.306 -19.295  1.00  0.00     0.210 HD
ENDBRANCH  34  37
ENDBRANCH  31  34
ENDBRANCH  28  31
ENDBRANCH  27  28
ENDBRANCH  25  27
ENDBRANCH   1  25
BRANCH   8  39
HETATM   39  O4  UNL     1       9.546  66.450 -17.267  1.00  0.00    -0.395 OA
HETATM   40  H28 UNL     1       9.187  67.122 -17.869  1.00  0.00     0.210 HD
ENDBRANCH   8  39
TORSDOF 9
ENDMDL
MODEL 8
REMARK minimizedAffinity -9.06459045
REMARK CNNscore 0.331602514
REMARK CNNaffinity 6.97269201
REMARK  9 active torsions:
REMARK  status: ('A' for Active; 'I' for Inactive)
REMARK    1  A    between atoms: C2_2  and  C3_3 
REMARK    2  A    between atoms: C2_2  and  C9_12 
REMARK    3  A    between atoms: C3_3  and  C4_4 
REMARK    4  A    between atoms: C4_4  and  O1_5 
REMARK    5  A    between atoms: C4_4  and  C5_6 
REMARK    6  A    between atoms: C5_6  and  O2_7 
REMARK    7  A    between atoms: C5_6  and  C6_8 
REMARK    8  A    between atoms: C6_8  and  O3_11 
REMARK    9  A    between atoms: C16_19  and  O4_20 
ROOT
HETATM    1  C9  UNL     1      -1.312  51.222 -21.753  1.00  0.00     0.097 A 
HETATM    2  C10 UNL     1      -0.190  50.248 -21.544  1.00  0.00     0.042 C 
HETATM    3  C11 UNL     1      -0.796  49.058 -20.786  1.00  0.00     0.016 C 
HETATM    4  C12 UNL     1      -2.228  49.454 -20.263  1.00  0.00    -0.002 C 
HETATM    5  C13 UNL     1      -2.118  49.700 -18.736  1.00  0.00     0.019 C 
HETATM    6  C14 UNL     1      -2.525  50.777 -20.966  1.00  0.00     0.104 A 
HETATM    7  C15 UNL     1      -3.934  51.274 -21.075  1.00  0.00     0.074 C 
HETATM    8  C16 UNL     1      -5.008  50.197 -21.277  1.00  0.00     0.126 C 
HETATM    9  C17 UNL     1      -4.779  48.929 -20.397  1.00  0.00     0.032 C 
HETATM   10  C18 UNL     1      -5.962  47.807 -20.322  1.00  0.00    -0.032 C 
HETATM   11  C19 UNL     1      -6.497  47.847 -18.862  1.00  0.00     0.016 C 
HETATM   12  C20 UNL     1      -7.129  48.110 -21.294  1.00  0.00     0.017 C 
HETATM   13  C21 UNL     1      -8.230  47.063 -21.406  1.00  0.00     0.080 C 
HETATM   14  C22 UNL     1      -7.987  45.764 -20.689  1.00  0.00     0.135 C 
HETATM   15  O5  UNL     1      -8.955  45.121 -20.271  1.00  0.00    -0.297 OA
HETATM   16  C23 UNL     1      -6.563  45.213 -20.601  1.00  0.00     0.017 C 
HETATM   17  C24 UNL     1      -6.469  44.350 -19.323  1.00  0.00     0.023 C 
HETATM   18  C25 UNL     1      -6.400  44.260 -21.808  1.00  0.00     0.023 C 
HETATM   19  C26 UNL     1      -5.475  46.358 -20.686  1.00  0.00     0.009 C 
HETATM   20  C27 UNL     1      -4.137  45.968 -20.036  1.00  0.00     0.007 C 
HETATM   21  C28 UNL     1      -3.159  47.104 -19.788  1.00  0.00     0.011 C 
HETATM   22  C29 UNL     1      -3.337  48.359 -20.665  1.00  0.00    -0.027 C 
HETATM   23  C30 UNL     1      -3.186  47.990 -22.174  1.00  0.00     0.016 C 
HETATM   24  O6  UNL     1      -1.675  51.866 -20.531  1.00  0.00    -0.362 OA
ENDROOT
BRANCH   1  25
HETATM   25  C2  UNL     1      -1.307  52.178 -22.927  1.00  0.00     0.022 C 
HETATM   26  C1  UNL     1      -2.733  52.433 -23.421  1.00  0.00     0.013 C 
BRANCH  25  27
HETATM   27  C3  UNL     1      -0.387  51.644 -24.045  1.00  0.00     0.041 C 
BRANCH  27  28
HETATM   28  C4  UNL     1       0.445  52.689 -24.808  1.00  0.00     0.150 C 
BRANCH  28  29
HETATM   29  O1  UNL     1       0.734  53.758 -23.890  1.00  0.00    -0.393 OA
HETATM   30  H8  UNL     1       1.241  53.387 -23.144  1.00  0.00     0.210 HD
ENDBRANCH  28  29
BRANCH  28  31
HETATM   31  C5  UNL     1      -0.253  53.276 -26.067  1.00  0.00     0.180 C 
BRANCH  31  32
HETATM   32  O2  UNL     1       0.179  54.629 -26.268  1.00  0.00    -0.390 OA
HETATM   33  H10 UNL     1      -0.260  55.193 -25.605  1.00  0.00     0.210 HD
ENDBRANCH  31  32
BRANCH  31  34
HETATM   34  C6  UNL     1       0.014  52.463 -27.380  1.00  0.00     0.079 C 
HETATM   35  C7  UNL     1      -0.993  51.318 -27.521  1.00  0.00     0.048 C 
HETATM   36  C8  UNL     1       1.437  51.896 -27.413  1.00  0.00     0.048 C 
BRANCH  34  37
HETATM   37  O3  UNL     1      -0.134  53.277 -28.551  1.00  0.00    -0.388 OA
HETATM   38  H17 UNL     1      -0.125  54.211 -28.246  1.00  0.00     0.210 HD
ENDBRANCH  34  37
ENDBRANCH  31  34
ENDBRANCH  28  31
ENDBRANCH  27  28
ENDBRANCH  25  27
ENDBRANCH   1  25
BRANCH   8  39
HETATM   39  O4  UNL     1      -6.248  50.808 -20.937  1.00  0.00    -0.395 OA
HETATM   40  H28 UNL     1      -6.378  51.580 -21.511  1.00  0.00     0.210 HD
ENDBRANCH   8  39
TORSDOF 9
ENDMDL
MODEL 9
REMARK minimizedAffinity -7.65267134
REMARK CNNscore 0.287385166
REMARK CNNaffinity 5.89282084
REMARK  9 active torsions:
REMARK  status: ('A' for Active; 'I' for Inactive)
REMARK    1  A    between atoms: C2_2  and  C3_3 
REMARK    2  A    between atoms: C2_2  and  C9_12 
REMARK    3  A    between atoms: C3_3  and  C4_4 
REMARK    4  A    between atoms: C4_4  and  O1_5 
REMARK    5  A    between atoms: C4_4  and  C5_6 
REMARK    6  A    between atoms: C5_6  and  O2_7 
REMARK    7  A    between atoms: C5_6  and  C6_8 
REMARK    8  A    between atoms: C6_8  and  O3_11 
REMARK    9  A    between atoms: C16_19  and  O4_20 
ROOT
HETATM    1  C9  UNL     1      -9.611  44.165 -31.816  1.00  0.00     0.097 A 
HETATM    2  C10 UNL     1     -10.657  43.124 -32.087  1.00  0.00     0.042 C 
HETATM    3  C11 UNL     1     -10.004  42.102 -33.030  1.00  0.00     0.016 C 
HETATM    4  C12 UNL     1      -8.653  42.696 -33.579  1.00  0.00    -0.002 C 
HETATM    5  C13 UNL     1      -8.889  43.122 -35.050  1.00  0.00     0.019 C 
HETATM    6  C14 UNL     1      -8.422  43.941 -32.724  1.00  0.00     0.104 A 
HETATM    7  C15 UNL     1      -7.058  44.552 -32.632  1.00  0.00     0.074 C 
HETATM    8  C16 UNL     1      -5.883  43.564 -32.637  1.00  0.00     0.126 C 
HETATM    9  C17 UNL     1      -6.062  42.402 -33.664  1.00  0.00     0.032 C 
HETATM   10  C18 UNL     1      -4.795  41.416 -33.955  1.00  0.00    -0.032 C 
HETATM   11  C19 UNL     1      -4.368  41.692 -35.426  1.00  0.00     0.016 C 
HETATM   12  C20 UNL     1      -3.593  41.702 -33.021  1.00  0.00     0.017 C 
HETATM   13  C21 UNL     1      -2.401  40.759 -33.114  1.00  0.00     0.080 C 
HETATM   14  C22 UNL     1      -2.580  39.544 -33.981  1.00  0.00     0.135 C 
HETATM   15  O5  UNL     1      -1.592  39.054 -34.536  1.00  0.00    -0.297 OA
HETATM   16  C23 UNL     1      -3.954  38.876 -34.059  1.00  0.00     0.017 C 
HETATM   17  C24 UNL     1      -4.062  38.178 -35.433  1.00  0.00     0.023 C 
HETATM   18  C25 UNL     1      -3.950  37.767 -32.982  1.00  0.00     0.023 C 
HETATM   19  C26 UNL     1      -5.129  39.893 -33.760  1.00  0.00     0.009 C 
HETATM   20  C27 UNL     1      -6.470  39.464 -34.377  1.00  0.00     0.007 C 
HETATM   21  C28 UNL     1      -7.558  40.524 -34.415  1.00  0.00     0.011 C 
HETATM   22  C29 UNL     1      -7.428  41.669 -33.390  1.00  0.00    -0.027 C 
HETATM   23  C30 UNL     1      -7.441  41.098 -31.937  1.00  0.00     0.016 C 
HETATM   24  O6  UNL     1      -9.392  44.991 -32.960  1.00  0.00    -0.362 OA
ENDROOT
BRANCH   1  25
HETATM   25  C2  UNL     1      -9.617  44.960 -30.527  1.00  0.00     0.022 C 
HETATM   26  C1  UNL     1     -10.716  44.458 -29.588  1.00  0.00     0.013 C 
BRANCH  25  27
HETATM   27  C3  UNL     1      -9.749  46.468 -30.831  1.00  0.00     0.041 C 
BRANCH  27  28
HETATM   28  C4  UNL     1      -9.553  47.427 -29.644  1.00  0.00     0.150 C 
BRANCH  28  29
HETATM   29  O1  UNL     1     -10.700  48.293 -29.600  1.00  0.00    -0.393 OA
HETATM   30  H8  UNL     1     -11.492  47.739 -29.473  1.00  0.00     0.210 HD
ENDBRANCH  28  29
BRANCH  28  31
HETATM   31  C5  UNL     1      -8.264  48.293 -29.721  1.00  0.00     0.180 C 
BRANCH  31  32
HETATM   32  O2  UNL     1      -8.551  49.620 -29.257  1.00  0.00    -0.390 OA
HETATM   33  H10 UNL     1      -9.057  50.084 -29.949  1.00  0.00     0.210 HD
ENDBRANCH  31  32
BRANCH  31  34
HETATM   34  C6  UNL     1      -7.062  47.720 -28.893  1.00  0.00     0.079 C 
HETATM   35  C7  UNL     1      -6.457  46.500 -29.593  1.00  0.00     0.048 C 
HETATM   36  C8  UNL     1      -7.489  47.334 -27.473  1.00  0.00     0.048 C 
BRANCH  34  37
HETATM   37  O3  UNL     1      -6.003  48.676 -28.761  1.00  0.00    -0.388 OA
HETATM   38  H17 UNL     1      -6.380  49.550 -29.007  1.00  0.00     0.210 HD
ENDBRANCH  34  37
ENDBRANCH  31  34
ENDBRANCH  28  31
ENDBRANCH  27  28
ENDBRANCH  25  27
ENDBRANCH   1  25
BRANCH   8  39
HETATM   39  O4  UNL     1      -4.727  44.328 -32.965  1.00  0.00    -0.395 OA
HETATM   40  H28 UNL     1      -4.625  45.030 -32.301  1.00  0.00     0.210 HD
ENDBRANCH   8  39
TORSDOF 9
ENDMDL
