MODEL 1
REMARK minimizedAffinity -10.1955357
REMARK  9 active torsions:
REMARK  status: ('A' for Active; 'I' for Inactive)
REMARK    1  A    between atoms: C4_4  and  C5_5 
REMARK    2  A    between atoms: C5_5  and  C6_6 
REMARK    3  A    between atoms: C6_6  and  C7_7 
REMARK    4  A    between atoms: C13_14  and  O2_15 
REMARK    5  A    between atoms: C14_16  and  C15_17 
REMARK    6  A    between atoms: C15_17  and  C16_18 
REMARK    7  A    between atoms: C22_25  and  C23_26 
REMARK    8  A    between atoms: C25_28  and  O4_29 
REMARK    9  A    between atoms: C27_31  and  O5_32 
ROOT
HETATM    1  C7  UNL     1      -0.097  52.973 -26.011  1.00  0.00     0.082 A 
HETATM    2  C8  UNL     1      -0.036  54.380 -26.624  1.00  0.00     0.051 C 
HETATM    3  C9  UNL     1       0.956  52.891 -24.918  1.00  0.00     0.012 A 
HETATM    4  C10 UNL     1       0.681  52.598 -23.644  1.00  0.00     0.016 A 
HETATM    5  C11 UNL     1      -0.705  52.352 -23.319  1.00  0.00     0.035 A 
HETATM    6  C12 UNL     1      -1.709  52.452 -24.274  1.00  0.00     0.117 A 
HETATM    7  O1  UNL     1      -1.466  52.787 -25.581  1.00  0.00    -0.333 OA
HETATM    8  C13 UNL     1      -3.045  52.220 -23.926  1.00  0.00     0.107 A 
HETATM    9  C14 UNL     1      -3.448  51.878 -22.618  1.00  0.00    -0.006 A 
HETATM   10  C20 UNL     1      -2.415  51.764 -21.652  1.00  0.00     0.011 A 
HETATM   11  C21 UNL     1      -1.095  52.003 -22.025  1.00  0.00     0.100 A 
HETATM   12  O3  UNL     1      -0.267  51.845 -20.951  1.00  0.00    -0.308 OA
HETATM   13  C22 UNL     1      -1.037  51.496 -19.878  1.00  0.00     0.087 A 
HETATM   14  C29 UNL     1      -2.361  51.435 -20.268  1.00  0.00     0.053 A 
ENDROOT
BRANCH  13  15
HETATM   15  C23 UNL     1      -0.331  51.274 -18.618  1.00  0.00     0.003 A 
HETATM   16  C24 UNL     1      -0.352  50.013 -18.003  1.00  0.00     0.051 A 
HETATM   17  C25 UNL     1       0.322  49.801 -16.801  1.00  0.00     0.069 A 
HETATM   18  C26 UNL     1       1.027  50.826 -16.186  1.00  0.00     0.073 A 
HETATM   19  C27 UNL     1       1.052  52.075 -16.790  1.00  0.00     0.069 A 
HETATM   20  C28 UNL     1       0.384  52.309 -17.993  1.00  0.00     0.051 A 
BRANCH  17  21
HETATM   21  O4  UNL     1       0.263  48.552 -16.255  1.00  0.00    -0.361 OA
HETATM   22  H28 UNL     1       0.779  48.551 -15.431  1.00  0.00     0.217 HD
ENDBRANCH  17  21
BRANCH  19  23
HETATM   23  O5  UNL     1       1.754  53.066 -16.165  1.00  0.00    -0.361 OA
HETATM   24  H30 UNL     1       1.684  53.878 -16.696  1.00  0.00     0.217 HD
ENDBRANCH  19  23
ENDBRANCH  13  15
BRANCH   9  25
HETATM   25  C15 UNL     1      -4.901  51.618 -22.293  1.00  0.00     0.070 C 
BRANCH  25  26
HETATM   26  C16 UNL     1      -5.060  50.601 -21.194  1.00  0.00    -0.020 C 
HETATM   27  C17 UNL     1      -6.077  49.742 -20.979  1.00  0.00    -0.091 C 
HETATM   28  C18 UNL     1      -7.311  49.616 -21.827  1.00  0.00     0.042 C 
HETATM   29  C19 UNL     1      -6.040  48.800 -19.803  1.00  0.00     0.042 C 
ENDBRANCH  25  26
ENDBRANCH   9  25
BRANCH   8  30
HETATM   30  O2  UNL     1      -4.003  52.329 -24.907  1.00  0.00    -0.357 OA
HETATM   31  H17 UNL     1      -3.516  52.572 -25.719  1.00  0.00     0.217 HD
ENDBRANCH   8  30
BRANCH   1  32
HETATM   32  C6  UNL     1       0.216  51.880 -27.062  1.00  0.00     0.046 C 
BRANCH  32  33
HETATM   33  C5  UNL     1      -1.018  51.155 -27.613  1.00  0.00     0.030 C 
BRANCH  33  34
HETATM   34  C4  UNL     1      -1.521  50.131 -26.632  1.00  0.00    -0.025 C 
HETATM   35  C2  UNL     1      -2.678  49.442 -26.682  1.00  0.00    -0.091 C 
HETATM   36  C1  UNL     1      -3.697  49.539 -27.784  1.00  0.00     0.042 C 
HETATM   37  C3  UNL     1      -3.040  48.471 -25.587  1.00  0.00     0.042 C 
ENDBRANCH  33  34
ENDBRANCH  32  33
ENDBRANCH   1  32
TORSDOF 9
ENDMDL
MODEL 2
REMARK minimizedAffinity -10.144208
REMARK  9 active torsions:
REMARK  status: ('A' for Active; 'I' for Inactive)
REMARK    1  A    between atoms: C4_4  and  C5_5 
REMARK    2  A    between atoms: C5_5  and  C6_6 
REMARK    3  A    between atoms: C6_6  and  C7_7 
REMARK    4  A    between atoms: C13_14  and  O2_15 
REMARK    5  A    between atoms: C14_16  and  C15_17 
REMARK    6  A    between atoms: C15_17  and  C16_18 
REMARK    7  A    between atoms: C22_25  and  C23_26 
REMARK    8  A    between atoms: C25_28  and  O4_29 
REMARK    9  A    between atoms: C27_31  and  O5_32 
ROOT
HETATM    1  C7  UNL     1       0.257  52.090 -26.039  1.00  0.00     0.082 A 
HETATM    2  C8  UNL     1       1.738  51.687 -26.045  1.00  0.00     0.051 C 
HETATM    3  C9  UNL     1      -0.291  51.886 -27.442  1.00  0.00     0.012 A 
HETATM    4  C10 UNL     1      -1.325  51.089 -27.726  1.00  0.00     0.016 A 
HETATM    5  C11 UNL     1      -1.934  50.394 -26.615  1.00  0.00     0.035 A 
HETATM    6  C12 UNL     1      -1.446  50.518 -25.320  1.00  0.00     0.117 A 
HETATM    7  O1  UNL     1      -0.365  51.298 -24.999  1.00  0.00    -0.333 OA
HETATM    8  C13 UNL     1      -2.050  49.822 -24.265  1.00  0.00     0.107 A 
HETATM    9  C14 UNL     1      -3.163  48.974 -24.445  1.00  0.00    -0.006 A 
HETATM   10  C20 UNL     1      -3.663  48.865 -25.768  1.00  0.00     0.011 A 
HETATM   11  C21 UNL     1      -3.042  49.566 -26.798  1.00  0.00     0.100 A 
HETATM   12  O3  UNL     1      -3.674  49.318 -27.982  1.00  0.00    -0.308 OA
HETATM   13  C22 UNL     1      -4.711  48.465 -27.732  1.00  0.00     0.087 A 
HETATM   14  C29 UNL     1      -4.738  48.164 -26.384  1.00  0.00     0.053 A 
ENDROOT
BRANCH  13  15
HETATM   15  C23 UNL     1      -5.524  48.077 -28.883  1.00  0.00     0.003 A 
HETATM   16  C24 UNL     1      -5.038  48.250 -30.188  1.00  0.00     0.051 A 
HETATM   17  C25 UNL     1      -5.813  47.880 -31.286  1.00  0.00     0.069 A 
HETATM   18  C26 UNL     1      -7.078  47.333 -31.117  1.00  0.00     0.073 A 
HETATM   19  C27 UNL     1      -7.564  47.160 -29.829  1.00  0.00     0.069 A 
HETATM   20  C28 UNL     1      -6.805  47.524 -28.716  1.00  0.00     0.051 A 
BRANCH  17  21
HETATM   21  O4  UNL     1      -5.283  48.073 -32.528  1.00  0.00    -0.361 OA
HETATM   22  H28 UNL     1      -5.926  47.766 -33.189  1.00  0.00     0.217 HD
ENDBRANCH  17  21
BRANCH  19  23
HETATM   23  O5  UNL     1      -8.810  46.620 -29.690  1.00  0.00    -0.361 OA
HETATM   24  H30 UNL     1      -9.018  46.558 -28.742  1.00  0.00     0.217 HD
ENDBRANCH  19  23
ENDBRANCH  13  15
BRANCH   9  25
HETATM   25  C15 UNL     1      -3.793  48.257 -23.272  1.00  0.00     0.070 C 
BRANCH  25  26
HETATM   26  C16 UNL     1      -2.901  48.269 -22.059  1.00  0.00    -0.020 C 
HETATM   27  C17 UNL     1      -2.819  47.366 -21.062  1.00  0.00    -0.091 C 
HETATM   28  C18 UNL     1      -3.632  46.107 -20.952  1.00  0.00     0.042 C 
HETATM   29  C19 UNL     1      -1.851  47.574 -19.926  1.00  0.00     0.042 C 
ENDBRANCH  25  26
ENDBRANCH   9  25
BRANCH   8  30
HETATM   30  O2  UNL     1      -1.533  49.978 -23.001  1.00  0.00    -0.357 OA
HETATM   31  H17 UNL     1      -0.780  50.593 -23.102  1.00  0.00     0.217 HD
ENDBRANCH   8  30
BRANCH   1  32
HETATM   32  C6  UNL     1       0.073  53.580 -25.663  1.00  0.00     0.046 C 
BRANCH  32  33
HETATM   33  C5  UNL     1       0.772  54.001 -24.364  1.00  0.00     0.030 C 
BRANCH  33  34
HETATM   34  C4  UNL     1       0.381  53.096 -23.227  1.00  0.00    -0.025 C 
HETATM   35  C2  UNL     1       0.763  53.183 -21.938  1.00  0.00    -0.091 C 
HETATM   36  C1  UNL     1       1.645  54.259 -21.367  1.00  0.00     0.042 C 
HETATM   37  C3  UNL     1       0.298  52.164 -20.930  1.00  0.00     0.042 C 
ENDBRANCH  33  34
ENDBRANCH  32  33
ENDBRANCH   1  32
TORSDOF 9
ENDMDL
MODEL 3
REMARK minimizedAffinity -10.0228167
REMARK  9 active torsions:
REMARK  status: ('A' for Active; 'I' for Inactive)
REMARK    1  A    between atoms: C4_4  and  C5_5 
REMARK    2  A    between atoms: C5_5  and  C6_6 
REMARK    3  A    between atoms: C6_6  and  C7_7 
REMARK    4  A    between atoms: C13_14  and  O2_15 
REMARK    5  A    between atoms: C14_16  and  C15_17 
REMARK    6  A    between atoms: C15_17  and  C16_18 
REMARK    7  A    between atoms: C22_25  and  C23_26 
REMARK    8  A    between atoms: C25_28  and  O4_29 
REMARK    9  A    between atoms: C27_31  and  O5_32 
ROOT
HETATM    1  C7  UNL     1       0.210  52.046 -25.996  1.00  0.00     0.082 A 
HETATM    2  C8  UNL     1       1.691  51.641 -26.009  1.00  0.00     0.051 C 
HETATM    3  C9  UNL     1      -0.339  51.863 -27.402  1.00  0.00     0.012 A 
HETATM    4  C10 UNL     1      -1.374  51.072 -27.697  1.00  0.00     0.016 A 
HETATM    5  C11 UNL     1      -1.983  50.362 -26.596  1.00  0.00     0.035 A 
HETATM    6  C12 UNL     1      -1.495  50.465 -25.300  1.00  0.00     0.117 A 
HETATM    7  O1  UNL     1      -0.412  51.239 -24.968  1.00  0.00    -0.333 OA
HETATM    8  C13 UNL     1      -2.099  49.755 -24.255  1.00  0.00     0.107 A 
HETATM    9  C14 UNL     1      -3.213  48.911 -24.446  1.00  0.00    -0.006 A 
HETATM   10  C20 UNL     1      -3.714  48.822 -25.770  1.00  0.00     0.011 A 
HETATM   11  C21 UNL     1      -3.092  49.537 -26.790  1.00  0.00     0.100 A 
HETATM   12  O3  UNL     1      -3.726  49.308 -27.977  1.00  0.00    -0.308 OA
HETATM   13  C22 UNL     1      -4.764  48.453 -27.739  1.00  0.00     0.087 A 
HETATM   14  C29 UNL     1      -4.791  48.132 -26.396  1.00  0.00     0.053 A 
ENDROOT
BRANCH  13  15
HETATM   15  C23 UNL     1      -5.578  48.083 -28.895  1.00  0.00     0.003 A 
HETATM   16  C24 UNL     1      -6.869  47.563 -28.719  1.00  0.00     0.051 A 
HETATM   17  C25 UNL     1      -7.646  47.211 -29.822  1.00  0.00     0.069 A 
HETATM   18  C26 UNL     1      -7.165  47.365 -31.115  1.00  0.00     0.073 A 
HETATM   19  C27 UNL     1      -5.888  47.880 -31.295  1.00  0.00     0.069 A 
HETATM   20  C28 UNL     1      -5.094  48.238 -30.205  1.00  0.00     0.051 A 
BRANCH  17  21
HETATM   21  O4  UNL     1      -8.893  46.712 -29.584  1.00  0.00    -0.361 OA
HETATM   22  H28 UNL     1      -9.317  46.518 -30.437  1.00  0.00     0.217 HD
ENDBRANCH  17  21
BRANCH  19  23
HETATM   23  O5  UNL     1      -5.439  48.021 -32.576  1.00  0.00    -0.361 OA
HETATM   24  H30 UNL     1      -4.539  48.389 -32.551  1.00  0.00     0.217 HD
ENDBRANCH  19  23
ENDBRANCH  13  15
BRANCH   9  25
HETATM   25  C15 UNL     1      -3.843  48.178 -23.283  1.00  0.00     0.070 C 
BRANCH  25  26
HETATM   26  C16 UNL     1      -5.263  48.617 -23.044  1.00  0.00    -0.020 C 
HETATM   27  C17 UNL     1      -5.713  49.673 -22.337  1.00  0.00    -0.091 C 
HETATM   28  C18 UNL     1      -4.854  50.673 -21.615  1.00  0.00     0.042 C 
HETATM   29  C19 UNL     1      -7.192  49.933 -22.216  1.00  0.00     0.042 C 
ENDBRANCH  25  26
ENDBRANCH   9  25
BRANCH   8  30
HETATM   30  O2  UNL     1      -1.580  49.892 -22.988  1.00  0.00    -0.357 OA
HETATM   31  H17 UNL     1      -0.827  50.507 -23.081  1.00  0.00     0.217 HD
ENDBRANCH   8  30
BRANCH   1  32
HETATM   32  C6  UNL     1       0.029  53.531 -25.598  1.00  0.00     0.046 C 
BRANCH  32  33
HETATM   33  C5  UNL     1       0.751  53.938 -24.308  1.00  0.00     0.030 C 
BRANCH  33  34
HETATM   34  C4  UNL     1       0.372  53.029 -23.171  1.00  0.00    -0.025 C 
HETATM   35  C2  UNL     1       0.769  53.108 -21.886  1.00  0.00    -0.091 C 
HETATM   36  C1  UNL     1       1.660  54.180 -21.320  1.00  0.00     0.042 C 
HETATM   37  C3  UNL     1       0.314  52.085 -20.878  1.00  0.00     0.042 C 
ENDBRANCH  33  34
ENDBRANCH  32  33
ENDBRANCH   1  32
TORSDOF 9
ENDMDL
MODEL 4
REMARK minimizedAffinity -9.71854591
REMARK  9 active torsions:
REMARK  status: ('A' for Active; 'I' for Inactive)
REMARK    1  A    between atoms: C4_4  and  C5_5 
REMARK    2  A    between atoms: C5_5  and  C6_6 
REMARK    3  A    between atoms: C6_6  and  C7_7 
REMARK    4  A    between atoms: C13_14  and  O2_15 
REMARK    5  A    between atoms: C14_16  and  C15_17 
REMARK    6  A    between atoms: C15_17  and  C16_18 
REMARK    7  A    between atoms: C22_25  and  C23_26 
REMARK    8  A    between atoms: C25_28  and  O4_29 
REMARK    9  A    between atoms: C27_31  and  O5_32 
ROOT
HETATM    1  C7  UNL     1      -3.616  48.851 -21.426  1.00  0.00     0.082 A 
HETATM    2  C8  UNL     1      -4.228  49.866 -20.452  1.00  0.00     0.051 C 
HETATM    3  C9  UNL     1      -4.750  48.048 -22.042  1.00  0.00     0.012 A 
HETATM    4  C10 UNL     1      -4.982  47.978 -23.356  1.00  0.00     0.016 A 
HETATM    5  C11 UNL     1      -4.087  48.721 -24.213  1.00  0.00     0.035 A 
HETATM    6  C12 UNL     1      -3.060  49.501 -23.697  1.00  0.00     0.117 A 
HETATM    7  O1  UNL     1      -2.816  49.623 -22.354  1.00  0.00    -0.333 OA
HETATM    8  C13 UNL     1      -2.216  50.219 -24.553  1.00  0.00     0.107 A 
HETATM    9  C14 UNL     1      -2.352  50.199 -25.958  1.00  0.00    -0.006 A 
HETATM   10  C20 UNL     1      -3.395  49.390 -26.476  1.00  0.00     0.011 A 
HETATM   11  C21 UNL     1      -4.221  48.688 -25.602  1.00  0.00     0.100 A 
HETATM   12  O3  UNL     1      -5.154  47.981 -26.303  1.00  0.00    -0.308 OA
HETATM   13  C22 UNL     1      -4.940  48.210 -27.633  1.00  0.00     0.087 A 
HETATM   14  C29 UNL     1      -3.869  49.070 -27.780  1.00  0.00     0.053 A 
ENDROOT
BRANCH  13  15
HETATM   15  C23 UNL     1      -5.842  47.533 -28.561  1.00  0.00     0.003 A 
HETATM   16  C24 UNL     1      -6.982  46.865 -28.087  1.00  0.00     0.051 A 
HETATM   17  C25 UNL     1      -7.843  46.220 -28.973  1.00  0.00     0.069 A 
HETATM   18  C26 UNL     1      -7.597  46.220 -30.339  1.00  0.00     0.073 A 
HETATM   19  C27 UNL     1      -6.471  46.879 -30.814  1.00  0.00     0.069 A 
HETATM   20  C28 UNL     1      -5.596  47.531 -29.945  1.00  0.00     0.051 A 
BRANCH  17  21
HETATM   21  O4  UNL     1      -8.934  45.590 -28.449  1.00  0.00    -0.361 OA
HETATM   22  H28 UNL     1      -9.441  45.193 -29.177  1.00  0.00     0.217 HD
ENDBRANCH  17  21
BRANCH  19  23
HETATM   23  O5  UNL     1      -6.252  46.865 -32.162  1.00  0.00    -0.361 OA
HETATM   24  H30 UNL     1      -5.437  47.360 -32.349  1.00  0.00     0.217 HD
ENDBRANCH  19  23
ENDBRANCH  13  15
BRANCH   9  25
HETATM   25  C15 UNL     1      -1.406  50.978 -26.843  1.00  0.00     0.070 C 
BRANCH  25  26
HETATM   26  C16 UNL     1       0.016  50.902 -26.352  1.00  0.00    -0.020 C 
HETATM   27  C17 UNL     1       1.142  51.327 -26.958  1.00  0.00    -0.091 C 
HETATM   28  C18 UNL     1       1.215  51.996 -28.302  1.00  0.00     0.042 C 
HETATM   29  C19 UNL     1       2.480  51.147 -26.289  1.00  0.00     0.042 C 
ENDBRANCH  25  26
ENDBRANCH   9  25
BRANCH   8  30
HETATM   30  O2  UNL     1      -1.212  50.975 -23.996  1.00  0.00    -0.357 OA
HETATM   31  H17 UNL     1      -1.298  50.851 -23.030  1.00  0.00     0.217 HD
ENDBRANCH   8  30
BRANCH   1  32
HETATM   32  C6  UNL     1      -2.667  47.865 -20.701  1.00  0.00     0.046 C 
BRANCH  32  33
HETATM   33  C5  UNL     1      -1.190  48.279 -20.710  1.00  0.00     0.030 C 
BRANCH  33  34
HETATM   34  C4  UNL     1      -0.840  49.044 -19.463  1.00  0.00    -0.025 C 
HETATM   35  C2  UNL     1      -0.391  50.311 -19.374  1.00  0.00    -0.091 C 
HETATM   36  C1  UNL     1      -0.189  51.243 -20.538  1.00  0.00     0.042 C 
HETATM   37  C3  UNL     1      -0.055  50.914 -18.034  1.00  0.00     0.042 C 
ENDBRANCH  33  34
ENDBRANCH  32  33
ENDBRANCH   1  32
TORSDOF 9
ENDMDL
MODEL 5
REMARK minimizedAffinity -9.66894245
REMARK  9 active torsions:
REMARK  status: ('A' for Active; 'I' for Inactive)
REMARK    1  A    between atoms: C4_4  and  C5_5 
REMARK    2  A    between atoms: C5_5  and  C6_6 
REMARK    3  A    between atoms: C6_6  and  C7_7 
REMARK    4  A    between atoms: C13_14  and  O2_15 
REMARK    5  A    between atoms: C14_16  and  C15_17 
REMARK    6  A    between atoms: C15_17  and  C16_18 
REMARK    7  A    between atoms: C22_25  and  C23_26 
REMARK    8  A    between atoms: C25_28  and  O4_29 
REMARK    9  A    between atoms: C27_31  and  O5_32 
ROOT
HETATM    1  C7  UNL     1      -0.415  52.243 -24.755  1.00  0.00     0.082 A 
HETATM    2  C8  UNL     1      -0.605  53.553 -25.531  1.00  0.00     0.051 C 
HETATM    3  C9  UNL     1       0.784  52.411 -23.835  1.00  0.00     0.012 A 
HETATM    4  C10 UNL     1       0.727  52.266 -22.508  1.00  0.00     0.016 A 
HETATM    5  C11 UNL     1      -0.562  51.932 -21.946  1.00  0.00     0.035 A 
HETATM    6  C12 UNL     1      -1.695  51.805 -22.740  1.00  0.00     0.117 A 
HETATM    7  O1  UNL     1      -1.679  51.983 -24.099  1.00  0.00    -0.333 OA
HETATM    8  C13 UNL     1      -2.932  51.492 -22.165  1.00  0.00     0.107 A 
HETATM    9  C14 UNL     1      -3.105  51.291 -20.779  1.00  0.00    -0.006 A 
HETATM   10  C20 UNL     1      -1.940  51.409 -19.978  1.00  0.00     0.011 A 
HETATM   11  C21 UNL     1      -0.723  51.724 -20.576  1.00  0.00     0.100 A 
HETATM   12  O3  UNL     1       0.260  51.793 -19.631  1.00  0.00    -0.308 OA
HETATM   13  C22 UNL     1      -0.305  51.518 -18.418  1.00  0.00     0.087 A 
HETATM   14  C29 UNL     1      -1.655  51.276 -18.589  1.00  0.00     0.053 A 
ENDROOT
BRANCH  13  15
HETATM   15  C23 UNL     1       0.592  51.537 -17.265  1.00  0.00     0.003 A 
HETATM   16  C24 UNL     1       0.364  50.688 -16.172  1.00  0.00     0.051 A 
HETATM   17  C25 UNL     1       1.220  50.706 -15.072  1.00  0.00     0.069 A 
HETATM   18  C26 UNL     1       2.314  51.559 -15.030  1.00  0.00     0.073 A 
HETATM   19  C27 UNL     1       2.546  52.400 -16.110  1.00  0.00     0.069 A 
HETATM   20  C28 UNL     1       1.701  52.399 -17.220  1.00  0.00     0.051 A 
BRANCH  17  21
HETATM   21  O4  UNL     1       0.943  49.856 -14.041  1.00  0.00    -0.361 OA
HETATM   22  H28 UNL     1       1.621  49.973 -13.354  1.00  0.00     0.217 HD
ENDBRANCH  17  21
BRANCH  19  23
HETATM   23  O5  UNL     1       3.629  53.229 -16.045  1.00  0.00    -0.361 OA
HETATM   24  H30 UNL     1       3.666  53.756 -16.861  1.00  0.00     0.217 HD
ENDBRANCH  19  23
ENDBRANCH  13  15
BRANCH   9  25
HETATM   25  C15 UNL     1      -4.458  50.937 -20.205  1.00  0.00     0.070 C 
BRANCH  25  26
HETATM   26  C16 UNL     1      -5.490  50.730 -21.283  1.00  0.00    -0.020 C 
HETATM   27  C17 UNL     1      -6.368  49.718 -21.428  1.00  0.00    -0.091 C 
HETATM   28  C18 UNL     1      -6.508  48.541 -20.504  1.00  0.00     0.042 C 
HETATM   29  C19 UNL     1      -7.321  49.700 -22.595  1.00  0.00     0.042 C 
ENDBRANCH  25  26
ENDBRANCH   9  25
BRANCH   8  30
HETATM   30  O2  UNL     1      -4.025  51.374 -22.992  1.00  0.00    -0.357 OA
HETATM   31  H17 UNL     1      -3.689  51.552 -23.893  1.00  0.00     0.217 HD
ENDBRANCH   8  30
BRANCH   1  32
HETATM   32  C6  UNL     1      -0.128  51.054 -25.705  1.00  0.00     0.046 C 
BRANCH  32  33
HETATM   33  C5  UNL     1      -1.343  50.573 -26.508  1.00  0.00     0.030 C 
BRANCH  33  34
HETATM   34  C4  UNL     1      -2.320  49.849 -25.621  1.00  0.00    -0.025 C 
HETATM   35  C2  UNL     1      -3.270  48.969 -25.990  1.00  0.00    -0.091 C 
HETATM   36  C1  UNL     1      -3.514  48.498 -27.398  1.00  0.00     0.042 C 
HETATM   37  C3  UNL     1      -4.191  48.359 -24.965  1.00  0.00     0.042 C 
ENDBRANCH  33  34
ENDBRANCH  32  33
ENDBRANCH   1  32
TORSDOF 9
ENDMDL
MODEL 6
REMARK minimizedAffinity -9.56781673
REMARK  9 active torsions:
REMARK  status: ('A' for Active; 'I' for Inactive)
REMARK    1  A    between atoms: C4_4  and  C5_5 
REMARK    2  A    between atoms: C5_5  and  C6_6 
REMARK    3  A    between atoms: C6_6  and  C7_7 
REMARK    4  A    between atoms: C13_14  and  O2_15 
REMARK    5  A    between atoms: C14_16  and  C15_17 
REMARK    6  A    between atoms: C15_17  and  C16_18 
REMARK    7  A    between atoms: C22_25  and  C23_26 
REMARK    8  A    between atoms: C25_28  and  O4_29 
REMARK    9  A    between atoms: C27_31  and  O5_32 
ROOT
HETATM    1  C7  UNL     1      -6.217  48.168 -22.940  1.00  0.00     0.082 A 
HETATM    2  C8  UNL     1      -7.614  48.787 -22.792  1.00  0.00     0.051 C 
HETATM    3  C9  UNL     1      -5.727  48.444 -24.352  1.00  0.00     0.012 A 
HETATM    4  C10 UNL     1      -4.599  49.103 -24.631  1.00  0.00     0.016 A 
HETATM    5  C11 UNL     1      -3.824  49.568 -23.503  1.00  0.00     0.035 A 
HETATM    6  C12 UNL     1      -4.248  49.374 -22.195  1.00  0.00     0.117 A 
HETATM    7  O1  UNL     1      -5.417  48.735 -21.875  1.00  0.00    -0.333 OA
HETATM    8  C13 UNL     1      -3.481  49.847 -21.123  1.00  0.00     0.107 A 
HETATM    9  C14 UNL     1      -2.260  50.533 -21.299  1.00  0.00    -0.006 A 
HETATM   10  C20 UNL     1      -1.828  50.714 -22.637  1.00  0.00     0.011 A 
HETATM   11  C21 UNL     1      -2.612  50.236 -23.684  1.00  0.00     0.100 A 
HETATM   12  O3  UNL     1      -2.020  50.518 -24.881  1.00  0.00    -0.308 OA
HETATM   13  C22 UNL     1      -0.848  51.171 -24.624  1.00  0.00     0.087 A 
HETATM   14  C29 UNL     1      -0.694  51.311 -23.259  1.00  0.00     0.053 A 
ENDROOT
BRANCH  13  15
HETATM   15  C23 UNL     1      -0.054  51.560 -25.788  1.00  0.00     0.003 A 
HETATM   16  C24 UNL     1       1.307  51.227 -25.864  1.00  0.00     0.051 A 
HETATM   17  C25 UNL     1       2.064  51.597 -26.974  1.00  0.00     0.069 A 
HETATM   18  C26 UNL     1       1.496  52.300 -28.026  1.00  0.00     0.073 A 
HETATM   19  C27 UNL     1       0.150  52.632 -27.957  1.00  0.00     0.069 A 
HETATM   20  C28 UNL     1      -0.627  52.272 -26.855  1.00  0.00     0.051 A 
BRANCH  17  21
HETATM   21  O4  UNL     1       3.382  51.242 -26.988  1.00  0.00    -0.361 OA
HETATM   22  H28 UNL     1       3.778  51.558 -27.817  1.00  0.00     0.217 HD
ENDBRANCH  17  21
BRANCH  19  23
HETATM   23  O5  UNL     1      -0.386  53.324 -29.005  1.00  0.00    -0.361 OA
HETATM   24  H30 UNL     1      -1.327  53.486 -28.822  1.00  0.00     0.217 HD
ENDBRANCH  19  23
ENDBRANCH  13  15
BRANCH   9  25
HETATM   25  C15 UNL     1      -1.456  51.010 -20.110  1.00  0.00     0.070 C 
BRANCH  25  26
HETATM   26  C16 UNL     1      -0.574  52.179 -20.459  1.00  0.00    -0.020 C 
HETATM   27  C17 UNL     1       0.340  52.806 -19.692  1.00  0.00    -0.091 C 
HETATM   28  C18 UNL     1       0.685  52.450 -18.273  1.00  0.00     0.042 C 
HETATM   29  C19 UNL     1       1.120  53.973 -20.239  1.00  0.00     0.042 C 
ENDBRANCH  25  26
ENDBRANCH   9  25
BRANCH   8  30
HETATM   30  O2  UNL     1      -3.940  49.629 -19.846  1.00  0.00    -0.357 OA
HETATM   31  H17 UNL     1      -4.785  49.150 -19.952  1.00  0.00     0.217 HD
ENDBRANCH   8  30
BRANCH   1  32
HETATM   32  C6  UNL     1      -6.249  46.633 -22.734  1.00  0.00     0.046 C 
BRANCH  32  33
HETATM   33  C5  UNL     1      -7.647  46.052 -22.486  1.00  0.00     0.030 C 
BRANCH  33  34
HETATM   34  C4  UNL     1      -7.879  44.833 -23.337  1.00  0.00    -0.025 C 
HETATM   35  C2  UNL     1      -8.154  44.790 -24.655  1.00  0.00    -0.091 C 
HETATM   36  C1  UNL     1      -8.242  45.988 -25.561  1.00  0.00     0.042 C 
HETATM   37  C3  UNL     1      -8.393  43.473 -25.346  1.00  0.00     0.042 C 
ENDBRANCH  33  34
ENDBRANCH  32  33
ENDBRANCH   1  32
TORSDOF 9
ENDMDL
MODEL 7
REMARK minimizedAffinity -9.5611248
REMARK  9 active torsions:
REMARK  status: ('A' for Active; 'I' for Inactive)
REMARK    1  A    between atoms: C4_4  and  C5_5 
REMARK    2  A    between atoms: C5_5  and  C6_6 
REMARK    3  A    between atoms: C6_6  and  C7_7 
REMARK    4  A    between atoms: C13_14  and  O2_15 
REMARK    5  A    between atoms: C14_16  and  C15_17 
REMARK    6  A    between atoms: C15_17  and  C16_18 
REMARK    7  A    between atoms: C22_25  and  C23_26 
REMARK    8  A    between atoms: C25_28  and  O4_29 
REMARK    9  A    between atoms: C27_31  and  O5_32 
ROOT
HETATM    1  C7  UNL     1      -1.194  50.235 -18.561  1.00  0.00     0.082 A 
HETATM    2  C8  UNL     1      -1.240  48.832 -17.939  1.00  0.00     0.051 C 
HETATM    3  C9  UNL     1       0.025  50.308 -19.467  1.00  0.00     0.012 A 
HETATM    4  C10 UNL     1      -0.036  50.594 -20.770  1.00  0.00     0.016 A 
HETATM    5  C11 UNL     1      -1.349  50.841 -21.320  1.00  0.00     0.035 A 
HETATM    6  C12 UNL     1      -2.497  50.748 -20.543  1.00  0.00     0.117 A 
HETATM    7  O1  UNL     1      -2.474  50.421 -19.212  1.00  0.00    -0.333 OA
HETATM    8  C13 UNL     1      -3.756  50.981 -21.108  1.00  0.00     0.107 A 
HETATM    9  C14 UNL     1      -3.937  51.315 -22.467  1.00  0.00    -0.006 A 
HETATM   10  C20 UNL     1      -2.759  51.421 -23.249  1.00  0.00     0.011 A 
HETATM   11  C21 UNL     1      -1.519  51.182 -22.662  1.00  0.00     0.100 A 
HETATM   12  O3  UNL     1      -0.526  51.332 -23.587  1.00  0.00    -0.308 OA
HETATM   13  C22 UNL     1      -1.107  51.676 -24.774  1.00  0.00     0.087 A 
HETATM   14  C29 UNL     1      -2.477  51.741 -24.608  1.00  0.00     0.053 A 
ENDROOT
BRANCH  13  15
HETATM   15  C23 UNL     1      -0.203  51.888 -25.902  1.00  0.00     0.003 A 
HETATM   16  C24 UNL     1       1.124  51.438 -25.844  1.00  0.00     0.051 A 
HETATM   17  C25 UNL     1       1.987  51.640 -26.920  1.00  0.00     0.069 A 
HETATM   18  C26 UNL     1       1.558  52.289 -28.069  1.00  0.00     0.073 A 
HETATM   19  C27 UNL     1       0.246  52.737 -28.132  1.00  0.00     0.069 A 
HETATM   20  C28 UNL     1      -0.634  52.545 -27.067  1.00  0.00     0.051 A 
BRANCH  17  21
HETATM   21  O4  UNL     1       3.265  51.177 -26.802  1.00  0.00    -0.361 OA
HETATM   22  H28 UNL     1       3.745  51.382 -27.622  1.00  0.00     0.217 HD
ENDBRANCH  17  21
BRANCH  19  23
HETATM   23  O5  UNL     1      -0.152  53.372 -29.274  1.00  0.00    -0.361 OA
HETATM   24  H30 UNL     1      -1.085  53.628 -29.178  1.00  0.00     0.217 HD
ENDBRANCH  19  23
ENDBRANCH  13  15
BRANCH   9  25
HETATM   25  C15 UNL     1      -5.317  51.575 -23.028  1.00  0.00     0.070 C 
BRANCH  25  26
HETATM   26  C16 UNL     1      -5.932  50.330 -23.609  1.00  0.00    -0.020 C 
HETATM   27  C17 UNL     1      -5.398  49.097 -23.721  1.00  0.00    -0.091 C 
HETATM   28  C18 UNL     1      -4.023  48.694 -23.267  1.00  0.00     0.042 C 
HETATM   29  C19 UNL     1      -6.190  47.979 -24.347  1.00  0.00     0.042 C 
ENDBRANCH  25  26
ENDBRANCH   9  25
BRANCH   8  30
HETATM   30  O2  UNL     1      -4.863  50.880 -20.298  1.00  0.00    -0.357 OA
HETATM   31  H17 UNL     1      -4.518  50.641 -19.415  1.00  0.00     0.217 HD
ENDBRANCH   8  30
BRANCH   1  32
HETATM   32  C6  UNL     1      -1.056  51.334 -17.479  1.00  0.00     0.046 C 
BRANCH  32  33
HETATM   33  C5  UNL     1       0.336  51.971 -17.392  1.00  0.00     0.030 C 
BRANCH  33  34
HETATM   34  C4  UNL     1       1.025  51.581 -16.112  1.00  0.00    -0.025 C 
HETATM   35  C2  UNL     1       2.284  51.876 -15.732  1.00  0.00    -0.091 C 
HETATM   36  C1  UNL     1       3.253  52.712 -16.522  1.00  0.00     0.042 C 
HETATM   37  C3  UNL     1       2.827  51.372 -14.420  1.00  0.00     0.042 C 
ENDBRANCH  33  34
ENDBRANCH  32  33
ENDBRANCH   1  32
TORSDOF 9
ENDMDL
MODEL 8
REMARK minimizedAffinity -9.48020554
REMARK  9 active torsions:
REMARK  status: ('A' for Active; 'I' for Inactive)
REMARK    1  A    between atoms: C4_4  and  C5_5 
REMARK    2  A    between atoms: C5_5  and  C6_6 
REMARK    3  A    between atoms: C6_6  and  C7_7 
REMARK    4  A    between atoms: C13_14  and  O2_15 
REMARK    5  A    between atoms: C14_16  and  C15_17 
REMARK    6  A    between atoms: C15_17  and  C16_18 
REMARK    7  A    between atoms: C22_25  and  C23_26 
REMARK    8  A    between atoms: C25_28  and  O4_29 
REMARK    9  A    between atoms: C27_31  and  O5_32 
ROOT
HETATM    1  C7  UNL     1      -6.788  48.161 -23.992  1.00  0.00     0.082 A 
HETATM    2  C8  UNL     1      -7.020  46.645 -24.057  1.00  0.00     0.051 C 
HETATM    3  C9  UNL     1      -6.349  48.508 -22.578  1.00  0.00     0.012 A 
HETATM    4  C10 UNL     1      -5.196  49.117 -22.288  1.00  0.00     0.016 A 
HETATM    5  C11 UNL     1      -4.338  49.448 -23.402  1.00  0.00     0.035 A 
HETATM    6  C12 UNL     1      -4.676  49.118 -24.708  1.00  0.00     0.117 A 
HETATM    7  O1  UNL     1      -5.834  48.462 -25.038  1.00  0.00    -0.333 OA
HETATM    8  C13 UNL     1      -3.819  49.442 -25.767  1.00  0.00     0.107 A 
HETATM    9  C14 UNL     1      -2.588  50.107 -25.580  1.00  0.00    -0.006 A 
HETATM   10  C20 UNL     1      -2.258  50.453 -24.245  1.00  0.00     0.011 A 
HETATM   11  C21 UNL     1      -3.128  50.116 -23.211  1.00  0.00     0.100 A 
HETATM   12  O3  UNL     1      -2.620  50.534 -22.015  1.00  0.00    -0.308 OA
HETATM   13  C22 UNL     1      -1.426  51.150 -22.260  1.00  0.00     0.087 A 
HETATM   14  C29 UNL     1      -1.168  51.121 -23.617  1.00  0.00     0.053 A 
ENDROOT
BRANCH  13  15
HETATM   15  C23 UNL     1      -0.717  51.677 -21.096  1.00  0.00     0.003 A 
HETATM   16  C24 UNL     1      -0.864  51.072 -19.839  1.00  0.00     0.051 A 
HETATM   17  C25 UNL     1      -0.188  51.575 -18.728  1.00  0.00     0.069 A 
HETATM   18  C26 UNL     1       0.644  52.681 -18.837  1.00  0.00     0.073 A 
HETATM   19  C27 UNL     1       0.794  53.283 -20.078  1.00  0.00     0.069 A 
HETATM   20  C28 UNL     1       0.126  52.797 -21.202  1.00  0.00     0.051 A 
BRANCH  17  21
HETATM   21  O4  UNL     1      -0.373  50.941 -17.534  1.00  0.00    -0.361 OA
HETATM   22  H28 UNL     1       0.160  51.393 -16.859  1.00  0.00     0.217 HD
ENDBRANCH  17  21
BRANCH  19  23
HETATM   23  O5  UNL     1       1.617  54.369 -20.159  1.00  0.00    -0.361 OA
HETATM   24  H30 UNL     1       1.626  54.685 -21.079  1.00  0.00     0.217 HD
ENDBRANCH  19  23
ENDBRANCH  13  15
BRANCH   9  25
HETATM   25  C15 UNL     1      -1.703  50.452 -26.756  1.00  0.00     0.070 C 
BRANCH  25  26
HETATM   26  C16 UNL     1      -0.261  50.601 -26.350  1.00  0.00    -0.020 C 
HETATM   27  C17 UNL     1       0.725  51.281 -26.969  1.00  0.00    -0.091 C 
HETATM   28  C18 UNL     1       0.581  52.065 -28.243  1.00  0.00     0.042 C 
HETATM   29  C19 UNL     1       2.117  51.297 -26.392  1.00  0.00     0.042 C 
ENDBRANCH  25  26
ENDBRANCH   9  25
BRANCH   8  30
HETATM   30  O2  UNL     1      -4.198  49.096 -27.043  1.00  0.00    -0.357 OA
HETATM   31  H17 UNL     1      -5.063  48.652 -26.945  1.00  0.00     0.217 HD
ENDBRANCH   8  30
BRANCH   1  32
HETATM   32  C6  UNL     1      -8.084  48.950 -24.300  1.00  0.00     0.046 C 
BRANCH  32  33
HETATM   33  C5  UNL     1      -9.131  48.167 -25.102  1.00  0.00     0.030 C 
BRANCH  33  34
HETATM   34  C4  UNL     1      -9.148  48.611 -26.539  1.00  0.00    -0.025 C 
HETATM   35  C2  UNL     1      -8.561  48.012 -27.593  1.00  0.00    -0.091 C 
HETATM   36  C1  UNL     1      -7.788  46.722 -27.536  1.00  0.00     0.042 C 
HETATM   37  C3  UNL     1      -8.652  48.617 -28.970  1.00  0.00     0.042 C 
ENDBRANCH  33  34
ENDBRANCH  32  33
ENDBRANCH   1  32
TORSDOF 9
ENDMDL
MODEL 9
REMARK minimizedAffinity -9.45806217
REMARK  9 active torsions:
REMARK  status: ('A' for Active; 'I' for Inactive)
REMARK    1  A    between atoms: C4_4  and  C5_5 
REMARK    2  A    between atoms: C5_5  and  C6_6 
REMARK    3  A    between atoms: C6_6  and  C7_7 
REMARK    4  A    between atoms: C13_14  and  O2_15 
REMARK    5  A    between atoms: C14_16  and  C15_17 
REMARK    6  A    between atoms: C15_17  and  C16_18 
REMARK    7  A    between atoms: C22_25  and  C23_26 
REMARK    8  A    between atoms: C25_28  and  O4_29 
REMARK    9  A    between atoms: C27_31  and  O5_32 
ROOT
HETATM    1  C7  UNL     1      -7.066  46.745 -29.096  1.00  0.00     0.082 A 
HETATM    2  C8  UNL     1      -8.397  47.301 -29.622  1.00  0.00     0.051 C 
HETATM    3  C9  UNL     1      -5.938  47.443 -29.839  1.00  0.00     0.012 A 
HETATM    4  C10 UNL     1      -4.975  48.144 -29.235  1.00  0.00     0.016 A 
HETATM    5  C11 UNL     1      -5.038  48.227 -27.793  1.00  0.00     0.035 A 
HETATM    6  C12 UNL     1      -6.069  47.639 -27.072  1.00  0.00     0.117 A 
HETATM    7  O1  UNL     1      -7.093  46.943 -27.662  1.00  0.00    -0.333 OA
HETATM    8  C13 UNL     1      -6.110  47.746 -25.677  1.00  0.00     0.107 A 
HETATM    9  C14 UNL     1      -5.132  48.440 -24.932  1.00  0.00    -0.006 A 
HETATM   10  C20 UNL     1      -4.075  49.025 -25.676  1.00  0.00     0.011 A 
HETATM   11  C21 UNL     1      -4.061  48.905 -27.063  1.00  0.00     0.100 A 
HETATM   12  O3  UNL     1      -2.968  49.540 -27.578  1.00  0.00    -0.308 OA
HETATM   13  C22 UNL     1      -2.261  50.069 -26.536  1.00  0.00     0.087 A 
HETATM   14  C29 UNL     1      -2.908  49.774 -25.351  1.00  0.00     0.053 A 
ENDROOT
BRANCH  13  15
HETATM   15  C23 UNL     1      -1.040  50.792 -26.881  1.00  0.00     0.003 A 
HETATM   16  C24 UNL     1      -1.079  51.866 -27.783  1.00  0.00     0.051 A 
HETATM   17  C25 UNL     1       0.086  52.557 -28.112  1.00  0.00     0.069 A 
HETATM   18  C26 UNL     1       1.308  52.203 -27.558  1.00  0.00     0.073 A 
HETATM   19  C27 UNL     1       1.353  51.142 -26.664  1.00  0.00     0.069 A 
HETATM   20  C28 UNL     1       0.199  50.437 -26.321  1.00  0.00     0.051 A 
BRANCH  17  21
HETATM   21  O4  UNL     1      -0.020  53.591 -28.995  1.00  0.00    -0.361 OA
HETATM   22  H28 UNL     1       0.862  53.979 -29.123  1.00  0.00     0.217 HD
ENDBRANCH  17  21
BRANCH  19  23
HETATM   23  O5  UNL     1       2.568  50.814 -26.133  1.00  0.00    -0.361 OA
HETATM   24  H30 UNL     1       2.450  50.060 -25.530  1.00  0.00     0.217 HD
ENDBRANCH  19  23
ENDBRANCH  13  15
BRANCH   9  25
HETATM   25  C15 UNL     1      -5.207  48.513 -23.424  1.00  0.00     0.070 C 
BRANCH  25  26
HETATM   26  C16 UNL     1      -3.888  48.186 -22.778  1.00  0.00    -0.020 C 
HETATM   27  C17 UNL     1      -3.626  47.304 -21.792  1.00  0.00    -0.091 C 
HETATM   28  C18 UNL     1      -4.638  46.427 -21.111  1.00  0.00     0.042 C 
HETATM   29  C19 UNL     1      -2.219  47.132 -21.280  1.00  0.00     0.042 C 
ENDBRANCH  25  26
ENDBRANCH   9  25
BRANCH   8  30
HETATM   30  O2  UNL     1      -7.149  47.145 -25.006  1.00  0.00    -0.357 OA
HETATM   31  H17 UNL     1      -7.701  46.731 -25.699  1.00  0.00     0.217 HD
ENDBRANCH   8  30
BRANCH   1  32
HETATM   32  C6  UNL     1      -6.943  45.224 -29.355  1.00  0.00     0.046 C 
BRANCH  32  33
HETATM   33  C5  UNL     1      -7.331  44.785 -30.772  1.00  0.00     0.030 C 
BRANCH  33  34
HETATM   34  C4  UNL     1      -6.289  43.868 -31.354  1.00  0.00    -0.025 C 
HETATM   35  C2  UNL     1      -5.257  44.199 -32.154  1.00  0.00    -0.091 C 
HETATM   36  C1  UNL     1      -4.917  45.596 -32.596  1.00  0.00     0.042 C 
HETATM   37  C3  UNL     1      -4.321  43.139 -32.677  1.00  0.00     0.042 C 
ENDBRANCH  33  34
ENDBRANCH  32  33
ENDBRANCH   1  32
TORSDOF 9
ENDMDL
