MODEL 1
REMARK minimizedAffinity -7.56804085
REMARK  5 active torsions:
REMARK  status: ('A' for Active; 'I' for Inactive)
REMARK    1  A    between atoms: O1_2  and  C2_3 
REMARK    2  A    between atoms: C3_4  and  O2_5 
REMARK    3  A    between atoms: C4_6  and  C5_7 
REMARK    4  A    between atoms: C5_7  and  O3_8 
REMARK    5  A    between atoms: C6_10  and  N1_11 
ROOT
HETATM    1  C2  UNL     1      -1.017  52.876 -26.049  1.00  0.00     0.201 C 
HETATM    2  C3  UNL     1      -0.051  53.005 -27.222  1.00  0.00     0.182 C 
HETATM    3  C4  UNL     1       0.773  51.729 -27.104  1.00  0.00     0.179 C 
HETATM    4  O4  UNL     1       0.984  51.543 -25.698  1.00  0.00    -0.353 OA
HETATM    5  C6  UNL     1      -0.210  52.014 -25.043  1.00  0.00     0.264 C 
ENDROOT
BRANCH   5   6
HETATM    6  N1  UNL     1       0.169  52.642 -23.775  1.00  0.00    -0.279 N 
HETATM    7  C7  UNL     1      -0.058  51.948 -22.599  1.00  0.00     0.110 A 
HETATM    8  C8  UNL     1       0.314  52.411 -21.399  1.00  0.00     0.022 A 
HETATM    9  C9  UNL     1       0.092  51.695 -20.108  1.00  0.00     0.056 C 
HETATM   10  C10 UNL     1       1.008  53.718 -21.345  1.00  0.00     0.256 A 
HETATM   11  O5  UNL     1       1.357  54.225 -20.285  1.00  0.00    -0.267 OA
HETATM   12  N2  UNL     1       1.236  54.317 -22.549  1.00  0.00    -0.275 N 
HETATM   13  C11 UNL     1       0.864  53.840 -23.777  1.00  0.00     0.331 A 
HETATM   14  H16 UNL     1       1.729  55.195 -22.535  1.00  0.00     0.173 HD
HETATM   15  O6  UNL     1       1.135  54.485 -24.786  1.00  0.00    -0.246 OA
ENDBRANCH   5   6
BRANCH   1  16
HETATM   16  O1  UNL     1      -2.191  52.173 -26.527  1.00  0.00    -0.384 OA
HETATM   17  C1  UNL     1      -3.191  52.053 -25.520  1.00  0.00     0.202 C 
ENDBRANCH   1  16
BRANCH   2  18
HETATM   18  O2  UNL     1      -0.702  53.110 -28.485  1.00  0.00    -0.390 OA
HETATM   19  H6  UNL     1      -1.572  52.675 -28.367  1.00  0.00     0.210 HD
ENDBRANCH   2  18
BRANCH   3  20
HETATM   20  C5  UNL     1       2.092  51.815 -27.868  1.00  0.00     0.198 C 
BRANCH  20  21
HETATM   21  O3  UNL     1       3.187  51.360 -27.077  1.00  0.00    -0.398 OA
HETATM   22  H10 UNL     1       2.910  50.529 -26.639  1.00  0.00     0.209 HD
ENDBRANCH  20  21
ENDBRANCH   3  20
TORSDOF 5
ENDMDL
MODEL 2
REMARK minimizedAffinity -7.27671909
REMARK  5 active torsions:
REMARK  status: ('A' for Active; 'I' for Inactive)
REMARK    1  A    between atoms: O1_2  and  C2_3 
REMARK    2  A    between atoms: C3_4  and  O2_5 
REMARK    3  A    between atoms: C4_6  and  C5_7 
REMARK    4  A    between atoms: C5_7  and  O3_8 
REMARK    5  A    between atoms: C6_10  and  N1_11 
ROOT
HETATM    1  C2  UNL     1      -0.851  51.180 -25.967  1.00  0.00     0.201 C 
HETATM    2  C3  UNL     1      -2.042  50.362 -25.478  1.00  0.00     0.182 C 
HETATM    3  C4  UNL     1      -3.164  51.392 -25.479  1.00  0.00     0.179 C 
HETATM    4  O4  UNL     1      -2.566  52.604 -24.998  1.00  0.00    -0.353 OA
HETATM    5  C6  UNL     1      -1.213  52.614 -25.497  1.00  0.00     0.264 C 
ENDROOT
BRANCH   5   6
HETATM    6  N1  UNL     1      -0.348  53.227 -24.487  1.00  0.00    -0.279 N 
HETATM    7  C7  UNL     1      -0.187  52.581 -23.273  1.00  0.00     0.110 A 
HETATM    8  C8  UNL     1       0.634  53.030 -22.315  1.00  0.00     0.022 A 
HETATM    9  C9  UNL     1       0.838  52.364 -20.994  1.00  0.00     0.056 C 
HETATM   10  C10 UNL     1       1.406  54.264 -22.585  1.00  0.00     0.256 A 
HETATM   11  O5  UNL     1       2.158  54.756 -21.752  1.00  0.00    -0.267 OA
HETATM   12  N2  UNL     1       1.229  54.814 -23.820  1.00  0.00    -0.275 N 
HETATM   13  C11 UNL     1       0.397  54.352 -24.804  1.00  0.00     0.331 A 
HETATM   14  H16 UNL     1       1.765  55.640 -24.033  1.00  0.00     0.173 HD
HETATM   15  O6  UNL     1       0.335  54.947 -25.877  1.00  0.00    -0.246 OA
ENDBRANCH   5   6
BRANCH   1  16
HETATM   16  O1  UNL     1      -0.824  51.088 -27.413  1.00  0.00    -0.384 OA
HETATM   17  C1  UNL     1       0.203  51.894 -27.982  1.00  0.00     0.202 C 
ENDBRANCH   1  16
BRANCH   2  18
HETATM   18  O2  UNL     1      -2.340  49.242 -26.309  1.00  0.00    -0.390 OA
HETATM   19  H6  UNL     1      -1.994  49.476 -27.195  1.00  0.00     0.210 HD
ENDBRANCH   2  18
BRANCH   3  20
HETATM   20  C5  UNL     1      -4.347  50.964 -24.613  1.00  0.00     0.198 C 
BRANCH  20  21
HETATM   21  O3  UNL     1      -5.334  51.988 -24.531  1.00  0.00    -0.398 OA
HETATM   22  H10 UNL     1      -5.472  52.341 -25.434  1.00  0.00     0.209 HD
ENDBRANCH  20  21
ENDBRANCH   3  20
TORSDOF 5
ENDMDL
MODEL 3
REMARK minimizedAffinity -7.23916435
REMARK  5 active torsions:
REMARK  status: ('A' for Active; 'I' for Inactive)
REMARK    1  A    between atoms: O1_2  and  C2_3 
REMARK    2  A    between atoms: C3_4  and  O2_5 
REMARK    3  A    between atoms: C4_6  and  C5_7 
REMARK    4  A    between atoms: C5_7  and  O3_8 
REMARK    5  A    between atoms: C6_10  and  N1_11 
ROOT
HETATM    1  C2  UNL     1      -0.937  52.982 -25.725  1.00  0.00     0.201 C 
HETATM    2  C3  UNL     1       0.274  53.225 -26.619  1.00  0.00     0.182 C 
HETATM    3  C4  UNL     1       0.746  51.807 -26.917  1.00  0.00     0.179 C 
HETATM    4  O4  UNL     1       0.587  51.089 -25.685  1.00  0.00    -0.353 OA
HETATM    5  C6  UNL     1      -0.590  51.628 -25.051  1.00  0.00     0.264 C 
ENDROOT
BRANCH   5   6
HETATM    6  N1  UNL     1      -0.379  51.635 -23.602  1.00  0.00    -0.279 N 
HETATM    7  C7  UNL     1       0.421  52.623 -23.054  1.00  0.00     0.110 A 
HETATM    8  C8  UNL     1       0.619  52.750 -21.736  1.00  0.00     0.022 A 
HETATM    9  C9  UNL     1       1.470  53.802 -21.105  1.00  0.00     0.056 C 
HETATM   10  C10 UNL     1      -0.063  51.792 -20.837  1.00  0.00     0.256 A 
HETATM   11  O5  UNL     1       0.087  51.822 -19.621  1.00  0.00    -0.267 OA
HETATM   12  N2  UNL     1      -0.870  50.878 -21.448  1.00  0.00    -0.275 N 
HETATM   13  C11 UNL     1      -1.081  50.753 -22.795  1.00  0.00     0.331 A 
HETATM   14  H16 UNL     1      -1.363  50.233 -20.851  1.00  0.00     0.173 HD
HETATM   15  O6  UNL     1      -1.838  49.881 -23.213  1.00  0.00    -0.246 OA
ENDBRANCH   5   6
BRANCH   1  16
HETATM   16  O1  UNL     1      -2.098  52.864 -26.585  1.00  0.00    -0.384 OA
HETATM   17  C1  UNL     1      -3.020  51.889 -26.108  1.00  0.00     0.202 C 
ENDBRANCH   1  16
BRANCH   2  18
HETATM   18  O2  UNL     1      -0.035  53.949 -27.808  1.00  0.00    -0.390 OA
HETATM   19  H6  UNL     1      -0.984  53.773 -27.981  1.00  0.00     0.210 HD
ENDBRANCH   2  18
BRANCH   3  20
HETATM   20  C5  UNL     1       2.189  51.767 -27.412  1.00  0.00     0.198 C 
BRANCH  20  21
HETATM   21  O3  UNL     1       3.048  51.123 -26.475  1.00  0.00    -0.398 OA
HETATM   22  H10 UNL     1       2.596  50.309 -26.170  1.00  0.00     0.209 HD
ENDBRANCH  20  21
ENDBRANCH   3  20
TORSDOF 5
ENDMDL
MODEL 4
REMARK minimizedAffinity -7.00029325
REMARK  5 active torsions:
REMARK  status: ('A' for Active; 'I' for Inactive)
REMARK    1  A    between atoms: O1_2  and  C2_3 
REMARK    2  A    between atoms: C3_4  and  O2_5 
REMARK    3  A    between atoms: C4_6  and  C5_7 
REMARK    4  A    between atoms: C5_7  and  O3_8 
REMARK    5  A    between atoms: C6_10  and  N1_11 
ROOT
HETATM    1  C2  UNL     1       9.763  63.213 -34.670  1.00  0.00     0.201 C 
HETATM    2  C3  UNL     1      10.512  63.039 -33.353  1.00  0.00     0.182 C 
HETATM    3  C4  UNL     1      10.080  61.645 -32.916  1.00  0.00     0.179 C 
HETATM    4  O4  UNL     1       8.688  61.558 -33.251  1.00  0.00    -0.353 OA
HETATM    5  C6  UNL     1       8.516  62.312 -34.467  1.00  0.00     0.264 C 
ENDROOT
BRANCH   5   6
HETATM    6  N1  UNL     1       7.210  62.974 -34.426  1.00  0.00    -0.279 N 
HETATM    7  C7  UNL     1       7.168  64.343 -34.220  1.00  0.00     0.110 A 
HETATM    8  C8  UNL     1       6.028  65.044 -34.231  1.00  0.00     0.022 A 
HETATM    9  C9  UNL     1       5.939  66.519 -34.017  1.00  0.00     0.056 C 
HETATM   10  C10 UNL     1       4.767  64.314 -34.490  1.00  0.00     0.256 A 
HETATM   11  O5  UNL     1       3.678  64.876 -34.490  1.00  0.00    -0.267 OA
HETATM   12  N2  UNL     1       4.895  62.978 -34.730  1.00  0.00    -0.275 N 
HETATM   13  C11 UNL     1       6.061  62.260 -34.727  1.00  0.00     0.331 A 
HETATM   14  H16 UNL     1       4.051  62.467 -34.932  1.00  0.00     0.173 HD
HETATM   15  O6  UNL     1       6.034  61.055 -34.961  1.00  0.00    -0.246 OA
ENDBRANCH   5   6
BRANCH   1  16
HETATM   16  O1  UNL     1      10.616  62.706 -35.727  1.00  0.00    -0.384 OA
HETATM   17  C1  UNL     1      11.107  63.748 -36.564  1.00  0.00     0.202 C 
ENDBRANCH   1  16
BRANCH   2  18
HETATM   18  O2  UNL     1      11.928  63.145 -33.487  1.00  0.00    -0.390 OA
HETATM   19  H6  UNL     1      12.120  62.900 -34.416  1.00  0.00     0.210 HD
ENDBRANCH   2  18
BRANCH   3  20
HETATM   20  C5  UNL     1      10.320  61.401 -31.428  1.00  0.00     0.198 C 
BRANCH  20  21
HETATM   21  O3  UNL     1      11.544  61.986 -30.991  1.00  0.00    -0.398 OA
HETATM   22  H10 UNL     1      11.592  62.888 -31.369  1.00  0.00     0.209 HD
ENDBRANCH  20  21
ENDBRANCH   3  20
TORSDOF 5
ENDMDL
MODEL 5
REMARK minimizedAffinity -6.95477343
REMARK  5 active torsions:
REMARK  status: ('A' for Active; 'I' for Inactive)
REMARK    1  A    between atoms: O1_2  and  C2_3 
REMARK    2  A    between atoms: C3_4  and  O2_5 
REMARK    3  A    between atoms: C4_6  and  C5_7 
REMARK    4  A    between atoms: C5_7  and  O3_8 
REMARK    5  A    between atoms: C6_10  and  N1_11 
ROOT
HETATM    1  C2  UNL     1       6.154  65.456 -33.724  1.00  0.00     0.201 C 
HETATM    2  C3  UNL     1       5.412  66.276 -34.774  1.00  0.00     0.182 C 
HETATM    3  C4  UNL     1       3.992  65.739 -34.660  1.00  0.00     0.179 C 
HETATM    4  O4  UNL     1       4.136  64.325 -34.469  1.00  0.00    -0.353 OA
HETATM    5  C6  UNL     1       5.330  64.142 -33.681  1.00  0.00     0.264 C 
ENDROOT
BRANCH   5   6
HETATM    6  N1  UNL     1       5.998  62.916 -34.122  1.00  0.00    -0.279 N 
HETATM    7  C7  UNL     1       7.341  62.978 -34.455  1.00  0.00     0.110 A 
HETATM    8  C8  UNL     1       8.052  61.899 -34.806  1.00  0.00     0.022 A 
HETATM    9  C9  UNL     1       9.500  61.921 -35.169  1.00  0.00     0.056 C 
HETATM   10  C10 UNL     1       7.363  60.589 -34.821  1.00  0.00     0.256 A 
HETATM   11  O5  UNL     1       7.934  59.558 -35.157  1.00  0.00    -0.267 OA
HETATM   12  N2  UNL     1       6.055  60.604 -34.436  1.00  0.00    -0.275 N 
HETATM   13  C11 UNL     1       5.328  61.704 -34.069  1.00  0.00     0.331 A 
HETATM   14  H16 UNL     1       5.575  59.718 -34.416  1.00  0.00     0.173 HD
HETATM   15  O6  UNL     1       4.152  61.574 -33.742  1.00  0.00    -0.246 OA
ENDBRANCH   5   6
BRANCH   1  16
HETATM   16  O1  UNL     1       6.070  66.175 -32.469  1.00  0.00    -0.384 OA
HETATM   17  C1  UNL     1       7.314  66.763 -32.103  1.00  0.00     0.202 C 
ENDBRANCH   1  16
BRANCH   2  18
HETATM   18  O2  UNL     1       5.475  67.682 -34.543  1.00  0.00    -0.390 OA
HETATM   19  H6  UNL     1       5.617  67.782 -33.579  1.00  0.00     0.210 HD
ENDBRANCH   2  18
BRANCH   3  20
HETATM   20  C5  UNL     1       3.148  66.059 -35.892  1.00  0.00     0.198 C 
BRANCH  20  21
HETATM   21  O3  UNL     1       1.898  65.375 -35.864  1.00  0.00    -0.398 OA
HETATM   22  H10 UNL     1       1.530  65.469 -34.962  1.00  0.00     0.209 HD
ENDBRANCH  20  21
ENDBRANCH   3  20
TORSDOF 5
ENDMDL
MODEL 6
REMARK minimizedAffinity -6.94313002
REMARK  5 active torsions:
REMARK  status: ('A' for Active; 'I' for Inactive)
REMARK    1  A    between atoms: O1_2  and  C2_3 
REMARK    2  A    between atoms: C3_4  and  O2_5 
REMARK    3  A    between atoms: C4_6  and  C5_7 
REMARK    4  A    between atoms: C5_7  and  O3_8 
REMARK    5  A    between atoms: C6_10  and  N1_11 
ROOT
HETATM    1  C2  UNL     1      -2.008  52.395 -25.479  1.00  0.00     0.201 C 
HETATM    2  C3  UNL     1      -1.464  52.525 -26.897  1.00  0.00     0.182 C 
HETATM    3  C4  UNL     1      -0.461  51.380 -26.965  1.00  0.00     0.179 C 
HETATM    4  O4  UNL     1       0.183  51.365 -25.684  1.00  0.00    -0.353 OA
HETATM    5  C6  UNL     1      -0.820  51.746 -24.721  1.00  0.00     0.264 C 
ENDROOT
BRANCH   5   6
HETATM    6  N1  UNL     1      -0.180  52.541 -23.670  1.00  0.00    -0.279 N 
HETATM    7  C7  UNL     1      -0.335  52.144 -22.353  1.00  0.00     0.110 A 
HETATM    8  C8  UNL     1       0.264  52.767 -21.331  1.00  0.00     0.022 A 
HETATM    9  C9  UNL     1       0.126  52.371 -19.898  1.00  0.00     0.056 C 
HETATM   10  C10 UNL     1       1.138  53.922 -21.639  1.00  0.00     0.256 A 
HETATM   11  O5  UNL     1       1.701  54.564 -20.761  1.00  0.00    -0.267 OA
HETATM   12  N2  UNL     1       1.276  54.222 -22.962  1.00  0.00    -0.275 N 
HETATM   13  C11 UNL     1       0.672  53.580 -24.009  1.00  0.00     0.331 A 
HETATM   14  H16 UNL     1       1.887  54.990 -23.194  1.00  0.00     0.173 HD
HETATM   15  O6  UNL     1       0.886  53.956 -25.159  1.00  0.00    -0.246 OA
ENDBRANCH   5   6
BRANCH   1  16
HETATM   16  O1  UNL     1      -3.152  51.506 -25.531  1.00  0.00    -0.384 OA
HETATM   17  C1  UNL     1      -3.099  50.631 -26.653  1.00  0.00     0.202 C 
ENDBRANCH   1  16
BRANCH   2  18
HETATM   18  O2  UNL     1      -2.469  52.420 -27.903  1.00  0.00    -0.390 OA
HETATM   19  H6  UNL     1      -3.189  51.894 -27.497  1.00  0.00     0.210 HD
ENDBRANCH   2  18
BRANCH   3  20
HETATM   20  C5  UNL     1       0.544  51.554 -28.101  1.00  0.00     0.198 C 
BRANCH  20  21
HETATM   21  O3  UNL     1       0.415  52.828 -28.726  1.00  0.00    -0.398 OA
HETATM   22  H10 UNL     1       0.334  53.499 -28.016  1.00  0.00     0.209 HD
ENDBRANCH  20  21
ENDBRANCH   3  20
TORSDOF 5
ENDMDL
MODEL 7
REMARK minimizedAffinity -6.84875393
REMARK  5 active torsions:
REMARK  status: ('A' for Active; 'I' for Inactive)
REMARK    1  A    between atoms: O1_2  and  C2_3 
REMARK    2  A    between atoms: C3_4  and  O2_5 
REMARK    3  A    between atoms: C4_6  and  C5_7 
REMARK    4  A    between atoms: C5_7  and  O3_8 
REMARK    5  A    between atoms: C6_10  and  N1_11 
ROOT
HETATM    1  C2  UNL     1       0.062  52.030 -24.418  1.00  0.00     0.201 C 
HETATM    2  C3  UNL     1       0.509  52.139 -25.871  1.00  0.00     0.182 C 
HETATM    3  C4  UNL     1       0.020  53.529 -26.257  1.00  0.00     0.179 C 
HETATM    4  O4  UNL     1      -1.263  53.666 -25.632  1.00  0.00    -0.353 OA
HETATM    5  C6  UNL     1      -1.181  52.958 -24.379  1.00  0.00     0.264 C 
ENDROOT
BRANCH   5   6
HETATM    6  N1  UNL     1      -2.477  52.332 -24.110  1.00  0.00    -0.279 N 
HETATM    7  C7  UNL     1      -2.795  52.003 -22.803  1.00  0.00     0.110 A 
HETATM    8  C8  UNL     1      -3.981  51.488 -22.452  1.00  0.00     0.022 A 
HETATM    9  C9  UNL     1      -4.365  51.123 -21.056  1.00  0.00     0.056 C 
HETATM   10  C10 UNL     1      -4.989  51.279 -23.516  1.00  0.00     0.256 A 
HETATM   11  O5  UNL     1      -6.086  50.787 -23.283  1.00  0.00    -0.267 OA
HETATM   12  N2  UNL     1      -4.617  51.670 -24.768  1.00  0.00    -0.275 N 
HETATM   13  C11 UNL     1      -3.410  52.205 -25.128  1.00  0.00     0.331 A 
HETATM   14  H16 UNL     1      -5.299  51.559 -25.502  1.00  0.00     0.173 HD
HETATM   15  O6  UNL     1      -3.207  52.517 -26.298  1.00  0.00    -0.246 OA
ENDBRANCH   5   6
BRANCH   1  16
HETATM   16  O1  UNL     1       1.135  52.548 -23.592  1.00  0.00    -0.384 OA
HETATM   17  C1  UNL     1       0.807  52.515 -22.206  1.00  0.00     0.202 C 
ENDBRANCH   1  16
BRANCH   2  18
HETATM   18  O2  UNL     1       1.917  51.998 -26.044  1.00  0.00    -0.390 OA
HETATM   19  H6  UNL     1       2.313  52.269 -25.189  1.00  0.00     0.210 HD
ENDBRANCH   2  18
BRANCH   3  20
HETATM   20  C5  UNL     1      -0.066  53.717 -27.770  1.00  0.00     0.198 C 
BRANCH  20  21
HETATM   21  O3  UNL     1      -1.409  53.922 -28.198  1.00  0.00    -0.398 OA
HETATM   22  H10 UNL     1      -1.819  54.567 -27.586  1.00  0.00     0.209 HD
ENDBRANCH  20  21
ENDBRANCH   3  20
TORSDOF 5
ENDMDL
MODEL 8
REMARK minimizedAffinity -6.84757757
REMARK  5 active torsions:
REMARK  status: ('A' for Active; 'I' for Inactive)
REMARK    1  A    between atoms: O1_2  and  C2_3 
REMARK    2  A    between atoms: C3_4  and  O2_5 
REMARK    3  A    between atoms: C4_6  and  C5_7 
REMARK    4  A    between atoms: C5_7  and  O3_8 
REMARK    5  A    between atoms: C6_10  and  N1_11 
ROOT
HETATM    1  C2  UNL     1       0.677  51.768 -25.692  1.00  0.00     0.201 C 
HETATM    2  C3  UNL     1      -0.491  51.339 -26.573  1.00  0.00     0.182 C 
HETATM    3  C4  UNL     1      -1.444  52.520 -26.447  1.00  0.00     0.179 C 
HETATM    4  O4  UNL     1      -1.371  52.920 -25.071  1.00  0.00    -0.353 OA
HETATM    5  C6  UNL     1      -0.009  52.699 -24.656  1.00  0.00     0.264 C 
ENDROOT
BRANCH   5   6
HETATM    6  N1  UNL     1      -0.011  52.259 -23.259  1.00  0.00    -0.279 N 
HETATM    7  C7  UNL     1       0.655  53.030 -22.322  1.00  0.00     0.110 A 
HETATM    8  C8  UNL     1       0.653  52.745 -21.014  1.00  0.00     0.022 A 
HETATM    9  C9  UNL     1       1.355  53.550 -19.970  1.00  0.00     0.056 C 
HETATM   10  C10 UNL     1      -0.109  51.558 -20.563  1.00  0.00     0.256 A 
HETATM   11  O5  UNL     1      -0.139  51.212 -19.388  1.00  0.00    -0.267 OA
HETATM   12  N2  UNL     1      -0.776  50.878 -21.539  1.00  0.00    -0.275 N 
HETATM   13  C11 UNL     1      -0.783  51.173 -22.876  1.00  0.00     0.331 A 
HETATM   14  H16 UNL     1      -1.321  50.082 -21.250  1.00  0.00     0.173 HD
HETATM   15  O6  UNL     1      -1.431  50.474 -23.650  1.00  0.00    -0.246 OA
ENDBRANCH   5   6
BRANCH   1  16
HETATM   16  O1  UNL     1       1.606  52.502 -26.528  1.00  0.00    -0.384 OA
HETATM   17  C1  UNL     1       2.732  51.712 -26.900  1.00  0.00     0.202 C 
ENDBRANCH   1  16
BRANCH   2  18
HETATM   18  O2  UNL     1      -0.120  51.090 -27.927  1.00  0.00    -0.390 OA
HETATM   19  H6  UNL     1       0.684  51.630 -28.080  1.00  0.00     0.210 HD
ENDBRANCH   2  18
BRANCH   3  20
HETATM   20  C5  UNL     1      -2.871  52.164 -26.857  1.00  0.00     0.198 C 
BRANCH  20  21
HETATM   21  O3  UNL     1      -2.905  51.510 -28.123  1.00  0.00    -0.398 OA
HETATM   22  H10 UNL     1      -2.195  50.835 -28.126  1.00  0.00     0.209 HD
ENDBRANCH  20  21
ENDBRANCH   3  20
TORSDOF 5
ENDMDL
MODEL 9
REMARK minimizedAffinity -6.80819368
REMARK  5 active torsions:
REMARK  status: ('A' for Active; 'I' for Inactive)
REMARK    1  A    between atoms: O1_2  and  C2_3 
REMARK    2  A    between atoms: C3_4  and  O2_5 
REMARK    3  A    between atoms: C4_6  and  C5_7 
REMARK    4  A    between atoms: C5_7  and  O3_8 
REMARK    5  A    between atoms: C6_10  and  N1_11 
ROOT
HETATM    1  C2  UNL     1       0.053  51.705 -24.962  1.00  0.00     0.201 C 
HETATM    2  C3  UNL     1       0.503  52.187 -26.337  1.00  0.00     0.182 C 
HETATM    3  C4  UNL     1      -0.374  53.413 -26.554  1.00  0.00     0.179 C 
HETATM    4  O4  UNL     1      -1.661  53.055 -26.033  1.00  0.00    -0.353 OA
HETATM    5  C6  UNL     1      -1.416  52.202 -24.897  1.00  0.00     0.264 C 
ENDROOT
BRANCH   5   6
HETATM    6  N1  UNL     1      -2.467  51.183 -24.842  1.00  0.00    -0.279 N 
HETATM    7  C7  UNL     1      -2.601  50.313 -25.910  1.00  0.00     0.110 A 
HETATM    8  C8  UNL     1      -3.488  49.310 -25.922  1.00  0.00     0.022 A 
HETATM    9  C9  UNL     1      -3.663  48.349 -27.051  1.00  0.00     0.056 C 
HETATM   10  C10 UNL     1      -4.345  49.127 -24.729  1.00  0.00     0.256 A 
HETATM   11  O5  UNL     1      -5.199  48.251 -24.670  1.00  0.00    -0.267 OA
HETATM   12  N2  UNL     1      -4.120  49.994 -23.701  1.00  0.00    -0.275 N 
HETATM   13  C11 UNL     1      -3.208  51.015 -23.683  1.00  0.00     0.331 A 
HETATM   14  H16 UNL     1      -4.676  49.870 -22.870  1.00  0.00     0.173 HD
HETATM   15  O6  UNL     1      -3.108  51.724 -22.685  1.00  0.00    -0.246 OA
ENDBRANCH   5   6
BRANCH   1  16
HETATM   16  O1  UNL     1       0.880  52.370 -23.975  1.00  0.00    -0.384 OA
HETATM   17  C1  UNL     1       0.275  52.378 -22.686  1.00  0.00     0.202 C 
ENDBRANCH   1  16
BRANCH   2  18
HETATM   18  O2  UNL     1       1.892  52.501 -26.401  1.00  0.00    -0.390 OA
HETATM   19  H6  UNL     1       2.151  52.728 -25.484  1.00  0.00     0.210 HD
ENDBRANCH   2  18
BRANCH   3  20
HETATM   20  C5  UNL     1      -0.452  53.820 -28.023  1.00  0.00     0.198 C 
BRANCH  20  21
HETATM   21  O3  UNL     1      -1.779  54.180 -28.398  1.00  0.00    -0.398 OA
HETATM   22  H10 UNL     1      -2.138  54.759 -27.694  1.00  0.00     0.209 HD
ENDBRANCH  20  21
ENDBRANCH   3  20
TORSDOF 5
ENDMDL
