MODEL 1
REMARK minimizedAffinity -9.68144417
REMARK  6 active torsions:
REMARK  status: ('A' for Active; 'I' for Inactive)
REMARK    1  A    between atoms: C9_10  and  C10_11 
REMARK    2  A    between atoms: C11_13  and  O3_14 
REMARK    3  A    between atoms: C12_15  and  C13_16 
REMARK    4  A    between atoms: C14_18  and  O5_19 
REMARK    5  A    between atoms: C16_21  and  C17_22 
REMARK    6  A    between atoms: C17_22  and  C18_23 
ROOT
HETATM    1  C1  UNL     1       0.214  54.081 -19.540  1.00  0.00     0.043 C 
HETATM    2  C2  UNL     1       0.070  52.823 -20.375  1.00  0.00    -0.087 C 
HETATM    3  C3  UNL     1      -0.633  51.796 -19.857  1.00  0.00    -0.024 C 
HETATM    4  C4  UNL     1      -0.921  50.439 -20.422  1.00  0.00     0.030 C 
HETATM    5  C5  UNL     1      -2.368  50.331 -20.915  1.00  0.00     0.042 C 
HETATM    6  C6  UNL     1      -2.650  49.217 -21.966  1.00  0.00     0.069 C 
HETATM    7  C7  UNL     1      -1.799  47.963 -21.671  1.00  0.00     0.047 C 
HETATM    8  O1  UNL     1      -4.006  48.819 -21.665  1.00  0.00    -0.338 OA
HETATM    9  C8  UNL     1      -4.906  48.509 -22.641  1.00  0.00     0.095 A 
HETATM   10  C9  UNL     1      -6.223  48.270 -22.194  1.00  0.00     0.070 A 
HETATM   11  C11 UNL     1      -7.248  48.055 -23.114  1.00  0.00     0.097 A 
HETATM   12  C12 UNL     1      -6.974  48.121 -24.479  1.00  0.00     0.069 A 
HETATM   13  C14 UNL     1      -5.651  48.331 -24.924  1.00  0.00     0.091 A 
HETATM   14  C15 UNL     1      -4.582  48.491 -24.016  1.00  0.00     0.015 A 
HETATM   15  C16 UNL     1      -3.096  48.639 -24.381  1.00  0.00     0.032 C 
HETATM   16  C21 UNL     1      -2.541  49.762 -23.441  1.00  0.00     0.034 C 
HETATM   17  C22 UNL     1      -1.147  50.270 -23.797  1.00  0.00     0.006 A 
HETATM   18  C23 UNL     1      -0.676  51.658 -23.364  1.00  0.00    -0.001 A 
HETATM   19  C24 UNL     1       0.709  51.876 -22.807  1.00  0.00     0.010 C 
HETATM   20  C25 UNL     1       0.773  52.957 -21.718  1.00  0.00     0.034 C 
HETATM   21  C26 UNL     1      -0.894  51.373 -24.839  1.00  0.00    -0.039 A 
HETATM   22  C27 UNL     1      -2.014  52.154 -25.488  1.00  0.00     0.015 C 
HETATM   23  C28 UNL     1       0.291  51.180 -25.761  1.00  0.00     0.015 C 
ENDROOT
BRANCH  15  24
HETATM   24  C17 UNL     1      -2.702  48.786 -25.872  1.00  0.00     0.014 C 
BRANCH  24  25
HETATM   25  C18 UNL     1      -3.810  49.392 -26.775  1.00  0.00    -0.022 C 
HETATM   26  C19 UNL     1      -4.133  48.484 -27.968  1.00  0.00     0.009 C 
HETATM   27  C20 UNL     1      -3.364  50.763 -27.292  1.00  0.00     0.009 C 
ENDBRANCH  24  25
ENDBRANCH  15  24
BRANCH  13  28
HETATM   28  O5  UNL     1      -5.402  48.418 -26.267  1.00  0.00    -0.359 OA
HETATM   29  H15 UNL     1      -6.229  48.269 -26.778  1.00  0.00     0.217 HD
ENDBRANCH  13  28
BRANCH  10  30
HETATM   30  C10 UNL     1      -6.569  48.239 -20.749  1.00  0.00     0.275 C 
HETATM   31  O2  UNL     1      -7.277  49.071 -20.196  1.00  0.00    -0.301 OA
ENDBRANCH  10  30
BRANCH  12  32
HETATM   32  C13 UNL     1      -8.089  48.002 -25.444  1.00  0.00     0.275 C 
HETATM   33  O4  UNL     1      -9.087  48.710 -25.348  1.00  0.00    -0.301 OA
ENDBRANCH  12  32
BRANCH  11  34
HETATM   34  O3  UNL     1      -8.514  47.791 -22.660  1.00  0.00    -0.359 OA
HETATM   35  H13 UNL     1      -8.751  46.882 -22.929  1.00  0.00     0.217 HD
ENDBRANCH  11  34
TORSDOF 6
ENDMDL
MODEL 2
REMARK minimizedAffinity -9.23928547
REMARK  6 active torsions:
REMARK  status: ('A' for Active; 'I' for Inactive)
REMARK    1  A    between atoms: C9_10  and  C10_11 
REMARK    2  A    between atoms: C11_13  and  O3_14 
REMARK    3  A    between atoms: C12_15  and  C13_16 
REMARK    4  A    between atoms: C14_18  and  O5_19 
REMARK    5  A    between atoms: C16_21  and  C17_22 
REMARK    6  A    between atoms: C17_22  and  C18_23 
ROOT
HETATM    1  C1  UNL     1       0.266  52.384 -17.864  1.00  0.00     0.043 C 
HETATM    2  C2  UNL     1       0.016  51.528 -19.090  1.00  0.00    -0.087 C 
HETATM    3  C3  UNL     1      -0.462  50.280 -18.906  1.00  0.00    -0.024 C 
HETATM    4  C4  UNL     1      -0.778  49.209 -19.903  1.00  0.00     0.030 C 
HETATM    5  C5  UNL     1      -2.290  49.057 -20.104  1.00  0.00     0.042 C 
HETATM    6  C6  UNL     1      -2.738  48.391 -21.439  1.00  0.00     0.069 C 
HETATM    7  C7  UNL     1      -1.751  47.277 -21.848  1.00  0.00     0.047 C 
HETATM    8  O1  UNL     1      -3.945  47.691 -21.066  1.00  0.00    -0.338 OA
HETATM    9  C8  UNL     1      -5.032  47.628 -21.888  1.00  0.00     0.095 A 
HETATM   10  C9  UNL     1      -6.178  47.024 -21.327  1.00  0.00     0.070 A 
HETATM   11  C11 UNL     1      -7.379  47.005 -22.037  1.00  0.00     0.097 A 
HETATM   12  C12 UNL     1      -7.453  47.625 -23.283  1.00  0.00     0.069 A 
HETATM   13  C14 UNL     1      -6.297  48.201 -23.854  1.00  0.00     0.091 A 
HETATM   14  C15 UNL     1      -5.054  48.182 -23.187  1.00  0.00     0.015 A 
HETATM   15  C16 UNL     1      -3.717  48.700 -23.744  1.00  0.00     0.032 C 
HETATM   16  C21 UNL     1      -3.034  49.461 -22.557  1.00  0.00     0.034 C 
HETATM   17  C22 UNL     1      -1.811  50.288 -22.943  1.00  0.00     0.006 A 
HETATM   18  C23 UNL     1      -1.352  51.468 -22.087  1.00  0.00    -0.001 A 
HETATM   19  C24 UNL     1       0.108  51.685 -21.772  1.00  0.00     0.010 C 
HETATM   20  C25 UNL     1       0.356  52.271 -20.374  1.00  0.00     0.034 C 
HETATM   21  C26 UNL     1      -1.902  51.727 -23.478  1.00  0.00    -0.039 A 
HETATM   22  C27 UNL     1      -3.202  52.499 -23.523  1.00  0.00     0.015 C 
HETATM   23  C28 UNL     1      -0.968  52.095 -24.611  1.00  0.00     0.015 C 
ENDROOT
BRANCH  15  24
HETATM   24  C17 UNL     1      -3.712  49.460 -25.094  1.00  0.00     0.014 C 
BRANCH  24  25
HETATM   25  C18 UNL     1      -2.921  48.754 -26.227  1.00  0.00    -0.022 C 
HETATM   26  C19 UNL     1      -1.841  49.665 -26.822  1.00  0.00     0.009 C 
HETATM   27  C20 UNL     1      -3.884  48.323 -27.338  1.00  0.00     0.009 C 
ENDBRANCH  24  25
ENDBRANCH  15  24
BRANCH  13  28
HETATM   28  O5  UNL     1      -6.392  48.828 -25.068  1.00  0.00    -0.359 OA
HETATM   29  H15 UNL     1      -7.306  48.748 -25.423  1.00  0.00     0.217 HD
ENDBRANCH  13  28
BRANCH  10  30
HETATM   30  C10 UNL     1      -6.156  46.395 -19.981  1.00  0.00     0.275 C 
HETATM   31  O2  UNL     1      -5.140  45.995 -19.428  1.00  0.00    -0.301 OA
ENDBRANCH  10  30
BRANCH  12  32
HETATM   32  C13 UNL     1      -8.758  47.696 -23.976  1.00  0.00     0.275 C 
HETATM   33  O4  UNL     1      -9.122  48.727 -24.534  1.00  0.00    -0.301 OA
ENDBRANCH  12  32
BRANCH  11  34
HETATM   34  O3  UNL     1      -8.472  46.385 -21.490  1.00  0.00    -0.359 OA
HETATM   35  H13 UNL     1      -8.700  45.618 -22.051  1.00  0.00     0.217 HD
ENDBRANCH  11  34
TORSDOF 6
ENDMDL
MODEL 3
REMARK minimizedAffinity -8.76715946
REMARK  6 active torsions:
REMARK  status: ('A' for Active; 'I' for Inactive)
REMARK    1  A    between atoms: C9_10  and  C10_11 
REMARK    2  A    between atoms: C11_13  and  O3_14 
REMARK    3  A    between atoms: C12_15  and  C13_16 
REMARK    4  A    between atoms: C14_18  and  O5_19 
REMARK    5  A    between atoms: C16_21  and  C17_22 
REMARK    6  A    between atoms: C17_22  and  C18_23 
ROOT
HETATM    1  C1  UNL     1       1.545  54.027 -21.281  1.00  0.00     0.043 C 
HETATM    2  C2  UNL     1       0.748  52.847 -21.805  1.00  0.00    -0.087 C 
HETATM    3  C3  UNL     1       0.608  51.772 -21.004  1.00  0.00    -0.024 C 
HETATM    4  C4  UNL     1      -0.089  50.469 -21.248  1.00  0.00     0.030 C 
HETATM    5  C5  UNL     1      -1.421  50.393 -20.493  1.00  0.00     0.042 C 
HETATM    6  C6  UNL     1      -2.462  49.375 -21.045  1.00  0.00     0.069 C 
HETATM    7  C7  UNL     1      -1.756  48.108 -21.572  1.00  0.00     0.047 C 
HETATM    8  O1  UNL     1      -3.157  48.941 -19.856  1.00  0.00    -0.338 OA
HETATM    9  C8  UNL     1      -4.502  48.712 -19.843  1.00  0.00     0.095 A 
HETATM   10  C9  UNL     1      -5.052  48.423 -18.576  1.00  0.00     0.070 A 
HETATM   11  C11 UNL     1      -6.432  48.282 -18.426  1.00  0.00     0.097 A 
HETATM   12  C12 UNL     1      -7.267  48.473 -19.524  1.00  0.00     0.069 A 
HETATM   13  C14 UNL     1      -6.712  48.732 -20.796  1.00  0.00     0.091 A 
HETATM   14  C15 UNL     1      -5.317  48.820 -20.991  1.00  0.00     0.015 A 
HETATM   15  C16 UNL     1      -4.599  49.013 -22.337  1.00  0.00     0.032 C 
HETATM   16  C21 UNL     1      -3.460  50.052 -22.061  1.00  0.00     0.034 C 
HETATM   17  C22 UNL     1      -2.774  50.601 -23.309  1.00  0.00     0.006 A 
HETATM   18  C23 UNL     1      -2.053  51.949 -23.287  1.00  0.00    -0.001 A 
HETATM   19  C24 UNL     1      -0.707  52.127 -23.946  1.00  0.00     0.010 C 
HETATM   20  C25 UNL     1       0.216  53.106 -23.207  1.00  0.00     0.034 C 
HETATM   21  C26 UNL     1      -3.318  51.795 -24.112  1.00  0.00    -0.039 A 
HETATM   22  C27 UNL     1      -4.495  52.621 -23.647  1.00  0.00     0.015 C 
HETATM   23  C28 UNL     1      -3.237  51.696 -25.620  1.00  0.00     0.015 C 
ENDROOT
BRANCH  15  24
HETATM   24  C17 UNL     1      -5.445  49.296 -23.604  1.00  0.00     0.014 C 
BRANCH  24  25
HETATM   25  C18 UNL     1      -5.454  48.143 -24.643  1.00  0.00    -0.022 C 
HETATM   26  C19 UNL     1      -4.446  48.386 -25.773  1.00  0.00     0.009 C 
HETATM   27  C20 UNL     1      -6.856  47.997 -25.242  1.00  0.00     0.009 C 
ENDBRANCH  24  25
ENDBRANCH  15  24
BRANCH  13  28
HETATM   28  O5  UNL     1      -7.547  48.942 -21.861  1.00  0.00    -0.359 OA
HETATM   29  H15 UNL     1      -8.486  48.832 -21.586  1.00  0.00     0.217 HD
ENDBRANCH  13  28
BRANCH  10  30
HETATM   30  C10 UNL     1      -4.201  48.260 -17.368  1.00  0.00     0.275 C 
HETATM   31  O2  UNL     1      -3.542  47.258 -17.124  1.00  0.00    -0.301 OA
ENDBRANCH  10  30
BRANCH  12  32
HETATM   32  C13 UNL     1      -8.733  48.431 -19.330  1.00  0.00     0.275 C 
HETATM   33  O4  UNL     1      -9.267  49.046 -18.411  1.00  0.00    -0.301 OA
ENDBRANCH  12  32
BRANCH  11  34
HETATM   34  O3  UNL     1      -6.944  47.969 -17.194  1.00  0.00    -0.359 OA
HETATM   35  H13 UNL     1      -7.358  47.085 -17.252  1.00  0.00     0.217 HD
ENDBRANCH  11  34
TORSDOF 6
ENDMDL
MODEL 4
REMARK minimizedAffinity -8.7524271
REMARK  6 active torsions:
REMARK  status: ('A' for Active; 'I' for Inactive)
REMARK    1  A    between atoms: C9_10  and  C10_11 
REMARK    2  A    between atoms: C11_13  and  O3_14 
REMARK    3  A    between atoms: C12_15  and  C13_16 
REMARK    4  A    between atoms: C14_18  and  O5_19 
REMARK    5  A    between atoms: C16_21  and  C17_22 
REMARK    6  A    between atoms: C17_22  and  C18_23 
ROOT
HETATM    1  C1  UNL     1      -4.546  44.535 -19.812  1.00  0.00     0.043 C 
HETATM    2  C2  UNL     1      -4.836  45.932 -20.326  1.00  0.00    -0.087 C 
HETATM    3  C3  UNL     1      -4.409  46.979 -19.593  1.00  0.00    -0.024 C 
HETATM    4  C4  UNL     1      -4.565  48.451 -19.825  1.00  0.00     0.030 C 
HETATM    5  C5  UNL     1      -3.256  49.086 -20.305  1.00  0.00     0.042 C 
HETATM    6  C6  UNL     1      -3.392  50.438 -21.066  1.00  0.00     0.069 C 
HETATM    7  C7  UNL     1      -4.533  51.288 -20.465  1.00  0.00     0.047 C 
HETATM    8  O1  UNL     1      -2.183  51.140 -20.704  1.00  0.00    -0.338 OA
HETATM    9  C8  UNL     1      -1.495  51.910 -21.596  1.00  0.00     0.095 A 
HETATM   10  C9  UNL     1      -0.265  52.421 -21.130  1.00  0.00     0.070 A 
HETATM   11  C11 UNL     1       0.573  53.127 -21.992  1.00  0.00     0.097 A 
HETATM   12  C12 UNL     1       0.211  53.288 -23.328  1.00  0.00     0.069 A 
HETATM   13  C14 UNL     1      -1.034  52.802 -23.784  1.00  0.00     0.091 A 
HETATM   14  C15 UNL     1      -1.930  52.137 -22.921  1.00  0.00     0.015 A 
HETATM   15  C16 UNL     1      -3.341  51.642 -23.283  1.00  0.00     0.032 C 
HETATM   16  C21 UNL     1      -3.472  50.226 -22.626  1.00  0.00     0.034 C 
HETATM   17  C22 UNL     1      -4.692  49.423 -23.066  1.00  0.00     0.006 A 
HETATM   18  C23 UNL     1      -4.713  47.898 -22.967  1.00  0.00    -0.001 A 
HETATM   19  C24 UNL     1      -5.927  47.164 -22.451  1.00  0.00     0.010 C 
HETATM   20  C25 UNL     1      -5.588  45.899 -21.649  1.00  0.00     0.034 C 
HETATM   21  C26 UNL     1      -4.715  48.555 -24.336  1.00  0.00    -0.039 A 
HETATM   22  C27 UNL     1      -3.481  48.302 -25.173  1.00  0.00     0.015 C 
HETATM   23  C28 UNL     1      -5.982  48.589 -25.163  1.00  0.00     0.015 C 
ENDROOT
BRANCH  15  24
HETATM   24  C17 UNL     1      -3.807  51.721 -24.758  1.00  0.00     0.014 C 
BRANCH  24  25
HETATM   25  C18 UNL     1      -3.077  50.742 -25.717  1.00  0.00    -0.022 C 
HETATM   26  C19 UNL     1      -1.612  50.535 -25.314  1.00  0.00     0.009 C 
HETATM   27  C20 UNL     1      -3.135  51.281 -27.149  1.00  0.00     0.009 C 
ENDBRANCH  24  25
ENDBRANCH  15  24
BRANCH  13  28
HETATM   28  O5  UNL     1      -1.365  52.946 -25.105  1.00  0.00    -0.359 OA
HETATM   29  H15 UNL     1      -0.661  53.441 -25.582  1.00  0.00     0.217 HD
ENDBRANCH  13  28
BRANCH  10  30
HETATM   30  C10 UNL     1       0.183  52.231 -19.726  1.00  0.00     0.275 C 
HETATM   31  O2  UNL     1       0.128  53.100 -18.865  1.00  0.00    -0.301 OA
ENDBRANCH  10  30
BRANCH  12  32
HETATM   32  C13 UNL     1       1.157  53.941 -24.258  1.00  0.00     0.275 C 
HETATM   33  O4  UNL     1       0.870  54.997 -24.814  1.00  0.00    -0.301 OA
ENDBRANCH  12  32
BRANCH  11  34
HETATM   34  O3  UNL     1       1.748  53.644 -21.512  1.00  0.00    -0.359 OA
HETATM   35  H13 UNL     1       1.695  54.619 -21.561  1.00  0.00     0.217 HD
ENDBRANCH  11  34
TORSDOF 6
ENDMDL
MODEL 5
REMARK minimizedAffinity -8.64248276
REMARK  6 active torsions:
REMARK  status: ('A' for Active; 'I' for Inactive)
REMARK    1  A    between atoms: C9_10  and  C10_11 
REMARK    2  A    between atoms: C11_13  and  O3_14 
REMARK    3  A    between atoms: C12_15  and  C13_16 
REMARK    4  A    between atoms: C14_18  and  O5_19 
REMARK    5  A    between atoms: C16_21  and  C17_22 
REMARK    6  A    between atoms: C17_22  and  C18_23 
ROOT
HETATM    1  C1  UNL     1       0.790  51.480 -27.676  1.00  0.00     0.043 C 
HETATM    2  C2  UNL     1      -0.024  51.930 -26.479  1.00  0.00    -0.087 C 
HETATM    3  C3  UNL     1      -1.341  51.643 -26.464  1.00  0.00    -0.024 C 
HETATM    4  C4  UNL     1      -2.391  51.973 -25.448  1.00  0.00     0.030 C 
HETATM    5  C5  UNL     1      -2.777  50.743 -24.619  1.00  0.00     0.042 C 
HETATM    6  C6  UNL     1      -3.431  51.031 -23.235  1.00  0.00     0.069 C 
HETATM    7  C7  UNL     1      -4.342  52.274 -23.312  1.00  0.00     0.047 C 
HETATM    8  O1  UNL     1      -4.339  49.921 -23.065  1.00  0.00    -0.338 OA
HETATM    9  C8  UNL     1      -4.532  49.318 -21.857  1.00  0.00     0.095 A 
HETATM   10  C9  UNL     1      -5.347  48.166 -21.881  1.00  0.00     0.070 A 
HETATM   11  C11 UNL     1      -5.521  47.406 -20.724  1.00  0.00     0.097 A 
HETATM   12  C12 UNL     1      -4.853  47.767 -19.556  1.00  0.00     0.069 A 
HETATM   13  C14 UNL     1      -4.063  48.937 -19.527  1.00  0.00     0.091 A 
HETATM   14  C15 UNL     1      -3.916  49.758 -20.664  1.00  0.00     0.015 A 
HETATM   15  C16 UNL     1      -3.155  51.093 -20.727  1.00  0.00     0.032 C 
HETATM   16  C21 UNL     1      -2.361  51.061 -22.077  1.00  0.00     0.034 C 
HETATM   17  C22 UNL     1      -1.324  52.169 -22.240  1.00  0.00     0.006 A 
HETATM   18  C23 UNL     1      -0.136  52.007 -23.187  1.00  0.00    -0.001 A 
HETATM   19  C24 UNL     1       0.299  53.130 -24.096  1.00  0.00     0.010 C 
HETATM   20  C25 UNL     1       0.837  52.653 -25.453  1.00  0.00     0.034 C 
HETATM   21  C26 UNL     1       0.109  52.068 -21.690  1.00  0.00    -0.039 A 
HETATM   22  C27 UNL     1       0.658  50.801 -21.075  1.00  0.00     0.015 C 
HETATM   23  C28 UNL     1       0.688  53.318 -21.063  1.00  0.00     0.015 C 
ENDROOT
BRANCH  15  24
HETATM   24  C17 UNL     1      -2.329  51.544 -19.497  1.00  0.00     0.014 C 
BRANCH  24  25
HETATM   25  C18 UNL     1      -0.983  50.791 -19.314  1.00  0.00    -0.022 C 
HETATM   26  C19 UNL     1      -1.188  49.276 -19.201  1.00  0.00     0.009 C 
HETATM   27  C20 UNL     1      -0.274  51.299 -18.055  1.00  0.00     0.009 C 
ENDBRANCH  24  25
ENDBRANCH  15  24
BRANCH  13  28
HETATM   28  O5  UNL     1      -3.392  49.263 -18.378  1.00  0.00    -0.359 OA
HETATM   29  H15 UNL     1      -3.601  48.618 -17.665  1.00  0.00     0.217 HD
ENDBRANCH  13  28
BRANCH  10  30
HETATM   30  C10 UNL     1      -6.039  47.719 -23.117  1.00  0.00     0.275 C 
HETATM   31  O2  UNL     1      -5.740  48.092 -24.243  1.00  0.00    -0.301 OA
ENDBRANCH  10  30
BRANCH  12  32
HETATM   32  C13 UNL     1      -4.957  46.892 -18.367  1.00  0.00     0.275 C 
HETATM   33  O4  UNL     1      -5.276  47.349 -17.272  1.00  0.00    -0.301 OA
ENDBRANCH  12  32
BRANCH  11  34
HETATM   34  O3  UNL     1      -6.342  46.310 -20.758  1.00  0.00    -0.359 OA
HETATM   35  H13 UNL     1      -7.103  46.480 -20.168  1.00  0.00     0.217 HD
ENDBRANCH  11  34
TORSDOF 6
ENDMDL
MODEL 6
REMARK minimizedAffinity -8.56219673
REMARK  6 active torsions:
REMARK  status: ('A' for Active; 'I' for Inactive)
REMARK    1  A    between atoms: C9_10  and  C10_11 
REMARK    2  A    between atoms: C11_13  and  O3_14 
REMARK    3  A    between atoms: C12_15  and  C13_16 
REMARK    4  A    between atoms: C14_18  and  O5_19 
REMARK    5  A    between atoms: C16_21  and  C17_22 
REMARK    6  A    between atoms: C17_22  and  C18_23 
ROOT
HETATM    1  C1  UNL     1       1.370  51.524 -27.308  1.00  0.00     0.043 C 
HETATM    2  C2  UNL     1       0.354  51.939 -26.262  1.00  0.00    -0.087 C 
HETATM    3  C3  UNL     1      -0.952  51.742 -26.534  1.00  0.00    -0.024 C 
HETATM    4  C4  UNL     1      -2.168  52.068 -25.722  1.00  0.00     0.030 C 
HETATM    5  C5  UNL     1      -2.778  50.810 -25.094  1.00  0.00     0.042 C 
HETATM    6  C6  UNL     1      -3.684  51.040 -23.848  1.00  0.00     0.069 C 
HETATM    7  C7  UNL     1      -4.495  52.345 -23.999  1.00  0.00     0.047 C 
HETATM    8  O1  UNL     1      -4.664  49.985 -23.957  1.00  0.00    -0.338 OA
HETATM    9  C8  UNL     1      -5.130  49.311 -22.867  1.00  0.00     0.095 A 
HETATM   10  C9  UNL     1      -5.982  48.222 -23.150  1.00  0.00     0.070 A 
HETATM   11  C11 UNL     1      -6.427  47.394 -22.119  1.00  0.00     0.097 A 
HETATM   12  C12 UNL     1      -5.992  47.621 -20.815  1.00  0.00     0.069 A 
HETATM   13  C14 UNL     1      -5.165  48.730 -20.531  1.00  0.00     0.091 A 
HETATM   14  C15 UNL     1      -4.748  49.620 -21.543  1.00  0.00     0.015 A 
HETATM   15  C16 UNL     1      -3.921  50.901 -21.340  1.00  0.00     0.032 C 
HETATM   16  C21 UNL     1      -2.872  50.914 -22.503  1.00  0.00     0.034 C 
HETATM   17  C22 UNL     1      -1.768  51.957 -22.361  1.00  0.00     0.006 A 
HETATM   18  C23 UNL     1      -0.421  51.784 -23.064  1.00  0.00    -0.001 A 
HETATM   19  C24 UNL     1       0.247  52.938 -23.769  1.00  0.00     0.010 C 
HETATM   20  C25 UNL     1       1.024  52.525 -25.028  1.00  0.00     0.034 C 
HETATM   21  C26 UNL     1      -0.484  51.719 -21.548  1.00  0.00    -0.039 A 
HETATM   22  C27 UNL     1      -0.137  50.377 -20.946  1.00  0.00     0.015 C 
HETATM   23  C28 UNL     1       0.020  52.878 -20.715  1.00  0.00     0.015 C 
ENDROOT
BRANCH  15  24
HETATM   24  C17 UNL     1      -3.340  51.204 -19.936  1.00  0.00     0.014 C 
BRANCH  24  25
HETATM   25  C18 UNL     1      -3.060  49.946 -19.070  1.00  0.00    -0.022 C 
HETATM   26  C19 UNL     1      -2.692  50.316 -17.629  1.00  0.00     0.009 C 
HETATM   27  C20 UNL     1      -1.917  49.136 -19.690  1.00  0.00     0.009 C 
ENDBRANCH  24  25
ENDBRANCH  15  24
BRANCH  13  28
HETATM   28  O5  UNL     1      -4.726  48.925 -19.249  1.00  0.00    -0.359 OA
HETATM   29  H15 UNL     1      -5.108  48.245 -18.649  1.00  0.00     0.217 HD
ENDBRANCH  13  28
BRANCH  10  30
HETATM   30  C10 UNL     1      -6.431  47.913 -24.532  1.00  0.00     0.275 C 
HETATM   31  O2  UNL     1      -5.698  47.939 -25.512  1.00  0.00    -0.301 OA
ENDBRANCH  10  30
BRANCH  12  32
HETATM   32  C13 UNL     1      -6.382  46.672 -19.750  1.00  0.00     0.275 C 
HETATM   33  O4  UNL     1      -6.213  45.464 -19.887  1.00  0.00    -0.301 OA
ENDBRANCH  12  32
BRANCH  11  34
HETATM   34  O3  UNL     1      -7.280  46.361 -22.409  1.00  0.00    -0.359 OA
HETATM   35  H13 UNL     1      -8.135  46.539 -21.970  1.00  0.00     0.217 HD
ENDBRANCH  11  34
TORSDOF 6
ENDMDL
MODEL 7
REMARK minimizedAffinity -8.25717831
REMARK  6 active torsions:
REMARK  status: ('A' for Active; 'I' for Inactive)
REMARK    1  A    between atoms: C9_10  and  C10_11 
REMARK    2  A    between atoms: C11_13  and  O3_14 
REMARK    3  A    between atoms: C12_15  and  C13_16 
REMARK    4  A    between atoms: C14_18  and  O5_19 
REMARK    5  A    between atoms: C16_21  and  C17_22 
REMARK    6  A    between atoms: C17_22  and  C18_23 
ROOT
HETATM    1  C1  UNL     1      -3.809  48.092 -27.770  1.00  0.00     0.043 C 
HETATM    2  C2  UNL     1      -3.826  49.117 -26.653  1.00  0.00    -0.087 C 
HETATM    3  C3  UNL     1      -4.513  48.821 -25.531  1.00  0.00    -0.024 C 
HETATM    4  C4  UNL     1      -4.731  49.629 -24.289  1.00  0.00     0.030 C 
HETATM    5  C5  UNL     1      -3.879  49.111 -23.125  1.00  0.00     0.042 C 
HETATM    6  C6  UNL     1      -3.603  50.126 -21.976  1.00  0.00     0.069 C 
HETATM    7  C7  UNL     1      -4.834  51.027 -21.741  1.00  0.00     0.047 C 
HETATM    8  O1  UNL     1      -3.536  49.283 -20.805  1.00  0.00    -0.338 OA
HETATM    9  C8  UNL     1      -2.640  49.505 -19.801  1.00  0.00     0.095 A 
HETATM   10  C9  UNL     1      -2.610  48.519 -18.791  1.00  0.00     0.070 A 
HETATM   11  C11 UNL     1      -1.656  48.585 -17.775  1.00  0.00     0.097 A 
HETATM   12  C12 UNL     1      -0.707  49.605 -17.787  1.00  0.00     0.069 A 
HETATM   13  C14 UNL     1      -0.759  50.607 -18.780  1.00  0.00     0.091 A 
HETATM   14  C15 UNL     1      -1.749  50.600 -19.786  1.00  0.00     0.015 A 
HETATM   15  C16 UNL     1      -1.955  51.678 -20.863  1.00  0.00     0.032 C 
HETATM   16  C21 UNL     1      -2.245  50.897 -22.190  1.00  0.00     0.034 C 
HETATM   17  C22 UNL     1      -2.225  51.749 -23.455  1.00  0.00     0.006 A 
HETATM   18  C23 UNL     1      -1.960  51.125 -24.825  1.00  0.00    -0.001 A 
HETATM   19  C24 UNL     1      -2.777  51.513 -26.033  1.00  0.00     0.010 C 
HETATM   20  C25 UNL     1      -3.017  50.355 -27.013  1.00  0.00     0.034 C 
HETATM   21  C26 UNL     1      -0.937  52.075 -24.230  1.00  0.00    -0.039 A 
HETATM   22  C27 UNL     1       0.398  51.454 -23.890  1.00  0.00     0.015 C 
HETATM   23  C28 UNL     1      -0.803  53.484 -24.768  1.00  0.00     0.015 C 
ENDROOT
BRANCH  15  24
HETATM   24  C17 UNL     1      -0.912  52.817 -20.993  1.00  0.00     0.014 C 
BRANCH  24  25
HETATM   25  C18 UNL     1       0.514  52.442 -20.509  1.00  0.00    -0.022 C 
HETATM   26  C19 UNL     1       1.318  53.679 -20.092  1.00  0.00     0.009 C 
HETATM   27  C20 UNL     1       1.263  51.707 -21.626  1.00  0.00     0.009 C 
ENDBRANCH  24  25
ENDBRANCH  15  24
BRANCH  13  28
HETATM   28  O5  UNL     1       0.196  51.588 -18.792  1.00  0.00    -0.359 OA
HETATM   29  H15 UNL     1       0.806  51.480 -18.028  1.00  0.00     0.217 HD
ENDBRANCH  13  28
BRANCH  10  30
HETATM   30  C10 UNL     1      -3.572  47.388 -18.768  1.00  0.00     0.275 C 
HETATM   31  O2  UNL     1      -3.245  46.209 -18.809  1.00  0.00    -0.301 OA
ENDBRANCH  10  30
BRANCH  12  32
HETATM   32  C13 UNL     1       0.366  49.602 -16.768  1.00  0.00     0.275 C 
HETATM   33  O4  UNL     1       0.632  50.614 -16.126  1.00  0.00    -0.301 OA
ENDBRANCH  12  32
BRANCH  11  34
HETATM   34  O3  UNL     1      -1.663  47.638 -16.786  1.00  0.00    -0.359 OA
HETATM   35  H13 UNL     1      -1.875  48.081 -15.940  1.00  0.00     0.217 HD
ENDBRANCH  11  34
TORSDOF 6
ENDMDL
MODEL 8
REMARK minimizedAffinity -8.16248131
REMARK  6 active torsions:
REMARK  status: ('A' for Active; 'I' for Inactive)
REMARK    1  A    between atoms: C9_10  and  C10_11 
REMARK    2  A    between atoms: C11_13  and  O3_14 
REMARK    3  A    between atoms: C12_15  and  C13_16 
REMARK    4  A    between atoms: C14_18  and  O5_19 
REMARK    5  A    between atoms: C16_21  and  C17_22 
REMARK    6  A    between atoms: C17_22  and  C18_23 
ROOT
HETATM    1  C1  UNL     1       0.308  49.667 -16.082  1.00  0.00     0.043 C 
HETATM    2  C2  UNL     1      -0.706  49.795 -17.202  1.00  0.00    -0.087 C 
HETATM    3  C3  UNL     1      -0.834  50.994 -17.805  1.00  0.00    -0.024 C 
HETATM    4  C4  UNL     1      -1.752  51.429 -18.906  1.00  0.00     0.030 C 
HETATM    5  C5  UNL     1      -1.007  51.567 -20.238  1.00  0.00     0.042 C 
HETATM    6  C6  UNL     1      -1.885  51.493 -21.522  1.00  0.00     0.069 C 
HETATM    7  C7  UNL     1      -3.253  52.168 -21.285  1.00  0.00     0.047 C 
HETATM    8  O1  UNL     1      -1.197  52.371 -22.440  1.00  0.00    -0.338 OA
HETATM    9  C8  UNL     1      -1.081  52.087 -23.769  1.00  0.00     0.095 A 
HETATM   10  C9  UNL     1      -0.268  52.974 -24.506  1.00  0.00     0.070 A 
HETATM   11  C11 UNL     1       0.013  52.716 -25.848  1.00  0.00     0.097 A 
HETATM   12  C12 UNL     1      -0.478  51.557 -26.445  1.00  0.00     0.069 A 
HETATM   13  C14 UNL     1      -1.316  50.687 -25.713  1.00  0.00     0.091 A 
HETATM   14  C15 UNL     1      -1.667  50.952 -24.372  1.00  0.00     0.015 A 
HETATM   15  C16 UNL     1      -2.634  50.127 -23.507  1.00  0.00     0.032 C 
HETATM   16  C21 UNL     1      -1.957  50.027 -22.098  1.00  0.00     0.034 C 
HETATM   17  C22 UNL     1      -2.608  49.033 -21.141  1.00  0.00     0.006 A 
HETATM   18  C23 UNL     1      -1.823  48.422 -19.980  1.00  0.00    -0.001 A 
HETATM   19  C24 UNL     1      -2.432  48.290 -18.607  1.00  0.00     0.010 C 
HETATM   20  C25 UNL     1      -1.425  48.480 -17.463  1.00  0.00     0.034 C 
HETATM   21  C26 UNL     1      -2.268  47.532 -21.127  1.00  0.00    -0.039 A 
HETATM   22  C27 UNL     1      -1.150  46.943 -21.956  1.00  0.00     0.015 C 
HETATM   23  C28 UNL     1      -3.424  46.573 -20.942  1.00  0.00     0.015 C 
ENDROOT
BRANCH  15  24
HETATM   24  C17 UNL     1      -3.180  48.788 -24.063  1.00  0.00     0.014 C 
BRANCH  24  25
HETATM   25  C18 UNL     1      -4.715  48.764 -24.291  1.00  0.00    -0.022 C 
HETATM   26  C19 UNL     1      -5.070  48.436 -25.746  1.00  0.00     0.009 C 
HETATM   27  C20 UNL     1      -5.314  50.124 -23.921  1.00  0.00     0.009 C 
ENDBRANCH  24  25
ENDBRANCH  15  24
BRANCH  13  28
HETATM   28  O5  UNL     1      -1.770  49.539 -26.306  1.00  0.00    -0.359 OA
HETATM   29  H15 UNL     1      -1.466  49.494 -27.240  1.00  0.00     0.217 HD
ENDBRANCH  13  28
BRANCH  10  30
HETATM   30  C10 UNL     1       0.317  54.196 -23.896  1.00  0.00     0.275 C 
HETATM   31  O2  UNL     1       1.213  54.855 -24.407  1.00  0.00    -0.301 OA
ENDBRANCH  10  30
BRANCH  12  32
HETATM   32  C13 UNL     1      -0.084  51.239 -27.835  1.00  0.00     0.275 C 
HETATM   33  O4  UNL     1       1.055  51.462 -28.235  1.00  0.00    -0.301 OA
ENDBRANCH  12  32
BRANCH  11  34
HETATM   34  O3  UNL     1       0.777  53.606 -26.557  1.00  0.00    -0.359 OA
HETATM   35  H13 UNL     1       0.219  53.995 -27.259  1.00  0.00     0.217 HD
ENDBRANCH  11  34
TORSDOF 6
ENDMDL
MODEL 9
REMARK minimizedAffinity -8.03206158
REMARK  6 active torsions:
REMARK  status: ('A' for Active; 'I' for Inactive)
REMARK    1  A    between atoms: C9_10  and  C10_11 
REMARK    2  A    between atoms: C11_13  and  O3_14 
REMARK    3  A    between atoms: C12_15  and  C13_16 
REMARK    4  A    between atoms: C14_18  and  O5_19 
REMARK    5  A    between atoms: C16_21  and  C17_22 
REMARK    6  A    between atoms: C17_22  and  C18_23 
ROOT
HETATM    1  C1  UNL     1      -3.486  43.160 -18.612  1.00  0.00     0.043 C 
HETATM    2  C2  UNL     1      -3.873  44.613 -18.812  1.00  0.00    -0.087 C 
HETATM    3  C3  UNL     1      -3.582  45.487 -17.828  1.00  0.00    -0.024 C 
HETATM    4  C4  UNL     1      -3.857  46.956 -17.728  1.00  0.00     0.030 C 
HETATM    5  C5  UNL     1      -2.587  47.783 -17.951  1.00  0.00     0.042 C 
HETATM    6  C6  UNL     1      -2.803  49.262 -18.390  1.00  0.00     0.069 C 
HETATM    7  C7  UNL     1      -4.046  49.858 -17.696  1.00  0.00     0.047 C 
HETATM    8  O1  UNL     1      -1.683  49.948 -17.789  1.00  0.00    -0.338 OA
HETATM    9  C8  UNL     1      -1.021  50.955 -18.428  1.00  0.00     0.095 A 
HETATM   10  C9  UNL     1       0.131  51.433 -17.768  1.00  0.00     0.070 A 
HETATM   11  C11 UNL     1       0.948  52.383 -18.381  1.00  0.00     0.097 A 
HETATM   12  C12 UNL     1       0.645  52.825 -19.667  1.00  0.00     0.069 A 
HETATM   13  C14 UNL     1      -0.524  52.368 -20.313  1.00  0.00     0.091 A 
HETATM   14  C15 UNL     1      -1.402  51.453 -19.694  1.00  0.00     0.015 A 
HETATM   15  C16 UNL     1      -2.741  50.953 -20.262  1.00  0.00     0.032 C 
HETATM   16  C21 UNL     1      -2.779  49.417 -19.959  1.00  0.00     0.034 C 
HETATM   17  C22 UNL     1      -3.896  48.650 -20.660  1.00  0.00     0.006 A 
HETATM   18  C23 UNL     1      -3.786  47.147 -20.915  1.00  0.00    -0.001 A 
HETATM   19  C24 UNL     1      -4.954  46.224 -20.672  1.00  0.00     0.010 C 
HETATM   20  C25 UNL     1      -4.546  44.835 -20.159  1.00  0.00     0.034 C 
HETATM   21  C26 UNL     1      -3.772  48.104 -22.093  1.00  0.00    -0.039 A 
HETATM   22  C27 UNL     1      -2.478  48.149 -22.872  1.00  0.00     0.015 C 
HETATM   23  C28 UNL     1      -4.991  48.237 -22.981  1.00  0.00     0.015 C 
ENDROOT
BRANCH  15  24
HETATM   24  C17 UNL     1      -3.132  51.340 -21.710  1.00  0.00     0.014 C 
BRANCH  24  25
HETATM   25  C18 UNL     1      -1.928  51.632 -22.646  1.00  0.00    -0.022 C 
HETATM   26  C19 UNL     1      -2.340  52.472 -23.860  1.00  0.00     0.009 C 
HETATM   27  C20 UNL     1      -1.318  50.313 -23.130  1.00  0.00     0.009 C 
ENDBRANCH  24  25
ENDBRANCH  15  24
BRANCH  13  28
HETATM   28  O5  UNL     1      -0.795  52.792 -21.587  1.00  0.00    -0.359 OA
HETATM   29  H15 UNL     1      -0.114  53.437 -21.884  1.00  0.00     0.217 HD
ENDBRANCH  13  28
BRANCH  10  30
HETATM   30  C10 UNL     1       0.519  50.953 -16.416  1.00  0.00     0.275 C 
HETATM   31  O2  UNL     1       0.035  51.376 -15.374  1.00  0.00    -0.301 OA
ENDBRANCH  10  30
BRANCH  12  32
HETATM   32  C13 UNL     1       1.578  53.747 -20.351  1.00  0.00     0.275 C 
HETATM   33  O4  UNL     1       1.164  54.605 -21.126  1.00  0.00    -0.301 OA
ENDBRANCH  12  32
BRANCH  11  34
HETATM   34  O3  UNL     1       2.044  52.859 -17.711  1.00  0.00    -0.359 OA
HETATM   35  H13 UNL     1       1.906  53.812 -17.539  1.00  0.00     0.217 HD
ENDBRANCH  11  34
TORSDOF 6
ENDMDL
