MODEL 1
REMARK minimizedAffinity -9.64560699
REMARK  6 active torsions:
REMARK  status: ('A' for Active; 'I' for Inactive)
REMARK    1  A    between atoms: C2_2  and  C30_31 
REMARK    2  A    between atoms: C3_3  and  C4_4 
REMARK    3  A    between atoms: C4_4  and  C5_5 
REMARK    4  A    between atoms: C5_5  and  C6_6 
REMARK    5  A    between atoms: C6_6  and  C8_8 
REMARK    6  A    between atoms: C30_31  and  O3_33 
ROOT
HETATM    1  C8  UNL     1      -2.506  48.640 -19.293  1.00  0.00    -0.002 C 
HETATM    2  C9  UNL     1      -3.480  47.708 -20.058  1.00  0.00     0.007 C 
HETATM    3  C10 UNL     1      -3.238  47.947 -21.560  1.00  0.00     0.015 C 
HETATM    4  C11 UNL     1      -2.790  49.421 -21.633  1.00  0.00    -0.013 C 
HETATM    5  C12 UNL     1      -4.087  50.276 -21.523  1.00  0.00     0.021 C 
HETATM    6  C13 UNL     1      -2.101  49.922 -22.900  1.00  0.00    -0.070 C 
HETATM    7  C14 UNL     1      -2.403  49.440 -24.120  1.00  0.00    -0.022 C 
HETATM    8  C15 UNL     1      -1.887  50.008 -25.411  1.00  0.00     0.034 C 
HETATM    9  C16 UNL     1      -0.770  51.062 -25.240  1.00  0.00     0.013 C 
HETATM   10  C17 UNL     1      -0.309  51.778 -26.567  1.00  0.00     0.018 C 
HETATM   11  C18 UNL     1       1.119  51.311 -26.930  1.00  0.00     0.023 C 
HETATM   12  C19 UNL     1      -1.211  51.464 -27.780  1.00  0.00     0.023 C 
HETATM   13  C20 UNL     1      -0.229  53.306 -26.423  1.00  0.00     0.135 C 
HETATM   14  O1  UNL     1      -0.480  54.060 -27.367  1.00  0.00    -0.297 OA
HETATM   15  C21 UNL     1       0.271  53.902 -25.129  1.00  0.00     0.080 C 
HETATM   16  C22 UNL     1       0.114  52.998 -23.919  1.00  0.00     0.017 C 
HETATM   17  C23 UNL     1      -1.068  52.009 -24.023  1.00  0.00    -0.031 C 
HETATM   18  C24 UNL     1      -2.397  52.785 -24.188  1.00  0.00     0.016 C 
HETATM   19  C25 UNL     1      -1.115  51.088 -22.737  1.00  0.00     0.024 C 
HETATM   20  C26 UNL     1      -1.268  51.844 -21.392  1.00  0.00     0.010 C 
HETATM   21  C27 UNL     1      -1.443  50.966 -20.124  1.00  0.00     0.011 C 
HETATM   22  C28 UNL     1      -1.812  49.500 -20.415  1.00  0.00    -0.029 C 
HETATM   23  C29 UNL     1      -0.455  48.737 -20.670  1.00  0.00     0.016 C 
ENDROOT
BRANCH   1  24
HETATM   24  C6  UNL     1      -3.054  49.316 -18.002  1.00  0.00    -0.014 C 
HETATM   25  C7  UNL     1      -3.483  48.367 -16.878  1.00  0.00     0.010 C 
BRANCH  24  26
HETATM   26  C5  UNL     1      -2.031  50.318 -17.396  1.00  0.00     0.008 C 
BRANCH  26  27
HETATM   27  C4  UNL     1      -0.777  49.650 -16.819  1.00  0.00     0.028 C 
BRANCH  27  28
HETATM   28  C3  UNL     1       0.442  50.506 -17.030  1.00  0.00    -0.013 C 
HETATM   29  C2  UNL     1       1.009  51.364 -16.157  1.00  0.00     0.008 C 
HETATM   30  C1  UNL     1       2.254  52.131 -16.491  1.00  0.00     0.055 C 
BRANCH  29  31
HETATM   31  C30 UNL     1       0.397  51.638 -14.837  1.00  0.00     0.171 C 
HETATM   32  O2  UNL     1      -0.358  50.919 -14.211  1.00  0.00    -0.646 OA
BRANCH  31  33
HETATM   33  O3  UNL     1       0.771  52.839 -14.362  1.00  0.00    -0.773 OA
HETATM   34  H46 UNL     1       0.318  52.893 -13.496  1.00  0.00     0.167 HD
ENDBRANCH  31  33
ENDBRANCH  29  31
ENDBRANCH  27  28
ENDBRANCH  26  27
ENDBRANCH  24  26
ENDBRANCH   1  24
TORSDOF 6
ENDMDL
MODEL 2
REMARK minimizedAffinity -9.6156435
REMARK  6 active torsions:
REMARK  status: ('A' for Active; 'I' for Inactive)
REMARK    1  A    between atoms: C2_2  and  C30_31 
REMARK    2  A    between atoms: C3_3  and  C4_4 
REMARK    3  A    between atoms: C4_4  and  C5_5 
REMARK    4  A    between atoms: C5_5  and  C6_6 
REMARK    5  A    between atoms: C6_6  and  C8_8 
REMARK    6  A    between atoms: C30_31  and  O3_33 
ROOT
HETATM    1  C8  UNL     1      -1.499  50.486 -22.806  1.00  0.00    -0.002 C 
HETATM    2  C9  UNL     1      -1.766  51.503 -21.667  1.00  0.00     0.007 C 
HETATM    3  C10 UNL     1      -3.069  51.063 -20.974  1.00  0.00     0.015 C 
HETATM    4  C11 UNL     1      -3.877  50.386 -22.099  1.00  0.00    -0.013 C 
HETATM    5  C12 UNL     1      -4.502  51.539 -22.940  1.00  0.00     0.021 C 
HETATM    6  C13 UNL     1      -5.058  49.493 -21.727  1.00  0.00    -0.070 C 
HETATM    7  C14 UNL     1      -5.826  49.730 -20.647  1.00  0.00    -0.022 C 
HETATM    8  C15 UNL     1      -7.094  48.993 -20.326  1.00  0.00     0.034 C 
HETATM    9  C16 UNL     1      -7.350  47.752 -21.211  1.00  0.00     0.013 C 
HETATM   10  C17 UNL     1      -8.740  47.043 -20.993  1.00  0.00     0.018 C 
HETATM   11  C18 UNL     1      -8.515  45.673 -20.313  1.00  0.00     0.023 C 
HETATM   12  C19 UNL     1      -9.704  47.844 -20.091  1.00  0.00     0.023 C 
HETATM   13  C20 UNL     1      -9.470  46.742 -22.311  1.00  0.00     0.135 C 
HETATM   14  O1  UNL     1     -10.701  46.768 -22.392  1.00  0.00    -0.297 OA
HETATM   15  C21 UNL     1      -8.672  46.302 -23.515  1.00  0.00     0.080 C 
HETATM   16  C22 UNL     1      -7.214  46.729 -23.494  1.00  0.00     0.017 C 
HETATM   17  C23 UNL     1      -6.954  48.032 -22.705  1.00  0.00    -0.031 C 
HETATM   18  C24 UNL     1      -7.762  49.198 -23.323  1.00  0.00     0.016 C 
HETATM   19  C25 UNL     1      -5.406  48.362 -22.706  1.00  0.00     0.024 C 
HETATM   20  C26 UNL     1      -4.774  48.543 -24.110  1.00  0.00     0.010 C 
HETATM   21  C27 UNL     1      -3.288  48.990 -24.144  1.00  0.00     0.011 C 
HETATM   22  C28 UNL     1      -2.764  49.548 -22.809  1.00  0.00    -0.029 C 
HETATM   23  C29 UNL     1      -2.296  48.306 -21.956  1.00  0.00     0.016 C 
ENDROOT
BRANCH   1  24
HETATM   24  C6  UNL     1      -0.936  51.061 -24.139  1.00  0.00    -0.014 C 
HETATM   25  C7  UNL     1      -1.876  50.999 -25.347  1.00  0.00     0.010 C 
BRANCH  24  26
HETATM   26  C5  UNL     1      -0.481  52.540 -23.982  1.00  0.00     0.008 C 
BRANCH  26  27
HETATM   27  C4  UNL     1       0.745  52.904 -24.827  1.00  0.00     0.028 C 
BRANCH  27  28
HETATM   28  C3  UNL     1       0.474  52.705 -26.294  1.00  0.00    -0.013 C 
HETATM   29  C2  UNL     1       1.256  52.085 -27.201  1.00  0.00     0.008 C 
HETATM   30  C1  UNL     1       0.841  51.925 -28.633  1.00  0.00     0.055 C 
BRANCH  29  31
HETATM   31  C30 UNL     1       2.599  51.575 -26.841  1.00  0.00     0.171 C 
HETATM   32  O2  UNL     1       2.862  50.674 -26.067  1.00  0.00    -0.646 OA
BRANCH  31  33
HETATM   33  O3  UNL     1       3.569  52.247 -27.484  1.00  0.00    -0.773 OA
HETATM   34  H46 UNL     1       4.390  51.814 -27.176  1.00  0.00     0.167 HD
ENDBRANCH  31  33
ENDBRANCH  29  31
ENDBRANCH  27  28
ENDBRANCH  26  27
ENDBRANCH  24  26
ENDBRANCH   1  24
TORSDOF 6
ENDMDL
MODEL 3
REMARK minimizedAffinity -9.42009926
REMARK  6 active torsions:
REMARK  status: ('A' for Active; 'I' for Inactive)
REMARK    1  A    between atoms: C2_2  and  C30_31 
REMARK    2  A    between atoms: C3_3  and  C4_4 
REMARK    3  A    between atoms: C4_4  and  C5_5 
REMARK    4  A    between atoms: C5_5  and  C6_6 
REMARK    5  A    between atoms: C6_6  and  C8_8 
REMARK    6  A    between atoms: C30_31  and  O3_33 
ROOT
HETATM    1  C8  UNL     1      -2.011  51.819 -24.399  1.00  0.00    -0.002 C 
HETATM    2  C9  UNL     1      -3.134  52.265 -25.371  1.00  0.00     0.007 C 
HETATM    3  C10 UNL     1      -4.467  51.810 -24.749  1.00  0.00     0.015 C 
HETATM    4  C11 UNL     1      -4.094  50.540 -23.958  1.00  0.00    -0.013 C 
HETATM    5  C12 UNL     1      -3.984  49.392 -25.004  1.00  0.00     0.021 C 
HETATM    6  C13 UNL     1      -5.064  50.014 -22.904  1.00  0.00    -0.070 C 
HETATM    7  C14 UNL     1      -6.399  50.137 -23.031  1.00  0.00    -0.022 C 
HETATM    8  C15 UNL     1      -7.403  49.494 -22.119  1.00  0.00     0.034 C 
HETATM    9  C16 UNL     1      -6.794  48.855 -20.850  1.00  0.00     0.013 C 
HETATM   10  C17 UNL     1      -7.805  48.051 -19.948  1.00  0.00     0.018 C 
HETATM   11  C18 UNL     1      -8.036  48.821 -18.628  1.00  0.00     0.023 C 
HETATM   12  C19 UNL     1      -9.188  47.847 -20.603  1.00  0.00     0.023 C 
HETATM   13  C20 UNL     1      -7.270  46.669 -19.539  1.00  0.00     0.135 C 
HETATM   14  O1  UNL     1      -8.022  45.702 -19.386  1.00  0.00    -0.297 OA
HETATM   15  C21 UNL     1      -5.804  46.510 -19.215  1.00  0.00     0.080 C 
HETATM   16  C22 UNL     1      -4.902  47.553 -19.849  1.00  0.00     0.017 C 
HETATM   17  C23 UNL     1      -5.443  48.125 -21.179  1.00  0.00    -0.031 C 
HETATM   18  C24 UNL     1      -5.621  46.987 -22.213  1.00  0.00     0.016 C 
HETATM   19  C25 UNL     1      -4.456  49.232 -21.731  1.00  0.00     0.024 C 
HETATM   20  C26 UNL     1      -3.007  48.747 -21.995  1.00  0.00     0.010 C 
HETATM   21  C27 UNL     1      -2.046  49.774 -22.654  1.00  0.00     0.011 C 
HETATM   22  C28 UNL     1      -2.753  50.986 -23.287  1.00  0.00    -0.029 C 
HETATM   23  C29 UNL     1      -2.967  52.036 -22.129  1.00  0.00     0.016 C 
ENDROOT
BRANCH   1  24
HETATM   24  C6  UNL     1      -0.698  51.287 -25.045  1.00  0.00    -0.014 C 
HETATM   25  C7  UNL     1      -0.862  50.506 -26.353  1.00  0.00     0.010 C 
BRANCH  24  26
HETATM   26  C5  UNL     1       0.317  52.432 -25.315  1.00  0.00     0.008 C 
BRANCH  26  27
HETATM   27  C4  UNL     1       0.749  53.188 -24.052  1.00  0.00     0.028 C 
BRANCH  27  28
HETATM   28  C3  UNL     1       0.536  52.354 -22.818  1.00  0.00    -0.013 C 
HETATM   29  C2  UNL     1       0.752  52.708 -21.535  1.00  0.00     0.008 C 
HETATM   30  C1  UNL     1       0.459  51.780 -20.394  1.00  0.00     0.055 C 
BRANCH  29  31
HETATM   31  C30 UNL     1       1.347  54.019 -21.186  1.00  0.00     0.171 C 
HETATM   32  O2  UNL     1       1.757  54.869 -21.953  1.00  0.00    -0.646 OA
BRANCH  31  33
HETATM   33  O3  UNL     1       1.403  54.194 -19.855  1.00  0.00    -0.773 OA
HETATM   34  H46 UNL     1       1.795  55.085 -19.758  1.00  0.00     0.167 HD
ENDBRANCH  31  33
ENDBRANCH  29  31
ENDBRANCH  27  28
ENDBRANCH  26  27
ENDBRANCH  24  26
ENDBRANCH   1  24
TORSDOF 6
ENDMDL
MODEL 4
REMARK minimizedAffinity -9.31622505
REMARK  6 active torsions:
REMARK  status: ('A' for Active; 'I' for Inactive)
REMARK    1  A    between atoms: C2_2  and  C30_31 
REMARK    2  A    between atoms: C3_3  and  C4_4 
REMARK    3  A    between atoms: C4_4  and  C5_5 
REMARK    4  A    between atoms: C5_5  and  C6_6 
REMARK    5  A    between atoms: C6_6  and  C8_8 
REMARK    6  A    between atoms: C30_31  and  O3_33 
ROOT
HETATM    1  C8  UNL     1      -3.970  47.686 -20.316  1.00  0.00    -0.002 C 
HETATM    2  C9  UNL     1      -4.906  47.131 -21.421  1.00  0.00     0.007 C 
HETATM    3  C10 UNL     1      -4.345  47.624 -22.768  1.00  0.00     0.015 C 
HETATM    4  C11 UNL     1      -3.676  48.970 -22.422  1.00  0.00    -0.013 C 
HETATM    5  C12 UNL     1      -4.828  50.013 -22.316  1.00  0.00     0.021 C 
HETATM    6  C13 UNL     1      -2.689  49.581 -23.412  1.00  0.00    -0.070 C 
HETATM    7  C14 UNL     1      -2.817  49.426 -24.743  1.00  0.00    -0.022 C 
HETATM    8  C15 UNL     1      -1.981  50.139 -25.767  1.00  0.00     0.034 C 
HETATM    9  C16 UNL     1      -0.774  50.907 -25.182  1.00  0.00     0.013 C 
HETATM   10  C17 UNL     1       0.036  51.779 -26.214  1.00  0.00     0.018 C 
HETATM   11  C18 UNL     1       1.421  51.137 -26.450  1.00  0.00     0.023 C 
HETATM   12  C19 UNL     1      -0.651  51.897 -27.592  1.00  0.00     0.023 C 
HETATM   13  C20 UNL     1       0.313  53.202 -25.704  1.00  0.00     0.135 C 
HETATM   14  O1  UNL     1       0.365  54.168 -26.471  1.00  0.00    -0.297 OA
HETATM   15  C21 UNL     1       0.636  53.414 -24.244  1.00  0.00     0.080 C 
HETATM   16  C22 UNL     1       0.115  52.328 -23.320  1.00  0.00     0.017 C 
HETATM   17  C23 UNL     1      -1.158  51.622 -23.837  1.00  0.00    -0.031 C 
HETATM   18  C24 UNL     1      -2.300  52.652 -24.019  1.00  0.00     0.016 C 
HETATM   19  C25 UNL     1      -1.590  50.482 -22.828  1.00  0.00     0.024 C 
HETATM   20  C26 UNL     1      -1.886  50.961 -21.383  1.00  0.00     0.010 C 
HETATM   21  C27 UNL     1      -2.432  49.890 -20.401  1.00  0.00     0.011 C 
HETATM   22  C28 UNL     1      -2.952  48.612 -21.083  1.00  0.00    -0.029 C 
HETATM   23  C29 UNL     1      -1.700  47.675 -21.296  1.00  0.00     0.016 C 
ENDROOT
BRANCH   1  24
HETATM   24  C6  UNL     1      -4.651  48.173 -19.004  1.00  0.00    -0.014 C 
HETATM   25  C7  UNL     1      -3.794  49.054 -18.089  1.00  0.00     0.010 C 
BRANCH  24  26
HETATM   26  C5  UNL     1      -5.968  48.949 -19.291  1.00  0.00     0.008 C 
BRANCH  26  27
HETATM   27  C4  UNL     1      -7.086  48.666 -18.282  1.00  0.00     0.028 C 
BRANCH  27  28
HETATM   28  C3  UNL     1      -8.432  48.634 -18.954  1.00  0.00    -0.013 C 
HETATM   29  C2  UNL     1      -9.594  48.169 -18.453  1.00  0.00     0.008 C 
HETATM   30  C1  UNL     1     -10.877  48.234 -19.227  1.00  0.00     0.055 C 
BRANCH  29  31
HETATM   31  C30 UNL     1      -9.655  47.514 -17.126  1.00  0.00     0.171 C 
HETATM   32  O2  UNL     1      -9.278  46.394 -16.839  1.00  0.00    -0.646 OA
BRANCH  31  33
HETATM   33  O3  UNL     1     -10.210  48.321 -16.205  1.00  0.00    -0.773 OA
HETATM   34  H46 UNL     1     -10.180  47.786 -15.386  1.00  0.00     0.167 HD
ENDBRANCH  31  33
ENDBRANCH  29  31
ENDBRANCH  27  28
ENDBRANCH  26  27
ENDBRANCH  24  26
ENDBRANCH   1  24
TORSDOF 6
ENDMDL
MODEL 5
REMARK minimizedAffinity -9.31391716
REMARK  6 active torsions:
REMARK  status: ('A' for Active; 'I' for Inactive)
REMARK    1  A    between atoms: C2_2  and  C30_31 
REMARK    2  A    between atoms: C3_3  and  C4_4 
REMARK    3  A    between atoms: C4_4  and  C5_5 
REMARK    4  A    between atoms: C5_5  and  C6_6 
REMARK    5  A    between atoms: C6_6  and  C8_8 
REMARK    6  A    between atoms: C30_31  and  O3_33 
ROOT
HETATM    1  C8  UNL     1      -1.050  50.896 -21.310  1.00  0.00    -0.002 C 
HETATM    2  C9  UNL     1      -1.586  51.135 -19.874  1.00  0.00     0.007 C 
HETATM    3  C10 UNL     1      -2.895  50.333 -19.749  1.00  0.00     0.015 C 
HETATM    4  C11 UNL     1      -3.463  50.325 -21.183  1.00  0.00    -0.013 C 
HETATM    5  C12 UNL     1      -4.126  51.718 -21.395  1.00  0.00     0.021 C 
HETATM    6  C13 UNL     1      -4.552  49.318 -21.540  1.00  0.00    -0.070 C 
HETATM    7  C14 UNL     1      -5.471  48.905 -20.646  1.00  0.00    -0.022 C 
HETATM    8  C15 UNL     1      -6.661  48.053 -20.981  1.00  0.00     0.034 C 
HETATM    9  C16 UNL     1      -6.642  47.466 -22.411  1.00  0.00     0.013 C 
HETATM   10  C17 UNL     1      -7.943  46.686 -22.838  1.00  0.00     0.018 C 
HETATM   11  C18 UNL     1      -7.624  45.177 -22.942  1.00  0.00     0.023 C 
HETATM   12  C19 UNL     1      -9.107  46.836 -21.835  1.00  0.00     0.023 C 
HETATM   13  C20 UNL     1      -8.460  47.103 -24.224  1.00  0.00     0.135 C 
HETATM   14  O1  UNL     1      -9.665  47.110 -24.491  1.00  0.00    -0.297 OA
HETATM   15  C21 UNL     1      -7.469  47.410 -25.321  1.00  0.00     0.080 C 
HETATM   16  C22 UNL     1      -6.094  47.827 -24.828  1.00  0.00     0.017 C 
HETATM   17  C23 UNL     1      -6.106  48.518 -23.446  1.00  0.00    -0.031 C 
HETATM   18  C24 UNL     1      -6.979  49.795 -23.498  1.00  0.00     0.016 C 
HETATM   19  C25 UNL     1      -4.627  48.869 -23.007  1.00  0.00     0.024 C 
HETATM   20  C26 UNL     1      -3.856  49.800 -23.979  1.00  0.00     0.010 C 
HETATM   21  C27 UNL     1      -2.449  50.266 -23.516  1.00  0.00     0.011 C 
HETATM   22  C28 UNL     1      -2.171  50.047 -22.019  1.00  0.00    -0.029 C 
HETATM   23  C29 UNL     1      -1.652  48.565 -21.869  1.00  0.00     0.016 C 
ENDROOT
BRANCH   1  24
HETATM   24  C6  UNL     1      -0.408  52.120 -22.028  1.00  0.00    -0.014 C 
HETATM   25  C7  UNL     1       1.011  52.490 -21.584  1.00  0.00     0.010 C 
BRANCH  24  26
HETATM   26  C5  UNL     1      -0.376  51.932 -23.570  1.00  0.00     0.008 C 
BRANCH  26  27
HETATM   27  C4  UNL     1       0.679  52.790 -24.278  1.00  0.00     0.028 C 
BRANCH  27  28
HETATM   28  C3  UNL     1       1.102  52.169 -25.581  1.00  0.00    -0.013 C 
HETATM   29  C2  UNL     1       0.747  52.543 -26.828  1.00  0.00     0.008 C 
HETATM   30  C1  UNL     1       1.279  51.850 -28.048  1.00  0.00     0.055 C 
BRANCH  29  31
HETATM   31  C30 UNL     1      -0.235  53.627 -27.058  1.00  0.00     0.171 C 
HETATM   32  O2  UNL     1      -1.293  53.549 -27.653  1.00  0.00    -0.646 OA
BRANCH  31  33
HETATM   33  O3  UNL     1       0.179  54.787 -26.519  1.00  0.00    -0.773 OA
HETATM   34  H46 UNL     1      -0.550  55.407 -26.725  1.00  0.00     0.167 HD
ENDBRANCH  31  33
ENDBRANCH  29  31
ENDBRANCH  27  28
ENDBRANCH  26  27
ENDBRANCH  24  26
ENDBRANCH   1  24
TORSDOF 6
ENDMDL
MODEL 6
REMARK minimizedAffinity -9.31386089
REMARK  6 active torsions:
REMARK  status: ('A' for Active; 'I' for Inactive)
REMARK    1  A    between atoms: C2_2  and  C30_31 
REMARK    2  A    between atoms: C3_3  and  C4_4 
REMARK    3  A    between atoms: C4_4  and  C5_5 
REMARK    4  A    between atoms: C5_5  and  C6_6 
REMARK    5  A    between atoms: C6_6  and  C8_8 
REMARK    6  A    between atoms: C30_31  and  O3_33 
ROOT
HETATM    1  C8  UNL     1      -1.614  50.363 -22.859  1.00  0.00    -0.002 C 
HETATM    2  C9  UNL     1      -1.216  49.501 -21.632  1.00  0.00     0.007 C 
HETATM    3  C10 UNL     1      -2.269  48.383 -21.514  1.00  0.00     0.015 C 
HETATM    4  C11 UNL     1      -3.553  49.022 -22.080  1.00  0.00    -0.013 C 
HETATM    5  C12 UNL     1      -4.125  49.926 -20.948  1.00  0.00     0.021 C 
HETATM    6  C13 UNL     1      -4.716  48.116 -22.478  1.00  0.00    -0.070 C 
HETATM    7  C14 UNL     1      -4.984  46.966 -21.832  1.00  0.00    -0.022 C 
HETATM    8  C15 UNL     1      -6.205  46.124 -22.066  1.00  0.00     0.034 C 
HETATM    9  C16 UNL     1      -7.045  46.546 -23.293  1.00  0.00     0.013 C 
HETATM   10  C17 UNL     1      -8.405  45.772 -23.478  1.00  0.00     0.018 C 
HETATM   11  C18 UNL     1      -8.303  44.849 -24.714  1.00  0.00     0.023 C 
HETATM   12  C19 UNL     1      -8.774  44.880 -22.274  1.00  0.00     0.023 C 
HETATM   13  C20 UNL     1      -9.592  46.710 -23.750  1.00  0.00     0.135 C 
HETATM   14  O1  UNL     1     -10.730  46.448 -23.350  1.00  0.00    -0.297 OA
HETATM   15  C21 UNL     1      -9.388  47.929 -24.616  1.00  0.00     0.080 C 
HETATM   16  C22 UNL     1      -7.955  48.427 -24.675  1.00  0.00     0.017 C 
HETATM   17  C23 UNL     1      -7.129  48.110 -23.408  1.00  0.00    -0.031 C 
HETATM   18  C24 UNL     1      -7.787  48.761 -22.168  1.00  0.00     0.016 C 
HETATM   19  C25 UNL     1      -5.644  48.628 -23.589  1.00  0.00     0.024 C 
HETATM   20  C26 UNL     1      -5.508  50.150 -23.857  1.00  0.00     0.010 C 
HETATM   21  C27 UNL     1      -4.062  50.712 -23.915  1.00  0.00     0.011 C 
HETATM   22  C28 UNL     1      -2.992  49.769 -23.335  1.00  0.00    -0.029 C 
HETATM   23  C29 UNL     1      -2.581  48.786 -24.499  1.00  0.00     0.016 C 
ENDROOT
BRANCH   1  24
HETATM   24  C6  UNL     1      -1.418  51.902 -22.724  1.00  0.00    -0.014 C 
HETATM   25  C7  UNL     1      -0.388  52.359 -21.686  1.00  0.00     0.010 C 
BRANCH  24  26
HETATM   26  C5  UNL     1      -1.029  52.555 -24.080  1.00  0.00     0.008 C 
BRANCH  26  27
HETATM   27  C4  UNL     1       0.481  52.579 -24.346  1.00  0.00     0.028 C 
BRANCH  27  28
HETATM   28  C3  UNL     1       0.807  51.983 -25.689  1.00  0.00    -0.013 C 
HETATM   29  C2  UNL     1       0.582  52.519 -26.906  1.00  0.00     0.008 C 
HETATM   30  C1  UNL     1       0.997  51.825 -28.169  1.00  0.00     0.055 C 
BRANCH  29  31
HETATM   31  C30 UNL     1      -0.140  53.802 -27.062  1.00  0.00     0.171 C 
HETATM   32  O2  UNL     1       0.220  54.901 -26.687  1.00  0.00    -0.646 OA
BRANCH  31  33
HETATM   33  O3  UNL     1      -1.314  53.631 -27.694  1.00  0.00    -0.773 OA
HETATM   34  H46 UNL     1      -1.681  54.537 -27.745  1.00  0.00     0.167 HD
ENDBRANCH  31  33
ENDBRANCH  29  31
ENDBRANCH  27  28
ENDBRANCH  26  27
ENDBRANCH  24  26
ENDBRANCH   1  24
TORSDOF 6
ENDMDL
MODEL 7
REMARK minimizedAffinity -9.31300926
REMARK  6 active torsions:
REMARK  status: ('A' for Active; 'I' for Inactive)
REMARK    1  A    between atoms: C2_2  and  C30_31 
REMARK    2  A    between atoms: C3_3  and  C4_4 
REMARK    3  A    between atoms: C4_4  and  C5_5 
REMARK    4  A    between atoms: C5_5  and  C6_6 
REMARK    5  A    between atoms: C6_6  and  C8_8 
REMARK    6  A    between atoms: C30_31  and  O3_33 
ROOT
HETATM    1  C8  UNL     1      -1.642  51.608 -22.225  1.00  0.00    -0.002 C 
HETATM    2  C9  UNL     1      -0.896  51.081 -23.479  1.00  0.00     0.007 C 
HETATM    3  C10 UNL     1      -1.934  50.326 -24.329  1.00  0.00     0.015 C 
HETATM    4  C11 UNL     1      -2.933  49.775 -23.292  1.00  0.00    -0.013 C 
HETATM    5  C12 UNL     1      -2.263  48.515 -22.669  1.00  0.00     0.021 C 
HETATM    6  C13 UNL     1      -4.301  49.291 -23.767  1.00  0.00    -0.070 C 
HETATM    7  C14 UNL     1      -4.482  48.721 -24.974  1.00  0.00    -0.022 C 
HETATM    8  C15 UNL     1      -5.760  48.076 -25.426  1.00  0.00     0.034 C 
HETATM    9  C16 UNL     1      -6.964  48.319 -24.487  1.00  0.00     0.013 C 
HETATM   10  C17 UNL     1      -8.280  47.538 -24.861  1.00  0.00     0.018 C 
HETATM   11  C18 UNL     1      -9.341  48.539 -25.371  1.00  0.00     0.023 C 
HETATM   12  C19 UNL     1      -8.077  46.486 -25.973  1.00  0.00     0.023 C 
HETATM   13  C20 UNL     1      -8.916  46.829 -23.654  1.00  0.00     0.135 C 
HETATM   14  O1  UNL     1      -9.521  45.760 -23.775  1.00  0.00    -0.297 OA
HETATM   15  C21 UNL     1      -8.895  47.505 -22.304  1.00  0.00     0.080 C 
HETATM   16  C22 UNL     1      -7.786  48.527 -22.130  1.00  0.00     0.017 C 
HETATM   17  C23 UNL     1      -6.528  48.240 -22.980  1.00  0.00    -0.031 C 
HETATM   18  C24 UNL     1      -5.938  46.859 -22.605  1.00  0.00     0.016 C 
HETATM   19  C25 UNL     1      -5.457  49.384 -22.760  1.00  0.00     0.024 C 
HETATM   20  C26 UNL     1      -4.987  49.571 -21.294  1.00  0.00     0.010 C 
HETATM   21  C27 UNL     1      -3.845  50.598 -21.063  1.00  0.00     0.011 C 
HETATM   22  C28 UNL     1      -3.093  51.007 -22.342  1.00  0.00    -0.029 C 
HETATM   23  C29 UNL     1      -3.920  52.180 -22.995  1.00  0.00     0.016 C 
ENDROOT
BRANCH   1  24
HETATM   24  C6  UNL     1      -0.866  51.552 -20.876  1.00  0.00    -0.014 C 
HETATM   25  C7  UNL     1       0.028  50.325 -20.667  1.00  0.00     0.010 C 
BRANCH  24  26
HETATM   26  C5  UNL     1       0.021  52.812 -20.669  1.00  0.00     0.008 C 
BRANCH  26  27
HETATM   27  C4  UNL     1       0.311  53.129 -19.197  1.00  0.00     0.028 C 
BRANCH  27  28
HETATM   28  C3  UNL     1       0.107  51.919 -18.327  1.00  0.00    -0.013 C 
HETATM   29  C2  UNL     1       0.735  51.616 -17.173  1.00  0.00     0.008 C 
HETATM   30  C1  UNL     1       0.402  50.383 -16.386  1.00  0.00     0.055 C 
BRANCH  29  31
HETATM   31  C30 UNL     1       1.832  52.460 -16.647  1.00  0.00     0.171 C 
HETATM   32  O2  UNL     1       3.013  52.393 -16.928  1.00  0.00    -0.646 OA
BRANCH  31  33
HETATM   33  O3  UNL     1       1.375  53.366 -15.766  1.00  0.00    -0.773 OA
HETATM   34  H46 UNL     1       2.180  53.860 -15.507  1.00  0.00     0.167 HD
ENDBRANCH  31  33
ENDBRANCH  29  31
ENDBRANCH  27  28
ENDBRANCH  26  27
ENDBRANCH  24  26
ENDBRANCH   1  24
TORSDOF 6
ENDMDL
MODEL 8
REMARK minimizedAffinity -9.23920631
REMARK  6 active torsions:
REMARK  status: ('A' for Active; 'I' for Inactive)
REMARK    1  A    between atoms: C2_2  and  C30_31 
REMARK    2  A    between atoms: C3_3  and  C4_4 
REMARK    3  A    between atoms: C4_4  and  C5_5 
REMARK    4  A    between atoms: C5_5  and  C6_6 
REMARK    5  A    between atoms: C6_6  and  C8_8 
REMARK    6  A    between atoms: C30_31  and  O3_33 
ROOT
HETATM    1  C8  UNL     1      -3.542  47.676 -20.088  1.00  0.00    -0.002 C 
HETATM    2  C9  UNL     1      -4.505  47.070 -21.142  1.00  0.00     0.007 C 
HETATM    3  C10 UNL     1      -4.033  47.574 -22.518  1.00  0.00     0.015 C 
HETATM    4  C11 UNL     1      -3.410  48.952 -22.215  1.00  0.00    -0.013 C 
HETATM    5  C12 UNL     1      -4.601  49.944 -22.060  1.00  0.00     0.021 C 
HETATM    6  C13 UNL     1      -2.501  49.598 -23.257  1.00  0.00    -0.070 C 
HETATM    7  C14 UNL     1      -2.687  49.424 -24.580  1.00  0.00    -0.022 C 
HETATM    8  C15 UNL     1      -1.936  50.164 -25.649  1.00  0.00     0.034 C 
HETATM    9  C16 UNL     1      -0.738  50.991 -25.129  1.00  0.00     0.013 C 
HETATM   10  C17 UNL     1      -0.020  51.889 -26.207  1.00  0.00     0.018 C 
HETATM   11  C18 UNL     1       1.380  51.307 -26.507  1.00  0.00     0.023 C 
HETATM   12  C19 UNL     1      -0.778  51.963 -27.550  1.00  0.00     0.023 C 
HETATM   13  C20 UNL     1       0.218  53.328 -25.721  1.00  0.00     0.135 C 
HETATM   14  O1  UNL     1       0.188  54.287 -26.497  1.00  0.00    -0.297 OA
HETATM   15  C21 UNL     1       0.602  53.568 -24.281  1.00  0.00     0.080 C 
HETATM   16  C22 UNL     1       0.176  52.468 -23.324  1.00  0.00     0.017 C 
HETATM   17  C23 UNL     1      -1.088  51.701 -23.773  1.00  0.00    -0.031 C 
HETATM   18  C24 UNL     1      -2.282  52.677 -23.905  1.00  0.00     0.016 C 
HETATM   19  C25 UNL     1      -1.417  50.552 -22.735  1.00  0.00     0.024 C 
HETATM   20  C26 UNL     1      -1.663  51.031 -21.281  1.00  0.00     0.010 C 
HETATM   21  C27 UNL     1      -2.111  49.946 -20.265  1.00  0.00     0.011 C 
HETATM   22  C28 UNL     1      -2.605  48.640 -20.911  1.00  0.00    -0.029 C 
HETATM   23  C29 UNL     1      -1.324  47.758 -21.179  1.00  0.00     0.016 C 
ENDROOT
BRANCH   1  24
HETATM   24  C6  UNL     1      -4.179  48.145 -18.747  1.00  0.00    -0.014 C 
HETATM   25  C7  UNL     1      -5.639  48.605 -18.822  1.00  0.00     0.010 C 
BRANCH  24  26
HETATM   26  C5  UNL     1      -4.097  47.043 -17.654  1.00  0.00     0.008 C 
BRANCH  26  27
HETATM   27  C4  UNL     1      -3.435  47.510 -16.352  1.00  0.00     0.028 C 
BRANCH  27  28
HETATM   28  C3  UNL     1      -2.058  48.061 -16.608  1.00  0.00    -0.013 C 
HETATM   29  C2  UNL     1      -1.667  49.351 -16.577  1.00  0.00     0.008 C 
HETATM   30  C1  UNL     1      -0.243  49.757 -16.818  1.00  0.00     0.055 C 
BRANCH  29  31
HETATM   31  C30 UNL     1      -2.638  50.447 -16.359  1.00  0.00     0.171 C 
HETATM   32  O2  UNL     1      -2.999  51.283 -17.165  1.00  0.00    -0.646 OA
BRANCH  31  33
HETATM   33  O3  UNL     1      -3.114  50.439 -15.102  1.00  0.00    -0.773 OA
HETATM   34  H46 UNL     1      -3.743  51.189 -15.091  1.00  0.00     0.167 HD
ENDBRANCH  31  33
ENDBRANCH  29  31
ENDBRANCH  27  28
ENDBRANCH  26  27
ENDBRANCH  24  26
ENDBRANCH   1  24
TORSDOF 6
ENDMDL
MODEL 9
REMARK minimizedAffinity -9.18784142
REMARK  6 active torsions:
REMARK  status: ('A' for Active; 'I' for Inactive)
REMARK    1  A    between atoms: C2_2  and  C30_31 
REMARK    2  A    between atoms: C3_3  and  C4_4 
REMARK    3  A    between atoms: C4_4  and  C5_5 
REMARK    4  A    between atoms: C5_5  and  C6_6 
REMARK    5  A    between atoms: C6_6  and  C8_8 
REMARK    6  A    between atoms: C30_31  and  O3_33 
ROOT
HETATM    1  C8  UNL     1      -2.397  51.397 -23.890  1.00  0.00    -0.002 C 
HETATM    2  C9  UNL     1      -1.975  50.121 -24.666  1.00  0.00     0.007 C 
HETATM    3  C10 UNL     1      -3.021  49.038 -24.343  1.00  0.00     0.015 C 
HETATM    4  C11 UNL     1      -3.494  49.392 -22.919  1.00  0.00    -0.013 C 
HETATM    5  C12 UNL     1      -2.392  48.869 -21.951  1.00  0.00     0.021 C 
HETATM    6  C13 UNL     1      -4.791  48.779 -22.397  1.00  0.00    -0.070 C 
HETATM    7  C14 UNL     1      -5.200  47.548 -22.757  1.00  0.00    -0.022 C 
HETATM    8  C15 UNL     1      -6.370  46.828 -22.150  1.00  0.00     0.034 C 
HETATM    9  C16 UNL     1      -7.245  47.703 -21.224  1.00  0.00     0.013 C 
HETATM   10  C17 UNL     1      -8.394  46.940 -20.463  1.00  0.00     0.018 C 
HETATM   11  C18 UNL     1      -9.763  47.371 -21.039  1.00  0.00     0.023 C 
HETATM   12  C19 UNL     1      -8.308  45.404 -20.599  1.00  0.00     0.023 C 
HETATM   13  C20 UNL     1      -8.444  47.277 -18.965  1.00  0.00     0.135 C 
HETATM   14  O1  UNL     1      -8.791  46.444 -18.123  1.00  0.00    -0.297 OA
HETATM   15  C21 UNL     1      -8.162  48.691 -18.515  1.00  0.00     0.080 C 
HETATM   16  C22 UNL     1      -7.322  49.504 -19.484  1.00  0.00     0.017 C 
HETATM   17  C23 UNL     1      -6.359  48.655 -20.344  1.00  0.00    -0.031 C 
HETATM   18  C24 UNL     1      -5.379  47.877 -19.432  1.00  0.00     0.016 C 
HETATM   19  C25 UNL     1      -5.567  49.588 -21.347  1.00  0.00     0.024 C 
HETATM   20  C26 UNL     1      -4.722  50.704 -20.679  1.00  0.00     0.010 C 
HETATM   21  C27 UNL     1      -3.836  51.557 -21.625  1.00  0.00     0.011 C 
HETATM   22  C28 UNL     1      -3.632  50.947 -23.023  1.00  0.00    -0.029 C 
HETATM   23  C29 UNL     1      -4.869  51.394 -23.894  1.00  0.00     0.016 C 
ENDROOT
BRANCH   1  24
HETATM   24  C6  UNL     1      -1.250  52.241 -23.260  1.00  0.00    -0.014 C 
HETATM   25  C7  UNL     1      -1.101  52.139 -21.738  1.00  0.00     0.010 C 
BRANCH  24  26
HETATM   26  C5  UNL     1       0.130  51.897 -23.885  1.00  0.00     0.008 C 
BRANCH  26  27
HETATM   27  C4  UNL     1       0.697  53.002 -24.784  1.00  0.00     0.028 C 
BRANCH  27  28
HETATM   28  C3  UNL     1       0.404  52.728 -26.234  1.00  0.00    -0.013 C 
HETATM   29  C2  UNL     1       1.175  52.069 -27.122  1.00  0.00     0.008 C 
HETATM   30  C1  UNL     1       0.737  51.835 -28.538  1.00  0.00     0.055 C 
BRANCH  29  31
HETATM   31  C30 UNL     1       2.528  51.586 -26.760  1.00  0.00     0.171 C 
HETATM   32  O2  UNL     1       2.808  50.687 -25.990  1.00  0.00    -0.646 OA
BRANCH  31  33
HETATM   33  O3  UNL     1       3.484  52.283 -27.396  1.00  0.00    -0.773 OA
HETATM   34  H46 UNL     1       4.314  51.866 -27.087  1.00  0.00     0.167 HD
ENDBRANCH  31  33
ENDBRANCH  29  31
ENDBRANCH  27  28
ENDBRANCH  26  27
ENDBRANCH  24  26
ENDBRANCH   1  24
TORSDOF 6
ENDMDL
