MODEL 1
REMARK minimizedAffinity -8.24401093
REMARK CNNscore 0.807106078
REMARK CNNaffinity 7.10114479
REMARK  6 active torsions:
REMARK  status: ('A' for Active; 'I' for Inactive)
REMARK    1  A    between atoms: C2_2  and  C30_32 
REMARK    2  A    between atoms: C3_3  and  C4_4 
REMARK    3  A    between atoms: C4_4  and  C5_5 
REMARK    4  A    between atoms: C5_5  and  C6_6 
REMARK    5  A    between atoms: C6_6  and  C8_8 
REMARK    6  A    between atoms: C30_32  and  O4_34 
ROOT
HETATM    1  C8  UNL     1       5.251  55.999  -8.254  1.00  0.00    -0.002 C 
HETATM    2  C9  UNL     1       6.031  54.994  -9.149  1.00  0.00     0.007 C 
HETATM    3  C10 UNL     1       4.996  54.219  -9.985  1.00  0.00     0.015 C 
HETATM    4  C11 UNL     1       3.682  55.006  -9.826  1.00  0.00    -0.005 C 
HETATM    5  C12 UNL     1       3.727  56.182 -10.854  1.00  0.00     0.021 C 
HETATM    6  C13 UNL     1       2.340  54.327 -10.078  1.00  0.00    -0.000 C 
HETATM    7  C14 UNL     1       1.222  54.693  -9.398  1.00  0.00    -0.060 C 
HETATM    8  C15 UNL     1       1.287  55.801  -8.332  1.00  0.00     0.036 C 
HETATM    9  C16 UNL     1       2.665  56.427  -8.031  1.00  0.00     0.015 C 
HETATM   10  C17 UNL     1       3.799  55.434  -8.310  1.00  0.00    -0.028 C 
HETATM   11  C18 UNL     1       3.673  54.233  -7.317  1.00  0.00     0.016 C 
HETATM   12  C19 UNL     1      -0.174  54.049  -9.635  1.00  0.00    -0.014 C 
HETATM   13  C20 UNL     1      -1.014  55.074 -10.433  1.00  0.00     0.020 C 
HETATM   14  C21 UNL     1      -0.875  53.755  -8.274  1.00  0.00     0.021 C 
HETATM   15  C22 UNL     1      -1.948  52.670  -8.286  1.00  0.00     0.080 C 
HETATM   16  C23 UNL     1      -2.436  52.330  -9.670  1.00  0.00     0.135 C 
HETATM   17  O1  UNL     1      -3.642  52.288  -9.911  1.00  0.00    -0.297 OA
HETATM   18  C24 UNL     1      -1.375  51.953 -10.709  1.00  0.00     0.018 C 
HETATM   19  C25 UNL     1      -1.177  50.426 -10.608  1.00  0.00     0.023 C 
HETATM   20  C26 UNL     1      -1.919  52.256 -12.121  1.00  0.00     0.023 C 
HETATM   21  C27 UNL     1      -0.023  52.680 -10.378  1.00  0.00     0.020 C 
HETATM   22  C28 UNL     1       0.898  52.809 -11.589  1.00  0.00     0.090 C 
HETATM   23  C29 UNL     1       2.254  53.325 -11.188  1.00  0.00     0.157 C 
HETATM   24  O2  UNL     1       3.252  52.974 -11.815  1.00  0.00    -0.293 OA
ENDROOT
BRANCH   1  25
HETATM   25  C6  UNL     1       5.947  56.221  -6.882  1.00  0.00    -0.014 C 
HETATM   26  C7  UNL     1       5.791  57.650  -6.355  1.00  0.00     0.010 C 
BRANCH  25  27
HETATM   27  C5  UNL     1       7.444  55.792  -6.883  1.00  0.00     0.008 C 
BRANCH  27  28
HETATM   28  C4  UNL     1       8.189  55.781  -5.538  1.00  0.00     0.028 C 
BRANCH  28  29
HETATM   29  C3  UNL     1       8.924  57.057  -5.235  1.00  0.00    -0.013 C 
HETATM   30  C2  UNL     1      10.233  57.218  -4.960  1.00  0.00     0.008 C 
HETATM   31  C1  UNL     1      10.852  58.568  -4.756  1.00  0.00     0.055 C 
BRANCH  30  32
HETATM   32  C30 UNL     1      11.195  56.099  -4.879  1.00  0.00     0.171 C 
HETATM   33  O3  UNL     1      10.904  54.923  -4.752  1.00  0.00    -0.646 OA
BRANCH  32  34
HETATM   34  O4  UNL     1      12.461  56.499  -5.066  1.00  0.00    -0.773 OA
HETATM   35  H44 UNL     1      12.978  55.669  -5.043  1.00  0.00     0.167 HD
ENDBRANCH  32  34
ENDBRANCH  30  32
ENDBRANCH  28  29
ENDBRANCH  27  28
ENDBRANCH  25  27
ENDBRANCH   1  25
TORSDOF 6
ENDMDL
MODEL 2
REMARK minimizedAffinity -7.52914476
REMARK CNNscore 0.773617566
REMARK CNNaffinity 6.78068352
REMARK  6 active torsions:
REMARK  status: ('A' for Active; 'I' for Inactive)
REMARK    1  A    between atoms: C2_2  and  C30_32 
REMARK    2  A    between atoms: C3_3  and  C4_4 
REMARK    3  A    between atoms: C4_4  and  C5_5 
REMARK    4  A    between atoms: C5_5  and  C6_6 
REMARK    5  A    between atoms: C6_6  and  C8_8 
REMARK    6  A    between atoms: C30_32  and  O4_34 
ROOT
HETATM    1  C8  UNL     1       5.227  56.226  -8.279  1.00  0.00    -0.002 C 
HETATM    2  C9  UNL     1       6.022  55.217  -9.156  1.00  0.00     0.007 C 
HETATM    3  C10 UNL     1       4.997  54.400  -9.965  1.00  0.00     0.015 C 
HETATM    4  C11 UNL     1       3.668  55.161  -9.814  1.00  0.00    -0.005 C 
HETATM    5  C12 UNL     1       3.679  56.312 -10.870  1.00  0.00     0.021 C 
HETATM    6  C13 UNL     1       2.340  54.447 -10.038  1.00  0.00    -0.000 C 
HETATM    7  C14 UNL     1       1.219  54.805  -9.358  1.00  0.00    -0.060 C 
HETATM    8  C15 UNL     1       1.268  55.940  -8.320  1.00  0.00     0.036 C 
HETATM    9  C16 UNL     1       2.634  56.603  -8.045  1.00  0.00     0.015 C 
HETATM   10  C17 UNL     1       3.788  55.628  -8.310  1.00  0.00    -0.028 C 
HETATM   11  C18 UNL     1       3.696  54.449  -7.288  1.00  0.00     0.016 C 
HETATM   12  C19 UNL     1      -0.164  54.126  -9.569  1.00  0.00    -0.014 C 
HETATM   13  C20 UNL     1      -1.033  55.113 -10.384  1.00  0.00     0.020 C 
HETATM   14  C21 UNL     1      -0.848  53.849  -8.195  1.00  0.00     0.021 C 
HETATM   15  C22 UNL     1      -1.897  52.741  -8.172  1.00  0.00     0.080 C 
HETATM   16  C23 UNL     1      -2.388  52.358  -9.543  1.00  0.00     0.135 C 
HETATM   17  O1  UNL     1      -3.595  52.283  -9.774  1.00  0.00    -0.297 OA
HETATM   18  C24 UNL     1      -1.327  51.979 -10.582  1.00  0.00     0.018 C 
HETATM   19  C25 UNL     1      -1.096  50.459 -10.446  1.00  0.00     0.023 C 
HETATM   20  C26 UNL     1      -1.889  52.236 -11.996  1.00  0.00     0.023 C 
HETATM   21  C27 UNL     1       0.010  52.743 -10.279  1.00  0.00     0.020 C 
HETATM   22  C28 UNL     1       0.919  52.862 -11.500  1.00  0.00     0.090 C 
HETATM   23  C29 UNL     1       2.267  53.417 -11.123  1.00  0.00     0.157 C 
HETATM   24  O2  UNL     1       3.267  53.073 -11.751  1.00  0.00    -0.293 OA
ENDROOT
BRANCH   1  25
HETATM   25  C6  UNL     1       5.929  56.496  -6.919  1.00  0.00    -0.014 C 
HETATM   26  C7  UNL     1       6.469  55.224  -6.260  1.00  0.00     0.010 C 
BRANCH  25  27
HETATM   27  C5  UNL     1       5.042  57.300  -5.925  1.00  0.00     0.008 C 
BRANCH  27  28
HETATM   28  C4  UNL     1       5.747  58.158  -4.862  1.00  0.00     0.028 C 
BRANCH  28  29
HETATM   29  C3  UNL     1       7.120  58.621  -5.262  1.00  0.00    -0.013 C 
HETATM   30  C2  UNL     1       7.842  59.633  -4.741  1.00  0.00     0.008 C 
HETATM   31  C1  UNL     1       9.242  59.934  -5.184  1.00  0.00     0.055 C 
BRANCH  30  32
HETATM   32  C30 UNL     1       7.353  60.513  -3.660  1.00  0.00     0.171 C 
HETATM   33  O3  UNL     1       7.564  60.357  -2.470  1.00  0.00    -0.646 OA
BRANCH  32  34
HETATM   34  O4  UNL     1       6.718  61.596  -4.130  1.00  0.00    -0.773 OA
HETATM   35  H44 UNL     1       6.499  62.110  -3.327  1.00  0.00     0.167 HD
ENDBRANCH  32  34
ENDBRANCH  30  32
ENDBRANCH  28  29
ENDBRANCH  27  28
ENDBRANCH  25  27
ENDBRANCH   1  25
TORSDOF 6
ENDMDL
MODEL 3
REMARK minimizedAffinity -7.441185
REMARK CNNscore 0.770213246
REMARK CNNaffinity 7.22028685
REMARK  6 active torsions:
REMARK  status: ('A' for Active; 'I' for Inactive)
REMARK    1  A    between atoms: C2_2  and  C30_32 
REMARK    2  A    between atoms: C3_3  and  C4_4 
REMARK    3  A    between atoms: C4_4  and  C5_5 
REMARK    4  A    between atoms: C5_5  and  C6_6 
REMARK    5  A    between atoms: C6_6  and  C8_8 
REMARK    6  A    between atoms: C30_32  and  O4_34 
ROOT
HETATM    1  C8  UNL     1      -2.194  52.567 -10.941  1.00  0.00    -0.002 C 
HETATM    2  C9  UNL     1      -2.868  52.851  -9.569  1.00  0.00     0.007 C 
HETATM    3  C10 UNL     1      -1.894  53.714  -8.745  1.00  0.00     0.015 C 
HETATM    4  C11 UNL     1      -0.838  54.201  -9.754  1.00  0.00    -0.005 C 
HETATM    5  C12 UNL     1      -1.437  55.452 -10.473  1.00  0.00     0.021 C 
HETATM    6  C13 UNL     1       0.536  54.655  -9.275  1.00  0.00    -0.000 C 
HETATM    7  C14 UNL     1       1.645  54.490 -10.043  1.00  0.00    -0.060 C 
HETATM    8  C15 UNL     1       1.542  53.815 -11.422  1.00  0.00     0.036 C 
HETATM    9  C16 UNL     1       0.160  53.290 -11.863  1.00  0.00     0.015 C 
HETATM   10  C17 UNL     1      -0.702  52.910 -10.654  1.00  0.00    -0.028 C 
HETATM   11  C18 UNL     1      -0.028  51.709  -9.914  1.00  0.00     0.016 C 
HETATM   12  C19 UNL     1       3.063  54.958  -9.610  1.00  0.00    -0.014 C 
HETATM   13  C20 UNL     1       3.386  56.233 -10.425  1.00  0.00     0.020 C 
HETATM   14  C21 UNL     1       4.121  53.858  -9.933  1.00  0.00     0.021 C 
HETATM   15  C22 UNL     1       5.409  53.896  -9.117  1.00  0.00     0.080 C 
HETATM   16  C23 UNL     1       5.626  55.208  -8.409  1.00  0.00     0.135 C 
HETATM   17  O1  UNL     1       6.707  55.791  -8.496  1.00  0.00    -0.297 OA
HETATM   18  C24 UNL     1       4.488  55.714  -7.515  1.00  0.00     0.018 C 
HETATM   19  C25 UNL     1       4.734  55.129  -6.109  1.00  0.00     0.023 C 
HETATM   20  C26 UNL     1       4.580  57.250  -7.400  1.00  0.00     0.023 C 
HETATM   21  C27 UNL     1       3.111  55.198  -8.065  1.00  0.00     0.020 C 
HETATM   22  C28 UNL     1       1.928  56.046  -7.603  1.00  0.00     0.090 C 
HETATM   23  C29 UNL     1       0.619  55.406  -7.981  1.00  0.00     0.157 C 
HETATM   24  O2  UNL     1      -0.369  55.566  -7.267  1.00  0.00    -0.293 OA
ENDROOT
BRANCH   1  25
HETATM   25  C6  UNL     1      -2.578  51.168 -11.500  1.00  0.00    -0.014 C 
HETATM   26  C7  UNL     1      -2.699  50.099 -10.410  1.00  0.00     0.010 C 
BRANCH  25  27
HETATM   27  C5  UNL     1      -1.636  50.689 -12.642  1.00  0.00     0.008 C 
BRANCH  27  28
HETATM   28  C4  UNL     1      -1.852  51.274 -14.047  1.00  0.00     0.028 C 
BRANCH  28  29
HETATM   29  C3  UNL     1      -0.999  50.642 -15.111  1.00  0.00    -0.013 C 
HETATM   30  C2  UNL     1      -1.326  50.376 -16.391  1.00  0.00     0.008 C 
HETATM   31  C1  UNL     1      -0.343  49.813 -17.373  1.00  0.00     0.055 C 
BRANCH  30  32
HETATM   32  C30 UNL     1      -2.659  50.651 -16.968  1.00  0.00     0.171 C 
HETATM   33  O3  UNL     1      -2.901  51.484 -17.824  1.00  0.00    -0.646 OA
BRANCH  32  34
HETATM   34  O4  UNL     1      -3.594  49.802 -16.522  1.00  0.00    -0.773 OA
HETATM   35  H44 UNL     1      -4.400  50.056 -17.015  1.00  0.00     0.167 HD
ENDBRANCH  32  34
ENDBRANCH  30  32
ENDBRANCH  28  29
ENDBRANCH  27  28
ENDBRANCH  25  27
ENDBRANCH   1  25
TORSDOF 6
ENDMDL
MODEL 4
REMARK minimizedAffinity -7.49355173
REMARK CNNscore 0.649858534
REMARK CNNaffinity 7.1555028
REMARK  6 active torsions:
REMARK  status: ('A' for Active; 'I' for Inactive)
REMARK    1  A    between atoms: C2_2  and  C30_32 
REMARK    2  A    between atoms: C3_3  and  C4_4 
REMARK    3  A    between atoms: C4_4  and  C5_5 
REMARK    4  A    between atoms: C5_5  and  C6_6 
REMARK    5  A    between atoms: C6_6  and  C8_8 
REMARK    6  A    between atoms: C30_32  and  O4_34 
ROOT
HETATM    1  C8  UNL     1      -2.358  52.615 -10.871  1.00  0.00    -0.002 C 
HETATM    2  C9  UNL     1      -2.985  52.915  -9.479  1.00  0.00     0.007 C 
HETATM    3  C10 UNL     1      -1.964  53.749  -8.683  1.00  0.00     0.015 C 
HETATM    4  C11 UNL     1      -0.925  54.209  -9.721  1.00  0.00    -0.005 C 
HETATM    5  C12 UNL     1      -1.510  55.478 -10.421  1.00  0.00     0.021 C 
HETATM    6  C13 UNL     1       0.474  54.625  -9.281  1.00  0.00    -0.000 C 
HETATM    7  C14 UNL     1       1.556  54.432 -10.080  1.00  0.00    -0.060 C 
HETATM    8  C15 UNL     1       1.396  53.763 -11.458  1.00  0.00     0.036 C 
HETATM    9  C16 UNL     1      -0.012  53.277 -11.859  1.00  0.00     0.015 C 
HETATM   10  C17 UNL     1      -0.849  52.917 -10.627  1.00  0.00    -0.028 C 
HETATM   11  C18 UNL     1      -0.187  51.697  -9.908  1.00  0.00     0.016 C 
HETATM   12  C19 UNL     1       2.999  54.860  -9.688  1.00  0.00    -0.014 C 
HETATM   13  C20 UNL     1       3.332  56.128 -10.510  1.00  0.00     0.020 C 
HETATM   14  C21 UNL     1       4.016  53.733 -10.043  1.00  0.00     0.021 C 
HETATM   15  C22 UNL     1       5.328  53.734  -9.264  1.00  0.00     0.080 C 
HETATM   16  C23 UNL     1       5.600  55.038  -8.560  1.00  0.00     0.135 C 
HETATM   17  O1  UNL     1       6.693  55.592  -8.678  1.00  0.00    -0.297 OA
HETATM   18  C24 UNL     1       4.502  55.573  -7.634  1.00  0.00     0.018 C 
HETATM   19  C25 UNL     1       4.773  54.978  -6.236  1.00  0.00     0.023 C 
HETATM   20  C26 UNL     1       4.639  57.105  -7.519  1.00  0.00     0.023 C 
HETATM   21  C27 UNL     1       3.097  55.095  -8.145  1.00  0.00     0.020 C 
HETATM   22  C28 UNL     1       1.951  55.974  -7.648  1.00  0.00     0.090 C 
HETATM   23  C29 UNL     1       0.615  55.370  -7.989  1.00  0.00     0.157 C 
HETATM   24  O2  UNL     1      -0.347  55.555  -7.246  1.00  0.00    -0.293 OA
ENDROOT
BRANCH   1  25
HETATM   25  C6  UNL     1      -2.796  51.229 -11.421  1.00  0.00    -0.014 C 
HETATM   26  C7  UNL     1      -2.741  51.146 -12.949  1.00  0.00     0.010 C 
BRANCH  25  27
HETATM   27  C5  UNL     1      -4.187  50.775 -10.892  1.00  0.00     0.008 C 
BRANCH  27  28
HETATM   28  C4  UNL     1      -4.618  49.323 -11.153  1.00  0.00     0.028 C 
BRANCH  28  29
HETATM   29  C3  UNL     1      -5.238  48.645  -9.963  1.00  0.00    -0.013 C 
HETATM   30  C2  UNL     1      -6.535  48.624  -9.599  1.00  0.00     0.008 C 
HETATM   31  C1  UNL     1      -7.029  47.834  -8.424  1.00  0.00     0.055 C 
BRANCH  30  32
HETATM   32  C30 UNL     1      -7.602  49.332 -10.336  1.00  0.00     0.171 C 
HETATM   33  O3  UNL     1      -8.168  48.917 -11.333  1.00  0.00    -0.646 OA
BRANCH  32  34
HETATM   34  O4  UNL     1      -7.976  50.467  -9.731  1.00  0.00    -0.773 OA
HETATM   35  H44 UNL     1      -8.712  50.800 -10.284  1.00  0.00     0.167 HD
ENDBRANCH  32  34
ENDBRANCH  30  32
ENDBRANCH  28  29
ENDBRANCH  27  28
ENDBRANCH  25  27
ENDBRANCH   1  25
TORSDOF 6
ENDMDL
MODEL 5
REMARK minimizedAffinity -8.64341736
REMARK CNNscore 0.560467422
REMARK CNNaffinity 7.02256203
REMARK  6 active torsions:
REMARK  status: ('A' for Active; 'I' for Inactive)
REMARK    1  A    between atoms: C2_2  and  C30_32 
REMARK    2  A    between atoms: C3_3  and  C4_4 
REMARK    3  A    between atoms: C4_4  and  C5_5 
REMARK    4  A    between atoms: C5_5  and  C6_6 
REMARK    5  A    between atoms: C6_6  and  C8_8 
REMARK    6  A    between atoms: C30_32  and  O4_34 
ROOT
HETATM    1  C8  UNL     1      -3.155  48.161 -19.451  1.00  0.00    -0.002 C 
HETATM    2  C9  UNL     1      -1.815  48.431 -18.709  1.00  0.00     0.007 C 
HETATM    3  C10 UNL     1      -1.015  49.441 -19.553  1.00  0.00     0.015 C 
HETATM    4  C11 UNL     1      -2.023  49.997 -20.575  1.00  0.00    -0.005 C 
HETATM    5  C12 UNL     1      -2.819  51.134 -19.857  1.00  0.00     0.021 C 
HETATM    6  C13 UNL     1      -1.536  50.631 -21.873  1.00  0.00    -0.000 C 
HETATM    7  C14 UNL     1      -2.268  50.560 -23.016  1.00  0.00    -0.060 C 
HETATM    8  C15 UNL     1      -3.613  49.812 -23.032  1.00  0.00     0.036 C 
HETATM    9  C16 UNL     1      -4.059  49.108 -21.733  1.00  0.00     0.015 C 
HETATM   10  C17 UNL     1      -2.852  48.689 -20.886  1.00  0.00    -0.028 C 
HETATM   11  C18 UNL     1      -2.035  47.612 -21.671  1.00  0.00     0.016 C 
HETATM   12  C19 UNL     1      -1.828  51.210 -24.358  1.00  0.00    -0.014 C 
HETATM   13  C20 UNL     1      -2.699  52.473 -24.554  1.00  0.00     0.020 C 
HETATM   14  C21 UNL     1      -2.069  50.227 -25.543  1.00  0.00     0.021 C 
HETATM   15  C22 UNL     1      -1.226  50.454 -26.794  1.00  0.00     0.080 C 
HETATM   16  C23 UNL     1      -0.582  51.815 -26.839  1.00  0.00     0.135 C 
HETATM   17  O1  UNL     1      -0.674  52.515 -27.847  1.00  0.00    -0.297 OA
HETATM   18  C24 UNL     1       0.258  52.228 -25.624  1.00  0.00     0.018 C 
HETATM   19  C25 UNL     1       1.698  51.744 -25.895  1.00  0.00     0.023 C 
HETATM   20  C26 UNL     1       0.296  53.768 -25.535  1.00  0.00     0.023 C 
HETATM   21  C27 UNL     1      -0.296  51.529 -24.332  1.00  0.00     0.020 C 
HETATM   22  C28 UNL     1       0.093  52.255 -23.047  1.00  0.00     0.090 C 
HETATM   23  C29 UNL     1      -0.281  51.449 -21.832  1.00  0.00     0.157 C 
HETATM   24  O2  UNL     1       0.401  51.527 -20.812  1.00  0.00    -0.293 OA
ENDROOT
BRANCH   1  25
HETATM   25  C6  UNL     1      -3.650  46.702 -19.247  1.00  0.00    -0.014 C 
HETATM   26  C7  UNL     1      -5.156  46.542 -19.478  1.00  0.00     0.010 C 
BRANCH  25  27
HETATM   27  C5  UNL     1      -3.235  46.104 -17.872  1.00  0.00     0.008 C 
BRANCH  27  28
HETATM   28  C4  UNL     1      -3.225  44.574 -17.725  1.00  0.00     0.028 C 
BRANCH  28  29
HETATM   29  C3  UNL     1      -4.314  43.878 -18.492  1.00  0.00    -0.013 C 
HETATM   30  C2  UNL     1      -4.444  42.560 -18.744  1.00  0.00     0.008 C 
HETATM   31  C1  UNL     1      -5.633  41.991 -19.457  1.00  0.00     0.055 C 
BRANCH  30  32
HETATM   32  C30 UNL     1      -3.463  41.545 -18.308  1.00  0.00     0.171 C 
HETATM   33  O3  UNL     1      -3.547  40.867 -17.299  1.00  0.00    -0.646 OA
BRANCH  32  34
HETATM   34  O4  UNL     1      -2.488  41.357 -19.208  1.00  0.00    -0.773 OA
HETATM   35  H44 UNL     1      -1.949  40.635 -18.826  1.00  0.00     0.167 HD
ENDBRANCH  32  34
ENDBRANCH  30  32
ENDBRANCH  28  29
ENDBRANCH  27  28
ENDBRANCH  25  27
ENDBRANCH   1  25
TORSDOF 6
ENDMDL
MODEL 6
REMARK minimizedAffinity -7.34444189
REMARK CNNscore 0.484415919
REMARK CNNaffinity 6.79126024
REMARK  6 active torsions:
REMARK  status: ('A' for Active; 'I' for Inactive)
REMARK    1  A    between atoms: C2_2  and  C30_32 
REMARK    2  A    between atoms: C3_3  and  C4_4 
REMARK    3  A    between atoms: C4_4  and  C5_5 
REMARK    4  A    between atoms: C5_5  and  C6_6 
REMARK    5  A    between atoms: C6_6  and  C8_8 
REMARK    6  A    between atoms: C30_32  and  O4_34 
ROOT
HETATM    1  C8  UNL     1      -2.159  52.388 -10.903  1.00  0.00    -0.002 C 
HETATM    2  C9  UNL     1      -2.843  52.684  -9.538  1.00  0.00     0.007 C 
HETATM    3  C10 UNL     1      -1.887  53.578  -8.726  1.00  0.00     0.015 C 
HETATM    4  C11 UNL     1      -0.836  54.067  -9.740  1.00  0.00    -0.005 C 
HETATM    5  C12 UNL     1      -1.455  55.294 -10.482  1.00  0.00     0.021 C 
HETATM    6  C13 UNL     1       0.528  54.554  -9.264  1.00  0.00    -0.000 C 
HETATM    7  C14 UNL     1       1.642  54.396 -10.025  1.00  0.00    -0.060 C 
HETATM    8  C15 UNL     1       1.557  53.696 -11.393  1.00  0.00     0.036 C 
HETATM    9  C16 UNL     1       0.186  53.139 -11.830  1.00  0.00     0.015 C 
HETATM   10  C17 UNL     1      -0.673  52.763 -10.617  1.00  0.00    -0.028 C 
HETATM   11  C18 UNL     1       0.019  51.588  -9.854  1.00  0.00     0.016 C 
HETATM   12  C19 UNL     1       3.051  54.896  -9.596  1.00  0.00    -0.014 C 
HETATM   13  C20 UNL     1       3.353  56.163 -10.431  1.00  0.00     0.020 C 
HETATM   14  C21 UNL     1       4.128  53.811  -9.897  1.00  0.00     0.021 C 
HETATM   15  C22 UNL     1       5.413  53.886  -9.076  1.00  0.00     0.080 C 
HETATM   16  C23 UNL     1       5.604  55.213  -8.390  1.00  0.00     0.135 C 
HETATM   17  O1  UNL     1       6.674  55.814  -8.484  1.00  0.00    -0.297 OA
HETATM   18  C24 UNL     1       4.453  55.714  -7.510  1.00  0.00     0.018 C 
HETATM   19  C25 UNL     1       4.705  55.157  -6.092  1.00  0.00     0.023 C 
HETATM   20  C26 UNL     1       4.518  57.253  -7.420  1.00  0.00     0.023 C 
HETATM   21  C27 UNL     1       3.088  55.164  -8.055  1.00  0.00     0.020 C 
HETATM   22  C28 UNL     1       1.888  55.998  -7.612  1.00  0.00     0.090 C 
HETATM   23  C29 UNL     1       0.593  55.328  -7.983  1.00  0.00     0.157 C 
HETATM   24  O2  UNL     1      -0.401  55.482  -7.275  1.00  0.00    -0.293 OA
ENDROOT
BRANCH   1  25
HETATM   25  C6  UNL     1      -2.515  50.974 -11.440  1.00  0.00    -0.014 C 
HETATM   26  C7  UNL     1      -1.384  49.958 -11.250  1.00  0.00     0.010 C 
BRANCH  25  27
HETATM   27  C5  UNL     1      -3.003  50.988 -12.918  1.00  0.00     0.008 C 
BRANCH  27  28
HETATM   28  C4  UNL     1      -1.977  51.327 -14.011  1.00  0.00     0.028 C 
BRANCH  28  29
HETATM   29  C3  UNL     1      -0.757  50.449 -14.000  1.00  0.00    -0.013 C 
HETATM   30  C2  UNL     1       0.383  50.598 -14.703  1.00  0.00     0.008 C 
HETATM   31  C1  UNL     1       1.560  49.686 -14.530  1.00  0.00     0.055 C 
BRANCH  30  32
HETATM   32  C30 UNL     1       0.608  51.691 -15.671  1.00  0.00     0.171 C 
HETATM   33  O3  UNL     1       0.296  51.670 -16.848  1.00  0.00    -0.646 OA
BRANCH  32  34
HETATM   34  O4  UNL     1       1.115  52.789 -15.093  1.00  0.00    -0.773 OA
HETATM   35  H44 UNL     1       1.163  53.441 -15.822  1.00  0.00     0.167 HD
ENDBRANCH  32  34
ENDBRANCH  30  32
ENDBRANCH  28  29
ENDBRANCH  27  28
ENDBRANCH  25  27
ENDBRANCH   1  25
TORSDOF 6
ENDMDL
MODEL 7
REMARK minimizedAffinity -7.14495802
REMARK CNNscore 0.471696198
REMARK CNNaffinity 6.78181314
REMARK  6 active torsions:
REMARK  status: ('A' for Active; 'I' for Inactive)
REMARK    1  A    between atoms: C2_2  and  C30_32 
REMARK    2  A    between atoms: C3_3  and  C4_4 
REMARK    3  A    between atoms: C4_4  and  C5_5 
REMARK    4  A    between atoms: C5_5  and  C6_6 
REMARK    5  A    between atoms: C6_6  and  C8_8 
REMARK    6  A    between atoms: C30_32  and  O4_34 
ROOT
HETATM    1  C8  UNL     1      -1.993  52.125 -10.287  1.00  0.00    -0.002 C 
HETATM    2  C9  UNL     1      -1.234  51.105 -11.183  1.00  0.00     0.007 C 
HETATM    3  C10 UNL     1       0.261  51.201 -10.829  1.00  0.00     0.015 C 
HETATM    4  C11 UNL     1       0.312  52.008  -9.519  1.00  0.00    -0.005 C 
HETATM    5  C12 UNL     1       0.037  51.003  -8.354  1.00  0.00     0.021 C 
HETATM    6  C13 UNL     1       1.589  52.731  -9.107  1.00  0.00    -0.000 C 
HETATM    7  C14 UNL     1       1.550  53.887  -8.393  1.00  0.00    -0.060 C 
HETATM    8  C15 UNL     1       0.200  54.510  -7.995  1.00  0.00     0.036 C 
HETATM    9  C16 UNL     1      -1.085  53.810  -8.483  1.00  0.00     0.015 C 
HETATM   10  C17 UNL     1      -0.841  53.051  -9.792  1.00  0.00    -0.028 C 
HETATM   11  C18 UNL     1      -0.488  54.081 -10.914  1.00  0.00     0.016 C 
HETATM   12  C19 UNL     1       2.823  54.650  -7.928  1.00  0.00    -0.014 C 
HETATM   13  C20 UNL     1       2.978  54.386  -6.411  1.00  0.00     0.020 C 
HETATM   14  C21 UNL     1       2.659  56.181  -8.172  1.00  0.00     0.021 C 
HETATM   15  C22 UNL     1       3.947  56.989  -8.296  1.00  0.00     0.080 C 
HETATM   16  C23 UNL     1       5.159  56.260  -7.778  1.00  0.00     0.135 C 
HETATM   17  O1  UNL     1       5.930  56.814  -6.994  1.00  0.00    -0.297 OA
HETATM   18  C24 UNL     1       5.425  54.861  -8.344  1.00  0.00     0.018 C 
HETATM   19  C25 UNL     1       6.307  55.050  -9.597  1.00  0.00     0.023 C 
HETATM   20  C26 UNL     1       6.245  54.049  -7.320  1.00  0.00     0.023 C 
HETATM   21  C27 UNL     1       4.069  54.186  -8.754  1.00  0.00     0.020 C 
HETATM   22  C28 UNL     1       4.154  52.663  -8.813  1.00  0.00     0.090 C 
HETATM   23  C29 UNL     1       2.901  52.071  -9.402  1.00  0.00     0.157 C 
HETATM   24  O2  UNL     1       2.963  51.027 -10.048  1.00  0.00    -0.293 OA
ENDROOT
BRANCH   1  25
HETATM   25  C6  UNL     1      -3.225  52.735 -11.013  1.00  0.00    -0.014 C 
HETATM   26  C7  UNL     1      -3.635  54.100 -10.453  1.00  0.00     0.010 C 
BRANCH  25  27
HETATM   27  C5  UNL     1      -4.443  51.768 -11.061  1.00  0.00     0.008 C 
BRANCH  27  28
HETATM   28  C4  UNL     1      -4.445  50.563 -10.106  1.00  0.00     0.028 C 
BRANCH  28  29
HETATM   29  C3  UNL     1      -4.895  49.278 -10.742  1.00  0.00    -0.013 C 
HETATM   30  C2  UNL     1      -6.148  48.792 -10.840  1.00  0.00     0.008 C 
HETATM   31  C1  UNL     1      -6.465  47.527 -11.580  1.00  0.00     0.055 C 
BRANCH  30  32
HETATM   32  C30 UNL     1      -7.334  49.470 -10.278  1.00  0.00     0.171 C 
HETATM   33  O3  UNL     1      -8.351  49.744 -10.891  1.00  0.00    -0.646 OA
BRANCH  32  34
HETATM   34  O4  UNL     1      -7.227  49.675  -8.958  1.00  0.00    -0.773 OA
HETATM   35  H44 UNL     1      -8.086  50.074  -8.709  1.00  0.00     0.167 HD
ENDBRANCH  32  34
ENDBRANCH  30  32
ENDBRANCH  28  29
ENDBRANCH  27  28
ENDBRANCH  25  27
ENDBRANCH   1  25
TORSDOF 6
ENDMDL
MODEL 8
REMARK minimizedAffinity -7.22775412
REMARK CNNscore 0.412770003
REMARK CNNaffinity 6.21981287
REMARK  6 active torsions:
REMARK  status: ('A' for Active; 'I' for Inactive)
REMARK    1  A    between atoms: C2_2  and  C30_32 
REMARK    2  A    between atoms: C3_3  and  C4_4 
REMARK    3  A    between atoms: C4_4  and  C5_5 
REMARK    4  A    between atoms: C5_5  and  C6_6 
REMARK    5  A    between atoms: C6_6  and  C8_8 
REMARK    6  A    between atoms: C30_32  and  O4_34 
ROOT
HETATM    1  C8  UNL     1      -9.145  45.843 -34.335  1.00  0.00    -0.002 C 
HETATM    2  C9  UNL     1      -8.603  47.289 -34.514  1.00  0.00     0.007 C 
HETATM    3  C10 UNL     1      -8.171  47.797 -33.126  1.00  0.00     0.015 C 
HETATM    4  C11 UNL     1      -8.144  46.545 -32.231  1.00  0.00    -0.005 C 
HETATM    5  C12 UNL     1      -6.769  45.843 -32.471  1.00  0.00     0.021 C 
HETATM    6  C13 UNL     1      -8.249  46.676 -30.716  1.00  0.00    -0.000 C 
HETATM    7  C14 UNL     1      -8.840  45.714 -29.960  1.00  0.00    -0.060 C 
HETATM    8  C15 UNL     1      -9.442  44.463 -30.625  1.00  0.00     0.036 C 
HETATM    9  C16 UNL     1      -9.399  44.378 -32.165  1.00  0.00     0.015 C 
HETATM   10  C17 UNL     1      -9.400  45.773 -32.799  1.00  0.00    -0.028 C 
HETATM   11  C18 UNL     1     -10.757  46.475 -32.469  1.00  0.00     0.016 C 
HETATM   12  C19 UNL     1      -8.950  45.789 -28.411  1.00  0.00    -0.014 C 
HETATM   13  C20 UNL     1      -7.909  44.798 -27.836  1.00  0.00     0.020 C 
HETATM   14  C21 UNL     1     -10.376  45.366 -27.946  1.00  0.00     0.021 C 
HETATM   15  C22 UNL     1     -10.827  45.886 -26.584  1.00  0.00     0.080 C 
HETATM   16  C23 UNL     1      -9.691  46.394 -25.735  1.00  0.00     0.135 C 
HETATM   17  O1  UNL     1      -9.572  46.023 -24.568  1.00  0.00    -0.297 OA
HETATM   18  C24 UNL     1      -8.772  47.449 -26.362  1.00  0.00     0.018 C 
HETATM   19  C25 UNL     1      -9.387  48.826 -26.030  1.00  0.00     0.023 C 
HETATM   20  C26 UNL     1      -7.390  47.385 -25.680  1.00  0.00     0.023 C 
HETATM   21  C27 UNL     1      -8.725  47.256 -27.919  1.00  0.00     0.020 C 
HETATM   22  C28 UNL     1      -7.479  47.867 -28.558  1.00  0.00     0.090 C 
HETATM   23  C29 UNL     1      -7.570  47.839 -30.060  1.00  0.00     0.157 C 
HETATM   24  O2  UNL     1      -7.031  48.725 -30.722  1.00  0.00    -0.293 OA
ENDROOT
BRANCH   1  25
HETATM   25  C6  UNL     1     -10.295  45.523 -35.331  1.00  0.00    -0.014 C 
HETATM   26  C7  UNL     1     -10.197  44.115 -35.926  1.00  0.00     0.010 C 
BRANCH  25  27
HETATM   27  C5  UNL     1     -10.442  46.590 -36.454  1.00  0.00     0.008 C 
BRANCH  27  28
HETATM   28  C4  UNL     1     -11.744  46.600 -37.271  1.00  0.00     0.028 C 
BRANCH  28  29
HETATM   29  C3  UNL     1     -11.591  47.154 -38.660  1.00  0.00    -0.013 C 
HETATM   30  C2  UNL     1     -12.117  48.286 -39.168  1.00  0.00     0.008 C 
HETATM   31  C1  UNL     1     -11.812  48.762 -40.556  1.00  0.00     0.055 C 
BRANCH  30  32
HETATM   32  C30 UNL     1     -13.000  49.191 -38.404  1.00  0.00     0.171 C 
HETATM   33  O3  UNL     1     -13.397  49.000 -37.268  1.00  0.00    -0.646 OA
BRANCH  32  34
HETATM   34  O4  UNL     1     -13.252  50.332 -39.060  1.00  0.00    -0.773 OA
HETATM   35  H44 UNL     1     -13.792  50.853 -38.431  1.00  0.00     0.167 HD
ENDBRANCH  32  34
ENDBRANCH  30  32
ENDBRANCH  28  29
ENDBRANCH  27  28
ENDBRANCH  25  27
ENDBRANCH   1  25
TORSDOF 6
ENDMDL
MODEL 9
REMARK minimizedAffinity -7.98538542
REMARK CNNscore 0.365717739
REMARK CNNaffinity 6.79435301
REMARK  6 active torsions:
REMARK  status: ('A' for Active; 'I' for Inactive)
REMARK    1  A    between atoms: C2_2  and  C30_32 
REMARK    2  A    between atoms: C3_3  and  C4_4 
REMARK    3  A    between atoms: C4_4  and  C5_5 
REMARK    4  A    between atoms: C5_5  and  C6_6 
REMARK    5  A    between atoms: C6_6  and  C8_8 
REMARK    6  A    between atoms: C30_32  and  O4_34 
ROOT
HETATM    1  C8  UNL     1      -3.304  47.840 -19.635  1.00  0.00    -0.002 C 
HETATM    2  C9  UNL     1      -1.984  48.102 -18.853  1.00  0.00     0.007 C 
HETATM    3  C10 UNL     1      -1.188  49.165 -19.634  1.00  0.00     0.015 C 
HETATM    4  C11 UNL     1      -2.187  49.748 -20.650  1.00  0.00    -0.005 C 
HETATM    5  C12 UNL     1      -3.020  50.835 -19.898  1.00  0.00     0.021 C 
HETATM    6  C13 UNL     1      -1.687  50.450 -21.908  1.00  0.00    -0.000 C 
HETATM    7  C14 UNL     1      -2.395  50.417 -23.067  1.00  0.00    -0.060 C 
HETATM    8  C15 UNL     1      -3.724  49.644 -23.145  1.00  0.00     0.036 C 
HETATM    9  C16 UNL     1      -4.180  48.874 -21.889  1.00  0.00     0.015 C 
HETATM   10  C17 UNL     1      -2.982  48.440 -21.037  1.00  0.00    -0.028 C 
HETATM   11  C18 UNL     1      -2.128  47.416 -21.853  1.00  0.00     0.016 C 
HETATM   12  C19 UNL     1      -1.941  51.136 -24.369  1.00  0.00    -0.014 C 
HETATM   13  C20 UNL     1      -2.834  52.390 -24.526  1.00  0.00     0.020 C 
HETATM   14  C21 UNL     1      -2.138  50.204 -25.603  1.00  0.00     0.021 C 
HETATM   15  C22 UNL     1      -1.275  50.505 -26.824  1.00  0.00     0.080 C 
HETATM   16  C23 UNL     1      -0.658  51.878 -26.793  1.00  0.00     0.135 C 
HETATM   17  O1  UNL     1      -0.744  52.622 -27.770  1.00  0.00    -0.297 OA
HETATM   18  C24 UNL     1       0.148  52.251 -25.544  1.00  0.00     0.018 C 
HETATM   19  C25 UNL     1       1.604  51.808 -25.807  1.00  0.00     0.023 C 
HETATM   20  C26 UNL     1       0.154  53.786 -25.385  1.00  0.00     0.023 C 
HETATM   21  C27 UNL     1      -0.417  51.483 -24.297  1.00  0.00     0.020 C 
HETATM   22  C28 UNL     1      -0.068  52.157 -22.972  1.00  0.00     0.090 C 
HETATM   23  C29 UNL     1      -0.450  51.289 -21.803  1.00  0.00     0.157 C 
HETATM   24  O2  UNL     1       0.210  51.333 -20.767  1.00  0.00    -0.293 OA
ENDROOT
BRANCH   1  25
HETATM   25  C6  UNL     1      -3.773  46.364 -19.508  1.00  0.00    -0.014 C 
HETATM   26  C7  UNL     1      -5.296  46.213 -19.555  1.00  0.00     0.010 C 
BRANCH  25  27
HETATM   27  C5  UNL     1      -3.185  45.643 -18.260  1.00  0.00     0.008 C 
BRANCH  27  28
HETATM   28  C4  UNL     1      -4.117  45.399 -17.063  1.00  0.00     0.028 C 
BRANCH  28  29
HETATM   29  C3  UNL     1      -3.750  46.180 -15.832  1.00  0.00    -0.013 C 
HETATM   30  C2  UNL     1      -4.479  46.362 -14.713  1.00  0.00     0.008 C 
HETATM   31  C1  UNL     1      -3.952  47.102 -13.521  1.00  0.00     0.055 C 
BRANCH  30  32
HETATM   32  C30 UNL     1      -5.841  45.819 -14.528  1.00  0.00     0.171 C 
HETATM   33  O3  UNL     1      -6.116  44.783 -13.948  1.00  0.00    -0.646 OA
BRANCH  32  34
HETATM   34  O4  UNL     1      -6.789  46.649 -14.984  1.00  0.00    -0.773 OA
HETATM   35  H44 UNL     1      -7.628  46.200 -14.753  1.00  0.00     0.167 HD
ENDBRANCH  32  34
ENDBRANCH  30  32
ENDBRANCH  28  29
ENDBRANCH  27  28
ENDBRANCH  25  27
ENDBRANCH   1  25
TORSDOF 6
ENDMDL
