MODEL 1
REMARK minimizedAffinity -9.56244564
REMARK  4 active torsions:
REMARK  status: ('A' for Active; 'I' for Inactive)
REMARK    1  A    between atoms: C2_2  and  C3_3 
REMARK    2  A    between atoms: C2_2  and  C9_9 
REMARK    3  A    between atoms: C3_3  and  C4_4 
REMARK    4  A    between atoms: C4_4  and  C5_5 
ROOT
HETATM    1  C9  UNL     1      -1.421  51.329 -17.062  1.00  0.00     0.018 C 
HETATM    2  C10 UNL     1       0.144  51.337 -17.077  1.00  0.00     0.010 C 
HETATM    3  C11 UNL     1       0.589  51.073 -18.523  1.00  0.00     0.011 C 
HETATM    4  C12 UNL     1      -0.573  51.588 -19.382  1.00  0.00    -0.032 C 
HETATM    5  C13 UNL     1      -0.511  53.156 -19.331  1.00  0.00     0.016 C 
HETATM    6  C14 UNL     1      -1.770  51.033 -18.552  1.00  0.00     0.002 C 
HETATM    7  C15 UNL     1      -3.078  51.570 -19.130  1.00  0.00     0.006 C 
HETATM    8  C16 UNL     1      -3.234  51.130 -20.593  1.00  0.00     0.006 C 
HETATM    9  C17 UNL     1      -2.031  51.493 -21.506  1.00  0.00     0.003 C 
HETATM   10  C18 UNL     1      -2.255  51.160 -23.059  1.00  0.00    -0.035 C 
HETATM   11  C19 UNL     1      -3.054  49.845 -23.222  1.00  0.00     0.016 C 
HETATM   12  C20 UNL     1      -3.122  52.331 -23.624  1.00  0.00     0.017 C 
HETATM   13  C21 UNL     1      -3.293  52.342 -25.129  1.00  0.00     0.080 C 
HETATM   14  C22 UNL     1      -1.943  52.364 -25.802  1.00  0.00     0.135 C 
HETATM   15  O1  UNL     1      -1.699  53.196 -26.678  1.00  0.00    -0.297 OA
HETATM   16  C23 UNL     1      -0.955  51.259 -25.422  1.00  0.00     0.017 C 
HETATM   17  C24 UNL     1       0.427  51.590 -26.039  1.00  0.00     0.023 C 
HETATM   18  C25 UNL     1      -1.415  49.961 -26.126  1.00  0.00     0.023 C 
HETATM   19  C26 UNL     1      -0.877  51.085 -23.847  1.00  0.00     0.009 C 
HETATM   20  C27 UNL     1       0.124  52.047 -23.171  1.00  0.00     0.007 C 
HETATM   21  C28 UNL     1       0.510  51.615 -21.750  1.00  0.00     0.011 C 
HETATM   22  C29 UNL     1      -0.653  51.043 -20.888  1.00  0.00    -0.032 C 
HETATM   23  C30 UNL     1      -0.526  49.492 -20.917  1.00  0.00     0.016 C 
ENDROOT
BRANCH   1  24
HETATM   24  C2  UNL     1      -2.064  50.421 -16.000  1.00  0.00    -0.084 C 
HETATM   25  C1  UNL     1      -1.718  49.134 -15.798  1.00  0.00     0.014 C 
BRANCH  24  26
HETATM   26  C3  UNL     1      -3.117  51.009 -15.074  1.00  0.00     0.037 C 
BRANCH  26  27
HETATM   27  C4  UNL     1      -2.714  50.931 -13.598  1.00  0.00     0.031 C 
BRANCH  27  28
HETATM   28  C5  UNL     1      -3.002  52.223 -12.879  1.00  0.00    -0.024 C 
HETATM   29  C6  UNL     1      -3.640  52.393 -11.705  1.00  0.00    -0.091 C 
HETATM   30  C7  UNL     1      -4.236  51.288 -10.877  1.00  0.00     0.042 C 
HETATM   31  C8  UNL     1      -3.821  53.769 -11.122  1.00  0.00     0.042 C 
ENDBRANCH  27  28
ENDBRANCH  26  27
ENDBRANCH  24  26
ENDBRANCH   1  24
TORSDOF 4
ENDMDL
MODEL 2
REMARK minimizedAffinity -9.27722073
REMARK  4 active torsions:
REMARK  status: ('A' for Active; 'I' for Inactive)
REMARK    1  A    between atoms: C2_2  and  C3_3 
REMARK    2  A    between atoms: C2_2  and  C9_9 
REMARK    3  A    between atoms: C3_3  and  C4_4 
REMARK    4  A    between atoms: C4_4  and  C5_5 
ROOT
HETATM    1  C9  UNL     1      -1.090  52.202 -22.133  1.00  0.00     0.018 C 
HETATM    2  C10 UNL     1      -0.658  51.865 -23.598  1.00  0.00     0.010 C 
HETATM    3  C11 UNL     1      -1.479  50.646 -24.048  1.00  0.00     0.011 C 
HETATM    4  C12 UNL     1      -2.765  50.721 -23.215  1.00  0.00    -0.032 C 
HETATM    5  C13 UNL     1      -3.620  51.896 -23.812  1.00  0.00     0.016 C 
HETATM    6  C14 UNL     1      -2.153  51.101 -21.834  1.00  0.00     0.002 C 
HETATM    7  C15 UNL     1      -3.280  51.405 -20.848  1.00  0.00     0.006 C 
HETATM    8  C16 UNL     1      -4.183  50.174 -20.677  1.00  0.00     0.006 C 
HETATM    9  C17 UNL     1      -4.745  49.599 -22.006  1.00  0.00     0.003 C 
HETATM   10  C18 UNL     1      -5.799  48.404 -21.816  1.00  0.00    -0.035 C 
HETATM   11  C19 UNL     1      -5.387  47.502 -20.628  1.00  0.00     0.016 C 
HETATM   12  C20 UNL     1      -7.158  49.089 -21.461  1.00  0.00     0.017 C 
HETATM   13  C21 UNL     1      -8.359  48.167 -21.436  1.00  0.00     0.080 C 
HETATM   14  C22 UNL     1      -8.498  47.463 -22.763  1.00  0.00     0.135 C 
HETATM   15  O1  UNL     1      -9.580  47.461 -23.355  1.00  0.00    -0.297 OA
HETATM   16  C23 UNL     1      -7.283  46.682 -23.270  1.00  0.00     0.017 C 
HETATM   17  C24 UNL     1      -7.550  46.236 -24.728  1.00  0.00     0.023 C 
HETATM   18  C25 UNL     1      -7.197  45.373 -22.451  1.00  0.00     0.023 C 
HETATM   19  C26 UNL     1      -5.961  47.549 -23.146  1.00  0.00     0.009 C 
HETATM   20  C27 UNL     1      -5.718  48.478 -24.355  1.00  0.00     0.007 C 
HETATM   21  C28 UNL     1      -4.274  48.990 -24.442  1.00  0.00     0.011 C 
HETATM   22  C29 UNL     1      -3.618  49.370 -23.084  1.00  0.00    -0.032 C 
HETATM   23  C30 UNL     1      -2.702  48.183 -22.667  1.00  0.00     0.016 C 
ENDROOT
BRANCH   1  24
HETATM   24  C2  UNL     1       0.062  52.352 -21.125  1.00  0.00    -0.084 C 
HETATM   25  C1  UNL     1       1.189  53.051 -21.365  1.00  0.00     0.014 C 
BRANCH  24  26
HETATM   26  C3  UNL     1      -0.086  51.728 -19.746  1.00  0.00     0.037 C 
BRANCH  26  27
HETATM   27  C4  UNL     1       0.564  52.572 -18.644  1.00  0.00     0.031 C 
BRANCH  27  28
HETATM   28  C5  UNL     1       0.678  51.801 -17.355  1.00  0.00    -0.024 C 
HETATM   29  C6  UNL     1       1.665  51.859 -16.440  1.00  0.00    -0.091 C 
HETATM   30  C7  UNL     1       2.901  52.708 -16.555  1.00  0.00     0.042 C 
HETATM   31  C8  UNL     1       1.601  51.024 -15.189  1.00  0.00     0.042 C 
ENDBRANCH  27  28
ENDBRANCH  26  27
ENDBRANCH  24  26
ENDBRANCH   1  24
TORSDOF 4
ENDMDL
MODEL 3
REMARK minimizedAffinity -9.04374886
REMARK  4 active torsions:
REMARK  status: ('A' for Active; 'I' for Inactive)
REMARK    1  A    between atoms: C2_2  and  C3_3 
REMARK    2  A    between atoms: C2_2  and  C9_9 
REMARK    3  A    between atoms: C3_3  and  C4_4 
REMARK    4  A    between atoms: C4_4  and  C5_5 
ROOT
HETATM    1  C9  UNL     1      -1.084  52.416 -24.201  1.00  0.00     0.018 C 
HETATM    2  C10 UNL     1      -0.775  51.621 -25.513  1.00  0.00     0.010 C 
HETATM    3  C11 UNL     1      -1.580  50.314 -25.456  1.00  0.00     0.011 C 
HETATM    4  C12 UNL     1      -2.786  50.644 -24.567  1.00  0.00    -0.032 C 
HETATM    5  C13 UNL     1      -3.742  51.549 -25.423  1.00  0.00     0.016 C 
HETATM    6  C14 UNL     1      -2.066  51.463 -23.454  1.00  0.00     0.002 C 
HETATM    7  C15 UNL     1      -3.108  52.061 -22.511  1.00  0.00     0.006 C 
HETATM    8  C16 UNL     1      -3.938  50.944 -21.858  1.00  0.00     0.006 C 
HETATM    9  C17 UNL     1      -4.594  49.959 -22.863  1.00  0.00     0.003 C 
HETATM   10  C18 UNL     1      -5.573  48.881 -22.189  1.00  0.00    -0.035 C 
HETATM   11  C19 UNL     1      -5.014  48.423 -20.821  1.00  0.00     0.016 C 
HETATM   12  C20 UNL     1      -6.922  49.630 -21.939  1.00  0.00     0.017 C 
HETATM   13  C21 UNL     1      -8.075  48.754 -21.494  1.00  0.00     0.080 C 
HETATM   14  C22 UNL     1      -8.305  47.653 -22.499  1.00  0.00     0.135 C 
HETATM   15  O1  UNL     1      -9.436  47.445 -22.944  1.00  0.00    -0.297 OA
HETATM   16  C23 UNL     1      -7.110  46.762 -22.845  1.00  0.00     0.017 C 
HETATM   17  C24 UNL     1      -7.491  45.859 -24.044  1.00  0.00     0.023 C 
HETATM   18  C25 UNL     1      -6.891  45.794 -21.658  1.00  0.00     0.023 C 
HETATM   19  C26 UNL     1      -5.820  47.636 -23.145  1.00  0.00     0.009 C 
HETATM   20  C27 UNL     1      -5.731  48.120 -24.609  1.00  0.00     0.007 C 
HETATM   21  C28 UNL     1      -4.325  48.590 -25.004  1.00  0.00     0.011 C 
HETATM   22  C29 UNL     1      -3.564  49.402 -23.917  1.00  0.00    -0.032 C 
HETATM   23  C30 UNL     1      -2.562  48.426 -23.231  1.00  0.00     0.016 C 
ENDROOT
BRANCH   1  24
HETATM   24  C2  UNL     1       0.149  52.900 -23.419  1.00  0.00    -0.084 C 
HETATM   25  C1  UNL     1       0.975  53.879 -23.842  1.00  0.00     0.014 C 
BRANCH  24  26
HETATM   26  C3  UNL     1       0.438  52.290 -22.056  1.00  0.00     0.037 C 
BRANCH  26  27
HETATM   27  C4  UNL     1       0.535  53.343 -20.947  1.00  0.00     0.031 C 
BRANCH  27  28
HETATM   28  C5  UNL     1       0.803  52.708 -19.607  1.00  0.00    -0.024 C 
HETATM   29  C6  UNL     1      -0.060  52.038 -18.821  1.00  0.00    -0.091 C 
HETATM   30  C7  UNL     1      -1.516  51.818 -19.126  1.00  0.00     0.042 C 
HETATM   31  C8  UNL     1       0.393  51.448 -17.512  1.00  0.00     0.042 C 
ENDBRANCH  27  28
ENDBRANCH  26  27
ENDBRANCH  24  26
ENDBRANCH   1  24
TORSDOF 4
ENDMDL
MODEL 4
REMARK minimizedAffinity -8.94364166
REMARK  4 active torsions:
REMARK  status: ('A' for Active; 'I' for Inactive)
REMARK    1  A    between atoms: C2_2  and  C3_3 
REMARK    2  A    between atoms: C2_2  and  C9_9 
REMARK    3  A    between atoms: C3_3  and  C4_4 
REMARK    4  A    between atoms: C4_4  and  C5_5 
ROOT
HETATM    1  C9  UNL     1       0.241  51.713 -21.510  1.00  0.00     0.018 C 
HETATM    2  C10 UNL     1       0.456  51.427 -19.987  1.00  0.00     0.010 C 
HETATM    3  C11 UNL     1      -0.865  50.870 -19.435  1.00  0.00     0.011 C 
HETATM    4  C12 UNL     1      -1.540  50.212 -20.646  1.00  0.00    -0.032 C 
HETATM    5  C13 UNL     1      -0.752  48.885 -20.935  1.00  0.00     0.016 C 
HETATM    6  C14 UNL     1      -1.247  51.299 -21.723  1.00  0.00     0.002 C 
HETATM    7  C15 UNL     1      -1.686  50.786 -23.093  1.00  0.00     0.006 C 
HETATM    8  C16 UNL     1      -3.191  50.475 -23.087  1.00  0.00     0.006 C 
HETATM    9  C17 UNL     1      -3.644  49.511 -21.958  1.00  0.00     0.003 C 
HETATM   10  C18 UNL     1      -5.187  49.077 -22.039  1.00  0.00    -0.035 C 
HETATM   11  C19 UNL     1      -6.058  50.261 -22.520  1.00  0.00     0.016 C 
HETATM   12  C20 UNL     1      -5.255  47.950 -23.120  1.00  0.00     0.017 C 
HETATM   13  C21 UNL     1      -6.586  47.236 -23.227  1.00  0.00     0.080 C 
HETATM   14  C22 UNL     1      -6.970  46.654 -21.889  1.00  0.00     0.135 C 
HETATM   15  O1  UNL     1      -7.310  45.473 -21.800  1.00  0.00    -0.297 OA
HETATM   16  C23 UNL     1      -7.015  47.613 -20.697  1.00  0.00     0.017 C 
HETATM   17  C24 UNL     1      -7.200  46.789 -19.400  1.00  0.00     0.023 C 
HETATM   18  C25 UNL     1      -8.302  48.460 -20.830  1.00  0.00     0.023 C 
HETATM   19  C26 UNL     1      -5.711  48.516 -20.647  1.00  0.00     0.009 C 
HETATM   20  C27 UNL     1      -4.528  47.850 -19.913  1.00  0.00     0.007 C 
HETATM   21  C28 UNL     1      -3.437  48.845 -19.500  1.00  0.00     0.011 C 
HETATM   22  C29 UNL     1      -3.119  49.957 -20.541  1.00  0.00    -0.032 C 
HETATM   23  C30 UNL     1      -3.853  51.248 -20.074  1.00  0.00     0.016 C 
ENDROOT
BRANCH   1  24
HETATM   24  C2  UNL     1       0.650  53.119 -21.979  1.00  0.00    -0.084 C 
HETATM   25  C1  UNL     1       1.042  54.108 -21.151  1.00  0.00     0.014 C 
BRANCH  24  26
HETATM   26  C3  UNL     1       0.674  53.415 -23.470  1.00  0.00     0.037 C 
BRANCH  26  27
HETATM   27  C4  UNL     1       1.121  52.209 -24.304  1.00  0.00     0.031 C 
BRANCH  27  28
HETATM   28  C5  UNL     1       0.550  52.261 -25.697  1.00  0.00    -0.024 C 
HETATM   29  C6  UNL     1       1.176  51.985 -26.858  1.00  0.00    -0.091 C 
HETATM   30  C7  UNL     1       2.622  51.595 -26.990  1.00  0.00     0.042 C 
HETATM   31  C8  UNL     1       0.436  52.071 -28.166  1.00  0.00     0.042 C 
ENDBRANCH  27  28
ENDBRANCH  26  27
ENDBRANCH  24  26
ENDBRANCH   1  24
TORSDOF 4
ENDMDL
MODEL 5
REMARK minimizedAffinity -8.90321445
REMARK  4 active torsions:
REMARK  status: ('A' for Active; 'I' for Inactive)
REMARK    1  A    between atoms: C2_2  and  C3_3 
REMARK    2  A    between atoms: C2_2  and  C9_9 
REMARK    3  A    between atoms: C3_3  and  C4_4 
REMARK    4  A    between atoms: C4_4  and  C5_5 
ROOT
HETATM    1  C9  UNL     1      -1.578  51.839 -24.891  1.00  0.00     0.018 C 
HETATM    2  C10 UNL     1      -2.784  52.211 -25.816  1.00  0.00     0.010 C 
HETATM    3  C11 UNL     1      -3.990  51.379 -25.353  1.00  0.00     0.011 C 
HETATM    4  C12 UNL     1      -3.720  51.107 -23.867  1.00  0.00    -0.032 C 
HETATM    5  C13 UNL     1      -3.977  52.457 -23.108  1.00  0.00     0.016 C 
HETATM    6  C14 UNL     1      -2.200  50.770 -23.941  1.00  0.00     0.002 C 
HETATM    7  C15 UNL     1      -1.645  50.621 -22.526  1.00  0.00     0.006 C 
HETATM    8  C16 UNL     1      -2.376  49.491 -21.785  1.00  0.00     0.006 C 
HETATM    9  C17 UNL     1      -3.923  49.628 -21.766  1.00  0.00     0.003 C 
HETATM   10  C18 UNL     1      -4.673  48.527 -20.873  1.00  0.00    -0.035 C 
HETATM   11  C19 UNL     1      -3.963  47.158 -20.990  1.00  0.00     0.016 C 
HETATM   12  C20 UNL     1      -4.546  49.019 -19.395  1.00  0.00     0.017 C 
HETATM   13  C21 UNL     1      -5.360  48.241 -18.382  1.00  0.00     0.080 C 
HETATM   14  C22 UNL     1      -6.817  48.248 -18.776  1.00  0.00     0.135 C 
HETATM   15  O1  UNL     1      -7.680  48.566 -17.956  1.00  0.00    -0.297 OA
HETATM   16  C23 UNL     1      -7.163  47.748 -20.180  1.00  0.00     0.017 C 
HETATM   17  C24 UNL     1      -8.656  48.048 -20.463  1.00  0.00     0.023 C 
HETATM   18  C25 UNL     1      -7.052  46.205 -20.165  1.00  0.00     0.023 C 
HETATM   19  C26 UNL     1      -6.209  48.402 -21.265  1.00  0.00     0.009 C 
HETATM   20  C27 UNL     1      -6.698  49.779 -21.765  1.00  0.00     0.007 C 
HETATM   21  C28 UNL     1      -6.035  50.214 -23.079  1.00  0.00     0.011 C 
HETATM   22  C29 UNL     1      -4.519  49.887 -23.201  1.00  0.00    -0.032 C 
HETATM   23  C30 UNL     1      -4.394  48.607 -24.079  1.00  0.00     0.016 C 
ENDROOT
BRANCH   1  24
HETATM   24  C2  UNL     1      -0.281  51.453 -25.622  1.00  0.00    -0.084 C 
HETATM   25  C1  UNL     1      -0.229  50.610 -26.672  1.00  0.00     0.014 C 
BRANCH  24  26
HETATM   26  C3  UNL     1       1.025  52.098 -25.186  1.00  0.00     0.037 C 
BRANCH  26  27
HETATM   27  C4  UNL     1       0.812  53.258 -24.208  1.00  0.00     0.031 C 
BRANCH  27  28
HETATM   28  C5  UNL     1       0.654  52.764 -22.793  1.00  0.00    -0.024 C 
HETATM   29  C6  UNL     1       1.078  53.352 -21.658  1.00  0.00    -0.091 C 
HETATM   30  C7  UNL     1       1.848  54.642 -21.589  1.00  0.00     0.042 C 
HETATM   31  C8  UNL     1       0.810  52.718 -20.320  1.00  0.00     0.042 C 
ENDBRANCH  27  28
ENDBRANCH  26  27
ENDBRANCH  24  26
ENDBRANCH   1  24
TORSDOF 4
ENDMDL
MODEL 6
REMARK minimizedAffinity -8.90177917
REMARK  4 active torsions:
REMARK  status: ('A' for Active; 'I' for Inactive)
REMARK    1  A    between atoms: C2_2  and  C3_3 
REMARK    2  A    between atoms: C2_2  and  C9_9 
REMARK    3  A    between atoms: C3_3  and  C4_4 
REMARK    4  A    between atoms: C4_4  and  C5_5 
ROOT
HETATM    1  C9  UNL     1       0.101  51.635 -20.888  1.00  0.00     0.018 C 
HETATM    2  C10 UNL     1      -0.166  52.313 -19.504  1.00  0.00     0.010 C 
HETATM    3  C11 UNL     1      -1.557  51.862 -19.034  1.00  0.00     0.011 C 
HETATM    4  C12 UNL     1      -1.767  50.500 -19.708  1.00  0.00    -0.032 C 
HETATM    5  C13 UNL     1      -0.848  49.477 -18.950  1.00  0.00     0.016 C 
HETATM    6  C14 UNL     1      -1.212  50.829 -21.126  1.00  0.00     0.002 C 
HETATM    7  C15 UNL     1      -1.157  49.548 -21.958  1.00  0.00     0.006 C 
HETATM    8  C16 UNL     1      -2.562  48.942 -22.095  1.00  0.00     0.006 C 
HETATM    9  C17 UNL     1      -3.293  48.701 -20.746  1.00  0.00     0.003 C 
HETATM   10  C18 UNL     1      -4.698  47.939 -20.882  1.00  0.00    -0.035 C 
HETATM   11  C19 UNL     1      -5.442  48.399 -22.159  1.00  0.00     0.016 C 
HETATM   12  C20 UNL     1      -4.348  46.425 -21.039  1.00  0.00     0.017 C 
HETATM   13  C21 UNL     1      -5.528  45.478 -20.980  1.00  0.00     0.080 C 
HETATM   14  C22 UNL     1      -6.283  45.674 -19.688  1.00  0.00     0.135 C 
HETATM   15  O1  UNL     1      -6.561  44.706 -18.977  1.00  0.00    -0.297 OA
HETATM   16  C23 UNL     1      -6.766  47.091 -19.370  1.00  0.00     0.017 C 
HETATM   17  C24 UNL     1      -7.306  47.120 -17.919  1.00  0.00     0.023 C 
HETATM   18  C25 UNL     1      -7.993  47.377 -20.268  1.00  0.00     0.023 C 
HETATM   19  C26 UNL     1      -5.606  48.149 -19.594  1.00  0.00     0.009 C 
HETATM   20  C27 UNL     1      -4.681  48.318 -18.369  1.00  0.00     0.007 C 
HETATM   21  C28 UNL     1      -3.843  49.602 -18.418  1.00  0.00     0.011 C 
HETATM   22  C29 UNL     1      -3.278  49.975 -19.819  1.00  0.00    -0.032 C 
HETATM   23  C30 UNL     1      -4.200  51.084 -20.407  1.00  0.00     0.016 C 
ENDROOT
BRANCH   1  24
HETATM   24  C2  UNL     1       0.551  52.585 -22.011  1.00  0.00    -0.084 C 
HETATM   25  C1  UNL     1       1.250  53.719 -21.806  1.00  0.00     0.014 C 
BRANCH  24  26
HETATM   26  C3  UNL     1       0.248  52.209 -23.453  1.00  0.00     0.037 C 
BRANCH  26  27
HETATM   27  C4  UNL     1       0.752  53.254 -24.454  1.00  0.00     0.031 C 
BRANCH  27  28
HETATM   28  C5  UNL     1       0.414  52.869 -25.870  1.00  0.00    -0.024 C 
HETATM   29  C6  UNL     1       1.106  52.060 -26.696  1.00  0.00    -0.091 C 
HETATM   30  C7  UNL     1       2.412  51.394 -26.360  1.00  0.00     0.042 C 
HETATM   31  C8  UNL     1       0.602  51.769 -28.084  1.00  0.00     0.042 C 
ENDBRANCH  27  28
ENDBRANCH  26  27
ENDBRANCH  24  26
ENDBRANCH   1  24
TORSDOF 4
ENDMDL
MODEL 7
REMARK minimizedAffinity -8.51892376
REMARK  4 active torsions:
REMARK  status: ('A' for Active; 'I' for Inactive)
REMARK    1  A    between atoms: C2_2  and  C3_3 
REMARK    2  A    between atoms: C2_2  and  C9_9 
REMARK    3  A    between atoms: C3_3  and  C4_4 
REMARK    4  A    between atoms: C4_4  and  C5_5 
ROOT
HETATM    1  C9  UNL     1      -5.707  48.802 -20.163  1.00  0.00     0.018 C 
HETATM    2  C10 UNL     1      -4.633  49.153 -19.081  1.00  0.00     0.010 C 
HETATM    3  C11 UNL     1      -3.338  49.517 -19.823  1.00  0.00     0.011 C 
HETATM    4  C12 UNL     1      -3.810  50.037 -21.187  1.00  0.00    -0.032 C 
HETATM    5  C13 UNL     1      -4.425  51.461 -20.938  1.00  0.00     0.016 C 
HETATM    6  C14 UNL     1      -4.914  48.981 -21.494  1.00  0.00     0.002 C 
HETATM    7  C15 UNL     1      -5.668  49.390 -22.758  1.00  0.00     0.006 C 
HETATM    8  C16 UNL     1      -4.703  49.470 -23.950  1.00  0.00     0.006 C 
HETATM    9  C17 UNL     1      -3.468  50.382 -23.718  1.00  0.00     0.003 C 
HETATM   10  C18 UNL     1      -2.538  50.576 -25.011  1.00  0.00    -0.035 C 
HETATM   11  C19 UNL     1      -2.459  49.263 -25.824  1.00  0.00     0.016 C 
HETATM   12  C20 UNL     1      -3.251  51.654 -25.890  1.00  0.00     0.017 C 
HETATM   13  C21 UNL     1      -2.450  52.156 -27.073  1.00  0.00     0.080 C 
HETATM   14  C22 UNL     1      -1.125  52.705 -26.605  1.00  0.00     0.135 C 
HETATM   15  O1  UNL     1      -0.754  53.824 -26.967  1.00  0.00    -0.297 OA
HETATM   16  C23 UNL     1      -0.242  51.779 -25.766  1.00  0.00     0.017 C 
HETATM   17  C24 UNL     1       0.946  52.597 -25.203  1.00  0.00     0.023 C 
HETATM   18  C25 UNL     1       0.392  50.745 -26.726  1.00  0.00     0.023 C 
HETATM   19  C26 UNL     1      -1.084  51.084 -24.615  1.00  0.00     0.009 C 
HETATM   20  C27 UNL     1      -1.198  51.939 -23.334  1.00  0.00     0.007 C 
HETATM   21  C28 UNL     1      -1.632  51.129 -22.105  1.00  0.00     0.011 C 
HETATM   22  C29 UNL     1      -2.726  50.053 -22.368  1.00  0.00    -0.032 C 
HETATM   23  C30 UNL     1      -2.003  48.678 -22.467  1.00  0.00     0.016 C 
ENDROOT
BRANCH   1  24
HETATM   24  C2  UNL     1      -6.434  47.462 -19.958  1.00  0.00    -0.084 C 
HETATM   25  C1  UNL     1      -6.202  46.628 -18.925  1.00  0.00     0.014 C 
BRANCH  24  26
HETATM   26  C3  UNL     1      -7.525  47.064 -20.939  1.00  0.00     0.037 C 
BRANCH  26  27
HETATM   27  C4  UNL     1      -8.747  47.987 -20.869  1.00  0.00     0.031 C 
BRANCH  27  28
HETATM   28  C5  UNL     1      -9.654  47.614 -19.726  1.00  0.00    -0.024 C 
HETATM   29  C6  UNL     1      -9.758  48.210 -18.522  1.00  0.00    -0.091 C 
HETATM   30  C7  UNL     1      -8.933  49.380 -18.063  1.00  0.00     0.042 C 
HETATM   31  C8  UNL     1     -10.744  47.709 -17.501  1.00  0.00     0.042 C 
ENDBRANCH  27  28
ENDBRANCH  26  27
ENDBRANCH  24  26
ENDBRANCH   1  24
TORSDOF 4
ENDMDL
MODEL 8
REMARK minimizedAffinity -8.51138592
REMARK  4 active torsions:
REMARK  status: ('A' for Active; 'I' for Inactive)
REMARK    1  A    between atoms: C2_2  and  C3_3 
REMARK    2  A    between atoms: C2_2  and  C9_9 
REMARK    3  A    between atoms: C3_3  and  C4_4 
REMARK    4  A    between atoms: C4_4  and  C5_5 
ROOT
HETATM    1  C9  UNL     1      -3.418  50.159 -23.723  1.00  0.00     0.018 C 
HETATM    2  C10 UNL     1      -3.551  48.615 -23.934  1.00  0.00     0.010 C 
HETATM    3  C11 UNL     1      -2.987  47.932 -22.678  1.00  0.00     0.011 C 
HETATM    4  C12 UNL     1      -3.185  48.962 -21.559  1.00  0.00    -0.032 C 
HETATM    5  C13 UNL     1      -4.720  48.978 -21.228  1.00  0.00     0.016 C 
HETATM    6  C14 UNL     1      -2.748  50.251 -22.318  1.00  0.00     0.002 C 
HETATM    7  C15 UNL     1      -3.022  51.472 -21.442  1.00  0.00     0.006 C 
HETATM    8  C16 UNL     1      -2.235  51.371 -20.127  1.00  0.00     0.006 C 
HETATM    9  C17 UNL     1      -2.468  50.054 -19.338  1.00  0.00     0.003 C 
HETATM   10  C18 UNL     1      -1.757  50.011 -17.900  1.00  0.00    -0.035 C 
HETATM   11  C19 UNL     1      -0.380  50.714 -17.955  1.00  0.00     0.016 C 
HETATM   12  C20 UNL     1      -2.684  50.827 -16.942  1.00  0.00     0.017 C 
HETATM   13  C21 UNL     1      -2.322  50.754 -15.474  1.00  0.00     0.080 C 
HETATM   14  C22 UNL     1      -2.294  49.315 -15.020  1.00  0.00     0.135 C 
HETATM   15  O1  UNL     1      -2.910  48.971 -14.009  1.00  0.00    -0.297 OA
HETATM   16  C23 UNL     1      -1.396  48.354 -15.801  1.00  0.00     0.017 C 
HETATM   17  C24 UNL     1      -1.683  46.907 -15.328  1.00  0.00     0.023 C 
HETATM   18  C25 UNL     1       0.066  48.637 -15.382  1.00  0.00     0.023 C 
HETATM   19  C26 UNL     1      -1.610  48.522 -17.363  1.00  0.00     0.009 C 
HETATM   20  C27 UNL     1      -2.784  47.686 -17.918  1.00  0.00     0.007 C 
HETATM   21  C28 UNL     1      -2.736  47.515 -19.442  1.00  0.00     0.011 C 
HETATM   22  C29 UNL     1      -2.293  48.775 -20.240  1.00  0.00    -0.032 C 
HETATM   23  C30 UNL     1      -0.795  48.577 -20.616  1.00  0.00     0.016 C 
ENDROOT
BRANCH   1  24
HETATM   24  C2  UNL     1      -2.739  50.924 -24.872  1.00  0.00    -0.084 C 
HETATM   25  C1  UNL     1      -3.374  51.803 -25.673  1.00  0.00     0.014 C 
BRANCH  24  26
HETATM   26  C3  UNL     1      -1.247  50.734 -25.097  1.00  0.00     0.037 C 
BRANCH  26  27
HETATM   27  C4  UNL     1      -0.478  52.060 -25.101  1.00  0.00     0.031 C 
BRANCH  27  28
HETATM   28  C5  UNL     1       0.919  51.883 -25.636  1.00  0.00    -0.024 C 
HETATM   29  C6  UNL     1       1.311  51.822 -26.923  1.00  0.00    -0.091 C 
HETATM   30  C7  UNL     1       0.391  51.885 -28.111  1.00  0.00     0.042 C 
HETATM   31  C8  UNL     1       2.766  51.662 -27.275  1.00  0.00     0.042 C 
ENDBRANCH  27  28
ENDBRANCH  26  27
ENDBRANCH  24  26
ENDBRANCH   1  24
TORSDOF 4
ENDMDL
MODEL 9
REMARK minimizedAffinity -8.50643253
REMARK  4 active torsions:
REMARK  status: ('A' for Active; 'I' for Inactive)
REMARK    1  A    between atoms: C2_2  and  C3_3 
REMARK    2  A    between atoms: C2_2  and  C9_9 
REMARK    3  A    between atoms: C3_3  and  C4_4 
REMARK    4  A    between atoms: C4_4  and  C5_5 
ROOT
HETATM    1  C9  UNL     1      -0.888  51.127 -23.214  1.00  0.00     0.018 C 
HETATM    2  C10 UNL     1      -0.308  52.580 -23.166  1.00  0.00     0.010 C 
HETATM    3  C11 UNL     1      -0.241  52.997 -21.689  1.00  0.00     0.011 C 
HETATM    4  C12 UNL     1      -0.100  51.675 -20.923  1.00  0.00    -0.032 C 
HETATM    5  C13 UNL     1       1.369  51.172 -21.160  1.00  0.00     0.016 C 
HETATM    6  C14 UNL     1      -1.135  50.814 -21.707  1.00  0.00     0.002 C 
HETATM    7  C15 UNL     1      -1.056  49.366 -21.226  1.00  0.00     0.006 C 
HETATM    8  C16 UNL     1      -1.368  49.286 -19.724  1.00  0.00     0.006 C 
HETATM    9  C17 UNL     1      -0.499  50.217 -18.836  1.00  0.00     0.003 C 
HETATM   10  C18 UNL     1      -0.728  50.029 -17.259  1.00  0.00    -0.035 C 
HETATM   11  C19 UNL     1      -2.220  49.749 -16.958  1.00  0.00     0.016 C 
HETATM   12  C20 UNL     1       0.097  48.765 -16.857  1.00  0.00     0.017 C 
HETATM   13  C21 UNL     1       0.201  48.506 -15.368  1.00  0.00     0.080 C 
HETATM   14  C22 UNL     1       0.783  49.712 -14.674  1.00  0.00     0.135 C 
HETATM   15  O1  UNL     1       1.733  49.584 -13.898  1.00  0.00    -0.297 OA
HETATM   16  C23 UNL     1       0.082  51.054 -14.897  1.00  0.00     0.017 C 
HETATM   17  C24 UNL     1       0.956  52.181 -14.294  1.00  0.00     0.023 C 
HETATM   18  C25 UNL     1      -1.215  51.047 -14.053  1.00  0.00     0.023 C 
HETATM   19  C26 UNL     1      -0.213  51.289 -16.438  1.00  0.00     0.009 C 
HETATM   20  C27 UNL     1       0.972  51.918 -17.202  1.00  0.00     0.007 C 
HETATM   21  C28 UNL     1       0.565  52.523 -18.552  1.00  0.00     0.011 C 
HETATM   22  C29 UNL     1      -0.477  51.701 -19.365  1.00  0.00    -0.032 C 
HETATM   23  C30 UNL     1      -1.864  52.375 -19.148  1.00  0.00     0.016 C 
ENDROOT
BRANCH   1  24
HETATM   24  C2  UNL     1      -2.073  50.923 -24.173  1.00  0.00    -0.084 C 
HETATM   25  C1  UNL     1      -3.232  51.607 -24.098  1.00  0.00     0.014 C 
BRANCH  24  26
HETATM   26  C3  UNL     1      -1.926  49.934 -25.318  1.00  0.00     0.037 C 
BRANCH  26  27
HETATM   27  C4  UNL     1      -1.375  50.583 -26.592  1.00  0.00     0.031 C 
BRANCH  27  28
HETATM   28  C5  UNL     1       0.132  50.617 -26.586  1.00  0.00    -0.024 C 
HETATM   29  C6  UNL     1       0.936  51.695 -26.648  1.00  0.00    -0.091 C 
HETATM   30  C7  UNL     1       0.466  53.118 -26.776  1.00  0.00     0.042 C 
HETATM   31  C8  UNL     1       2.433  51.539 -26.609  1.00  0.00     0.042 C 
ENDBRANCH  27  28
ENDBRANCH  26  27
ENDBRANCH  24  26
ENDBRANCH   1  24
TORSDOF 4
ENDMDL
