MODEL 1
REMARK minimizedAffinity -10.0332727
REMARK  6 active torsions:
REMARK  status: ('A' for Active; 'I' for Inactive)
REMARK    1  A    between atoms: C2_2  and  C30_31 
REMARK    2  A    between atoms: C3_3  and  C4_4 
REMARK    3  A    between atoms: C4_4  and  C5_5 
REMARK    4  A    between atoms: C5_5  and  C6_6 
REMARK    5  A    between atoms: C6_6  and  C8_8 
REMARK    6  A    between atoms: C30_31  and  O3_33 
ROOT
HETATM    1  C8  UNL     1      -1.208  50.442 -22.583  1.00  0.00    -0.002 C 
HETATM    2  C9  UNL     1      -1.410  50.414 -21.032  1.00  0.00     0.007 C 
HETATM    3  C10 UNL     1      -2.775  49.749 -20.752  1.00  0.00     0.015 C 
HETATM    4  C11 UNL     1      -3.149  49.072 -22.080  1.00  0.00    -0.013 C 
HETATM    5  C12 UNL     1      -2.354  47.722 -22.127  1.00  0.00     0.021 C 
HETATM    6  C13 UNL     1      -4.611  48.679 -22.324  1.00  0.00    -0.070 C 
HETATM    7  C14 UNL     1      -5.317  48.041 -21.372  1.00  0.00    -0.022 C 
HETATM    8  C15 UNL     1      -6.582  47.288 -21.644  1.00  0.00     0.034 C 
HETATM    9  C16 UNL     1      -6.677  46.872 -23.129  1.00  0.00     0.013 C 
HETATM   10  C17 UNL     1      -7.860  45.882 -23.428  1.00  0.00     0.018 C 
HETATM   11  C18 UNL     1      -9.231  46.294 -22.867  1.00  0.00     0.023 C 
HETATM   12  C19 UNL     1      -7.519  44.500 -22.814  1.00  0.00     0.023 C 
HETATM   13  C20 UNL     1      -8.020  45.690 -24.945  1.00  0.00     0.135 C 
HETATM   14  O1  UNL     1      -8.309  44.601 -25.444  1.00  0.00    -0.297 OA
HETATM   15  C21 UNL     1      -7.933  46.916 -25.821  1.00  0.00     0.080 C 
HETATM   16  C22 UNL     1      -6.658  47.686 -25.525  1.00  0.00     0.017 C 
HETATM   17  C23 UNL     1      -6.536  48.134 -24.050  1.00  0.00    -0.031 C 
HETATM   18  C24 UNL     1      -7.637  49.198 -23.768  1.00  0.00     0.016 C 
HETATM   19  C25 UNL     1      -5.144  48.864 -23.757  1.00  0.00     0.024 C 
HETATM   20  C26 UNL     1      -4.005  48.654 -24.778  1.00  0.00     0.010 C 
HETATM   21  C27 UNL     1      -2.750  49.536 -24.528  1.00  0.00     0.011 C 
HETATM   22  C28 UNL     1      -2.655  50.148 -23.110  1.00  0.00    -0.029 C 
HETATM   23  C29 UNL     1      -3.456  51.491 -23.039  1.00  0.00     0.016 C 
ENDROOT
BRANCH   1  24
HETATM   24  C6  UNL     1      -0.448  51.719 -23.055  1.00  0.00    -0.014 C 
HETATM   25  C7  UNL     1       0.106  52.523 -21.872  1.00  0.00     0.010 C 
BRANCH  24  26
HETATM   26  C5  UNL     1      -1.381  52.624 -23.902  1.00  0.00     0.008 C 
BRANCH  26  27
HETATM   27  C4  UNL     1      -0.891  52.822 -25.343  1.00  0.00     0.028 C 
BRANCH  27  28
HETATM   28  C3  UNL     1       0.509  52.298 -25.509  1.00  0.00    -0.013 C 
HETATM   29  C2  UNL     1       1.115  51.925 -26.657  1.00  0.00     0.008 C 
HETATM   30  C1  UNL     1       0.488  51.925 -28.020  1.00  0.00     0.055 C 
BRANCH  29  31
HETATM   31  C30 UNL     1       2.523  51.444 -26.649  1.00  0.00     0.171 C 
HETATM   32  O2  UNL     1       2.958  50.557 -25.935  1.00  0.00    -0.646 OA
BRANCH  31  33
HETATM   33  O3  UNL     1       3.330  52.088 -27.510  1.00  0.00    -0.773 OA
HETATM   34  H46 UNL     1       4.200  51.662 -27.367  1.00  0.00     0.167 HD
ENDBRANCH  31  33
ENDBRANCH  29  31
ENDBRANCH  27  28
ENDBRANCH  26  27
ENDBRANCH  24  26
ENDBRANCH   1  24
TORSDOF 6
ENDMDL
MODEL 2
REMARK minimizedAffinity -9.62868214
REMARK  6 active torsions:
REMARK  status: ('A' for Active; 'I' for Inactive)
REMARK    1  A    between atoms: C2_2  and  C30_31 
REMARK    2  A    between atoms: C3_3  and  C4_4 
REMARK    3  A    between atoms: C4_4  and  C5_5 
REMARK    4  A    between atoms: C5_5  and  C6_6 
REMARK    5  A    between atoms: C6_6  and  C8_8 
REMARK    6  A    between atoms: C30_31  and  O3_33 
ROOT
HETATM    1  C8  UNL     1      -0.883  50.007 -21.527  1.00  0.00    -0.002 C 
HETATM    2  C9  UNL     1      -1.155  49.763 -20.007  1.00  0.00     0.007 C 
HETATM    3  C10 UNL     1      -2.564  49.147 -19.878  1.00  0.00     0.015 C 
HETATM    4  C11 UNL     1      -2.915  48.696 -21.305  1.00  0.00    -0.013 C 
HETATM    5  C12 UNL     1      -2.191  47.322 -21.525  1.00  0.00     0.021 C 
HETATM    6  C13 UNL     1      -4.383  48.430 -21.657  1.00  0.00    -0.070 C 
HETATM    7  C14 UNL     1      -5.164  47.702 -20.837  1.00  0.00    -0.022 C 
HETATM    8  C15 UNL     1      -6.454  47.073 -21.263  1.00  0.00     0.034 C 
HETATM    9  C16 UNL     1      -6.505  46.888 -22.796  1.00  0.00     0.013 C 
HETATM   10  C17 UNL     1      -7.725  46.024 -23.282  1.00  0.00     0.018 C 
HETATM   11  C18 UNL     1      -9.095  46.429 -22.715  1.00  0.00     0.023 C 
HETATM   12  C19 UNL     1      -7.486  44.549 -22.870  1.00  0.00     0.023 C 
HETATM   13  C20 UNL     1      -7.828  46.068 -24.816  1.00  0.00     0.135 C 
HETATM   14  O1  UNL     1      -8.153  45.084 -25.482  1.00  0.00    -0.297 OA
HETATM   15  C21 UNL     1      -7.638  47.402 -25.494  1.00  0.00     0.080 C 
HETATM   16  C22 UNL     1      -6.338  48.044 -25.041  1.00  0.00     0.017 C 
HETATM   17  C23 UNL     1      -6.257  48.261 -23.513  1.00  0.00    -0.031 C 
HETATM   18  C24 UNL     1      -7.311  49.335 -23.114  1.00  0.00     0.016 C 
HETATM   19  C25 UNL     1      -4.842  48.856 -23.064  1.00  0.00     0.024 C 
HETATM   20  C26 UNL     1      -3.672  48.732 -24.064  1.00  0.00     0.010 C 
HETATM   21  C27 UNL     1      -2.384  49.492 -23.640  1.00  0.00     0.011 C 
HETATM   22  C28 UNL     1      -2.319  49.881 -22.143  1.00  0.00    -0.029 C 
HETATM   23  C29 UNL     1      -3.050  51.244 -21.901  1.00  0.00     0.016 C 
ENDROOT
BRANCH   1  24
HETATM   24  C6  UNL     1      -0.036  51.293 -21.775  1.00  0.00    -0.014 C 
HETATM   25  C7  UNL     1      -0.161  52.291 -20.617  1.00  0.00     0.010 C 
BRANCH  24  26
HETATM   26  C5  UNL     1      -0.469  51.981 -23.097  1.00  0.00     0.008 C 
BRANCH  26  27
HETATM   27  C4  UNL     1       0.634  52.851 -23.718  1.00  0.00     0.028 C 
BRANCH  27  28
HETATM   28  C3  UNL     1       0.187  53.425 -25.035  1.00  0.00    -0.013 C 
HETATM   29  C2  UNL     1       0.411  52.922 -26.267  1.00  0.00     0.008 C 
HETATM   30  C1  UNL     1       1.200  51.685 -26.579  1.00  0.00     0.055 C 
BRANCH  29  31
HETATM   31  C30 UNL     1      -0.123  53.608 -27.475  1.00  0.00     0.171 C 
HETATM   32  O2  UNL     1      -0.451  54.781 -27.528  1.00  0.00    -0.646 OA
BRANCH  31  33
HETATM   33  O3  UNL     1      -0.242  52.814 -28.552  1.00  0.00    -0.773 OA
HETATM   34  H46 UNL     1      -0.611  53.411 -29.235  1.00  0.00     0.167 HD
ENDBRANCH  31  33
ENDBRANCH  29  31
ENDBRANCH  27  28
ENDBRANCH  26  27
ENDBRANCH  24  26
ENDBRANCH   1  24
TORSDOF 6
ENDMDL
MODEL 3
REMARK minimizedAffinity -8.95015335
REMARK  6 active torsions:
REMARK  status: ('A' for Active; 'I' for Inactive)
REMARK    1  A    between atoms: C2_2  and  C30_31 
REMARK    2  A    between atoms: C3_3  and  C4_4 
REMARK    3  A    between atoms: C4_4  and  C5_5 
REMARK    4  A    between atoms: C5_5  and  C6_6 
REMARK    5  A    between atoms: C6_6  and  C8_8 
REMARK    6  A    between atoms: C30_31  and  O3_33 
ROOT
HETATM    1  C8  UNL     1      -2.821  47.535 -19.104  1.00  0.00    -0.002 C 
HETATM    2  C9  UNL     1      -3.894  46.783 -19.958  1.00  0.00     0.007 C 
HETATM    3  C10 UNL     1      -3.915  47.433 -21.358  1.00  0.00     0.015 C 
HETATM    4  C11 UNL     1      -2.623  48.263 -21.412  1.00  0.00    -0.013 C 
HETATM    5  C12 UNL     1      -1.467  47.259 -21.752  1.00  0.00     0.021 C 
HETATM    6  C13 UNL     1      -2.501  49.375 -22.460  1.00  0.00    -0.070 C 
HETATM    7  C14 UNL     1      -2.851  49.152 -23.741  1.00  0.00    -0.022 C 
HETATM    8  C15 UNL     1      -2.415  50.016 -24.882  1.00  0.00     0.034 C 
HETATM    9  C16 UNL     1      -1.139  50.811 -24.524  1.00  0.00     0.013 C 
HETATM   10  C17 UNL     1      -0.499  51.554 -25.753  1.00  0.00     0.018 C 
HETATM   11  C18 UNL     1      -1.468  52.393 -26.602  1.00  0.00     0.023 C 
HETATM   12  C19 UNL     1       0.132  50.500 -26.698  1.00  0.00     0.023 C 
HETATM   13  C20 UNL     1       0.627  52.489 -25.279  1.00  0.00     0.135 C 
HETATM   14  O1  UNL     1       1.667  52.644 -25.921  1.00  0.00    -0.297 OA
HETATM   15  C21 UNL     1       0.376  53.322 -24.047  1.00  0.00     0.080 C 
HETATM   16  C22 UNL     1      -0.086  52.441 -22.899  1.00  0.00     0.017 C 
HETATM   17  C23 UNL     1      -1.372  51.642 -23.215  1.00  0.00    -0.031 C 
HETATM   18  C24 UNL     1      -2.552  52.648 -23.355  1.00  0.00     0.016 C 
HETATM   19  C25 UNL     1      -1.779  50.662 -22.019  1.00  0.00     0.024 C 
HETATM   20  C26 UNL     1      -0.691  50.328 -20.975  1.00  0.00     0.010 C 
HETATM   21  C27 UNL     1      -1.206  49.525 -19.748  1.00  0.00     0.011 C 
HETATM   22  C28 UNL     1      -2.575  48.831 -19.950  1.00  0.00    -0.029 C 
HETATM   23  C29 UNL     1      -3.743  49.823 -19.630  1.00  0.00     0.016 C 
ENDROOT
BRANCH   1  24
HETATM   24  C6  UNL     1      -3.233  47.646 -17.604  1.00  0.00    -0.014 C 
HETATM   25  C7  UNL     1      -4.738  47.421 -17.408  1.00  0.00     0.010 C 
BRANCH  24  26
HETATM   26  C5  UNL     1      -2.842  49.036 -17.035  1.00  0.00     0.008 C 
BRANCH  26  27
HETATM   27  C4  UNL     1      -1.503  49.029 -16.283  1.00  0.00     0.028 C 
BRANCH  27  28
HETATM   28  C3  UNL     1      -0.674  50.228 -16.654  1.00  0.00    -0.013 C 
HETATM   29  C2  UNL     1       0.494  50.619 -16.104  1.00  0.00     0.008 C 
HETATM   30  C1  UNL     1       1.197  49.943 -14.963  1.00  0.00     0.055 C 
BRANCH  29  31
HETATM   31  C30 UNL     1       1.202  51.829 -16.605  1.00  0.00     0.171 C 
HETATM   32  O2  UNL     1       2.027  52.470 -15.977  1.00  0.00    -0.646 OA
BRANCH  31  33
HETATM   33  O3  UNL     1       0.847  52.199 -17.848  1.00  0.00    -0.773 OA
HETATM   34  H46 UNL     1       1.387  53.000 -18.008  1.00  0.00     0.167 HD
ENDBRANCH  31  33
ENDBRANCH  29  31
ENDBRANCH  27  28
ENDBRANCH  26  27
ENDBRANCH  24  26
ENDBRANCH   1  24
TORSDOF 6
ENDMDL
MODEL 4
REMARK minimizedAffinity -8.91386223
REMARK  6 active torsions:
REMARK  status: ('A' for Active; 'I' for Inactive)
REMARK    1  A    between atoms: C2_2  and  C30_31 
REMARK    2  A    between atoms: C3_3  and  C4_4 
REMARK    3  A    between atoms: C4_4  and  C5_5 
REMARK    4  A    between atoms: C5_5  and  C6_6 
REMARK    5  A    between atoms: C6_6  and  C8_8 
REMARK    6  A    between atoms: C30_31  and  O3_33 
ROOT
HETATM    1  C8  UNL     1      -1.992  50.903 -22.145  1.00  0.00    -0.002 C 
HETATM    2  C9  UNL     1      -3.235  49.964 -22.005  1.00  0.00     0.007 C 
HETATM    3  C10 UNL     1      -3.345  49.554 -20.521  1.00  0.00     0.015 C 
HETATM    4  C11 UNL     1      -2.429  50.543 -19.784  1.00  0.00    -0.013 C 
HETATM    5  C12 UNL     1      -3.252  51.867 -19.615  1.00  0.00     0.021 C 
HETATM    6  C13 UNL     1      -1.948  50.194 -18.370  1.00  0.00    -0.070 C 
HETATM    7  C14 UNL     1      -2.812  49.732 -17.447  1.00  0.00    -0.022 C 
HETATM    8  C15 UNL     1      -2.533  49.736 -15.976  1.00  0.00     0.034 C 
HETATM    9  C16 UNL     1      -1.454  50.781 -15.615  1.00  0.00     0.013 C 
HETATM   10  C17 UNL     1      -1.286  50.998 -14.068  1.00  0.00     0.018 C 
HETATM   11  C18 UNL     1      -1.138  49.719 -13.228  1.00  0.00     0.023 C 
HETATM   12  C19 UNL     1      -2.533  51.747 -13.532  1.00  0.00     0.023 C 
HETATM   13  C20 UNL     1      -0.057  51.879 -13.786  1.00  0.00     0.135 C 
HETATM   14  O1  UNL     1      -0.047  52.728 -12.893  1.00  0.00    -0.297 OA
HETATM   15  C21 UNL     1       1.203  51.596 -14.565  1.00  0.00     0.080 C 
HETATM   16  C22 UNL     1       0.909  51.573 -16.055  1.00  0.00     0.017 C 
HETATM   17  C23 UNL     1      -0.155  50.526 -16.457  1.00  0.00    -0.031 C 
HETATM   18  C24 UNL     1       0.437  49.107 -16.216  1.00  0.00     0.016 C 
HETATM   19  C25 UNL     1      -0.502  50.590 -18.017  1.00  0.00     0.024 C 
HETATM   20  C26 UNL     1      -0.101  51.871 -18.780  1.00  0.00     0.010 C 
HETATM   21  C27 UNL     1      -0.300  51.789 -20.319  1.00  0.00     0.011 C 
HETATM   22  C28 UNL     1      -1.235  50.651 -20.796  1.00  0.00    -0.029 C 
HETATM   23  C29 UNL     1      -0.433  49.316 -20.956  1.00  0.00     0.016 C 
ENDROOT
BRANCH   1  24
HETATM   24  C6  UNL     1      -1.255  50.705 -23.505  1.00  0.00    -0.014 C 
HETATM   25  C7  UNL     1      -0.481  51.963 -23.922  1.00  0.00     0.010 C 
BRANCH  24  26
HETATM   26  C5  UNL     1      -2.265  50.328 -24.621  1.00  0.00     0.008 C 
BRANCH  26  27
HETATM   27  C4  UNL     1      -1.596  50.033 -25.971  1.00  0.00     0.028 C 
BRANCH  27  28
HETATM   28  C3  UNL     1      -2.596  49.495 -26.958  1.00  0.00    -0.013 C 
HETATM   29  C2  UNL     1      -3.728  48.811 -26.689  1.00  0.00     0.008 C 
HETATM   30  C1  UNL     1      -4.207  48.409 -25.325  1.00  0.00     0.055 C 
BRANCH  29  31
HETATM   31  C30 UNL     1      -4.624  48.366 -27.790  1.00  0.00     0.171 C 
HETATM   32  O2  UNL     1      -4.311  48.296 -28.966  1.00  0.00    -0.646 OA
BRANCH  31  33
HETATM   33  O3  UNL     1      -5.868  48.043 -27.392  1.00  0.00    -0.773 OA
HETATM   34  H46 UNL     1      -6.314  47.791 -28.226  1.00  0.00     0.167 HD
ENDBRANCH  31  33
ENDBRANCH  29  31
ENDBRANCH  27  28
ENDBRANCH  26  27
ENDBRANCH  24  26
ENDBRANCH   1  24
TORSDOF 6
ENDMDL
MODEL 5
REMARK minimizedAffinity -8.90266514
REMARK  6 active torsions:
REMARK  status: ('A' for Active; 'I' for Inactive)
REMARK    1  A    between atoms: C2_2  and  C30_31 
REMARK    2  A    between atoms: C3_3  and  C4_4 
REMARK    3  A    between atoms: C4_4  and  C5_5 
REMARK    4  A    between atoms: C5_5  and  C6_6 
REMARK    5  A    between atoms: C6_6  and  C8_8 
REMARK    6  A    between atoms: C30_31  and  O3_33 
ROOT
HETATM    1  C8  UNL     1      -0.461  51.732 -24.011  1.00  0.00    -0.002 C 
HETATM    2  C9  UNL     1       0.127  53.154 -23.738  1.00  0.00     0.007 C 
HETATM    3  C10 UNL     1       0.192  53.347 -22.208  1.00  0.00     0.015 C 
HETATM    4  C11 UNL     1       0.014  51.931 -21.638  1.00  0.00    -0.013 C 
HETATM    5  C12 UNL     1       1.415  51.234 -21.741  1.00  0.00     0.021 C 
HETATM    6  C13 UNL     1      -0.401  51.770 -20.171  1.00  0.00    -0.070 C 
HETATM    7  C14 UNL     1       0.208  52.484 -19.204  1.00  0.00    -0.022 C 
HETATM    8  C15 UNL     1       0.154  52.127 -17.752  1.00  0.00     0.034 C 
HETATM    9  C16 UNL     1      -0.180  50.630 -17.557  1.00  0.00     0.013 C 
HETATM   10  C17 UNL     1      -0.021  50.142 -16.072  1.00  0.00     0.018 C 
HETATM   11  C18 UNL     1      -0.702  51.017 -15.007  1.00  0.00     0.023 C 
HETATM   12  C19 UNL     1       1.489  50.098 -15.721  1.00  0.00     0.023 C 
HETATM   13  C20 UNL     1      -0.575  48.716 -15.921  1.00  0.00     0.135 C 
HETATM   14  O1  UNL     1      -0.039  47.874 -15.198  1.00  0.00    -0.297 OA
HETATM   15  C21 UNL     1      -1.887  48.397 -16.596  1.00  0.00     0.080 C 
HETATM   16  C22 UNL     1      -1.832  48.781 -18.064  1.00  0.00     0.017 C 
HETATM   17  C23 UNL     1      -1.517  50.277 -18.298  1.00  0.00    -0.031 C 
HETATM   18  C24 UNL     1      -2.720  51.118 -17.781  1.00  0.00     0.016 C 
HETATM   19  C25 UNL     1      -1.380  50.626 -19.853  1.00  0.00     0.024 C 
HETATM   20  C26 UNL     1      -1.155  49.448 -20.826  1.00  0.00     0.010 C 
HETATM   21  C27 UNL     1      -1.217  49.839 -22.329  1.00  0.00     0.011 C 
HETATM   22  C28 UNL     1      -1.069  51.353 -22.616  1.00  0.00    -0.029 C 
HETATM   23  C29 UNL     1      -2.456  52.069 -22.504  1.00  0.00     0.016 C 
ENDROOT
BRANCH   1  24
HETATM   24  C6  UNL     1      -1.356  51.699 -25.288  1.00  0.00    -0.014 C 
HETATM   25  C7  UNL     1      -2.837  51.914 -24.953  1.00  0.00     0.010 C 
BRANCH  24  26
HETATM   26  C5  UNL     1      -1.187  50.348 -26.035  1.00  0.00     0.008 C 
BRANCH  26  27
HETATM   27  C4  UNL     1      -2.312  49.346 -25.739  1.00  0.00     0.028 C 
BRANCH  27  28
HETATM   28  C3  UNL     1      -3.065  49.001 -26.994  1.00  0.00    -0.013 C 
HETATM   29  C2  UNL     1      -4.329  48.537 -27.090  1.00  0.00     0.008 C 
HETATM   30  C1  UNL     1      -5.242  48.232 -25.939  1.00  0.00     0.055 C 
BRANCH  29  31
HETATM   31  C30 UNL     1      -4.937  48.262 -28.420  1.00  0.00     0.171 C 
HETATM   32  O2  UNL     1      -4.327  47.889 -29.408  1.00  0.00    -0.646 OA
BRANCH  31  33
HETATM   33  O3  UNL     1      -6.263  48.476 -28.475  1.00  0.00    -0.773 OA
HETATM   34  H46 UNL     1      -6.489  48.263 -29.404  1.00  0.00     0.167 HD
ENDBRANCH  31  33
ENDBRANCH  29  31
ENDBRANCH  27  28
ENDBRANCH  26  27
ENDBRANCH  24  26
ENDBRANCH   1  24
TORSDOF 6
ENDMDL
MODEL 6
REMARK minimizedAffinity -8.89717865
REMARK  6 active torsions:
REMARK  status: ('A' for Active; 'I' for Inactive)
REMARK    1  A    between atoms: C2_2  and  C30_31 
REMARK    2  A    between atoms: C3_3  and  C4_4 
REMARK    3  A    between atoms: C4_4  and  C5_5 
REMARK    4  A    between atoms: C5_5  and  C6_6 
REMARK    5  A    between atoms: C6_6  and  C8_8 
REMARK    6  A    between atoms: C30_31  and  O3_33 
ROOT
HETATM    1  C8  UNL     1      -1.033  50.314 -22.073  1.00  0.00    -0.002 C 
HETATM    2  C9  UNL     1      -0.880  49.950 -20.560  1.00  0.00     0.007 C 
HETATM    3  C10 UNL     1      -2.103  49.097 -20.160  1.00  0.00     0.015 C 
HETATM    4  C11 UNL     1      -2.722  48.667 -21.499  1.00  0.00    -0.013 C 
HETATM    5  C12 UNL     1      -1.874  47.449 -22.006  1.00  0.00     0.021 C 
HETATM    6  C13 UNL     1      -4.173  48.173 -21.519  1.00  0.00    -0.070 C 
HETATM    7  C14 UNL     1      -4.607  47.281 -20.608  1.00  0.00    -0.022 C 
HETATM    8  C15 UNL     1      -5.850  46.465 -20.774  1.00  0.00     0.034 C 
HETATM    9  C16 UNL     1      -6.249  46.351 -22.262  1.00  0.00     0.013 C 
HETATM   10  C17 UNL     1      -7.404  45.318 -22.524  1.00  0.00     0.018 C 
HETATM   11  C18 UNL     1      -8.638  45.455 -21.617  1.00  0.00     0.023 C 
HETATM   12  C19 UNL     1      -6.848  43.886 -22.315  1.00  0.00     0.023 C 
HETATM   13  C20 UNL     1      -7.888  45.422 -23.980  1.00  0.00     0.135 C 
HETATM   14  O1  UNL     1      -8.212  44.431 -24.638  1.00  0.00    -0.297 OA
HETATM   15  C21 UNL     1      -8.077  46.801 -24.561  1.00  0.00     0.080 C 
HETATM   16  C22 UNL     1      -6.819  47.631 -24.370  1.00  0.00     0.017 C 
HETATM   17  C23 UNL     1      -6.398  47.781 -22.890  1.00  0.00    -0.031 C 
HETATM   18  C24 UNL     1      -7.473  48.638 -22.160  1.00  0.00     0.016 C 
HETATM   19  C25 UNL     1      -5.024  48.585 -22.734  1.00  0.00     0.024 C 
HETATM   20  C26 UNL     1      -4.132  48.713 -23.988  1.00  0.00     0.010 C 
HETATM   21  C27 UNL     1      -2.911  49.658 -23.812  1.00  0.00     0.011 C 
HETATM   22  C28 UNL     1      -2.540  49.976 -22.343  1.00  0.00    -0.029 C 
HETATM   23  C29 UNL     1      -3.387  51.181 -21.814  1.00  0.00     0.016 C 
ENDROOT
BRANCH   1  24
HETATM   24  C6  UNL     1      -0.480  51.736 -22.396  1.00  0.00    -0.014 C 
HETATM   25  C7  UNL     1       0.215  51.780 -23.763  1.00  0.00     0.010 C 
BRANCH  24  26
HETATM   26  C5  UNL     1       0.516  52.194 -21.297  1.00  0.00     0.008 C 
BRANCH  26  27
HETATM   27  C4  UNL     1      -0.169  52.871 -20.102  1.00  0.00     0.028 C 
BRANCH  27  28
HETATM   28  C3  UNL     1       0.780  53.000 -18.942  1.00  0.00    -0.013 C 
HETATM   29  C2  UNL     1       0.754  52.314 -17.780  1.00  0.00     0.008 C 
HETATM   30  C1  UNL     1      -0.272  51.292 -17.388  1.00  0.00     0.055 C 
BRANCH  29  31
HETATM   31  C30 UNL     1       1.788  52.550 -16.737  1.00  0.00     0.171 C 
HETATM   32  O2  UNL     1       2.991  52.433 -16.901  1.00  0.00    -0.646 OA
BRANCH  31  33
HETATM   33  O3  UNL     1       1.292  52.902 -15.538  1.00  0.00    -0.773 OA
HETATM   34  H46 UNL     1       2.091  53.002 -14.982  1.00  0.00     0.167 HD
ENDBRANCH  31  33
ENDBRANCH  29  31
ENDBRANCH  27  28
ENDBRANCH  26  27
ENDBRANCH  24  26
ENDBRANCH   1  24
TORSDOF 6
ENDMDL
MODEL 7
REMARK minimizedAffinity -8.83967209
REMARK  6 active torsions:
REMARK  status: ('A' for Active; 'I' for Inactive)
REMARK    1  A    between atoms: C2_2  and  C30_31 
REMARK    2  A    between atoms: C3_3  and  C4_4 
REMARK    3  A    between atoms: C4_4  and  C5_5 
REMARK    4  A    between atoms: C5_5  and  C6_6 
REMARK    5  A    between atoms: C6_6  and  C8_8 
REMARK    6  A    between atoms: C30_31  and  O3_33 
ROOT
HETATM    1  C8  UNL     1      -6.434  49.684 -21.699  1.00  0.00    -0.002 C 
HETATM    2  C9  UNL     1      -5.532  48.977 -20.635  1.00  0.00     0.007 C 
HETATM    3  C10 UNL     1      -4.063  49.168 -21.068  1.00  0.00     0.015 C 
HETATM    4  C11 UNL     1      -4.120  50.281 -22.126  1.00  0.00    -0.013 C 
HETATM    5  C12 UNL     1      -4.202  51.636 -21.339  1.00  0.00     0.021 C 
HETATM    6  C13 UNL     1      -2.935  50.453 -23.084  1.00  0.00    -0.070 C 
HETATM    7  C14 UNL     1      -1.671  50.448 -22.620  1.00  0.00    -0.022 C 
HETATM    8  C15 UNL     1      -0.504  50.984 -23.389  1.00  0.00     0.034 C 
HETATM    9  C16 UNL     1      -0.961  51.992 -24.467  1.00  0.00     0.013 C 
HETATM   10  C17 UNL     1       0.228  52.763 -25.147  1.00  0.00     0.018 C 
HETATM   11  C18 UNL     1       1.389  51.888 -25.646  1.00  0.00     0.023 C 
HETATM   12  C19 UNL     1       0.825  53.762 -24.122  1.00  0.00     0.023 C 
HETATM   13  C20 UNL     1      -0.285  53.578 -26.346  1.00  0.00     0.135 C 
HETATM   14  O1  UNL     1       0.154  54.697 -26.618  1.00  0.00    -0.297 OA
HETATM   15  C21 UNL     1      -1.274  52.915 -27.273  1.00  0.00     0.080 C 
HETATM   16  C22 UNL     1      -2.445  52.356 -26.484  1.00  0.00     0.017 C 
HETATM   17  C23 UNL     1      -2.027  51.329 -25.406  1.00  0.00    -0.031 C 
HETATM   18  C24 UNL     1      -1.477  50.062 -26.123  1.00  0.00     0.016 C 
HETATM   19  C25 UNL     1      -3.274  50.828 -24.538  1.00  0.00     0.024 C 
HETATM   20  C26 UNL     1      -4.556  51.688 -24.580  1.00  0.00     0.010 C 
HETATM   21  C27 UNL     1      -5.780  51.047 -23.866  1.00  0.00     0.011 C 
HETATM   22  C28 UNL     1      -5.436  49.897 -22.889  1.00  0.00    -0.029 C 
HETATM   23  C29 UNL     1      -5.335  48.538 -23.659  1.00  0.00     0.016 C 
ENDROOT
BRANCH   1  24
HETATM   24  C6  UNL     1      -7.777  48.926 -21.931  1.00  0.00    -0.014 C 
HETATM   25  C7  UNL     1      -8.250  48.203 -20.663  1.00  0.00     0.010 C 
BRANCH  24  26
HETATM   26  C5  UNL     1      -7.628  47.898 -23.085  1.00  0.00     0.008 C 
BRANCH  26  27
HETATM   27  C4  UNL     1      -8.834  47.874 -24.036  1.00  0.00     0.028 C 
BRANCH  27  28
HETATM   28  C3  UNL     1      -8.387  47.967 -25.469  1.00  0.00    -0.013 C 
HETATM   29  C2  UNL     1      -9.167  48.066 -26.566  1.00  0.00     0.008 C 
HETATM   30  C1  UNL     1     -10.667  48.066 -26.579  1.00  0.00     0.055 C 
BRANCH  29  31
HETATM   31  C30 UNL     1      -8.560  48.171 -27.921  1.00  0.00     0.171 C 
HETATM   32  O2  UNL     1      -7.928  47.289 -28.477  1.00  0.00    -0.646 OA
BRANCH  31  33
HETATM   33  O3  UNL     1      -8.748  49.360 -28.519  1.00  0.00    -0.773 OA
HETATM   34  H46 UNL     1      -8.283  49.259 -29.375  1.00  0.00     0.167 HD
ENDBRANCH  31  33
ENDBRANCH  29  31
ENDBRANCH  27  28
ENDBRANCH  26  27
ENDBRANCH  24  26
ENDBRANCH   1  24
TORSDOF 6
ENDMDL
MODEL 8
REMARK minimizedAffinity -8.77481365
REMARK  6 active torsions:
REMARK  status: ('A' for Active; 'I' for Inactive)
REMARK    1  A    between atoms: C2_2  and  C30_31 
REMARK    2  A    between atoms: C3_3  and  C4_4 
REMARK    3  A    between atoms: C4_4  and  C5_5 
REMARK    4  A    between atoms: C5_5  and  C6_6 
REMARK    5  A    between atoms: C6_6  and  C8_8 
REMARK    6  A    between atoms: C30_31  and  O3_33 
ROOT
HETATM    1  C8  UNL     1      -1.216  52.345 -24.442  1.00  0.00    -0.002 C 
HETATM    2  C9  UNL     1      -0.408  51.458 -25.444  1.00  0.00     0.007 C 
HETATM    3  C10 UNL     1      -1.306  50.266 -25.840  1.00  0.00     0.015 C 
HETATM    4  C11 UNL     1      -2.713  50.681 -25.382  1.00  0.00    -0.013 C 
HETATM    5  C12 UNL     1      -3.273  51.641 -26.489  1.00  0.00     0.021 C 
HETATM    6  C13 UNL     1      -3.787  49.599 -25.218  1.00  0.00    -0.070 C 
HETATM    7  C14 UNL     1      -3.969  48.663 -26.169  1.00  0.00    -0.022 C 
HETATM    8  C15 UNL     1      -5.207  47.830 -26.286  1.00  0.00     0.034 C 
HETATM    9  C16 UNL     1      -6.406  48.512 -25.589  1.00  0.00     0.013 C 
HETATM   10  C17 UNL     1      -7.781  47.806 -25.877  1.00  0.00     0.018 C 
HETATM   11  C18 UNL     1      -7.801  46.282 -25.676  1.00  0.00     0.023 C 
HETATM   12  C19 UNL     1      -8.177  48.072 -27.352  1.00  0.00     0.023 C 
HETATM   13  C20 UNL     1      -8.880  48.404 -24.984  1.00  0.00     0.135 C 
HETATM   14  O1  UNL     1     -10.031  48.585 -25.388  1.00  0.00    -0.297 OA
HETATM   15  C21 UNL     1      -8.547  48.660 -23.535  1.00  0.00     0.080 C 
HETATM   16  C22 UNL     1      -7.278  49.487 -23.423  1.00  0.00     0.017 C 
HETATM   17  C23 UNL     1      -6.051  48.828 -24.094  1.00  0.00    -0.031 C 
HETATM   18  C24 UNL     1      -5.682  47.547 -23.290  1.00  0.00     0.016 C 
HETATM   19  C25 UNL     1      -4.757  49.765 -24.034  1.00  0.00     0.024 C 
HETATM   20  C26 UNL     1      -4.981  51.264 -23.738  1.00  0.00     0.010 C 
HETATM   21  C27 UNL     1      -3.675  52.075 -23.511  1.00  0.00     0.011 C 
HETATM   22  C28 UNL     1      -2.384  51.388 -24.021  1.00  0.00    -0.029 C 
HETATM   23  C29 UNL     1      -1.818  50.414 -22.935  1.00  0.00     0.016 C 
ENDROOT
BRANCH   1  24
HETATM   24  C6  UNL     1      -0.302  52.988 -23.354  1.00  0.00    -0.014 C 
HETATM   25  C7  UNL     1       0.791  53.867 -23.975  1.00  0.00     0.010 C 
BRANCH  24  26
HETATM   26  C5  UNL     1       0.357  51.888 -22.479  1.00  0.00     0.008 C 
BRANCH  26  27
HETATM   27  C4  UNL     1       0.776  52.388 -21.089  1.00  0.00     0.028 C 
BRANCH  27  28
HETATM   28  C3  UNL     1      -0.389  52.363 -20.138  1.00  0.00    -0.013 C 
HETATM   29  C2  UNL     1      -0.887  51.295 -19.479  1.00  0.00     0.008 C 
HETATM   30  C1  UNL     1      -0.392  49.883 -19.596  1.00  0.00     0.055 C 
BRANCH  29  31
HETATM   31  C30 UNL     1      -2.040  51.446 -18.551  1.00  0.00     0.171 C 
HETATM   32  O2  UNL     1      -2.032  51.155 -17.368  1.00  0.00    -0.646 OA
BRANCH  31  33
HETATM   33  O3  UNL     1      -3.152  51.933 -19.129  1.00  0.00    -0.773 OA
HETATM   34  H46 UNL     1      -3.799  51.954 -18.394  1.00  0.00     0.167 HD
ENDBRANCH  31  33
ENDBRANCH  29  31
ENDBRANCH  27  28
ENDBRANCH  26  27
ENDBRANCH  24  26
ENDBRANCH   1  24
TORSDOF 6
ENDMDL
MODEL 9
REMARK minimizedAffinity -8.76082897
REMARK  6 active torsions:
REMARK  status: ('A' for Active; 'I' for Inactive)
REMARK    1  A    between atoms: C2_2  and  C30_31 
REMARK    2  A    between atoms: C3_3  and  C4_4 
REMARK    3  A    between atoms: C4_4  and  C5_5 
REMARK    4  A    between atoms: C5_5  and  C6_6 
REMARK    5  A    between atoms: C6_6  and  C8_8 
REMARK    6  A    between atoms: C30_31  and  O3_33 
ROOT
HETATM    1  C8  UNL     1      -3.181  49.949 -21.939  1.00  0.00    -0.002 C 
HETATM    2  C9  UNL     1      -2.261  49.736 -23.185  1.00  0.00     0.007 C 
HETATM    3  C10 UNL     1      -3.097  49.015 -24.264  1.00  0.00     0.015 C 
HETATM    4  C11 UNL     1      -4.549  49.170 -23.788  1.00  0.00    -0.013 C 
HETATM    5  C12 UNL     1      -5.002  50.611 -24.212  1.00  0.00     0.021 C 
HETATM    6  C13 UNL     1      -5.620  48.235 -24.361  1.00  0.00    -0.070 C 
HETATM    7  C14 UNL     1      -5.689  48.001 -25.685  1.00  0.00    -0.022 C 
HETATM    8  C15 UNL     1      -6.896  47.437 -26.365  1.00  0.00     0.034 C 
HETATM    9  C16 UNL     1      -8.171  47.669 -25.523  1.00  0.00     0.013 C 
HETATM   10  C17 UNL     1      -9.499  47.312 -26.285  1.00  0.00     0.018 C 
HETATM   11  C18 UNL     1      -9.520  45.940 -26.978  1.00  0.00     0.023 C 
HETATM   12  C19 UNL     1      -9.741  48.376 -27.387  1.00  0.00     0.023 C 
HETATM   13  C20 UNL     1     -10.694  47.361 -25.319  1.00  0.00     0.135 C 
HETATM   14  O1  UNL     1     -11.797  47.792 -25.658  1.00  0.00    -0.297 OA
HETATM   15  C21 UNL     1     -10.518  46.746 -23.953  1.00  0.00     0.080 C 
HETATM   16  C22 UNL     1      -9.279  47.306 -23.277  1.00  0.00     0.017 C 
HETATM   17  C23 UNL     1      -7.979  47.077 -24.083  1.00  0.00    -0.031 C 
HETATM   18  C24 UNL     1      -7.680  45.550 -24.106  1.00  0.00     0.016 C 
HETATM   19  C25 UNL     1      -6.711  47.757 -23.385  1.00  0.00     0.024 C 
HETATM   20  C26 UNL     1      -6.985  48.842 -22.322  1.00  0.00     0.010 C 
HETATM   21  C27 UNL     1      -5.720  49.323 -21.557  1.00  0.00     0.011 C 
HETATM   22  C28 UNL     1      -4.374  48.978 -22.240  1.00  0.00    -0.029 C 
HETATM   23  C29 UNL     1      -3.912  47.537 -21.841  1.00  0.00     0.016 C 
ENDROOT
BRANCH   1  24
HETATM   24  C6  UNL     1      -2.395  49.829 -20.598  1.00  0.00    -0.014 C 
HETATM   25  C7  UNL     1      -2.660  51.023 -19.672  1.00  0.00     0.010 C 
BRANCH  24  26
HETATM   26  C5  UNL     1      -0.871  49.717 -20.870  1.00  0.00     0.008 C 
BRANCH  26  27
HETATM   27  C4  UNL     1      -0.062  50.883 -20.283  1.00  0.00     0.028 C 
BRANCH  27  28
HETATM   28  C3  UNL     1       0.398  51.816 -21.370  1.00  0.00    -0.013 C 
HETATM   29  C2  UNL     1       0.706  53.125 -21.251  1.00  0.00     0.008 C 
HETATM   30  C1  UNL     1       0.613  53.937 -19.993  1.00  0.00     0.055 C 
BRANCH  29  31
HETATM   31  C30 UNL     1       1.169  53.905 -22.431  1.00  0.00     0.171 C 
HETATM   32  O2  UNL     1       0.952  53.613 -23.595  1.00  0.00    -0.646 OA
BRANCH  31  33
HETATM   33  O3  UNL     1       1.889  54.997 -22.121  1.00  0.00    -0.773 OA
HETATM   34  H46 UNL     1       2.117  55.374 -22.996  1.00  0.00     0.167 HD
ENDBRANCH  31  33
ENDBRANCH  29  31
ENDBRANCH  27  28
ENDBRANCH  26  27
ENDBRANCH  24  26
ENDBRANCH   1  24
TORSDOF 6
ENDMDL
