MODEL 1
REMARK minimizedAffinity -10.0476227
REMARK  8 active torsions:
REMARK  status: ('A' for Active; 'I' for Inactive)
REMARK    1  A    between atoms: C2_2  and  C3_3 
REMARK    2  A    between atoms: C2_2  and  C27_30 
REMARK    3  A    between atoms: C3_3  and  C4_4 
REMARK    4  A    between atoms: C4_4  and  C5_5 
REMARK    5  A    between atoms: C5_5  and  C7_7 
REMARK    6  A    between atoms: C26_28  and  O3_29 
REMARK    7  A    between atoms: C27_30  and  C29_32 
REMARK    8  A    between atoms: C29_32  and  O5_34 
ROOT
HETATM    1  C7  UNL     1       1.045   6.865  13.493  1.00  0.00    -0.002 C 
HETATM    2  C8  UNL     1       0.196   7.965  14.185  1.00  0.00     0.006 C 
HETATM    3  C9  UNL     1      -1.272   7.564  13.997  1.00  0.00     0.010 C 
HETATM    4  C10 UNL     1      -1.212   6.120  13.492  1.00  0.00     0.027 C 
HETATM    5  C11 UNL     1      -2.414   5.408  12.896  1.00  0.00    -0.036 C 
HETATM    6  C12 UNL     1      -2.244   4.333  12.083  1.00  0.00     0.002 C 
HETATM    7  C13 UNL     1      -0.836   3.961  11.649  1.00  0.00     0.157 C 
HETATM    8  O1  UNL     1      -0.643   3.054  10.839  1.00  0.00    -0.293 OA
HETATM    9  C14 UNL     1       0.357   4.690  12.242  1.00  0.00     0.093 C 
HETATM   10  C15 UNL     1       0.027   6.145  12.557  1.00  0.00    -0.026 C 
HETATM   11  C16 UNL     1      -0.242   6.915  11.244  1.00  0.00     0.016 C 
HETATM   12  C17 UNL     1      -3.412   3.461  11.566  1.00  0.00    -0.008 C 
HETATM   13  C18 UNL     1      -3.656   3.877  10.092  1.00  0.00     0.021 C 
HETATM   14  C19 UNL     1      -3.082   1.932  11.620  1.00  0.00     0.022 C 
HETATM   15  C20 UNL     1      -4.256   0.997  11.907  1.00  0.00     0.080 C 
HETATM   16  C21 UNL     1      -5.560   1.558  11.409  1.00  0.00     0.131 C 
HETATM   17  O2  UNL     1      -6.324   0.890  10.712  1.00  0.00    -0.298 OA
HETATM   18  C22 UNL     1      -5.931   2.954  11.882  1.00  0.00     0.056 C 
HETATM   19  C23 UNL     1      -7.067   2.832  12.899  1.00  0.00     0.018 C 
HETATM   20  C24 UNL     1      -4.689   3.680  12.454  1.00  0.00     0.012 C 
HETATM   21  C25 UNL     1      -4.958   5.169  12.667  1.00  0.00     0.042 C 
HETATM   22  C26 UNL     1      -3.781   5.865  13.350  1.00  0.00     0.148 C 
ENDROOT
BRANCH   1  23
HETATM   23  C5  UNL     1       2.434   7.378  13.019  1.00  0.00    -0.014 C 
HETATM   24  C6  UNL     1       3.335   7.981  14.108  1.00  0.00     0.010 C 
BRANCH  23  25
HETATM   25  C4  UNL     1       2.384   8.363  11.831  1.00  0.00     0.009 C 
BRANCH  25  26
HETATM   26  C3  UNL     1       3.453   8.201  10.739  1.00  0.00     0.034 C 
BRANCH  26  27
HETATM   27  C2  UNL     1       3.337   6.936   9.902  1.00  0.00    -0.075 C 
HETATM   28  C1  UNL     1       4.116   5.879  10.203  1.00  0.00     0.015 C 
BRANCH  27  29
HETATM   29  C27 UNL     1       2.353   6.959   8.732  1.00  0.00     0.107 C 
HETATM   30  C28 UNL     1       2.609   5.962   7.597  1.00  0.00     0.026 C 
BRANCH  29  31
HETATM   31  C29 UNL     1       2.232   8.369   8.166  1.00  0.00     0.147 C 
HETATM   32  O4  UNL     1       3.095   8.954   7.526  1.00  0.00    -0.650 OA
BRANCH  31  33
HETATM   33  O5  UNL     1       1.037   8.955   8.380  1.00  0.00    -0.776 OA
HETATM   34  H42 UNL     1       1.110   9.821   7.927  1.00  0.00     0.167 HD
ENDBRANCH  31  33
ENDBRANCH  29  31
ENDBRANCH  27  29
ENDBRANCH  26  27
ENDBRANCH  25  26
ENDBRANCH  23  25
ENDBRANCH   1  23
BRANCH  22  35
HETATM   35  O3  UNL     1      -3.935   7.252  13.078  1.00  0.00    -0.391 OA
HETATM   36  H37 UNL     1      -4.678   7.569  13.621  1.00  0.00     0.210 HD
ENDBRANCH  22  35
TORSDOF 8
ENDMDL
MODEL 2
REMARK minimizedAffinity -9.99203968
REMARK  8 active torsions:
REMARK  status: ('A' for Active; 'I' for Inactive)
REMARK    1  A    between atoms: C2_2  and  C3_3 
REMARK    2  A    between atoms: C2_2  and  C27_30 
REMARK    3  A    between atoms: C3_3  and  C4_4 
REMARK    4  A    between atoms: C4_4  and  C5_5 
REMARK    5  A    between atoms: C5_5  and  C7_7 
REMARK    6  A    between atoms: C26_28  and  O3_29 
REMARK    7  A    between atoms: C27_30  and  C29_32 
REMARK    8  A    between atoms: C29_32  and  O5_34 
ROOT
HETATM    1  C7  UNL     1      -2.077   5.375  12.188  1.00  0.00    -0.002 C 
HETATM    2  C8  UNL     1      -2.679   4.132  11.480  1.00  0.00     0.006 C 
HETATM    3  C9  UNL     1      -4.153   4.066  11.895  1.00  0.00     0.010 C 
HETATM    4  C10 UNL     1      -4.425   5.419  12.559  1.00  0.00     0.027 C 
HETATM    5  C11 UNL     1      -5.672   5.696  13.380  1.00  0.00    -0.036 C 
HETATM    6  C12 UNL     1      -5.687   6.705  14.290  1.00  0.00     0.002 C 
HETATM    7  C13 UNL     1      -4.390   7.440  14.587  1.00  0.00     0.157 C 
HETATM    8  O1  UNL     1      -4.337   8.296  15.470  1.00  0.00    -0.293 OA
HETATM    9  C14 UNL     1      -3.146   7.144  13.768  1.00  0.00     0.093 C 
HETATM   10  C15 UNL     1      -3.100   5.686  13.323  1.00  0.00    -0.026 C 
HETATM   11  C16 UNL     1      -2.937   4.769  14.557  1.00  0.00     0.016 C 
HETATM   12  C17 UNL     1      -6.958   7.150  15.048  1.00  0.00    -0.008 C 
HETATM   13  C18 UNL     1      -6.847   6.565  16.481  1.00  0.00     0.021 C 
HETATM   14  C19 UNL     1      -7.083   8.709  15.139  1.00  0.00     0.022 C 
HETATM   15  C20 UNL     1      -8.501   9.276  15.114  1.00  0.00     0.080 C 
HETATM   16  C21 UNL     1      -9.504   8.318  15.699  1.00  0.00     0.131 C 
HETATM   17  O2  UNL     1     -10.308   8.673  16.560  1.00  0.00    -0.298 OA
HETATM   18  C22 UNL     1      -9.536   6.916  15.111  1.00  0.00     0.056 C 
HETATM   19  C23 UNL     1     -10.803   6.779  14.264  1.00  0.00     0.018 C 
HETATM   20  C24 UNL     1      -8.243   6.636  14.306  1.00  0.00     0.012 C 
HETATM   21  C25 UNL     1      -8.114   5.156  13.950  1.00  0.00     0.042 C 
HETATM   22  C26 UNL     1      -6.908   4.894  13.048  1.00  0.00     0.148 C 
ENDROOT
BRANCH   1  23
HETATM   23  C5  UNL     1      -0.544   5.257  12.421  1.00  0.00    -0.014 C 
HETATM   24  C6  UNL     1       0.020   6.065  13.600  1.00  0.00     0.010 C 
BRANCH  23  25
HETATM   25  C4  UNL     1       0.320   5.548  11.174  1.00  0.00     0.009 C 
BRANCH  25  26
HETATM   26  C3  UNL     1       0.815   6.990  10.984  1.00  0.00     0.034 C 
BRANCH  26  27
HETATM   27  C2  UNL     1       0.899   7.461   9.541  1.00  0.00    -0.075 C 
HETATM   28  C1  UNL     1      -0.000   8.358   9.091  1.00  0.00     0.015 C 
BRANCH  27  29
HETATM   29  C27 UNL     1       1.995   6.849   8.668  1.00  0.00     0.107 C 
HETATM   30  C28 UNL     1       3.309   6.483   9.368  1.00  0.00     0.026 C 
BRANCH  29  31
HETATM   31  C29 UNL     1       2.279   7.742   7.466  1.00  0.00     0.147 C 
HETATM   32  O4  UNL     1       2.885   8.805   7.498  1.00  0.00    -0.650 OA
BRANCH  31  33
HETATM   33  O5  UNL     1       1.844   7.249   6.290  1.00  0.00    -0.776 OA
HETATM   34  H42 UNL     1       2.135   7.911   5.629  1.00  0.00     0.167 HD
ENDBRANCH  31  33
ENDBRANCH  29  31
ENDBRANCH  27  29
ENDBRANCH  26  27
ENDBRANCH  25  26
ENDBRANCH  23  25
ENDBRANCH   1  23
BRANCH  22  35
HETATM   35  O3  UNL     1      -6.624   3.506  13.167  1.00  0.00    -0.391 OA
HETATM   36  H37 UNL     1      -7.322   3.028  12.686  1.00  0.00     0.210 HD
ENDBRANCH  22  35
TORSDOF 8
ENDMDL
MODEL 3
REMARK minimizedAffinity -9.75693893
REMARK  8 active torsions:
REMARK  status: ('A' for Active; 'I' for Inactive)
REMARK    1  A    between atoms: C2_2  and  C3_3 
REMARK    2  A    between atoms: C2_2  and  C27_30 
REMARK    3  A    between atoms: C3_3  and  C4_4 
REMARK    4  A    between atoms: C4_4  and  C5_5 
REMARK    5  A    between atoms: C5_5  and  C7_7 
REMARK    6  A    between atoms: C26_28  and  O3_29 
REMARK    7  A    between atoms: C27_30  and  C29_32 
REMARK    8  A    between atoms: C29_32  and  O5_34 
ROOT
HETATM    1  C7  UNL     1      -1.580   5.626  13.264  1.00  0.00    -0.002 C 
HETATM    2  C8  UNL     1      -1.644   4.766  11.974  1.00  0.00     0.006 C 
HETATM    3  C9  UNL     1      -0.288   4.927  11.276  1.00  0.00     0.010 C 
HETATM    4  C10 UNL     1       0.602   5.605  12.321  1.00  0.00     0.027 C 
HETATM    5  C11 UNL     1       1.947   6.222  11.979  1.00  0.00    -0.036 C 
HETATM    6  C12 UNL     1       2.496   7.166  12.786  1.00  0.00     0.002 C 
HETATM    7  C13 UNL     1       1.671   7.711  13.940  1.00  0.00     0.157 C 
HETATM    8  O1  UNL     1       2.092   8.633  14.638  1.00  0.00    -0.293 OA
HETATM    9  C14 UNL     1       0.321   7.095  14.263  1.00  0.00     0.093 C 
HETATM   10  C15 UNL     1      -0.382   6.591  13.007  1.00  0.00    -0.026 C 
HETATM   11  C16 UNL     1      -0.747   7.786  12.098  1.00  0.00     0.016 C 
HETATM   12  C17 UNL     1       3.925   7.725  12.595  1.00  0.00    -0.008 C 
HETATM   13  C18 UNL     1       3.770   9.125  11.944  1.00  0.00     0.021 C 
HETATM   14  C19 UNL     1       4.694   7.873  13.951  1.00  0.00     0.022 C 
HETATM   15  C20 UNL     1       6.203   7.643  13.901  1.00  0.00     0.080 C 
HETATM   16  C21 UNL     1       6.786   8.004  12.562  1.00  0.00     0.131 C 
HETATM   17  O2  UNL     1       7.770   8.737  12.464  1.00  0.00    -0.298 OA
HETATM   18  C22 UNL     1       6.160   7.348  11.341  1.00  0.00     0.056 C 
HETATM   19  C23 UNL     1       7.134   6.298  10.806  1.00  0.00     0.018 C 
HETATM   20  C24 UNL     1       4.774   6.755  11.697  1.00  0.00     0.012 C 
HETATM   21  C25 UNL     1       3.999   6.351  10.444  1.00  0.00     0.042 C 
HETATM   22  C26 UNL     1       2.687   5.649  10.792  1.00  0.00     0.148 C 
ENDROOT
BRANCH   1  23
HETATM   23  C5  UNL     1      -2.980   6.104  13.745  1.00  0.00    -0.014 C 
HETATM   24  C6  UNL     1      -3.308   5.840  15.222  1.00  0.00     0.010 C 
BRANCH  23  25
HETATM   25  C4  UNL     1      -4.161   5.599  12.886  1.00  0.00     0.009 C 
BRANCH  25  26
HETATM   26  C3  UNL     1      -5.565   5.686  13.504  1.00  0.00     0.034 C 
BRANCH  26  27
HETATM   27  C2  UNL     1      -6.628   4.843  12.818  1.00  0.00    -0.075 C 
HETATM   28  C1  UNL     1      -7.825   5.396  12.542  1.00  0.00     0.015 C 
BRANCH  27  29
HETATM   29  C27 UNL     1      -6.276   3.387  12.513  1.00  0.00     0.107 C 
HETATM   30  C28 UNL     1      -5.590   3.110  11.170  1.00  0.00     0.026 C 
BRANCH  29  31
HETATM   31  C29 UNL     1      -7.507   2.500  12.658  1.00  0.00     0.147 C 
HETATM   32  O4  UNL     1      -8.611   2.873  13.033  1.00  0.00    -0.650 OA
BRANCH  31  33
HETATM   33  O5  UNL     1      -7.319   1.219  12.285  1.00  0.00    -0.776 OA
HETATM   34  H42 UNL     1      -8.199   0.803  12.400  1.00  0.00     0.167 HD
ENDBRANCH  31  33
ENDBRANCH  29  31
ENDBRANCH  27  29
ENDBRANCH  26  27
ENDBRANCH  25  26
ENDBRANCH  23  25
ENDBRANCH   1  23
BRANCH  22  35
HETATM   35  O3  UNL     1       1.872   5.743   9.631  1.00  0.00    -0.391 OA
HETATM   36  H37 UNL     1       2.241   5.130   8.972  1.00  0.00     0.210 HD
ENDBRANCH  22  35
TORSDOF 8
ENDMDL
MODEL 4
REMARK minimizedAffinity -9.70299625
REMARK  8 active torsions:
REMARK  status: ('A' for Active; 'I' for Inactive)
REMARK    1  A    between atoms: C2_2  and  C3_3 
REMARK    2  A    between atoms: C2_2  and  C27_30 
REMARK    3  A    between atoms: C3_3  and  C4_4 
REMARK    4  A    between atoms: C4_4  and  C5_5 
REMARK    5  A    between atoms: C5_5  and  C7_7 
REMARK    6  A    between atoms: C26_28  and  O3_29 
REMARK    7  A    between atoms: C27_30  and  C29_32 
REMARK    8  A    between atoms: C29_32  and  O5_34 
ROOT
HETATM    1  C7  UNL     1      -1.699   5.942  12.764  1.00  0.00    -0.002 C 
HETATM    2  C8  UNL     1      -1.695   5.008  11.525  1.00  0.00     0.006 C 
HETATM    3  C9  UNL     1      -0.279   5.070  10.938  1.00  0.00     0.010 C 
HETATM    4  C10 UNL     1       0.551   5.772  12.017  1.00  0.00     0.027 C 
HETATM    5  C11 UNL     1       1.948   6.310  11.757  1.00  0.00    -0.036 C 
HETATM    6  C12 UNL     1       2.471   7.278  12.554  1.00  0.00     0.002 C 
HETATM    7  C13 UNL     1       1.578   7.926  13.599  1.00  0.00     0.157 C 
HETATM    8  O1  UNL     1       1.981   8.870  14.278  1.00  0.00    -0.293 OA
HETATM    9  C14 UNL     1       0.178   7.388  13.839  1.00  0.00     0.093 C 
HETATM   10  C15 UNL     1      -0.440   6.838  12.557  1.00  0.00    -0.026 C 
HETATM   11  C16 UNL     1      -0.671   7.990  11.553  1.00  0.00     0.016 C 
HETATM   12  C17 UNL     1       3.935   7.764  12.456  1.00  0.00    -0.008 C 
HETATM   13  C18 UNL     1       3.901   9.127  11.715  1.00  0.00     0.021 C 
HETATM   14  C19 UNL     1       4.593   7.961  13.863  1.00  0.00     0.022 C 
HETATM   15  C20 UNL     1       6.089   7.666  13.957  1.00  0.00     0.080 C 
HETATM   16  C21 UNL     1       6.799   7.920  12.655  1.00  0.00     0.131 C 
HETATM   17  O2  UNL     1       7.821   8.604  12.601  1.00  0.00    -0.298 OA
HETATM   18  C22 UNL     1       6.247   7.218  11.424  1.00  0.00     0.056 C 
HETATM   19  C23 UNL     1       7.213   6.097  11.036  1.00  0.00     0.018 C 
HETATM   20  C24 UNL     1       4.810   6.706  11.692  1.00  0.00     0.012 C 
HETATM   21  C25 UNL     1       4.125   6.259  10.402  1.00  0.00     0.042 C 
HETATM   22  C26 UNL     1       2.756   5.635  10.674  1.00  0.00     0.148 C 
ENDROOT
BRANCH   1  23
HETATM   23  C5  UNL     1      -3.111   6.506  13.094  1.00  0.00    -0.014 C 
HETATM   24  C6  UNL     1      -3.149   7.686  14.076  1.00  0.00     0.010 C 
BRANCH  23  25
HETATM   25  C4  UNL     1      -4.132   5.447  13.565  1.00  0.00     0.009 C 
BRANCH  25  26
HETATM   26  C3  UNL     1      -3.950   4.014  13.041  1.00  0.00     0.034 C 
BRANCH  26  27
HETATM   27  C2  UNL     1      -4.908   3.603  11.934  1.00  0.00    -0.075 C 
HETATM   28  C1  UNL     1      -4.425   3.401  10.692  1.00  0.00     0.015 C 
BRANCH  27  29
HETATM   29  C27 UNL     1      -6.387   3.478  12.299  1.00  0.00     0.107 C 
HETATM   30  C28 UNL     1      -6.798   3.978  13.689  1.00  0.00     0.026 C 
BRANCH  29  31
HETATM   31  C29 UNL     1      -6.865   2.045  12.101  1.00  0.00     0.147 C 
HETATM   32  O4  UNL     1      -6.224   1.150  11.567  1.00  0.00    -0.650 OA
BRANCH  31  33
HETATM   33  O5  UNL     1      -8.083   1.787  12.617  1.00  0.00    -0.776 OA
HETATM   34  H42 UNL     1      -8.221   0.832  12.443  1.00  0.00     0.167 HD
ENDBRANCH  31  33
ENDBRANCH  29  31
ENDBRANCH  27  29
ENDBRANCH  26  27
ENDBRANCH  25  26
ENDBRANCH  23  25
ENDBRANCH   1  23
BRANCH  22  35
HETATM   35  O3  UNL     1       2.047   5.693   9.443  1.00  0.00    -0.391 OA
HETATM   36  H37 UNL     1       2.441   5.025   8.854  1.00  0.00     0.210 HD
ENDBRANCH  22  35
TORSDOF 8
ENDMDL
MODEL 5
REMARK minimizedAffinity -9.66660976
REMARK  8 active torsions:
REMARK  status: ('A' for Active; 'I' for Inactive)
REMARK    1  A    between atoms: C2_2  and  C3_3 
REMARK    2  A    between atoms: C2_2  and  C27_30 
REMARK    3  A    between atoms: C3_3  and  C4_4 
REMARK    4  A    between atoms: C4_4  and  C5_5 
REMARK    5  A    between atoms: C5_5  and  C7_7 
REMARK    6  A    between atoms: C26_28  and  O3_29 
REMARK    7  A    between atoms: C27_30  and  C29_32 
REMARK    8  A    between atoms: C29_32  and  O5_34 
ROOT
HETATM    1  C7  UNL     1       0.578   6.658  11.809  1.00  0.00    -0.002 C 
HETATM    2  C8  UNL     1       0.393   5.350  10.994  1.00  0.00     0.006 C 
HETATM    3  C9  UNL     1      -1.015   4.833  11.314  1.00  0.00     0.010 C 
HETATM    4  C10 UNL     1      -1.695   5.999  12.038  1.00  0.00     0.027 C 
HETATM    5  C11 UNL     1      -3.001   5.844  12.796  1.00  0.00    -0.036 C 
HETATM    6  C12 UNL     1      -3.347   6.736  13.760  1.00  0.00     0.002 C 
HETATM    7  C13 UNL     1      -2.334   7.789  14.179  1.00  0.00     0.157 C 
HETATM    8  O1  UNL     1      -2.568   8.557  15.111  1.00  0.00    -0.293 OA
HETATM    9  C14 UNL     1      -1.024   7.924  13.421  1.00  0.00     0.093 C 
HETATM   10  C15 UNL     1      -0.537   6.577  12.896  1.00  0.00    -0.026 C 
HETATM   11  C16 UNL     1      -0.167   5.658  14.082  1.00  0.00     0.016 C 
HETATM   12  C17 UNL     1      -4.723   6.741  14.464  1.00  0.00    -0.008 C 
HETATM   13  C18 UNL     1      -4.507   6.109  15.865  1.00  0.00     0.021 C 
HETATM   14  C19 UNL     1      -5.299   8.187  14.638  1.00  0.00     0.022 C 
HETATM   15  C20 UNL     1      -6.819   8.322  14.560  1.00  0.00     0.080 C 
HETATM   16  C21 UNL     1      -7.523   7.077  15.025  1.00  0.00     0.131 C 
HETATM   17  O2  UNL     1      -8.431   7.122  15.855  1.00  0.00    -0.298 OA
HETATM   18  C22 UNL     1      -7.122   5.772  14.356  1.00  0.00     0.056 C 
HETATM   19  C23 UNL     1      -8.258   5.339  13.427  1.00  0.00     0.018 C 
HETATM   20  C24 UNL     1      -5.771   5.935  13.616  1.00  0.00     0.012 C 
HETATM   21  C25 UNL     1      -5.203   4.585  13.183  1.00  0.00     0.042 C 
HETATM   22  C26 UNL     1      -3.937   4.747  12.343  1.00  0.00     0.148 C 
ENDROOT
BRANCH   1  23
HETATM   23  C5  UNL     1       2.068   6.969  12.128  1.00  0.00    -0.014 C 
HETATM   24  C6  UNL     1       2.376   7.359  13.581  1.00  0.00     0.010 C 
BRANCH  23  25
HETATM   25  C4  UNL     1       2.720   8.013  11.195  1.00  0.00     0.009 C 
BRANCH  25  26
HETATM   26  C3  UNL     1       3.728   7.495  10.158  1.00  0.00     0.034 C 
BRANCH  26  27
HETATM   27  C2  UNL     1       3.204   6.409   9.232  1.00  0.00    -0.075 C 
HETATM   28  C1  UNL     1       3.648   5.146   9.387  1.00  0.00     0.015 C 
BRANCH  27  29
HETATM   29  C27 UNL     1       2.218   6.833   8.143  1.00  0.00     0.107 C 
HETATM   30  C28 UNL     1       2.373   6.163   6.773  1.00  0.00     0.026 C 
BRANCH  29  31
HETATM   31  C29 UNL     1       2.223   8.348   7.982  1.00  0.00     0.147 C 
HETATM   32  O4  UNL     1       3.146   9.011   7.528  1.00  0.00    -0.650 OA
BRANCH  31  33
HETATM   33  O5  UNL     1       1.073   8.951   8.343  1.00  0.00    -0.776 OA
HETATM   34  H42 UNL     1       1.225   9.899   8.144  1.00  0.00     0.167 HD
ENDBRANCH  31  33
ENDBRANCH  29  31
ENDBRANCH  27  29
ENDBRANCH  26  27
ENDBRANCH  25  26
ENDBRANCH  23  25
ENDBRANCH   1  23
BRANCH  22  35
HETATM   35  O3  UNL     1      -3.266   3.495  12.399  1.00  0.00    -0.391 OA
HETATM   36  H37 UNL     1      -3.774   2.873  11.849  1.00  0.00     0.210 HD
ENDBRANCH  22  35
TORSDOF 8
ENDMDL
MODEL 6
REMARK minimizedAffinity -9.63032341
REMARK  8 active torsions:
REMARK  status: ('A' for Active; 'I' for Inactive)
REMARK    1  A    between atoms: C2_2  and  C3_3 
REMARK    2  A    between atoms: C2_2  and  C27_30 
REMARK    3  A    between atoms: C3_3  and  C4_4 
REMARK    4  A    between atoms: C4_4  and  C5_5 
REMARK    5  A    between atoms: C5_5  and  C7_7 
REMARK    6  A    between atoms: C26_28  and  O3_29 
REMARK    7  A    between atoms: C27_30  and  C29_32 
REMARK    8  A    between atoms: C29_32  and  O5_34 
ROOT
HETATM    1  C7  UNL     1       0.912   6.775  13.706  1.00  0.00    -0.002 C 
HETATM    2  C8  UNL     1       0.055   7.874  14.388  1.00  0.00     0.006 C 
HETATM    3  C9  UNL     1      -1.411   7.489  14.156  1.00  0.00     0.010 C 
HETATM    4  C10 UNL     1      -1.351   6.050  13.635  1.00  0.00     0.027 C 
HETATM    5  C11 UNL     1      -2.543   5.357  12.999  1.00  0.00    -0.036 C 
HETATM    6  C12 UNL     1      -2.360   4.290  12.177  1.00  0.00     0.002 C 
HETATM    7  C13 UNL     1      -0.944   3.911  11.777  1.00  0.00     0.157 C 
HETATM    8  O1  UNL     1      -0.737   3.012  10.961  1.00  0.00    -0.293 OA
HETATM    9  C14 UNL     1       0.239   4.622  12.410  1.00  0.00     0.093 C 
HETATM   10  C15 UNL     1      -0.087   6.076  12.734  1.00  0.00    -0.026 C 
HETATM   11  C16 UNL     1      -0.314   6.864  11.424  1.00  0.00     0.016 C 
HETATM   12  C17 UNL     1      -3.521   3.435  11.619  1.00  0.00    -0.008 C 
HETATM   13  C18 UNL     1      -3.723   3.870  10.144  1.00  0.00     0.021 C 
HETATM   14  C19 UNL     1      -3.206   1.902  11.663  1.00  0.00     0.022 C 
HETATM   15  C20 UNL     1      -4.395   0.974  11.907  1.00  0.00     0.080 C 
HETATM   16  C21 UNL     1      -5.681   1.553  11.381  1.00  0.00     0.131 C 
HETATM   17  O2  UNL     1      -6.432   0.901  10.657  1.00  0.00    -0.298 OA
HETATM   18  C22 UNL     1      -6.053   2.947  11.861  1.00  0.00     0.056 C 
HETATM   19  C23 UNL     1      -7.216   2.822  12.846  1.00  0.00     0.018 C 
HETATM   20  C24 UNL     1      -4.819   3.655  12.475  1.00  0.00     0.012 C 
HETATM   21  C25 UNL     1      -5.082   5.143  12.700  1.00  0.00     0.042 C 
HETATM   22  C26 UNL     1      -3.917   5.820  13.421  1.00  0.00     0.148 C 
ENDROOT
BRANCH   1  23
HETATM   23  C5  UNL     1       2.318   7.282  13.275  1.00  0.00    -0.014 C 
HETATM   24  C6  UNL     1       3.223   7.792  14.407  1.00  0.00     0.010 C 
BRANCH  23  25
HETATM   25  C4  UNL     1       2.302   8.340  12.150  1.00  0.00     0.009 C 
BRANCH  25  26
HETATM   26  C3  UNL     1       3.638   8.642  11.453  1.00  0.00     0.034 C 
BRANCH  26  27
HETATM   27  C2  UNL     1       4.243   7.480  10.681  1.00  0.00    -0.075 C 
HETATM   28  C1  UNL     1       5.342   6.872  11.169  1.00  0.00     0.015 C 
BRANCH  27  29
HETATM   29  C27 UNL     1       3.575   7.093   9.361  1.00  0.00     0.107 C 
HETATM   30  C28 UNL     1       2.328   7.890   8.960  1.00  0.00     0.026 C 
BRANCH  29  31
HETATM   31  C29 UNL     1       3.266   5.601   9.338  1.00  0.00     0.147 C 
HETATM   32  O4  UNL     1       3.410   4.861   8.374  1.00  0.00    -0.650 OA
BRANCH  31  33
HETATM   33  O5  UNL     1       2.846   5.100  10.517  1.00  0.00    -0.776 OA
HETATM   34  H42 UNL     1       2.732   4.142  10.344  1.00  0.00     0.167 HD
ENDBRANCH  31  33
ENDBRANCH  29  31
ENDBRANCH  27  29
ENDBRANCH  26  27
ENDBRANCH  25  26
ENDBRANCH  23  25
ENDBRANCH   1  23
BRANCH  22  35
HETATM   35  O3  UNL     1      -4.052   7.212  13.163  1.00  0.00    -0.391 OA
HETATM   36  H37 UNL     1      -4.806   7.529  13.690  1.00  0.00     0.210 HD
ENDBRANCH  22  35
TORSDOF 8
ENDMDL
MODEL 7
REMARK minimizedAffinity -9.04710484
REMARK  8 active torsions:
REMARK  status: ('A' for Active; 'I' for Inactive)
REMARK    1  A    between atoms: C2_2  and  C3_3 
REMARK    2  A    between atoms: C2_2  and  C27_30 
REMARK    3  A    between atoms: C3_3  and  C4_4 
REMARK    4  A    between atoms: C4_4  and  C5_5 
REMARK    5  A    between atoms: C5_5  and  C7_7 
REMARK    6  A    between atoms: C26_28  and  O3_29 
REMARK    7  A    between atoms: C27_30  and  C29_32 
REMARK    8  A    between atoms: C29_32  and  O5_34 
ROOT
HETATM    1  C7  UNL     1       1.998   7.422  11.603  1.00  0.00    -0.002 C 
HETATM    2  C8  UNL     1       2.301   6.089  10.870  1.00  0.00     0.006 C 
HETATM    3  C9  UNL     1       1.062   5.203  11.047  1.00  0.00     0.010 C 
HETATM    4  C10 UNL     1      -0.010   6.151  11.592  1.00  0.00     0.027 C 
HETATM    5  C11 UNL     1      -1.316   5.657  12.189  1.00  0.00    -0.036 C 
HETATM    6  C12 UNL     1      -2.029   6.447  13.034  1.00  0.00     0.002 C 
HETATM    7  C13 UNL     1      -1.418   7.758  13.498  1.00  0.00     0.157 C 
HETATM    8  O1  UNL     1      -1.986   8.460  14.335  1.00  0.00    -0.293 OA
HETATM    9  C14 UNL     1      -0.104   8.235  12.903  1.00  0.00     0.093 C 
HETATM   10  C15 UNL     1       0.807   7.065  12.544  1.00  0.00    -0.026 C 
HETATM   11  C16 UNL     1       1.247   6.331  13.832  1.00  0.00     0.016 C 
HETATM   12  C17 UNL     1      -3.438   6.083  13.557  1.00  0.00    -0.008 C 
HETATM   13  C18 UNL     1      -3.255   5.588  15.016  1.00  0.00     0.021 C 
HETATM   14  C19 UNL     1      -4.411   7.310  13.550  1.00  0.00     0.022 C 
HETATM   15  C20 UNL     1      -5.882   7.004  13.271  1.00  0.00     0.080 C 
HETATM   16  C21 UNL     1      -6.270   5.626  13.734  1.00  0.00     0.131 C 
HETATM   17  O2  UNL     1      -7.263   5.439  14.437  1.00  0.00    -0.298 OA
HETATM   18  C22 UNL     1      -5.433   4.467  13.218  1.00  0.00     0.056 C 
HETATM   19  C23 UNL     1      -6.261   3.697  12.188  1.00  0.00     0.018 C 
HETATM   20  C24 UNL     1      -4.090   4.983  12.645  1.00  0.00     0.012 C 
HETATM   21  C25 UNL     1      -3.114   3.837  12.387  1.00  0.00     0.042 C 
HETATM   22  C26 UNL     1      -1.836   4.324  11.703  1.00  0.00     0.148 C 
ENDROOT
BRANCH   1  23
HETATM   23  C5  UNL     1       3.283   8.156  12.084  1.00  0.00    -0.014 C 
HETATM   24  C6  UNL     1       3.070   9.543  12.710  1.00  0.00     0.010 C 
BRANCH  23  25
HETATM   25  C4  UNL     1       4.395   8.270  11.018  1.00  0.00     0.009 C 
BRANCH  25  26
HETATM   26  C3  UNL     1       5.736   8.870  11.465  1.00  0.00     0.034 C 
BRANCH  26  27
HETATM   27  C2  UNL     1       6.674   7.905  12.174  1.00  0.00    -0.075 C 
HETATM   28  C1  UNL     1       6.991   6.742  11.574  1.00  0.00     0.015 C 
BRANCH  27  29
HETATM   29  C27 UNL     1       7.175   8.309  13.560  1.00  0.00     0.107 C 
HETATM   30  C28 UNL     1       8.623   7.940  13.904  1.00  0.00     0.026 C 
BRANCH  29  31
HETATM   31  C29 UNL     1       6.237   7.784  14.640  1.00  0.00     0.147 C 
HETATM   32  O4  UNL     1       5.614   8.474  15.437  1.00  0.00    -0.650 OA
BRANCH  31  33
HETATM   33  O5  UNL     1       6.082   6.445  14.642  1.00  0.00    -0.776 OA
HETATM   34  H42 UNL     1       5.430   6.279  15.355  1.00  0.00     0.167 HD
ENDBRANCH  31  33
ENDBRANCH  29  31
ENDBRANCH  27  29
ENDBRANCH  26  27
ENDBRANCH  25  26
ENDBRANCH  23  25
ENDBRANCH   1  23
BRANCH  22  35
HETATM   35  O3  UNL     1      -0.859   3.317  11.935  1.00  0.00    -0.391 OA
HETATM   36  H37 UNL     1      -1.092   2.558  11.372  1.00  0.00     0.210 HD
ENDBRANCH  22  35
TORSDOF 8
ENDMDL
MODEL 8
REMARK minimizedAffinity -9.00932407
REMARK  8 active torsions:
REMARK  status: ('A' for Active; 'I' for Inactive)
REMARK    1  A    between atoms: C2_2  and  C3_3 
REMARK    2  A    between atoms: C2_2  and  C27_30 
REMARK    3  A    between atoms: C3_3  and  C4_4 
REMARK    4  A    between atoms: C4_4  and  C5_5 
REMARK    5  A    between atoms: C5_5  and  C7_7 
REMARK    6  A    between atoms: C26_28  and  O3_29 
REMARK    7  A    between atoms: C27_30  and  C29_32 
REMARK    8  A    between atoms: C29_32  and  O5_34 
ROOT
HETATM    1  C7  UNL     1      -6.092   6.631  13.532  1.00  0.00    -0.002 C 
HETATM    2  C8  UNL     1      -6.133   8.095  14.046  1.00  0.00     0.006 C 
HETATM    3  C9  UNL     1      -4.693   8.619  13.985  1.00  0.00     0.010 C 
HETATM    4  C10 UNL     1      -3.940   7.571  13.161  1.00  0.00     0.027 C 
HETATM    5  C11 UNL     1      -2.424   7.522  13.083  1.00  0.00    -0.036 C 
HETATM    6  C12 UNL     1      -1.790   6.374  12.728  1.00  0.00     0.002 C 
HETATM    7  C13 UNL     1      -2.611   5.104  12.573  1.00  0.00     0.157 C 
HETATM    8  O1  UNL     1      -2.067   4.024  12.345  1.00  0.00    -0.293 OA
HETATM    9  C14 UNL     1      -4.125   5.164  12.667  1.00  0.00     0.093 C 
HETATM   10  C15 UNL     1      -4.585   6.243  13.642  1.00  0.00    -0.026 C 
HETATM   11  C16 UNL     1      -4.156   5.866  15.078  1.00  0.00     0.016 C 
HETATM   12  C17 UNL     1      -0.268   6.284  12.473  1.00  0.00    -0.008 C 
HETATM   13  C18 UNL     1       0.353   5.619  13.729  1.00  0.00     0.021 C 
HETATM   14  C19 UNL     1       0.075   5.420  11.212  1.00  0.00     0.022 C 
HETATM   15  C20 UNL     1       1.305   5.849  10.414  1.00  0.00     0.080 C 
HETATM   16  C21 UNL     1       2.338   6.517  11.281  1.00  0.00     0.131 C 
HETATM   17  O2  UNL     1       3.518   6.171  11.259  1.00  0.00    -0.298 OA
HETATM   18  C22 UNL     1       1.871   7.699  12.116  1.00  0.00     0.056 C 
HETATM   19  C23 UNL     1       2.440   8.978  11.499  1.00  0.00     0.018 C 
HETATM   20  C24 UNL     1       0.326   7.715  12.215  1.00  0.00     0.012 C 
HETATM   21  C25 UNL     1      -0.156   8.706  13.273  1.00  0.00     0.042 C 
HETATM   22  C26 UNL     1      -1.680   8.821  13.288  1.00  0.00     0.148 C 
ENDROOT
BRANCH   1  23
HETATM   23  C5  UNL     1      -7.248   5.757  14.097  1.00  0.00    -0.014 C 
HETATM   24  C6  UNL     1      -7.173   4.257  13.776  1.00  0.00     0.010 C 
BRANCH  23  25
HETATM   25  C4  UNL     1      -8.665   6.260  13.745  1.00  0.00     0.009 C 
BRANCH  25  26
HETATM   26  C3  UNL     1      -9.473   6.925  14.870  1.00  0.00     0.034 C 
BRANCH  26  27
HETATM   27  C2  UNL     1     -10.331   8.105  14.442  1.00  0.00    -0.075 C 
HETATM   28  C1  UNL     1     -10.172   9.289  15.065  1.00  0.00     0.015 C 
BRANCH  27  29
HETATM   29  C27 UNL     1     -11.359   7.859  13.338  1.00  0.00     0.107 C 
HETATM   30  C28 UNL     1     -11.793   9.078  12.515  1.00  0.00     0.026 C 
BRANCH  29  31
HETATM   31  C29 UNL     1     -12.585   7.150  13.901  1.00  0.00     0.147 C 
HETATM   32  O4  UNL     1     -13.437   6.572  13.239  1.00  0.00    -0.650 OA
BRANCH  31  33
HETATM   33  O5  UNL     1     -12.662   7.153  15.246  1.00  0.00    -0.776 OA
HETATM   34  H42 UNL     1     -13.470   6.633  15.442  1.00  0.00     0.167 HD
ENDBRANCH  31  33
ENDBRANCH  29  31
ENDBRANCH  27  29
ENDBRANCH  26  27
ENDBRANCH  25  26
ENDBRANCH  23  25
ENDBRANCH   1  23
BRANCH  22  35
HETATM   35  O3  UNL     1      -2.020   9.371  14.554  1.00  0.00    -0.391 OA
HETATM   36  H37 UNL     1      -1.764  10.310  14.537  1.00  0.00     0.210 HD
ENDBRANCH  22  35
TORSDOF 8
ENDMDL
MODEL 9
REMARK minimizedAffinity -8.89545631
REMARK  8 active torsions:
REMARK  status: ('A' for Active; 'I' for Inactive)
REMARK    1  A    between atoms: C2_2  and  C3_3 
REMARK    2  A    between atoms: C2_2  and  C27_30 
REMARK    3  A    between atoms: C3_3  and  C4_4 
REMARK    4  A    between atoms: C4_4  and  C5_5 
REMARK    5  A    between atoms: C5_5  and  C7_7 
REMARK    6  A    between atoms: C26_28  and  O3_29 
REMARK    7  A    between atoms: C27_30  and  C29_32 
REMARK    8  A    between atoms: C29_32  and  O5_34 
ROOT
HETATM    1  C7  UNL     1      -0.587   6.189  12.553  1.00  0.00    -0.002 C 
HETATM    2  C8  UNL     1      -0.911   4.994  11.618  1.00  0.00     0.006 C 
HETATM    3  C9  UNL     1      -2.403   4.690  11.800  1.00  0.00     0.010 C 
HETATM    4  C10 UNL     1      -2.946   5.893  12.576  1.00  0.00     0.027 C 
HETATM    5  C11 UNL     1      -4.316   5.897  13.232  1.00  0.00    -0.036 C 
HETATM    6  C12 UNL     1      -4.591   6.759  14.245  1.00  0.00     0.002 C 
HETATM    7  C13 UNL     1      -3.461   7.599  14.817  1.00  0.00     0.157 C 
HETATM    8  O1  UNL     1      -3.644   8.323  15.795  1.00  0.00    -0.293 OA
HETATM    9  C14 UNL     1      -2.091   7.576  14.160  1.00  0.00     0.093 C 
HETATM   10  C15 UNL     1      -1.783   6.210  13.554  1.00  0.00    -0.026 C 
HETATM   11  C16 UNL     1      -1.654   5.157  14.678  1.00  0.00     0.016 C 
HETATM   12  C17 UNL     1      -6.000   6.935  14.856  1.00  0.00    -0.008 C 
HETATM   13  C18 UNL     1      -5.995   6.174  16.207  1.00  0.00     0.021 C 
HETATM   14  C19 UNL     1      -6.354   8.439  15.115  1.00  0.00     0.022 C 
HETATM   15  C20 UNL     1      -7.823   8.825  14.951  1.00  0.00     0.080 C 
HETATM   16  C21 UNL     1      -8.747   7.679  15.261  1.00  0.00     0.131 C 
HETATM   17  O2  UNL     1      -9.699   7.810  16.030  1.00  0.00    -0.298 OA
HETATM   18  C22 UNL     1      -8.506   6.380  14.508  1.00  0.00     0.056 C 
HETATM   19  C23 UNL     1      -9.620   6.209  13.474  1.00  0.00     0.018 C 
HETATM   20  C24 UNL     1      -7.092   6.377  13.875  1.00  0.00     0.012 C 
HETATM   21  C25 UNL     1      -6.711   4.988  13.365  1.00  0.00     0.042 C 
HETATM   22  C26 UNL     1      -5.373   5.004  12.626  1.00  0.00     0.148 C 
ENDROOT
BRANCH   1  23
HETATM   23  C5  UNL     1       0.904   6.229  12.993  1.00  0.00    -0.014 C 
HETATM   24  C6  UNL     1       1.183   6.869  14.362  1.00  0.00     0.010 C 
BRANCH  23  25
HETATM   25  C4  UNL     1       1.863   6.856  11.958  1.00  0.00     0.009 C 
BRANCH  25  26
HETATM   26  C3  UNL     1       2.603   5.895  11.015  1.00  0.00     0.034 C 
BRANCH  26  27
HETATM   27  C2  UNL     1       2.942   6.465   9.646  1.00  0.00    -0.075 C 
HETATM   28  C1  UNL     1       2.965   5.640   8.581  1.00  0.00     0.015 C 
BRANCH  27  29
HETATM   29  C27 UNL     1       3.277   7.955   9.572  1.00  0.00     0.107 C 
HETATM   30  C28 UNL     1       3.249   8.599   8.180  1.00  0.00     0.026 C 
BRANCH  29  31
HETATM   31  C29 UNL     1       4.614   8.235  10.246  1.00  0.00     0.147 C 
HETATM   32  O4  UNL     1       4.911   9.267  10.832  1.00  0.00    -0.650 OA
BRANCH  31  33
HETATM   33  O5  UNL     1       5.487   7.209  10.200  1.00  0.00    -0.776 OA
HETATM   34  H42 UNL     1       6.265   7.532  10.702  1.00  0.00     0.167 HD
ENDBRANCH  31  33
ENDBRANCH  29  31
ENDBRANCH  27  29
ENDBRANCH  26  27
ENDBRANCH  25  26
ENDBRANCH  23  25
ENDBRANCH   1  23
BRANCH  22  35
HETATM   35  O3  UNL     1      -4.914   3.659  12.617  1.00  0.00    -0.391 OA
HETATM   36  H37 UNL     1      -5.469   3.171  11.983  1.00  0.00     0.210 HD
ENDBRANCH  22  35
TORSDOF 8
ENDMDL
