MODEL 1
REMARK minimizedAffinity -9.0624094
REMARK  4 active torsions:
REMARK  status: ('A' for Active; 'I' for Inactive)
REMARK    1  A    between atoms: C2_2  and  N1_3 
REMARK       I    between atoms: N1_3  and  C3_4 
REMARK       I    between atoms: C3_4  and  N2_6 
REMARK    2  A    between atoms: C6_9  and  N3_10 
REMARK    3  A    between atoms: N3_10  and  C7_11 
REMARK    4  A    between atoms: C10_17  and  C11_18 
ROOT
HETATM    1  C7  UNL     1      -2.723  50.632 -22.428  1.00  0.00     0.158 A 
HETATM    2  N4  UNL     1      -3.296  49.423 -22.366  1.00  0.00    -0.341 N 
ATOM      3  H4  UNL     1      -3.600  49.020 -21.480  1.00  0.00     0.167 HD
HETATM    4  C8  UNL     1      -3.453  48.761 -23.533  1.00  0.00     0.116 A 
HETATM    5  C9  UNL     1      -3.063  49.252 -24.757  1.00  0.00     0.077 A 
HETATM    6 CL1  UNL     1      -3.349  48.331 -26.177  1.00  0.00    -0.080 Cl
HETATM    7  C10 UNL     1      -2.485  50.506 -24.715  1.00  0.00     0.070 A 
HETATM    8  N6  UNL     1      -2.321  51.206 -23.564  1.00  0.00    -0.331 N 
ATOM      9  H6  UNL     1      -1.906  52.138 -23.568  1.00  0.00     0.168 HD
ENDROOT
BRANCH   1  10
HETATM   10  N3  UNL     1      -2.513  51.379 -21.278  1.00  0.00    -0.259 NA
HETATM   11  H12 UNL     1      -3.397  51.856 -21.118  1.00  0.00     0.131 HD
BRANCH  10  12
HETATM   12  C6  UNL     1      -1.959  50.658 -20.132  1.00  0.00     0.066 C 
HETATM   13  C5  UNL     1      -0.429  50.560 -20.244  1.00  0.00     0.040 C 
HETATM   14  C4  UNL     1       0.285  51.653 -19.457  1.00  0.00     0.129 C 
HETATM   15  N2  UNL     1      -0.091  51.643 -18.041  1.00  0.00    -0.334 N 
HETATM   16  C3  UNL     1       0.756  51.964 -16.993  1.00  0.00     0.318 C 
HETATM   17  C20 UNL     1      -1.415  51.127 -17.710  1.00  0.00     0.129 C 
HETATM   18  N1  UNL     1       1.928  52.571 -17.367  1.00  0.00    -0.343 N 
HETATM   19  O1  UNL     1       0.483  51.725 -15.819  1.00  0.00    -0.247 OA
HETATM   20  H6  UNL     1       1.884  53.111 -18.216  1.00  0.00     0.164 HD
HETATM   21  C19 UNL     1      -2.401  51.371 -18.843  1.00  0.00     0.040 C 
BRANCH  18  22
HETATM   22  C2  UNL     1       2.894  53.006 -16.377  1.00  0.00     0.120 C 
HETATM   23  C1  UNL     1       4.192  52.222 -16.465  1.00  0.00     0.026 C 
ENDBRANCH  18  22
ENDBRANCH  10  12
ENDBRANCH   1  10
BRANCH   7  24
HETATM   24  C11 UNL     1      -2.014  51.205 -25.901  1.00  0.00     0.020 A 
HETATM   25  C12 UNL     1      -2.849  51.832 -26.806  1.00  0.00     0.103 A 
HETATM   26  N5  UNL     1      -2.073  52.363 -27.802  1.00  0.00    -0.364 N 
HETATM   27  C13 UNL     1      -0.746  52.074 -27.580  1.00  0.00     0.043 A 
HETATM   28  H15 UNL     1      -2.419  52.881 -28.599  1.00  0.00     0.165 HD
HETATM   29  C14 UNL     1       0.387  52.404 -28.334  1.00  0.00     0.030 A 
HETATM   30  C18 UNL     1      -0.678  51.334 -26.397  1.00  0.00     0.004 A 
HETATM   31  C15 UNL     1       1.628  51.961 -27.865  1.00  0.00     0.002 A 
HETATM   32  C16 UNL     1       1.729  51.220 -26.691  1.00  0.00     0.001 A 
HETATM   33  C17 UNL     1       0.586  50.900 -25.949  1.00  0.00     0.014 A 
ENDBRANCH   7  24
TORSDOF 4
ENDMDL
MODEL 2
REMARK minimizedAffinity -8.99856281
REMARK  4 active torsions:
REMARK  status: ('A' for Active; 'I' for Inactive)
REMARK    1  A    between atoms: C2_2  and  N1_3 
REMARK       I    between atoms: N1_3  and  C3_4 
REMARK       I    between atoms: C3_4  and  N2_6 
REMARK    2  A    between atoms: C6_9  and  N3_10 
REMARK    3  A    between atoms: N3_10  and  C7_11 
REMARK    4  A    between atoms: C10_17  and  C11_18 
ROOT
HETATM    1  C7  UNL     1       0.022  52.107 -23.120  1.00  0.00     0.158 A 
HETATM    2  N4  UNL     1       0.699  53.254 -23.261  1.00  0.00    -0.341 N 
ATOM      3  H4  UNL     1       1.244  53.650 -22.497  1.00  0.00     0.167 HD
HETATM    4  C8  UNL     1       0.625  53.862 -24.465  1.00  0.00     0.116 A 
HETATM    5  C9  UNL     1      -0.094  53.376 -25.532  1.00  0.00     0.077 A 
HETATM    6 CL1  UNL     1      -0.081  54.222 -27.026  1.00  0.00    -0.080 Cl
HETATM    7  C10 UNL     1      -0.755  52.188 -25.286  1.00  0.00     0.070 A 
HETATM    8  N6  UNL     1      -0.695  51.543 -24.094  1.00  0.00    -0.331 N 
ATOM      9  H6  UNL     1      -1.180  50.658 -23.948  1.00  0.00     0.168 HD
ENDROOT
BRANCH   1  10
HETATM   10  N3  UNL     1       0.032  51.419 -21.915  1.00  0.00    -0.259 NA
HETATM   11  H12 UNL     1       0.950  50.985 -21.876  1.00  0.00     0.131 HD
BRANCH  10  12
HETATM   12  C6  UNL     1      -0.363  52.184 -20.732  1.00  0.00     0.066 C 
HETATM   13  C5  UNL     1      -1.090  51.279 -19.722  1.00  0.00     0.040 C 
HETATM   14  C4  UNL     1      -0.158  50.749 -18.639  1.00  0.00     0.129 C 
HETATM   15  N2  UNL     1       0.510  51.832 -17.912  1.00  0.00    -0.334 N 
HETATM   16  C3  UNL     1       0.839  51.802 -16.567  1.00  0.00     0.318 C 
HETATM   17  C20 UNL     1       0.722  53.083 -18.634  1.00  0.00     0.129 C 
HETATM   18  N1  UNL     1       0.748  50.565 -15.982  1.00  0.00    -0.343 N 
HETATM   19  O1  UNL     1       1.184  52.802 -15.944  1.00  0.00    -0.247 OA
HETATM   20  H6  UNL     1       0.902  49.782 -16.597  1.00  0.00     0.164 HD
HETATM   21  C19 UNL     1       0.891  52.836 -20.126  1.00  0.00     0.040 C 
BRANCH  18  22
HETATM   22  C2  UNL     1       1.103  50.367 -14.591  1.00  0.00     0.120 C 
HETATM   23  C1  UNL     1       1.787  51.588 -13.998  1.00  0.00     0.026 C 
ENDBRANCH  18  22
ENDBRANCH  10  12
ENDBRANCH   1  10
BRANCH   7  24
HETATM   24  C11 UNL     1      -1.561  51.504 -26.286  1.00  0.00     0.020 A 
HETATM   25  C12 UNL     1      -1.636  51.891 -27.610  1.00  0.00     0.103 A 
HETATM   26  N5  UNL     1      -2.498  51.042 -28.252  1.00  0.00    -0.364 N 
HETATM   27  C13 UNL     1      -3.009  50.121 -27.367  1.00  0.00     0.043 A 
HETATM   28  H15 UNL     1      -2.741  51.089 -29.232  1.00  0.00     0.165 HD
HETATM   29  C14 UNL     1      -3.922  49.080 -27.577  1.00  0.00     0.030 A 
HETATM   30  C18 UNL     1      -2.449  50.394 -26.118  1.00  0.00     0.004 A 
HETATM   31  C15 UNL     1      -4.275  48.296 -26.474  1.00  0.00     0.002 A 
HETATM   32  C16 UNL     1      -3.735  48.544 -25.215  1.00  0.00     0.001 A 
HETATM   33  C17 UNL     1      -2.824  49.588 -25.023  1.00  0.00     0.014 A 
ENDBRANCH   7  24
TORSDOF 4
ENDMDL
MODEL 3
REMARK minimizedAffinity -8.86785603
REMARK  4 active torsions:
REMARK  status: ('A' for Active; 'I' for Inactive)
REMARK    1  A    between atoms: C2_2  and  N1_3 
REMARK       I    between atoms: N1_3  and  C3_4 
REMARK       I    between atoms: C3_4  and  N2_6 
REMARK    2  A    between atoms: C6_9  and  N3_10 
REMARK    3  A    between atoms: N3_10  and  C7_11 
REMARK    4  A    between atoms: C10_17  and  C11_18 
ROOT
HETATM    1  C7  UNL     1       0.672  52.732 -18.623  1.00  0.00     0.158 A 
HETATM    2  N4  UNL     1       1.512  52.931 -17.599  1.00  0.00    -0.341 N 
ATOM      3  H4  UNL     1       2.088  53.770 -17.536  1.00  0.00     0.167 HD
HETATM    4  C8  UNL     1       1.561  51.969 -16.652  1.00  0.00     0.116 A 
HETATM    5  C9  UNL     1       0.809  50.818 -16.683  1.00  0.00     0.077 A 
HETATM    6 CL1  UNL     1       0.931  49.684 -15.400  1.00  0.00    -0.080 Cl
HETATM    7  C10 UNL     1      -0.027  50.707 -17.778  1.00  0.00     0.070 A 
HETATM    8  N6  UNL     1      -0.111  51.657 -18.742  1.00  0.00    -0.331 N 
ATOM      9  H6  UNL     1      -0.751  51.555 -19.530  1.00  0.00     0.168 HD
ENDROOT
BRANCH   1  10
HETATM   10  N3  UNL     1       0.564  53.662 -19.646  1.00  0.00    -0.259 NA
HETATM   11  H12 UNL     1       0.753  54.556 -19.200  1.00  0.00     0.131 HD
BRANCH  10  12
HETATM   12  C6  UNL     1       1.332  53.379 -20.859  1.00  0.00     0.066 C 
HETATM   13  C5  UNL     1       0.784  52.127 -21.565  1.00  0.00     0.040 C 
HETATM   14  C4  UNL     1      -0.194  52.468 -22.683  1.00  0.00     0.129 C 
HETATM   15  N2  UNL     1       0.405  53.355 -23.684  1.00  0.00    -0.334 N 
HETATM   16  C3  UNL     1       0.126  53.326 -25.040  1.00  0.00     0.318 C 
HETATM   17  C20 UNL     1       1.473  54.241 -23.230  1.00  0.00     0.129 C 
HETATM   18  N1  UNL     1      -0.975  52.582 -25.383  1.00  0.00    -0.343 N 
HETATM   19  O1  UNL     1       0.807  53.918 -25.873  1.00  0.00    -0.247 OA
HETATM   20  H6  UNL     1      -1.691  52.518 -24.678  1.00  0.00     0.164 HD
HETATM   21  C19 UNL     1       1.291  54.620 -21.768  1.00  0.00     0.040 C 
BRANCH  18  22
HETATM   22  C2  UNL     1      -1.418  52.494 -26.760  1.00  0.00     0.120 C 
HETATM   23  C1  UNL     1      -0.803  51.307 -27.482  1.00  0.00     0.026 C 
ENDBRANCH  18  22
ENDBRANCH  10  12
ENDBRANCH   1  10
BRANCH   7  24
HETATM   24  C11 UNL     1      -0.911  49.571 -17.992  1.00  0.00     0.020 A 
HETATM   25  C12 UNL     1      -1.553  48.893 -16.974  1.00  0.00     0.103 A 
HETATM   26  N5  UNL     1      -2.279  47.876 -17.534  1.00  0.00    -0.364 N 
HETATM   27  C13 UNL     1      -2.105  47.858 -18.899  1.00  0.00     0.043 A 
HETATM   28  H15 UNL     1      -2.853  47.218 -17.023  1.00  0.00     0.165 HD
HETATM   29  C14 UNL     1      -2.640  46.997 -19.865  1.00  0.00     0.030 A 
HETATM   30  C18 UNL     1      -1.237  48.905 -19.216  1.00  0.00     0.004 A 
HETATM   31  C15 UNL     1      -2.274  47.212 -21.197  1.00  0.00     0.002 A 
HETATM   32  C16 UNL     1      -1.410  48.246 -21.546  1.00  0.00     0.001 A 
HETATM   33  C17 UNL     1      -0.884  49.097 -20.568  1.00  0.00     0.014 A 
ENDBRANCH   7  24
TORSDOF 4
ENDMDL
MODEL 4
REMARK minimizedAffinity -8.84326744
REMARK  4 active torsions:
REMARK  status: ('A' for Active; 'I' for Inactive)
REMARK    1  A    between atoms: C2_2  and  N1_3 
REMARK       I    between atoms: N1_3  and  C3_4 
REMARK       I    between atoms: C3_4  and  N2_6 
REMARK    2  A    between atoms: C6_9  and  N3_10 
REMARK    3  A    between atoms: N3_10  and  C7_11 
REMARK    4  A    between atoms: C10_17  and  C11_18 
ROOT
HETATM    1  C7  UNL     1      -0.335  51.509 -25.030  1.00  0.00     0.158 A 
HETATM    2  N4  UNL     1       0.263  52.600 -25.527  1.00  0.00    -0.341 N 
ATOM      3  H4  UNL     1       0.331  52.760 -26.532  1.00  0.00     0.167 HD
HETATM    4  C8  UNL     1       0.772  53.477 -24.637  1.00  0.00     0.116 A 
HETATM    5  C9  UNL     1       0.711  53.315 -23.272  1.00  0.00     0.077 A 
HETATM    6 CL1  UNL     1       1.364  54.521 -22.239  1.00  0.00    -0.080 Cl
HETATM    7  C10 UNL     1       0.074  52.161 -22.859  1.00  0.00     0.070 A 
HETATM    8  N6  UNL     1      -0.460  51.262 -23.724  1.00  0.00    -0.331 N 
ATOM      9  H6  UNL     1      -0.940  50.427 -23.388  1.00  0.00     0.168 HD
ENDROOT
BRANCH   1  10
HETATM   10  N3  UNL     1      -0.877  50.549 -25.870  1.00  0.00    -0.259 NA
HETATM   11  H12 UNL     1      -0.282  49.734 -25.746  1.00  0.00     0.131 HD
BRANCH  10  12
HETATM   12  C6  UNL     1      -2.316  50.314 -25.738  1.00  0.00     0.066 C 
HETATM   13  C5  UNL     1      -3.086  51.047 -26.849  1.00  0.00     0.040 C 
HETATM   14  C4  UNL     1      -3.402  50.142 -28.035  1.00  0.00     0.129 C 
HETATM   15  N2  UNL     1      -4.160  48.954 -27.632  1.00  0.00    -0.334 N 
HETATM   16  C3  UNL     1      -5.130  48.333 -28.401  1.00  0.00     0.318 C 
HETATM   17  C20 UNL     1      -3.970  48.478 -26.266  1.00  0.00     0.129 C 
HETATM   18  N1  UNL     1      -5.164  48.731 -29.714  1.00  0.00    -0.343 N 
HETATM   19  O1  UNL     1      -5.900  47.491 -27.948  1.00  0.00    -0.247 OA
HETATM   20  H6  UNL     1      -4.285  49.044 -30.094  1.00  0.00     0.164 HD
HETATM   21  C19 UNL     1      -2.570  48.797 -25.761  1.00  0.00     0.040 C 
BRANCH  18  22
HETATM   22  C2  UNL     1      -6.095  48.137 -30.652  1.00  0.00     0.120 C 
HETATM   23  C1  UNL     1      -5.455  47.024 -31.464  1.00  0.00     0.026 C 
ENDBRANCH  18  22
ENDBRANCH  10  12
ENDBRANCH   1  10
BRANCH   7  24
HETATM   24  C11 UNL     1      -0.105  51.809 -21.459  1.00  0.00     0.020 A 
HETATM   25  C12 UNL     1       0.180  52.659 -20.409  1.00  0.00     0.103 A 
HETATM   26  N5  UNL     1      -0.083  51.995 -19.240  1.00  0.00    -0.364 N 
HETATM   27  C13 UNL     1      -0.512  50.715 -19.505  1.00  0.00     0.043 A 
HETATM   28  H15 UNL     1       0.032  52.379 -18.312  1.00  0.00     0.165 HD
HETATM   29  C14 UNL     1      -0.881  49.689 -18.626  1.00  0.00     0.030 A 
HETATM   30  C18 UNL     1      -0.523  50.563 -20.892  1.00  0.00     0.004 A 
HETATM   31  C15 UNL     1      -1.271  48.467 -19.185  1.00  0.00     0.002 A 
HETATM   32  C16 UNL     1      -1.291  48.283 -20.565  1.00  0.00     0.001 A 
HETATM   33  C17 UNL     1      -0.919  49.320 -21.428  1.00  0.00     0.014 A 
ENDBRANCH   7  24
TORSDOF 4
ENDMDL
MODEL 5
REMARK minimizedAffinity -8.70434761
REMARK  4 active torsions:
REMARK  status: ('A' for Active; 'I' for Inactive)
REMARK    1  A    between atoms: C2_2  and  N1_3 
REMARK       I    between atoms: N1_3  and  C3_4 
REMARK       I    between atoms: C3_4  and  N2_6 
REMARK    2  A    between atoms: C6_9  and  N3_10 
REMARK    3  A    between atoms: N3_10  and  C7_11 
REMARK    4  A    between atoms: C10_17  and  C11_18 
ROOT
HETATM    1  C7  UNL     1      -0.870  50.538 -22.032  1.00  0.00     0.158 A 
HETATM    2  N4  UNL     1      -0.346  50.879 -20.848  1.00  0.00    -0.341 N 
ATOM      3  H4  UNL     1      -0.478  50.300 -20.019  1.00  0.00     0.167 HD
HETATM    4  C8  UNL     1       0.365  52.026 -20.802  1.00  0.00     0.116 A 
HETATM    5  C9  UNL     1       0.576  52.847 -21.885  1.00  0.00     0.077 A 
HETATM    6 CL1  UNL     1       1.531  54.263 -21.710  1.00  0.00    -0.080 Cl
HETATM    7  C10 UNL     1      -0.003  52.407 -23.060  1.00  0.00     0.070 A 
HETATM    8  N6  UNL     1      -0.715  51.255 -23.147  1.00  0.00    -0.331 N 
ATOM      9  H6  UNL     1      -1.116  50.948 -24.033  1.00  0.00     0.168 HD
ENDROOT
BRANCH   1  10
HETATM   10  N3  UNL     1      -1.624  49.382 -22.170  1.00  0.00    -0.259 NA
HETATM   11  H12 UNL     1      -1.260  48.752 -21.460  1.00  0.00     0.131 HD
BRANCH  10  12
HETATM   12  C6  UNL     1      -3.077  49.556 -22.184  1.00  0.00     0.066 C 
HETATM   13  C5  UNL     1      -3.524  50.259 -23.477  1.00  0.00     0.040 C 
HETATM   14  C4  UNL     1      -3.982  49.275 -24.547  1.00  0.00     0.129 C 
HETATM   15  N2  UNL     1      -5.070  48.415 -24.072  1.00  0.00    -0.334 N 
HETATM   16  C3  UNL     1      -6.110  47.944 -24.856  1.00  0.00     0.318 C 
HETATM   17  C20 UNL     1      -5.128  48.152 -22.638  1.00  0.00     0.129 C 
HETATM   18  N1  UNL     1      -5.928  48.102 -26.206  1.00  0.00    -0.343 N 
HETATM   19  O1  UNL     1      -7.117  47.424 -24.383  1.00  0.00    -0.247 OA
HETATM   20  H6  UNL     1      -4.969  48.104 -26.517  1.00  0.00     0.164 HD
HETATM   21  C19 UNL     1      -3.739  48.178 -22.016  1.00  0.00     0.040 C 
BRANCH  18  22
HETATM   22  C2  UNL     1      -6.910  47.617 -27.155  1.00  0.00     0.120 C 
HETATM   23  C1  UNL     1      -6.280  47.237 -28.485  1.00  0.00     0.026 C 
ENDBRANCH  18  22
ENDBRANCH  10  12
ENDBRANCH   1  10
BRANCH   7  24
HETATM   24  C11 UNL     1       0.110  53.125 -24.320  1.00  0.00     0.020 A 
HETATM   25  C12 UNL     1       0.158  54.502 -24.420  1.00  0.00     0.103 A 
HETATM   26  N5  UNL     1       0.242  54.829 -25.747  1.00  0.00    -0.364 N 
HETATM   27  C13 UNL     1       0.225  53.692 -26.522  1.00  0.00     0.043 A 
HETATM   28  H15 UNL     1       0.294  55.770 -26.114  1.00  0.00     0.165 HD
HETATM   29  C14 UNL     1       0.280  53.549 -27.914  1.00  0.00     0.030 A 
HETATM   30  C18 UNL     1       0.129  52.604 -25.653  1.00  0.00     0.004 A 
HETATM   31  C15 UNL     1       0.233  52.252 -28.434  1.00  0.00     0.002 A 
HETATM   32  C16 UNL     1       0.136  51.145 -27.594  1.00  0.00     0.001 A 
HETATM   33  C17 UNL     1       0.082  51.307 -26.205  1.00  0.00     0.014 A 
ENDBRANCH   7  24
TORSDOF 4
ENDMDL
MODEL 6
REMARK minimizedAffinity -8.69678497
REMARK  4 active torsions:
REMARK  status: ('A' for Active; 'I' for Inactive)
REMARK    1  A    between atoms: C2_2  and  N1_3 
REMARK       I    between atoms: N1_3  and  C3_4 
REMARK       I    between atoms: C3_4  and  N2_6 
REMARK    2  A    between atoms: C6_9  and  N3_10 
REMARK    3  A    between atoms: N3_10  and  C7_11 
REMARK    4  A    between atoms: C10_17  and  C11_18 
ROOT
HETATM    1  C7  UNL     1       0.544  53.981 -24.220  1.00  0.00     0.158 A 
HETATM    2  N4  UNL     1       1.463  54.760 -23.635  1.00  0.00    -0.341 N 
ATOM      3  H4  UNL     1       1.948  55.494 -24.151  1.00  0.00     0.167 HD
HETATM    4  C8  UNL     1       1.719  54.527 -22.330  1.00  0.00     0.116 A 
HETATM    5  C9  UNL     1       1.099  53.553 -21.583  1.00  0.00     0.077 A 
HETATM    6 CL1  UNL     1       1.483  53.378 -19.919  1.00  0.00    -0.080 Cl
HETATM    7  C10 UNL     1       0.166  52.806 -22.276  1.00  0.00     0.070 A 
HETATM    8  N6  UNL     1      -0.126  53.017 -23.584  1.00  0.00    -0.331 N 
ATOM      9  H6  UNL     1      -0.832  52.460 -24.064  1.00  0.00     0.168 HD
ENDROOT
BRANCH   1  10
HETATM   10  N3  UNL     1       0.224  54.142 -25.560  1.00  0.00    -0.259 NA
HETATM   11  H12 UNL     1       0.832  54.891 -25.880  1.00  0.00     0.131 HD
BRANCH  10  12
HETATM   12  C6  UNL     1       0.226  52.926 -26.374  1.00  0.00     0.066 C 
HETATM   13  C5  UNL     1       0.042  51.682 -25.488  1.00  0.00     0.040 C 
HETATM   14  C4  UNL     1      -1.410  51.220 -25.427  1.00  0.00     0.129 C 
HETATM   15  N2  UNL     1      -1.953  50.941 -26.759  1.00  0.00    -0.334 N 
HETATM   16  C3  UNL     1      -2.875  49.949 -27.048  1.00  0.00     0.318 C 
HETATM   17  C20 UNL     1      -1.373  51.676 -27.879  1.00  0.00     0.129 C 
HETATM   18  N1  UNL     1      -3.483  49.393 -25.951  1.00  0.00    -0.343 N 
HETATM   19  O1  UNL     1      -3.132  49.593 -28.195  1.00  0.00    -0.247 OA
HETATM   20  H6  UNL     1      -3.567  49.997 -25.150  1.00  0.00     0.164 HD
HETATM   21  C19 UNL     1      -0.876  53.046 -27.440  1.00  0.00     0.040 C 
BRANCH  18  22
HETATM   22  C2  UNL     1      -4.504  48.375 -26.098  1.00  0.00     0.120 C 
HETATM   23  C1  UNL     1      -5.507  48.404 -24.957  1.00  0.00     0.026 C 
ENDBRANCH  18  22
ENDBRANCH  10  12
ENDBRANCH   1  10
BRANCH   7  24
HETATM   24  C11 UNL     1      -0.607  51.734 -21.667  1.00  0.00     0.020 A 
HETATM   25  C12 UNL     1      -0.049  50.699 -20.942  1.00  0.00     0.103 A 
HETATM   26  N5  UNL     1      -1.061  49.868 -20.540  1.00  0.00    -0.364 N 
HETATM   27  C13 UNL     1      -2.270  50.326 -21.009  1.00  0.00     0.043 A 
HETATM   28  H15 UNL     1      -0.943  49.028 -19.990  1.00  0.00     0.165 HD
HETATM   29  C14 UNL     1      -3.557  49.796 -20.853  1.00  0.00     0.030 A 
HETATM   30  C18 UNL     1      -2.016  51.492 -21.734  1.00  0.00     0.004 A 
HETATM   31  C15 UNL     1      -4.617  50.479 -21.458  1.00  0.00     0.002 A 
HETATM   32  C16 UNL     1      -4.396  51.643 -22.189  1.00  0.00     0.001 A 
HETATM   33  C17 UNL     1      -3.103  52.159 -22.335  1.00  0.00     0.014 A 
ENDBRANCH   7  24
TORSDOF 4
ENDMDL
MODEL 7
REMARK minimizedAffinity -8.69087505
REMARK  4 active torsions:
REMARK  status: ('A' for Active; 'I' for Inactive)
REMARK    1  A    between atoms: C2_2  and  N1_3 
REMARK       I    between atoms: N1_3  and  C3_4 
REMARK       I    between atoms: C3_4  and  N2_6 
REMARK    2  A    between atoms: C6_9  and  N3_10 
REMARK    3  A    between atoms: N3_10  and  C7_11 
REMARK    4  A    between atoms: C10_17  and  C11_18 
ROOT
HETATM    1  C7  UNL     1      -3.086  51.769 -25.485  1.00  0.00     0.158 A 
HETATM    2  N4  UNL     1      -2.729  50.817 -26.357  1.00  0.00    -0.341 N 
ATOM      3  H4  UNL     1      -3.424  50.266 -26.860  1.00  0.00     0.167 HD
HETATM    4  C8  UNL     1      -1.406  50.620 -26.538  1.00  0.00     0.116 A 
HETATM    5  C9  UNL     1      -0.424  51.331 -25.889  1.00  0.00     0.077 A 
HETATM    6 CL1  UNL     1       1.228  51.013 -26.231  1.00  0.00    -0.080 Cl
HETATM    7  C10 UNL     1      -0.893  52.291 -25.013  1.00  0.00     0.070 A 
HETATM    8  N6  UNL     1      -2.215  52.525 -24.814  1.00  0.00    -0.331 N 
ATOM      9  H6  UNL     1      -2.531  53.253 -24.173  1.00  0.00     0.168 HD
ENDROOT
BRANCH   1  10
HETATM   10  N3  UNL     1      -4.423  52.034 -25.228  1.00  0.00    -0.259 NA
HETATM   11  H12 UNL     1      -4.899  51.818 -26.101  1.00  0.00     0.131 HD
BRANCH  10  12
HETATM   12  C6  UNL     1      -4.984  51.417 -24.026  1.00  0.00     0.066 C 
HETATM   13  C5  UNL     1      -4.479  49.972 -23.875  1.00  0.00     0.040 C 
HETATM   14  C4  UNL     1      -3.277  49.868 -22.945  1.00  0.00     0.129 C 
HETATM   15  N2  UNL     1      -3.563  50.414 -21.615  1.00  0.00    -0.334 N 
HETATM   16  C3  UNL     1      -3.045  49.925 -20.427  1.00  0.00     0.318 C 
HETATM   17  C20 UNL     1      -4.575  51.463 -21.533  1.00  0.00     0.129 C 
HETATM   18  N1  UNL     1      -2.004  49.044 -20.576  1.00  0.00    -0.343 N 
HETATM   19  O1  UNL     1      -3.480  50.252 -19.327  1.00  0.00    -0.247 OA
HETATM   20  H6  UNL     1      -1.443  49.171 -21.403  1.00  0.00     0.164 HD
HETATM   21  C19 UNL     1      -4.619  52.287 -22.811  1.00  0.00     0.040 C 
BRANCH  18  22
HETATM   22  C2  UNL     1      -1.329  48.483 -19.422  1.00  0.00     0.120 C 
HETATM   23  C1  UNL     1      -0.532  49.530 -18.662  1.00  0.00     0.026 C 
ENDBRANCH  18  22
ENDBRANCH  10  12
ENDBRANCH   1  10
BRANCH   7  24
HETATM   24  C11 UNL     1      -0.018  53.156 -24.237  1.00  0.00     0.020 A 
HETATM   25  C12 UNL     1       0.698  54.208 -24.775  1.00  0.00     0.103 A 
HETATM   26  N5  UNL     1       1.425  54.785 -23.768  1.00  0.00    -0.364 N 
HETATM   27  C13 UNL     1       1.219  54.114 -22.584  1.00  0.00     0.043 A 
HETATM   28  H15 UNL     1       2.040  55.581 -23.875  1.00  0.00     0.165 HD
HETATM   29  C14 UNL     1       1.758  54.345 -21.313  1.00  0.00     0.030 A 
HETATM   30  C18 UNL     1       0.326  53.075 -22.850  1.00  0.00     0.004 A 
HETATM   31  C15 UNL     1       1.372  53.484 -20.280  1.00  0.00     0.002 A 
HETATM   32  C16 UNL     1       0.484  52.437 -20.513  1.00  0.00     0.001 A 
HETATM   33  C17 UNL     1      -0.044  52.221 -21.791  1.00  0.00     0.014 A 
ENDBRANCH   7  24
TORSDOF 4
ENDMDL
MODEL 8
REMARK minimizedAffinity -8.63362217
REMARK  4 active torsions:
REMARK  status: ('A' for Active; 'I' for Inactive)
REMARK    1  A    between atoms: C2_2  and  N1_3 
REMARK       I    between atoms: N1_3  and  C3_4 
REMARK       I    between atoms: C3_4  and  N2_6 
REMARK    2  A    between atoms: C6_9  and  N3_10 
REMARK    3  A    between atoms: N3_10  and  C7_11 
REMARK    4  A    between atoms: C10_17  and  C11_18 
ROOT
HETATM    1  C7  UNL     1      -2.794  49.754 -20.638  1.00  0.00     0.158 A 
HETATM    2  N4  UNL     1      -2.700  48.814 -19.689  1.00  0.00    -0.341 N 
ATOM      3  H4  UNL     1      -2.170  48.971 -18.832  1.00  0.00     0.167 HD
HETATM    4  C8  UNL     1      -3.339  47.647 -19.920  1.00  0.00     0.116 A 
HETATM    5  C9  UNL     1      -4.067  47.378 -21.055  1.00  0.00     0.077 A 
HETATM    6 CL1  UNL     1      -4.868  45.868 -21.218  1.00  0.00    -0.080 Cl
HETATM    7  C10 UNL     1      -4.105  48.411 -21.971  1.00  0.00     0.070 A 
HETATM    8  N6  UNL     1      -3.485  49.600 -21.769  1.00  0.00    -0.331 N 
ATOM      9  H6  UNL     1      -3.545  50.351 -22.458  1.00  0.00     0.168 HD
ENDROOT
BRANCH   1  10
HETATM   10  N3  UNL     1      -2.160  50.980 -20.491  1.00  0.00    -0.259 NA
HETATM   11  H12 UNL     1      -2.164  51.151 -19.488  1.00  0.00     0.131 HD
BRANCH  10  12
HETATM   12  C6  UNL     1      -0.866  51.122 -21.158  1.00  0.00     0.066 C 
HETATM   13  C5  UNL     1      -0.947  50.612 -22.607  1.00  0.00     0.040 C 
HETATM   14  C4  UNL     1      -1.192  51.736 -23.607  1.00  0.00     0.129 C 
HETATM   15  N2  UNL     1      -0.165  52.777 -23.525  1.00  0.00    -0.334 N 
HETATM   16  C3  UNL     1       0.312  53.509 -24.600  1.00  0.00     0.318 C 
HETATM   17  C20 UNL     1       0.494  52.958 -22.235  1.00  0.00     0.129 C 
HETATM   18  N1  UNL     1      -0.435  53.399 -25.745  1.00  0.00    -0.343 N 
HETATM   19  O1  UNL     1       1.324  54.202 -24.537  1.00  0.00    -0.247 OA
HETATM   20  H6  UNL     1      -1.414  53.210 -25.608  1.00  0.00     0.164 HD
HETATM   21  C19 UNL     1      -0.435  52.597 -21.086  1.00  0.00     0.040 C 
BRANCH  18  22
HETATM   22  C2  UNL     1      -0.085  54.141 -26.940  1.00  0.00     0.120 C 
HETATM   23  C1  UNL     1      -0.017  53.247 -28.167  1.00  0.00     0.026 C 
ENDBRANCH  18  22
ENDBRANCH  10  12
ENDBRANCH   1  10
BRANCH   7  24
HETATM   24  C11 UNL     1      -4.829  48.331 -23.231  1.00  0.00     0.020 A 
HETATM   25  C12 UNL     1      -6.189  48.111 -23.324  1.00  0.00     0.103 A 
HETATM   26  N5  UNL     1      -6.524  48.074 -24.651  1.00  0.00    -0.364 N 
HETATM   27  C13 UNL     1      -5.403  48.240 -25.432  1.00  0.00     0.043 A 
HETATM   28  H15 UNL     1      -7.457  47.931 -25.015  1.00  0.00     0.165 HD
HETATM   29  C14 UNL     1      -5.270  48.262 -26.826  1.00  0.00     0.030 A 
HETATM   30  C18 UNL     1      -4.318  48.391 -24.567  1.00  0.00     0.004 A 
HETATM   31  C15 UNL     1      -3.987  48.440 -27.351  1.00  0.00     0.002 A 
HETATM   32  C16 UNL     1      -2.883  48.590 -26.515  1.00  0.00     0.001 A 
HETATM   33  C17 UNL     1      -3.035  48.567 -25.124  1.00  0.00     0.014 A 
ENDBRANCH   7  24
TORSDOF 4
ENDMDL
MODEL 9
REMARK minimizedAffinity -8.31105709
REMARK  4 active torsions:
REMARK  status: ('A' for Active; 'I' for Inactive)
REMARK    1  A    between atoms: C2_2  and  N1_3 
REMARK       I    between atoms: N1_3  and  C3_4 
REMARK       I    between atoms: C3_4  and  N2_6 
REMARK    2  A    between atoms: C6_9  and  N3_10 
REMARK    3  A    between atoms: N3_10  and  C7_11 
REMARK    4  A    between atoms: C10_17  and  C11_18 
ROOT
HETATM    1  C7  UNL     1      -0.634  50.875 -21.310  1.00  0.00     0.158 A 
HETATM    2  N4  UNL     1       0.114  51.641 -20.505  1.00  0.00    -0.341 N 
ATOM      3  H4  UNL     1       0.216  51.432 -19.513  1.00  0.00     0.167 HD
HETATM    4  C8  UNL     1       0.727  52.704 -21.070  1.00  0.00     0.116 A 
HETATM    5  C9  UNL     1       0.625  53.036 -22.401  1.00  0.00     0.077 A 
HETATM    6 CL1  UNL     1       1.483  54.392 -23.011  1.00  0.00    -0.080 Cl
HETATM    7  C10 UNL     1      -0.167  52.184 -23.146  1.00  0.00     0.070 A 
HETATM    8  N6  UNL     1      -0.788  51.101 -22.617  1.00  0.00    -0.331 N 
ATOM      9  H6  UNL     1      -1.353  50.480 -23.197  1.00  0.00     0.168 HD
ENDROOT
BRANCH   1  10
HETATM   10  N3  UNL     1      -1.309  49.769 -20.815  1.00  0.00    -0.259 NA
HETATM   11  H12 UNL     1      -1.228  49.851 -19.804  1.00  0.00     0.131 HD
BRANCH  10  12
HETATM   12  C6  UNL     1      -2.660  49.552 -21.331  1.00  0.00     0.066 C 
HETATM   13  C5  UNL     1      -3.190  48.176 -20.896  1.00  0.00     0.040 C 
HETATM   14  C4  UNL     1      -4.058  48.254 -19.645  1.00  0.00     0.129 C 
HETATM   15  N2  UNL     1      -5.191  49.167 -19.819  1.00  0.00    -0.334 N 
HETATM   16  C3  UNL     1      -6.443  48.995 -19.255  1.00  0.00     0.318 C 
HETATM   17  C20 UNL     1      -5.018  50.264 -20.767  1.00  0.00     0.129 C 
HETATM   18  N1  UNL     1      -6.504  48.039 -18.273  1.00  0.00    -0.343 N 
HETATM   19  O1  UNL     1      -7.425  49.646 -19.603  1.00  0.00    -0.247 OA
HETATM   20  H6  UNL     1      -5.651  47.892 -17.759  1.00  0.00     0.164 HD
HETATM   21  C19 UNL     1      -3.562  50.700 -20.846  1.00  0.00     0.040 C 
BRANCH  18  22
HETATM   22  C2  UNL     1      -7.738  47.778 -17.559  1.00  0.00     0.120 C 
HETATM   23  C1  UNL     1      -8.798  48.827 -17.849  1.00  0.00     0.026 C 
ENDBRANCH  18  22
ENDBRANCH  10  12
ENDBRANCH   1  10
BRANCH   7  24
HETATM   24  C11 UNL     1      -0.394  52.353 -24.574  1.00  0.00     0.020 A 
HETATM   25  C12 UNL     1      -1.604  52.734 -25.120  1.00  0.00     0.103 A 
HETATM   26  N5  UNL     1      -1.463  52.771 -26.481  1.00  0.00    -0.364 N 
HETATM   27  C13 UNL     1      -0.188  52.397 -26.840  1.00  0.00     0.043 A 
HETATM   28  H15 UNL     1      -2.191  53.022 -27.137  1.00  0.00     0.165 HD
HETATM   29  C14 UNL     1       0.394  52.282 -28.108  1.00  0.00     0.030 A 
HETATM   30  C18 UNL     1       0.504  52.114 -25.661  1.00  0.00     0.004 A 
HETATM   31  C15 UNL     1       1.727  51.863 -28.174  1.00  0.00     0.002 A 
HETATM   32  C16 UNL     1       2.444  51.572 -27.016  1.00  0.00     0.001 A 
HETATM   33  C17 UNL     1       1.846  51.692 -25.757  1.00  0.00     0.014 A 
ENDBRANCH   7  24
TORSDOF 4
ENDMDL
