MODEL 1
REMARK minimizedAffinity -9.43788624
REMARK  8 active torsions:
REMARK  status: ('A' for Active; 'I' for Inactive)
REMARK    1  A    between atoms: C2_2  and  C3_3 
REMARK    2  A    between atoms: C3_3  and  C5_5 
REMARK    3  A    between atoms: C6_6  and  C7_7 
REMARK    4  A    between atoms: C7_7  and  O1_9 
REMARK    5  A    between atoms: C7_7  and  C9_10 
REMARK    6  A    between atoms: C10_11  and  O2_12 
REMARK    7  A    between atoms: C26_29  and  C27_30 
REMARK    8  A    between atoms: C27_30  and  O4_31 
ROOT
HETATM    1  C9  UNL     1      -1.409   7.283  13.710  1.00  0.00     0.063 C 
HETATM    2  C10 UNL     1      -0.671   8.621  13.474  1.00  0.00     0.126 C 
HETATM    3  C11 UNL     1      -0.684   8.834  11.966  1.00  0.00     0.038 C 
HETATM    4  C12 UNL     1      -0.743   7.433  11.332  1.00  0.00     0.003 C 
HETATM    5  C13 UNL     1       0.381   7.116  10.332  1.00  0.00    -0.004 C 
HETATM    6  C14 UNL     1       0.312   7.990   9.059  1.00  0.00     0.010 C 
HETATM    7  C15 UNL     1       1.644   8.055   8.296  1.00  0.00     0.035 C 
HETATM    8  C16 UNL     1       2.455   6.804   8.517  1.00  0.00    -0.068 C 
HETATM    9  C17 UNL     1       2.727   5.974   7.495  1.00  0.00     0.053 C 
HETATM   10  C18 UNL     1       3.442   4.694   7.705  1.00  0.00     0.149 C 
HETATM   11  O3  UNL     1       3.769   4.023   6.728  1.00  0.00    -0.293 OA
HETATM   12  C19 UNL     1       3.780   4.272   9.113  1.00  0.00     0.084 C 
HETATM   13  C20 UNL     1       2.902   4.967  10.152  1.00  0.00     0.022 C 
HETATM   14  C21 UNL     1       2.845   6.507   9.973  1.00  0.00    -0.016 C 
HETATM   15  C22 UNL     1       4.236   7.120  10.248  1.00  0.00     0.020 C 
HETATM   16  C23 UNL     1       1.796   7.185  10.943  1.00  0.00     0.002 C 
HETATM   17  C24 UNL     1       1.852   6.725  12.410  1.00  0.00     0.007 C 
HETATM   18  C25 UNL     1       0.654   5.892  12.868  1.00  0.00     0.013 C 
HETATM   19  C26 UNL     1      -0.789   6.418  12.518  1.00  0.00    -0.006 C 
ENDROOT
BRANCH   1  20
HETATM   20  C7  UNL     1      -2.984   7.395  13.808  1.00  0.00     0.079 C 
HETATM   21  C8  UNL     1      -3.548   7.543  15.235  1.00  0.00     0.051 C 
BRANCH  20  22
HETATM   22  C6  UNL     1      -3.677   6.194  13.174  1.00  0.00     0.007 C 
HETATM   23  C5  UNL     1      -4.951   5.819  13.398  1.00  0.00    -0.024 C 
BRANCH  23  24
HETATM   24  C3  UNL     1      -5.693   4.649  12.779  1.00  0.00     0.003 C 
HETATM   25  C4  UNL     1      -4.812   3.433  12.467  1.00  0.00     0.014 C 
BRANCH  24  26
HETATM   26  C2  UNL     1      -6.888   4.203  13.647  1.00  0.00     0.003 C 
HETATM   27  C1  UNL     1      -7.564   2.925  13.165  1.00  0.00     0.006 C 
ENDBRANCH  24  26
ENDBRANCH  23  24
ENDBRANCH  20  22
BRANCH  20  28
HETATM   28  O1  UNL     1      -3.428   8.542  13.077  1.00  0.00    -0.386 OA
HETATM   29  H15 UNL     1      -4.374   8.663  13.274  1.00  0.00     0.211 HD
ENDBRANCH  20  28
ENDBRANCH   1  20
BRANCH   2  30
HETATM   30  O2  UNL     1      -1.146   9.748  14.174  1.00  0.00    -0.395 OA
HETATM   31  H18 UNL     1      -0.661  10.527  13.848  1.00  0.00     0.210 HD
ENDBRANCH   2  30
BRANCH  19  32
HETATM   32  C27 UNL     1      -1.609   5.166  12.103  1.00  0.00     0.174 C 
BRANCH  32  33
HETATM   33  O4  UNL     1      -0.958   4.407  11.091  1.00  0.00    -0.400 OA
HETATM   34  H42 UNL     1      -0.072   4.177  11.414  1.00  0.00     0.209 HD
ENDBRANCH  32  33
ENDBRANCH  19  32
TORSDOF 8
ENDMDL
MODEL 2
REMARK minimizedAffinity -8.75861168
REMARK  8 active torsions:
REMARK  status: ('A' for Active; 'I' for Inactive)
REMARK    1  A    between atoms: C2_2  and  C3_3 
REMARK    2  A    between atoms: C3_3  and  C5_5 
REMARK    3  A    between atoms: C6_6  and  C7_7 
REMARK    4  A    between atoms: C7_7  and  O1_9 
REMARK    5  A    between atoms: C7_7  and  C9_10 
REMARK    6  A    between atoms: C10_11  and  O2_12 
REMARK    7  A    between atoms: C26_29  and  C27_30 
REMARK    8  A    between atoms: C27_30  and  O4_31 
ROOT
HETATM    1  C9  UNL     1       0.885   8.178  13.745  1.00  0.00     0.063 C 
HETATM    2  C10 UNL     1       0.961   6.885  14.587  1.00  0.00     0.126 C 
HETATM    3  C11 UNL     1       0.215   5.829  13.782  1.00  0.00     0.038 C 
HETATM    4  C12 UNL     1      -0.827   6.586  12.938  1.00  0.00     0.003 C 
HETATM    5  C13 UNL     1      -2.282   6.124  13.121  1.00  0.00    -0.004 C 
HETATM    6  C14 UNL     1      -2.520   4.684  12.614  1.00  0.00     0.010 C 
HETATM    7  C15 UNL     1      -3.778   4.032  13.209  1.00  0.00     0.035 C 
HETATM    8  C16 UNL     1      -4.810   5.072  13.561  1.00  0.00    -0.068 C 
HETATM    9  C17 UNL     1      -5.994   5.105  12.925  1.00  0.00     0.053 C 
HETATM   10  C18 UNL     1      -6.986   6.173  13.189  1.00  0.00     0.149 C 
HETATM   11  O3  UNL     1      -8.098   6.099  12.670  1.00  0.00    -0.293 OA
HETATM   12  C19 UNL     1      -6.612   7.300  14.119  1.00  0.00     0.084 C 
HETATM   13  C20 UNL     1      -5.099   7.454  14.263  1.00  0.00     0.022 C 
HETATM   14  C21 UNL     1      -4.378   6.121  14.597  1.00  0.00    -0.016 C 
HETATM   15  C22 UNL     1      -4.798   5.634  16.001  1.00  0.00     0.020 C 
HETATM   16  C23 UNL     1      -2.804   6.267  14.566  1.00  0.00     0.002 C 
HETATM   17  C24 UNL     1      -2.234   7.491  15.303  1.00  0.00     0.007 C 
HETATM   18  C25 UNL     1      -1.630   8.564  14.396  1.00  0.00     0.013 C 
HETATM   19  C26 UNL     1      -0.637   8.101  13.264  1.00  0.00    -0.006 C 
ENDROOT
BRANCH   1  20
HETATM   20  C7  UNL     1       2.008   8.326  12.641  1.00  0.00     0.079 C 
HETATM   21  C8  UNL     1       2.895   9.581  12.762  1.00  0.00     0.051 C 
BRANCH  20  22
HETATM   22  C6  UNL     1       1.422   8.326  11.233  1.00  0.00     0.007 C 
HETATM   23  C5  UNL     1       1.727   7.448  10.259  1.00  0.00    -0.024 C 
BRANCH  23  24
HETATM   24  C3  UNL     1       1.160   7.391   8.853  1.00  0.00     0.003 C 
HETATM   25  C4  UNL     1       0.029   8.392   8.586  1.00  0.00     0.014 C 
BRANCH  24  26
HETATM   26  C2  UNL     1       2.257   7.565   7.783  1.00  0.00     0.003 C 
HETATM   27  C1  UNL     1       1.832   7.142   6.382  1.00  0.00     0.006 C 
ENDBRANCH  24  26
ENDBRANCH  23  24
ENDBRANCH  20  22
BRANCH  20  28
HETATM   28  O1  UNL     1       2.891   7.201  12.703  1.00  0.00    -0.386 OA
HETATM   29  H15 UNL     1       3.644   7.390  12.115  1.00  0.00     0.211 HD
ENDBRANCH  20  28
ENDBRANCH   1  20
BRANCH   2  30
HETATM   30  O2  UNL     1       2.243   6.446  14.977  1.00  0.00    -0.395 OA
HETATM   31  H18 UNL     1       2.143   5.576  15.402  1.00  0.00     0.210 HD
ENDBRANCH   2  30
BRANCH  19  32
HETATM   32  C27 UNL     1      -0.988   8.953  12.016  1.00  0.00     0.174 C 
BRANCH  32  33
HETATM   33  O4  UNL     1      -2.372   9.277  11.957  1.00  0.00    -0.400 OA
HETATM   34  H42 UNL     1      -2.609   9.724  12.786  1.00  0.00     0.209 HD
ENDBRANCH  32  33
ENDBRANCH  19  32
TORSDOF 8
ENDMDL
MODEL 3
REMARK minimizedAffinity -8.46555138
REMARK  8 active torsions:
REMARK  status: ('A' for Active; 'I' for Inactive)
REMARK    1  A    between atoms: C2_2  and  C3_3 
REMARK    2  A    between atoms: C3_3  and  C5_5 
REMARK    3  A    between atoms: C6_6  and  C7_7 
REMARK    4  A    between atoms: C7_7  and  O1_9 
REMARK    5  A    between atoms: C7_7  and  C9_10 
REMARK    6  A    between atoms: C10_11  and  O2_12 
REMARK    7  A    between atoms: C26_29  and  C27_30 
REMARK    8  A    between atoms: C27_30  and  O4_31 
ROOT
HETATM    1  C9  UNL     1      -5.870   5.046  14.551  1.00  0.00     0.063 C 
HETATM    2  C10 UNL     1      -5.602   6.247  15.487  1.00  0.00     0.126 C 
HETATM    3  C11 UNL     1      -5.204   7.397  14.571  1.00  0.00     0.038 C 
HETATM    4  C12 UNL     1      -4.572   6.756  13.322  1.00  0.00     0.003 C 
HETATM    5  C13 UNL     1      -3.150   7.235  12.985  1.00  0.00    -0.004 C 
HETATM    6  C14 UNL     1      -3.104   8.725  12.576  1.00  0.00     0.010 C 
HETATM    7  C15 UNL     1      -1.705   9.347  12.713  1.00  0.00     0.035 C 
HETATM    8  C16 UNL     1      -0.631   8.304  12.538  1.00  0.00    -0.068 C 
HETATM    9  C17 UNL     1       0.222   8.366  11.501  1.00  0.00     0.053 C 
HETATM   10  C18 UNL     1       1.225   7.304  11.257  1.00  0.00     0.149 C 
HETATM   11  O3  UNL     1       2.057   7.459  10.365  1.00  0.00    -0.293 OA
HETATM   12  C19 UNL     1       1.218   6.080  12.139  1.00  0.00     0.084 C 
HETATM   13  C20 UNL     1      -0.129   5.873  12.829  1.00  0.00     0.022 C 
HETATM   14  C21 UNL     1      -0.651   7.146  13.547  1.00  0.00    -0.016 C 
HETATM   15  C22 UNL     1       0.279   7.502  14.729  1.00  0.00     0.020 C 
HETATM   16  C23 UNL     1      -2.120   6.962  14.102  1.00  0.00     0.002 C 
HETATM   17  C24 UNL     1      -2.383   5.656  14.870  1.00  0.00     0.007 C 
HETATM   18  C25 UNL     1      -3.302   4.664  14.155  1.00  0.00     0.013 C 
HETATM   19  C26 UNL     1      -4.644   5.211  13.539  1.00  0.00    -0.006 C 
ENDROOT
BRANCH   1  20
HETATM   20  C7  UNL     1      -7.331   4.980  13.947  1.00  0.00     0.079 C 
HETATM   21  C8  UNL     1      -7.408   4.910  12.409  1.00  0.00     0.051 C 
BRANCH  20  22
HETATM   22  C6  UNL     1      -8.179   6.169  14.385  1.00  0.00     0.007 C 
HETATM   23  C5  UNL     1      -9.370   6.516  13.859  1.00  0.00    -0.024 C 
BRANCH  23  24
HETATM   24  C3  UNL     1     -10.261   7.673  14.271  1.00  0.00     0.003 C 
HETATM   25  C4  UNL     1     -11.732   7.293  14.486  1.00  0.00     0.014 C 
BRANCH  24  26
HETATM   26  C2  UNL     1      -9.730   8.388  15.530  1.00  0.00     0.003 C 
HETATM   27  C1  UNL     1      -9.172   9.781  15.266  1.00  0.00     0.006 C 
ENDBRANCH  24  26
ENDBRANCH  23  24
ENDBRANCH  20  22
BRANCH  20  28
HETATM   28  O1  UNL     1      -7.999   3.814  14.438  1.00  0.00    -0.386 OA
HETATM   29  H15 UNL     1      -8.832   3.726  13.942  1.00  0.00     0.211 HD
ENDBRANCH  20  28
ENDBRANCH   1  20
BRANCH   2  30
HETATM   30  O2  UNL     1      -6.633   6.610  16.377  1.00  0.00    -0.395 OA
HETATM   31  H18 UNL     1      -6.367   7.436  16.819  1.00  0.00     0.210 HD
ENDBRANCH   2  30
BRANCH  19  32
HETATM   32  C27 UNL     1      -4.806   4.498  12.170  1.00  0.00     0.174 C 
BRANCH  32  33
HETATM   33  O4  UNL     1      -4.168   3.226  12.147  1.00  0.00    -0.400 OA
HETATM   34  H42 UNL     1      -4.525   2.700  12.881  1.00  0.00     0.209 HD
ENDBRANCH  32  33
ENDBRANCH  19  32
TORSDOF 8
ENDMDL
MODEL 4
REMARK minimizedAffinity -8.32500172
REMARK  8 active torsions:
REMARK  status: ('A' for Active; 'I' for Inactive)
REMARK    1  A    between atoms: C2_2  and  C3_3 
REMARK    2  A    between atoms: C3_3  and  C5_5 
REMARK    3  A    between atoms: C6_6  and  C7_7 
REMARK    4  A    between atoms: C7_7  and  O1_9 
REMARK    5  A    between atoms: C7_7  and  C9_10 
REMARK    6  A    between atoms: C10_11  and  O2_12 
REMARK    7  A    between atoms: C26_29  and  C27_30 
REMARK    8  A    between atoms: C27_30  and  O4_31 
ROOT
HETATM    1  C9  UNL     1       1.853   7.629  10.817  1.00  0.00     0.063 C 
HETATM    2  C10 UNL     1       2.226   6.397  11.672  1.00  0.00     0.126 C 
HETATM    3  C11 UNL     1       1.262   5.297  11.248  1.00  0.00     0.038 C 
HETATM    4  C12 UNL     1      -0.014   6.006  10.758  1.00  0.00     0.003 C 
HETATM    5  C13 UNL     1      -1.313   5.578  11.459  1.00  0.00    -0.004 C 
HETATM    6  C14 UNL     1      -1.693   4.109  11.167  1.00  0.00     0.010 C 
HETATM    7  C15 UNL     1      -2.664   3.517  12.201  1.00  0.00     0.035 C 
HETATM    8  C16 UNL     1      -3.527   4.593  12.809  1.00  0.00    -0.068 C 
HETATM    9  C17 UNL     1      -4.857   4.597  12.615  1.00  0.00     0.053 C 
HETATM   10  C18 UNL     1      -5.712   5.694  13.125  1.00  0.00     0.149 C 
HETATM   11  O3  UNL     1      -6.933   5.598  13.024  1.00  0.00    -0.293 OA
HETATM   12  C19 UNL     1      -5.056   6.879  13.789  1.00  0.00     0.084 C 
HETATM   13  C20 UNL     1      -3.587   7.022  13.396  1.00  0.00     0.022 C 
HETATM   14  C21 UNL     1      -2.779   5.707  13.558  1.00  0.00    -0.016 C 
HETATM   15  C22 UNL     1      -2.689   5.326  15.052  1.00  0.00     0.020 C 
HETATM   16  C23 UNL     1      -1.312   5.830  12.982  1.00  0.00     0.002 C 
HETATM   17  C24 UNL     1      -0.539   7.096  13.391  1.00  0.00     0.007 C 
HETATM   18  C25 UNL     1      -0.294   8.093  12.258  1.00  0.00     0.013 C 
HETATM   19  C26 UNL     1       0.259   7.538  10.891  1.00  0.00    -0.006 C 
ENDROOT
BRANCH   1  20
HETATM   20  C7  UNL     1       2.529   7.683   9.388  1.00  0.00     0.079 C 
HETATM   21  C8  UNL     1       2.391   6.402   8.542  1.00  0.00     0.051 C 
BRANCH  20  22
HETATM   22  C6  UNL     1       4.017   8.004   9.477  1.00  0.00     0.007 C 
HETATM   23  C5  UNL     1       4.571   8.927  10.287  1.00  0.00    -0.024 C 
BRANCH  23  24
HETATM   24  C3  UNL     1       6.042   9.269  10.429  1.00  0.00     0.003 C 
HETATM   25  C4  UNL     1       6.326  10.476  11.333  1.00  0.00     0.014 C 
BRANCH  24  26
HETATM   26  C2  UNL     1       6.868   8.062  10.918  1.00  0.00     0.003 C 
HETATM   27  C1  UNL     1       6.766   7.804  12.416  1.00  0.00     0.006 C 
ENDBRANCH  24  26
ENDBRANCH  23  24
ENDBRANCH  20  22
BRANCH  20  28
HETATM   28  O1  UNL     1       1.941   8.739   8.621  1.00  0.00    -0.386 OA
HETATM   29  H15 UNL     1       2.273   8.656   7.709  1.00  0.00     0.211 HD
ENDBRANCH  20  28
ENDBRANCH   1  20
BRANCH   2  30
HETATM   30  O2  UNL     1       3.569   5.971  11.631  1.00  0.00    -0.395 OA
HETATM   31  H18 UNL     1       3.630   5.134  12.126  1.00  0.00     0.210 HD
ENDBRANCH   2  30
BRANCH  19  32
HETATM   32  C27 UNL     1      -0.508   8.304   9.780  1.00  0.00     0.174 C 
BRANCH  32  33
HETATM   33  O4  UNL     1      -1.436   9.241  10.315  1.00  0.00    -0.400 OA
HETATM   34  H42 UNL     1      -0.950   9.839  10.906  1.00  0.00     0.209 HD
ENDBRANCH  32  33
ENDBRANCH  19  32
TORSDOF 8
ENDMDL
MODEL 5
REMARK minimizedAffinity -8.28743935
REMARK  8 active torsions:
REMARK  status: ('A' for Active; 'I' for Inactive)
REMARK    1  A    between atoms: C2_2  and  C3_3 
REMARK    2  A    between atoms: C3_3  and  C5_5 
REMARK    3  A    between atoms: C6_6  and  C7_7 
REMARK    4  A    between atoms: C7_7  and  O1_9 
REMARK    5  A    between atoms: C7_7  and  C9_10 
REMARK    6  A    between atoms: C10_11  and  O2_12 
REMARK    7  A    between atoms: C26_29  and  C27_30 
REMARK    8  A    between atoms: C27_30  and  O4_31 
ROOT
HETATM    1  C9  UNL     1      -0.943   7.755  13.764  1.00  0.00     0.063 C 
HETATM    2  C10 UNL     1      -0.923   6.390  14.488  1.00  0.00     0.126 C 
HETATM    3  C11 UNL     1      -1.825   5.478  13.667  1.00  0.00     0.038 C 
HETATM    4  C12 UNL     1      -2.854   6.394  12.979  1.00  0.00     0.003 C 
HETATM    5  C13 UNL     1      -4.327   6.046  13.248  1.00  0.00    -0.004 C 
HETATM    6  C14 UNL     1      -4.737   4.682  12.648  1.00  0.00     0.010 C 
HETATM    7  C15 UNL     1      -6.001   4.092  13.293  1.00  0.00     0.035 C 
HETATM    8  C16 UNL     1      -6.901   5.182  13.816  1.00  0.00    -0.068 C 
HETATM    9  C17 UNL     1      -8.122   5.374  13.289  1.00  0.00     0.053 C 
HETATM   10  C18 UNL     1      -8.987   6.496  13.722  1.00  0.00     0.149 C 
HETATM   11  O3  UNL     1     -10.138   6.565  13.295  1.00  0.00    -0.293 OA
HETATM   12  C19 UNL     1      -8.438   7.500  14.705  1.00  0.00     0.084 C 
HETATM   13  C20 UNL     1      -6.910   7.508  14.731  1.00  0.00     0.022 C 
HETATM   14  C21 UNL     1      -6.293   6.094  14.893  1.00  0.00    -0.016 C 
HETATM   15  C22 UNL     1      -6.646   5.522  16.284  1.00  0.00     0.020 C 
HETATM   16  C23 UNL     1      -4.719   6.105  14.740  1.00  0.00     0.002 C 
HETATM   17  C24 UNL     1      -3.982   7.206  15.522  1.00  0.00     0.007 C 
HETATM   18  C25 UNL     1      -3.353   8.298  14.656  1.00  0.00     0.013 C 
HETATM   19  C26 UNL     1      -2.498   7.853  13.410  1.00  0.00    -0.006 C 
ENDROOT
BRANCH   1  20
HETATM   20  C7  UNL     1       0.100   7.902  12.583  1.00  0.00     0.079 C 
HETATM   21  C8  UNL     1       0.017   6.819  11.489  1.00  0.00     0.051 C 
BRANCH  20  22
HETATM   22  C6  UNL     1       1.536   7.915  13.094  1.00  0.00     0.007 C 
HETATM   23  C5  UNL     1       2.493   8.784  12.715  1.00  0.00    -0.024 C 
BRANCH  23  24
HETATM   24  C3  UNL     1       3.927   8.853  13.206  1.00  0.00     0.003 C 
HETATM   25  C4  UNL     1       4.221   7.976  14.430  1.00  0.00     0.014 C 
BRANCH  24  26
HETATM   26  C2  UNL     1       4.934   8.519  12.087  1.00  0.00     0.003 C 
HETATM   27  C1  UNL     1       5.314   7.045  12.012  1.00  0.00     0.006 C 
ENDBRANCH  24  26
ENDBRANCH  23  24
ENDBRANCH  20  22
BRANCH  20  28
HETATM   28  O1  UNL     1      -0.098   9.157  11.924  1.00  0.00    -0.386 OA
HETATM   29  H15 UNL     1       0.455   9.156  11.123  1.00  0.00     0.211 HD
ENDBRANCH  20  28
ENDBRANCH   1  20
BRANCH   2  30
HETATM   30  O2  UNL     1       0.339   5.810  14.731  1.00  0.00    -0.395 OA
HETATM   31  H18 UNL     1       0.191   4.917  15.091  1.00  0.00     0.210 HD
ENDBRANCH   2  30
BRANCH  19  32
HETATM   32  C27 UNL     1      -2.864   8.839  12.269  1.00  0.00     0.174 C 
BRANCH  32  33
HETATM   33  O4  UNL     1      -1.729   9.217  11.499  1.00  0.00    -0.400 OA
HETATM   34  H42 UNL     1      -1.312   8.407  11.165  1.00  0.00     0.209 HD
ENDBRANCH  32  33
ENDBRANCH  19  32
TORSDOF 8
ENDMDL
MODEL 6
REMARK minimizedAffinity -8.15094566
REMARK  8 active torsions:
REMARK  status: ('A' for Active; 'I' for Inactive)
REMARK    1  A    between atoms: C2_2  and  C3_3 
REMARK    2  A    between atoms: C3_3  and  C5_5 
REMARK    3  A    between atoms: C6_6  and  C7_7 
REMARK    4  A    between atoms: C7_7  and  O1_9 
REMARK    5  A    between atoms: C7_7  and  C9_10 
REMARK    6  A    between atoms: C10_11  and  O2_12 
REMARK    7  A    between atoms: C26_29  and  C27_30 
REMARK    8  A    between atoms: C27_30  and  O4_31 
ROOT
HETATM    1  C9  UNL     1      -1.387   7.456  14.690  1.00  0.00     0.063 C 
HETATM    2  C10 UNL     1      -1.450   5.944  15.007  1.00  0.00     0.126 C 
HETATM    3  C11 UNL     1      -2.208   5.314  13.847  1.00  0.00     0.038 C 
HETATM    4  C12 UNL     1      -3.142   6.407  13.296  1.00  0.00     0.003 C 
HETATM    5  C13 UNL     1      -4.632   6.033  13.245  1.00  0.00    -0.004 C 
HETATM    6  C14 UNL     1      -4.928   4.895  12.241  1.00  0.00     0.010 C 
HETATM    7  C15 UNL     1      -6.261   4.181  12.512  1.00  0.00     0.035 C 
HETATM    8  C16 UNL     1      -7.246   5.107  13.178  1.00  0.00    -0.068 C 
HETATM    9  C17 UNL     1      -8.381   5.464  12.554  1.00  0.00     0.053 C 
HETATM   10  C18 UNL     1      -9.318   6.445  13.149  1.00  0.00     0.149 C 
HETATM   11  O3  UNL     1     -10.397   6.655  12.597  1.00  0.00    -0.293 OA
HETATM   12  C19 UNL     1      -8.934   7.129  14.438  1.00  0.00     0.084 C 
HETATM   13  C20 UNL     1      -7.427   7.094  14.684  1.00  0.00     0.022 C 
HETATM   14  C21 UNL     1      -6.816   5.675  14.539  1.00  0.00    -0.016 C 
HETATM   15  C22 UNL     1      -7.357   4.753  15.654  1.00  0.00     0.020 C 
HETATM   16  C23 UNL     1      -5.237   5.691  14.623  1.00  0.00     0.002 C 
HETATM   17  C24 UNL     1      -4.639   6.517  15.774  1.00  0.00     0.007 C 
HETATM   18  C25 UNL     1      -3.910   7.790  15.341  1.00  0.00     0.013 C 
HETATM   19  C26 UNL     1      -2.877   7.683  14.157  1.00  0.00    -0.006 C 
ENDROOT
BRANCH   1  20
HETATM   20  C7  UNL     1      -0.188   7.896  13.757  1.00  0.00     0.079 C 
HETATM   21  C8  UNL     1       0.189   9.389  13.824  1.00  0.00     0.051 C 
BRANCH  20  22
HETATM   22  C6  UNL     1      -0.458   7.567  12.293  1.00  0.00     0.007 C 
HETATM   23  C5  UNL     1       0.362   7.849  11.263  1.00  0.00    -0.024 C 
BRANCH  23  24
HETATM   24  C3  UNL     1       0.151   7.526   9.796  1.00  0.00     0.003 C 
HETATM   25  C4  UNL     1      -0.411   8.687   8.967  1.00  0.00     0.014 C 
BRANCH  24  26
HETATM   26  C2  UNL     1       1.442   7.004   9.131  1.00  0.00     0.003 C 
HETATM   27  C1  UNL     1       2.320   6.165  10.051  1.00  0.00     0.006 C 
ENDBRANCH  24  26
ENDBRANCH  23  24
ENDBRANCH  20  22
BRANCH  20  28
HETATM   28  O1  UNL     1       0.989   7.166  14.116  1.00  0.00    -0.386 OA
HETATM   29  H15 UNL     1       1.735   7.558  13.627  1.00  0.00     0.211 HD
ENDBRANCH  20  28
ENDBRANCH   1  20
BRANCH   2  30
HETATM   30  O2  UNL     1      -0.227   5.291  15.260  1.00  0.00    -0.395 OA
HETATM   31  H18 UNL     1      -0.410   4.337  15.336  1.00  0.00     0.210 HD
ENDBRANCH   2  30
BRANCH  19  32
HETATM   32  C27 UNL     1      -3.091   8.952  13.290  1.00  0.00     0.174 C 
BRANCH  32  33
HETATM   33  O4  UNL     1      -3.217  10.129  14.080  1.00  0.00    -0.400 OA
HETATM   34  H42 UNL     1      -2.428  10.196  14.642  1.00  0.00     0.209 HD
ENDBRANCH  32  33
ENDBRANCH  19  32
TORSDOF 8
ENDMDL
MODEL 7
REMARK minimizedAffinity -8.13171864
REMARK  8 active torsions:
REMARK  status: ('A' for Active; 'I' for Inactive)
REMARK    1  A    between atoms: C2_2  and  C3_3 
REMARK    2  A    between atoms: C3_3  and  C5_5 
REMARK    3  A    between atoms: C6_6  and  C7_7 
REMARK    4  A    between atoms: C7_7  and  O1_9 
REMARK    5  A    between atoms: C7_7  and  C9_10 
REMARK    6  A    between atoms: C10_11  and  O2_12 
REMARK    7  A    between atoms: C26_29  and  C27_30 
REMARK    8  A    between atoms: C27_30  and  O4_31 
ROOT
HETATM    1  C9  UNL     1      -1.464   7.020  14.052  1.00  0.00     0.063 C 
HETATM    2  C10 UNL     1      -1.773   5.840  15.002  1.00  0.00     0.126 C 
HETATM    3  C11 UNL     1      -2.939   5.097  14.364  1.00  0.00     0.038 C 
HETATM    4  C12 UNL     1      -3.719   6.140  13.543  1.00  0.00     0.003 C 
HETATM    5  C13 UNL     1      -5.212   6.266  13.890  1.00  0.00    -0.004 C 
HETATM    6  C14 UNL     1      -6.016   4.993  13.540  1.00  0.00     0.010 C 
HETATM    7  C15 UNL     1      -7.349   4.892  14.297  1.00  0.00     0.035 C 
HETATM    8  C16 UNL     1      -7.883   6.260  14.636  1.00  0.00    -0.068 C 
HETATM    9  C17 UNL     1      -9.036   6.698  14.102  1.00  0.00     0.053 C 
HETATM   10  C18 UNL     1      -9.532   8.072  14.347  1.00  0.00     0.149 C 
HETATM   11  O3  UNL     1     -10.645   8.390  13.933  1.00  0.00    -0.293 OA
HETATM   12  C19 UNL     1      -8.670   9.027  15.134  1.00  0.00     0.084 C 
HETATM   13  C20 UNL     1      -7.200   8.612  15.135  1.00  0.00     0.022 C 
HETATM   14  C21 UNL     1      -6.983   7.127  15.530  1.00  0.00    -0.016 C 
HETATM   15  C22 UNL     1      -7.392   6.910  17.004  1.00  0.00     0.020 C 
HETATM   16  C23 UNL     1      -5.479   6.673  15.354  1.00  0.00     0.002 C 
HETATM   17  C24 UNL     1      -4.422   7.635  15.924  1.00  0.00     0.007 C 
HETATM   18  C25 UNL     1      -3.574   8.353  14.873  1.00  0.00     0.013 C 
HETATM   19  C26 UNL     1      -2.953   7.491  13.710  1.00  0.00    -0.006 C 
ENDROOT
BRANCH   1  20
HETATM   20  C7  UNL     1      -0.496   6.677  12.849  1.00  0.00     0.079 C 
HETATM   21  C8  UNL     1       0.028   7.890  12.055  1.00  0.00     0.051 C 
BRANCH  20  22
HETATM   22  C6  UNL     1      -1.153   5.734  11.846  1.00  0.00     0.007 C 
HETATM   23  C5  UNL     1      -0.922   4.412  11.749  1.00  0.00    -0.024 C 
BRANCH  23  24
HETATM   24  C3  UNL     1      -1.561   3.428  10.786  1.00  0.00     0.003 C 
HETATM   25  C4  UNL     1      -1.235   1.957  11.074  1.00  0.00     0.014 C 
BRANCH  24  26
HETATM   26  C2  UNL     1      -3.092   3.606  10.715  1.00  0.00     0.003 C 
HETATM   27  C1  UNL     1      -3.869   2.672  11.634  1.00  0.00     0.006 C 
ENDBRANCH  24  26
ENDBRANCH  23  24
ENDBRANCH  20  22
BRANCH  20  28
HETATM   28  O1  UNL     1       0.656   5.988  13.344  1.00  0.00    -0.386 OA
HETATM   29  H15 UNL     1       1.291   5.919  12.609  1.00  0.00     0.211 HD
ENDBRANCH  20  28
ENDBRANCH   1  20
BRANCH   2  30
HETATM   30  O2  UNL     1      -0.705   4.977  15.322  1.00  0.00    -0.395 OA
HETATM   31  H18 UNL     1      -1.068   4.232  15.833  1.00  0.00     0.210 HD
ENDBRANCH   2  30
BRANCH  19  32
HETATM   32  C27 UNL     1      -3.106   8.342  12.422  1.00  0.00     0.174 C 
BRANCH  32  33
HETATM   33  O4  UNL     1      -2.460   9.605  12.531  1.00  0.00    -0.400 OA
HETATM   34  H42 UNL     1      -1.530   9.446  12.759  1.00  0.00     0.209 HD
ENDBRANCH  32  33
ENDBRANCH  19  32
TORSDOF 8
ENDMDL
MODEL 8
REMARK minimizedAffinity -7.97403908
REMARK  8 active torsions:
REMARK  status: ('A' for Active; 'I' for Inactive)
REMARK    1  A    between atoms: C2_2  and  C3_3 
REMARK    2  A    between atoms: C3_3  and  C5_5 
REMARK    3  A    between atoms: C6_6  and  C7_7 
REMARK    4  A    between atoms: C7_7  and  O1_9 
REMARK    5  A    between atoms: C7_7  and  C9_10 
REMARK    6  A    between atoms: C10_11  and  O2_12 
REMARK    7  A    between atoms: C26_29  and  C27_30 
REMARK    8  A    between atoms: C27_30  and  O4_31 
ROOT
HETATM    1  C9  UNL     1      -2.011   6.620  12.575  1.00  0.00     0.063 C 
HETATM    2  C10 UNL     1      -1.181   5.558  13.331  1.00  0.00     0.126 C 
HETATM    3  C11 UNL     1      -0.134   6.339  14.113  1.00  0.00     0.038 C 
HETATM    4  C12 UNL     1       0.115   7.638  13.325  1.00  0.00     0.003 C 
HETATM    5  C13 UNL     1       1.579   7.897  12.930  1.00  0.00    -0.004 C 
HETATM    6  C14 UNL     1       2.492   8.145  14.152  1.00  0.00     0.010 C 
HETATM    7  C15 UNL     1       3.981   7.918  13.851  1.00  0.00     0.035 C 
HETATM    8  C16 UNL     1       4.285   8.183  12.398  1.00  0.00    -0.068 C 
HETATM    9  C17 UNL     1       5.098   9.193  12.041  1.00  0.00     0.053 C 
HETATM   10  C18 UNL     1       5.337   9.530  10.619  1.00  0.00     0.149 C 
HETATM   11  O3  UNL     1       6.175  10.385  10.339  1.00  0.00    -0.293 OA
HETATM   12  C19 UNL     1       4.571   8.783   9.555  1.00  0.00     0.084 C 
HETATM   13  C20 UNL     1       3.297   8.142  10.103  1.00  0.00     0.022 C 
HETATM   14  C21 UNL     1       3.537   7.303  11.386  1.00  0.00    -0.016 C 
HETATM   15  C22 UNL     1       4.412   6.074  11.055  1.00  0.00     0.020 C 
HETATM   16  C23 UNL     1       2.185   6.797  12.033  1.00  0.00     0.002 C 
HETATM   17  C24 UNL     1       1.172   6.176  11.057  1.00  0.00     0.007 C 
HETATM   18  C25 UNL     1      -0.091   7.009  10.825  1.00  0.00     0.013 C 
HETATM   19  C26 UNL     1      -0.836   7.587  12.087  1.00  0.00    -0.006 C 
ENDROOT
BRANCH   1  20
HETATM   20  C7  UNL     1      -3.202   7.254  13.401  1.00  0.00     0.079 C 
HETATM   21  C8  UNL     1      -2.817   7.835  14.777  1.00  0.00     0.051 C 
BRANCH  20  22
HETATM   22  C6  UNL     1      -4.325   6.251  13.637  1.00  0.00     0.007 C 
HETATM   23  C5  UNL     1      -5.640   6.501  13.493  1.00  0.00    -0.024 C 
BRANCH  23  24
HETATM   24  C3  UNL     1      -6.794   5.536  13.694  1.00  0.00     0.003 C 
HETATM   25  C4  UNL     1      -8.165   6.096  13.294  1.00  0.00     0.014 C 
BRANCH  24  26
HETATM   26  C2  UNL     1      -6.558   4.198  12.964  1.00  0.00     0.003 C 
HETATM   27  C1  UNL     1      -7.513   3.086  13.378  1.00  0.00     0.006 C 
ENDBRANCH  24  26
ENDBRANCH  23  24
ENDBRANCH  20  22
BRANCH  20  28
HETATM   28  O1  UNL     1      -3.781   8.330  12.656  1.00  0.00    -0.386 OA
HETATM   29  H15 UNL     1      -4.408   8.786  13.245  1.00  0.00     0.211 HD
ENDBRANCH  20  28
ENDBRANCH   1  20
BRANCH   2  30
HETATM   30  O2  UNL     1      -1.888   4.653  14.148  1.00  0.00    -0.395 OA
HETATM   31  H18 UNL     1      -1.235   4.122  14.637  1.00  0.00     0.210 HD
ENDBRANCH   2  30
BRANCH  19  32
HETATM   32  C27 UNL     1      -1.270   9.026  11.701  1.00  0.00     0.174 C 
BRANCH  32  33
HETATM   33  O4  UNL     1      -1.133   9.938  12.785  1.00  0.00    -0.400 OA
HETATM   34  H42 UNL     1      -0.212   9.901  13.091  1.00  0.00     0.209 HD
ENDBRANCH  32  33
ENDBRANCH  19  32
TORSDOF 8
ENDMDL
MODEL 9
REMARK minimizedAffinity -7.94199228
REMARK  8 active torsions:
REMARK  status: ('A' for Active; 'I' for Inactive)
REMARK    1  A    between atoms: C2_2  and  C3_3 
REMARK    2  A    between atoms: C3_3  and  C5_5 
REMARK    3  A    between atoms: C6_6  and  C7_7 
REMARK    4  A    between atoms: C7_7  and  O1_9 
REMARK    5  A    between atoms: C7_7  and  C9_10 
REMARK    6  A    between atoms: C10_11  and  O2_12 
REMARK    7  A    between atoms: C26_29  and  C27_30 
REMARK    8  A    between atoms: C27_30  and  O4_31 
ROOT
HETATM    1  C9  UNL     1      -2.427   7.584  14.561  1.00  0.00     0.063 C 
HETATM    2  C10 UNL     1      -2.441   8.934  13.809  1.00  0.00     0.126 C 
HETATM    3  C11 UNL     1      -2.053   8.608  12.374  1.00  0.00     0.038 C 
HETATM    4  C12 UNL     1      -1.175   7.345  12.441  1.00  0.00     0.003 C 
HETATM    5  C13 UNL     1       0.214   7.475  11.794  1.00  0.00    -0.004 C 
HETATM    6  C14 UNL     1       0.143   7.672  10.263  1.00  0.00     0.010 C 
HETATM    7  C15 UNL     1       1.424   8.282   9.671  1.00  0.00     0.035 C 
HETATM    8  C16 UNL     1       2.628   7.923  10.504  1.00  0.00    -0.068 C 
HETATM    9  C17 UNL     1       3.609   7.157   9.997  1.00  0.00     0.053 C 
HETATM   10  C18 UNL     1       4.755   6.716  10.825  1.00  0.00     0.149 C 
HETATM   11  O3  UNL     1       5.684   6.114  10.290  1.00  0.00    -0.293 OA
HETATM   12  C19 UNL     1       4.764   7.055  12.295  1.00  0.00     0.084 C 
HETATM   13  C20 UNL     1       3.365   7.363  12.826  1.00  0.00     0.022 C 
HETATM   14  C21 UNL     1       2.598   8.400  11.964  1.00  0.00    -0.016 C 
HETATM   15  C22 UNL     1       3.297   9.775  12.051  1.00  0.00     0.020 C 
HETATM   16  C23 UNL     1       1.096   8.571  12.427  1.00  0.00     0.002 C 
HETATM   17  C24 UNL     1       0.880   8.730  13.942  1.00  0.00     0.007 C 
HETATM   18  C25 UNL     1       0.199   7.541  14.622  1.00  0.00     0.013 C 
HETATM   19  C26 UNL     1      -1.095   6.947  13.949  1.00  0.00    -0.006 C 
ENDROOT
BRANCH   1  20
HETATM   20  C7  UNL     1      -3.766   6.747  14.462  1.00  0.00     0.079 C 
HETATM   21  C8  UNL     1      -4.222   6.072  15.770  1.00  0.00     0.051 C 
BRANCH  20  22
HETATM   22  C6  UNL     1      -3.674   5.655  13.402  1.00  0.00     0.007 C 
HETATM   23  C5  UNL     1      -4.692   4.872  12.996  1.00  0.00    -0.024 C 
BRANCH  23  24
HETATM   24  C3  UNL     1      -4.660   3.789  11.934  1.00  0.00     0.003 C 
HETATM   25  C4  UNL     1      -3.405   2.906  11.968  1.00  0.00     0.014 C 
BRANCH  24  26
HETATM   26  C2  UNL     1      -5.914   2.892  11.989  1.00  0.00     0.003 C 
HETATM   27  C1  UNL     1      -7.082   3.503  12.754  1.00  0.00     0.006 C 
ENDBRANCH  24  26
ENDBRANCH  23  24
ENDBRANCH  20  22
BRANCH  20  28
HETATM   28  O1  UNL     1      -4.837   7.605  14.056  1.00  0.00    -0.386 OA
HETATM   29  H15 UNL     1      -5.664   7.099  14.143  1.00  0.00     0.211 HD
ENDBRANCH  20  28
ENDBRANCH   1  20
BRANCH   2  30
HETATM   30  O2  UNL     1      -3.626   9.695  13.879  1.00  0.00    -0.395 OA
HETATM   31  H18 UNL     1      -3.527  10.455  13.279  1.00  0.00     0.210 HD
ENDBRANCH   2  30
BRANCH  19  32
HETATM   32  C27 UNL     1      -0.971   5.405  14.077  1.00  0.00     0.174 C 
BRANCH  32  33
HETATM   33  O4  UNL     1       0.383   4.982  14.191  1.00  0.00    -0.400 OA
HETATM   34  H42 UNL     1       0.779   5.447  14.945  1.00  0.00     0.209 HD
ENDBRANCH  32  33
ENDBRANCH  19  32
TORSDOF 8
ENDMDL
