MODEL 1
REMARK minimizedAffinity -7.98853111
REMARK CNNscore 0.495437503
REMARK CNNaffinity 5.72386789
REMARK  11 active torsions:
REMARK  status: ('A' for Active; 'I' for Inactive)
REMARK    1  A    between atoms: C3_3  and  O1_4 
REMARK    2  A    between atoms: N1_14  and  O2_16 
REMARK    3  A    between atoms: O2_16  and  C13_17 
REMARK    4  A    between atoms: C13_17  and  C14_18 
REMARK       I    between atoms: C14_18  and  N2_20 
REMARK    5  A    between atoms: N2_20  and  C15_21 
REMARK    6  A    between atoms: C15_21  and  C16_22 
REMARK    7  A    between atoms: C15_21  and  C19_27 
REMARK    8  A    between atoms: C16_22  and  O5_24 
REMARK    9  A    between atoms: O5_24  and  C17_25 
REMARK   10  A    between atoms: C19_27  and  O6_28 
REMARK   11  A    between atoms: C19_27  and  C20_29 
ROOT
HETATM    1  C1  UNL     1      -3.549  52.214 -22.995  1.00  0.00     0.015 C 
HETATM    2  C2  UNL     1      -4.010  51.237 -22.466  1.00  0.00    -0.078 C 
HETATM    3  C3  UNL     1      -4.575  50.045 -21.794  1.00  0.00     0.128 C 
HETATM    4  C4  UNL     1      -6.065  50.287 -21.530  1.00  0.00     0.052 C 
HETATM    5  C5  UNL     1      -6.773  49.878 -22.822  1.00  0.00     0.010 C 
HETATM    6  C6  UNL     1      -5.787  48.997 -23.621  1.00  0.00     0.002 C 
HETATM    7  C7  UNL     1      -6.397  47.702 -24.193  1.00  0.00    -0.004 C 
HETATM    8  C8  UNL     1      -7.460  47.992 -25.261  1.00  0.00     0.010 C 
HETATM    9  C9  UNL     1      -8.314  46.768 -25.548  1.00  0.00     0.035 C 
HETATM   10  C10 UNL     1      -9.099  46.488 -24.300  1.00  0.00    -0.069 C 
HETATM   11  C11 UNL     1     -10.435  46.653 -24.298  1.00  0.00     0.030 C 
HETATM   12  C12 UNL     1     -11.244  46.499 -23.053  1.00  0.00     0.032 C 
HETATM   13  N1  UNL     1     -12.538  46.566 -22.969  1.00  0.00    -0.271 N 
ATOM     14  H1  UNL     1     -13.057  46.474 -22.095  1.00  0.00     0.194 HD
HETATM   15  C26 UNL     1     -10.505  46.230 -21.759  1.00  0.00     0.060 C 
HETATM   16  C27 UNL     1      -9.042  46.649 -21.818  1.00  0.00     0.020 C 
HETATM   17  C28 UNL     1      -8.288  46.117 -23.065  1.00  0.00    -0.016 C 
HETATM   18  C29 UNL     1      -8.247  44.565 -22.992  1.00  0.00     0.020 C 
HETATM   19  C30 UNL     1      -6.779  46.620 -23.134  1.00  0.00     0.002 C 
HETATM   20  C31 UNL     1      -6.140  46.901 -21.756  1.00  0.00     0.007 C 
HETATM   21  C32 UNL     1      -4.711  47.426 -21.879  1.00  0.00     0.014 C 
HETATM   22  C33 UNL     1      -4.567  48.756 -22.686  1.00  0.00     0.003 C 
HETATM   23  C34 UNL     1      -3.256  48.627 -23.496  1.00  0.00     0.020 C 
ENDROOT
BRANCH   3  24
HETATM   24  O1  UNL     1      -3.847  49.870 -20.588  1.00  0.00    -0.377 OA
HETATM   25  H2  UNL     1      -4.452  49.550 -19.901  1.00  0.00     0.211 HD
ENDBRANCH   3  24
BRANCH  13  26
HETATM   26  O2  UNL     1     -13.142  46.780 -24.220  1.00  0.00    -0.271 OA
BRANCH  26  27
HETATM   27  C13 UNL     1     -14.472  47.218 -23.999  1.00  0.00     0.303 C 
BRANCH  27  28
HETATM   28  C14 UNL     1     -15.503  46.153 -24.365  1.00  0.00     0.244 C 
HETATM   29  O3  UNL     1     -15.289  45.200 -25.106  1.00  0.00    -0.271 OA
HETATM   30  N2  UNL     1     -16.727  46.356 -23.756  1.00  0.00    -0.343 N 
HETATM   31  H16 UNL     1     -16.963  47.309 -23.493  1.00  0.00     0.163 HD
BRANCH  30  32
HETATM   32  C15 UNL     1     -17.895  45.513 -24.091  1.00  0.00     0.217 C 
BRANCH  32  33
HETATM   33  C16 UNL     1     -18.822  46.227 -25.090  1.00  0.00     0.284 C 
HETATM   34  O4  UNL     1     -19.499  47.214 -24.825  1.00  0.00    -0.263 OA
BRANCH  33  35
HETATM   35  O5  UNL     1     -18.758  45.656 -26.333  1.00  0.00    -0.320 OA
BRANCH  35  36
HETATM   36  C17 UNL     1     -18.403  44.267 -26.367  1.00  0.00     0.174 C 
HETATM   37  C18 UNL     1     -19.381  43.497 -27.235  1.00  0.00     0.034 C 
ENDBRANCH  35  36
ENDBRANCH  33  35
ENDBRANCH  32  33
BRANCH  32  38
HETATM   38  C19 UNL     1     -18.642  45.185 -22.779  1.00  0.00     0.183 C 
BRANCH  38  39
HETATM   39  O6  UNL     1     -18.668  43.766 -22.553  1.00  0.00    -0.388 OA
HETATM   40  H24 UNL     1     -19.043  43.633 -21.663  1.00  0.00     0.210 HD
ENDBRANCH  38  39
BRANCH  38  41
HETATM   41  C20 UNL     1     -18.199  45.925 -21.535  1.00  0.00    -0.027 A 
HETATM   42  C21 UNL     1     -16.905  45.788 -21.013  1.00  0.00     0.010 A 
HETATM   43  C22 UNL     1     -16.529  46.470 -19.854  1.00  0.00     0.001 A 
HETATM   44  C23 UNL     1     -17.445  47.282 -19.193  1.00  0.00     0.000 A 
HETATM   45  C24 UNL     1     -18.733  47.430 -19.700  1.00  0.00     0.001 A 
HETATM   46  C25 UNL     1     -19.106  46.761 -20.866  1.00  0.00     0.010 A 
ENDBRANCH  38  41
ENDBRANCH  32  38
ENDBRANCH  30  32
ENDBRANCH  27  28
ENDBRANCH  26  27
ENDBRANCH  13  26
TORSDOF 11
ENDMDL
MODEL 2
REMARK minimizedAffinity -7.70893908
REMARK CNNscore 0.329482943
REMARK CNNaffinity 5.94383621
REMARK  11 active torsions:
REMARK  status: ('A' for Active; 'I' for Inactive)
REMARK    1  A    between atoms: C3_3  and  O1_4 
REMARK    2  A    between atoms: N1_14  and  O2_16 
REMARK    3  A    between atoms: O2_16  and  C13_17 
REMARK    4  A    between atoms: C13_17  and  C14_18 
REMARK       I    between atoms: C14_18  and  N2_20 
REMARK    5  A    between atoms: N2_20  and  C15_21 
REMARK    6  A    between atoms: C15_21  and  C16_22 
REMARK    7  A    between atoms: C15_21  and  C19_27 
REMARK    8  A    between atoms: C16_22  and  O5_24 
REMARK    9  A    between atoms: O5_24  and  C17_25 
REMARK   10  A    between atoms: C19_27  and  O6_28 
REMARK   11  A    between atoms: C19_27  and  C20_29 
ROOT
HETATM    1  C1  UNL     1      -6.146  40.891 -32.376  1.00  0.00     0.015 C 
HETATM    2  C2  UNL     1      -6.719  41.927 -32.584  1.00  0.00    -0.078 C 
HETATM    3  C3  UNL     1      -7.440  43.192 -32.856  1.00  0.00     0.128 C 
HETATM    4  C4  UNL     1      -8.759  43.186 -32.076  1.00  0.00     0.052 C 
HETATM    5  C5  UNL     1      -8.403  43.705 -30.683  1.00  0.00     0.010 C 
HETATM    6  C6  UNL     1      -7.039  44.421 -30.799  1.00  0.00     0.002 C 
HETATM    7  C7  UNL     1      -6.972  45.797 -30.107  1.00  0.00    -0.004 C 
HETATM    8  C8  UNL     1      -7.111  45.681 -28.583  1.00  0.00     0.010 C 
HETATM    9  C9  UNL     1      -7.421  47.024 -27.945  1.00  0.00     0.035 C 
HETATM   10  C10 UNL     1      -8.788  47.422 -28.419  1.00  0.00    -0.069 C 
HETATM   11  C11 UNL     1      -9.812  47.470 -27.546  1.00  0.00     0.030 C 
HETATM   12  C12 UNL     1     -11.210  47.746 -27.991  1.00  0.00     0.032 C 
HETATM   13  N1  UNL     1     -12.245  47.884 -27.218  1.00  0.00    -0.271 N 
ATOM     14  H1  UNL     1     -13.191  48.054 -27.559  1.00  0.00     0.194 HD
HETATM   15  C26 UNL     1     -11.464  47.893 -29.476  1.00  0.00     0.060 C 
HETATM   16  C27 UNL     1     -10.377  47.249 -30.326  1.00  0.00     0.020 C 
HETATM   17  C28 UNL     1      -8.937  47.658 -29.917  1.00  0.00    -0.016 C 
HETATM   18  C29 UNL     1      -8.771  49.185 -30.159  1.00  0.00     0.020 C 
HETATM   19  C30 UNL     1      -7.819  46.924 -30.780  1.00  0.00     0.002 C 
HETATM   20  C31 UNL     1      -8.268  46.543 -32.208  1.00  0.00     0.007 C 
HETATM   21  C32 UNL     1      -7.177  45.800 -32.976  1.00  0.00     0.014 C 
HETATM   22  C33 UNL     1      -6.702  44.466 -32.318  1.00  0.00     0.003 C 
HETATM   23  C34 UNL     1      -5.176  44.388 -32.556  1.00  0.00     0.020 C 
ENDROOT
BRANCH   3  24
HETATM   24  O1  UNL     1      -7.656  43.247 -34.258  1.00  0.00    -0.377 OA
HETATM   25  H2  UNL     1      -8.519  43.658 -34.425  1.00  0.00     0.211 HD
ENDBRANCH   3  24
BRANCH  13  26
HETATM   26  O2  UNL     1     -11.910  47.770 -25.857  1.00  0.00    -0.271 OA
BRANCH  26  27
HETATM   27  C13 UNL     1     -12.379  46.516 -25.391  1.00  0.00     0.303 C 
BRANCH  27  28
HETATM   28  C14 UNL     1     -13.895  46.493 -25.206  1.00  0.00     0.244 C 
HETATM   29  O3  UNL     1     -14.651  47.400 -25.535  1.00  0.00    -0.271 OA
HETATM   30  N2  UNL     1     -14.350  45.319 -24.636  1.00  0.00    -0.343 N 
HETATM   31  H16 UNL     1     -13.699  44.804 -24.052  1.00  0.00     0.163 HD
BRANCH  30  32
HETATM   32  C15 UNL     1     -15.769  45.160 -24.250  1.00  0.00     0.217 C 
BRANCH  32  33
HETATM   33  C16 UNL     1     -16.617  44.698 -25.448  1.00  0.00     0.284 C 
HETATM   34  O4  UNL     1     -17.839  44.617 -25.443  1.00  0.00    -0.263 OA
BRANCH  33  35
HETATM   35  O5  UNL     1     -15.839  44.436 -26.545  1.00  0.00    -0.320 OA
BRANCH  35  36
HETATM   36  C17 UNL     1     -16.398  44.804 -27.813  1.00  0.00     0.174 C 
HETATM   37  C18 UNL     1     -16.686  43.564 -28.639  1.00  0.00     0.034 C 
ENDBRANCH  35  36
ENDBRANCH  33  35
ENDBRANCH  32  33
BRANCH  32  38
HETATM   38  C19 UNL     1     -16.273  46.513 -23.703  1.00  0.00     0.183 C 
BRANCH  38  39
HETATM   39  O6  UNL     1     -17.216  47.106 -24.611  1.00  0.00    -0.388 OA
HETATM   40  H24 UNL     1     -17.581  47.890 -24.159  1.00  0.00     0.210 HD
ENDBRANCH  38  39
BRANCH  38  41
HETATM   41  C20 UNL     1     -16.802  46.525 -22.285  1.00  0.00    -0.027 A 
HETATM   42  C21 UNL     1     -15.965  46.757 -21.184  1.00  0.00     0.010 A 
HETATM   43  C22 UNL     1     -16.476  46.744 -19.885  1.00  0.00     0.001 A 
HETATM   44  C23 UNL     1     -17.826  46.483 -19.669  1.00  0.00     0.000 A 
HETATM   45  C24 UNL     1     -18.670  46.253 -20.751  1.00  0.00     0.001 A 
HETATM   46  C25 UNL     1     -18.164  46.279 -22.051  1.00  0.00     0.010 A 
ENDBRANCH  38  41
ENDBRANCH  32  38
ENDBRANCH  30  32
ENDBRANCH  27  28
ENDBRANCH  26  27
ENDBRANCH  13  26
TORSDOF 11
ENDMDL
MODEL 3
REMARK minimizedAffinity -9.26903629
REMARK CNNscore 0.324775279
REMARK CNNaffinity 6.42532873
REMARK  11 active torsions:
REMARK  status: ('A' for Active; 'I' for Inactive)
REMARK    1  A    between atoms: C3_3  and  O1_4 
REMARK    2  A    between atoms: N1_14  and  O2_16 
REMARK    3  A    between atoms: O2_16  and  C13_17 
REMARK    4  A    between atoms: C13_17  and  C14_18 
REMARK       I    between atoms: C14_18  and  N2_20 
REMARK    5  A    between atoms: N2_20  and  C15_21 
REMARK    6  A    between atoms: C15_21  and  C16_22 
REMARK    7  A    between atoms: C15_21  and  C19_27 
REMARK    8  A    between atoms: C16_22  and  O5_24 
REMARK    9  A    between atoms: O5_24  and  C17_25 
REMARK   10  A    between atoms: C19_27  and  O6_28 
REMARK   11  A    between atoms: C19_27  and  C20_29 
ROOT
HETATM    1  C1  UNL     1      -9.724  41.439 -34.593  1.00  0.00     0.015 C 
HETATM    2  C2  UNL     1     -10.110  42.432 -34.036  1.00  0.00    -0.078 C 
HETATM    3  C3  UNL     1     -10.605  43.643 -33.341  1.00  0.00     0.128 C 
HETATM    4  C4  UNL     1     -10.223  43.553 -31.860  1.00  0.00     0.052 C 
HETATM    5  C5  UNL     1      -8.799  44.105 -31.779  1.00  0.00     0.010 C 
HETATM    6  C6  UNL     1      -8.550  44.912 -33.074  1.00  0.00     0.002 C 
HETATM    7  C7  UNL     1      -7.903  46.294 -32.857  1.00  0.00    -0.004 C 
HETATM    8  C8  UNL     1      -6.475  46.179 -32.306  1.00  0.00     0.010 C 
HETATM    9  C9  UNL     1      -5.983  47.503 -31.745  1.00  0.00     0.035 C 
HETATM   10  C10 UNL     1      -6.828  47.803 -30.543  1.00  0.00    -0.069 C 
HETATM   11  C11 UNL     1      -6.277  47.787 -29.315  1.00  0.00     0.030 C 
HETATM   12  C12 UNL     1      -7.099  47.965 -28.082  1.00  0.00     0.032 C 
HETATM   13  N1  UNL     1      -6.648  48.036 -26.866  1.00  0.00    -0.271 N 
ATOM     14  H1  UNL     1      -7.243  48.140 -26.043  1.00  0.00     0.194 HD
HETATM   15  C26 UNL     1      -8.600  48.083 -28.244  1.00  0.00     0.060 C 
HETATM   16  C27 UNL     1      -9.097  47.508 -29.564  1.00  0.00     0.020 C 
HETATM   17  C28 UNL     1      -8.315  48.018 -30.803  1.00  0.00    -0.016 C 
HETATM   18  C29 UNL     1      -8.541  49.550 -30.933  1.00  0.00     0.020 C 
HETATM   19  C30 UNL     1      -8.814  47.355 -32.162  1.00  0.00     0.002 C 
HETATM   20  C31 UNL     1     -10.299  46.934 -32.155  1.00  0.00     0.007 C 
HETATM   21  C32 UNL     1     -10.715  46.262 -33.461  1.00  0.00     0.014 C 
HETATM   22  C33 UNL     1      -9.916  44.968 -33.818  1.00  0.00     0.003 C 
HETATM   23  C34 UNL     1      -9.718  44.993 -35.351  1.00  0.00     0.020 C 
ENDROOT
BRANCH   3  24
HETATM   24  O1  UNL     1     -12.013  43.673 -33.522  1.00  0.00    -0.377 OA
HETATM   25  H2  UNL     1     -12.424  44.023 -32.716  1.00  0.00     0.211 HD
ENDBRANCH   3  24
BRANCH  13  26
HETATM   26  O2  UNL     1      -5.246  47.956 -26.814  1.00  0.00    -0.271 OA
BRANCH  26  27
HETATM   27  C13 UNL     1      -4.818  48.500 -25.577  1.00  0.00     0.303 C 
BRANCH  27  28
HETATM   28  C14 UNL     1      -3.385  49.025 -25.635  1.00  0.00     0.244 C 
HETATM   29  O3  UNL     1      -2.522  48.610 -26.401  1.00  0.00    -0.271 OA
HETATM   30  N2  UNL     1      -3.149  50.048 -24.737  1.00  0.00    -0.343 N 
HETATM   31  H16 UNL     1      -3.731  50.080 -23.906  1.00  0.00     0.163 HD
BRANCH  30  32
HETATM   32  C15 UNL     1      -1.788  50.594 -24.545  1.00  0.00     0.217 C 
BRANCH  32  33
HETATM   33  C16 UNL     1      -1.617  51.160 -23.125  1.00  0.00     0.284 C 
HETATM   34  O4  UNL     1      -1.885  52.311 -22.800  1.00  0.00    -0.263 OA
BRANCH  33  35
HETATM   35  O5  UNL     1      -1.176  50.203 -22.250  1.00  0.00    -0.320 OA
BRANCH  35  36
HETATM   36  C17 UNL     1      -1.896  48.962 -22.262  1.00  0.00     0.174 C 
HETATM   37  C18 UNL     1      -1.286  47.993 -21.268  1.00  0.00     0.034 C 
ENDBRANCH  35  36
ENDBRANCH  33  35
ENDBRANCH  32  33
BRANCH  32  38
HETATM   38  C19 UNL     1      -1.555  51.688 -25.610  1.00  0.00     0.183 C 
BRANCH  38  39
HETATM   39  O6  UNL     1      -1.866  52.986 -25.078  1.00  0.00    -0.388 OA
HETATM   40  H24 UNL     1      -1.589  53.636 -25.751  1.00  0.00     0.210 HD
ENDBRANCH  38  39
BRANCH  38  41
HETATM   41  C20 UNL     1      -0.210  51.693 -26.304  1.00  0.00    -0.027 A 
HETATM   42  C21 UNL     1      -0.093  51.865 -27.691  1.00  0.00     0.010 A 
HETATM   43  C22 UNL     1       1.159  51.848 -28.308  1.00  0.00     0.001 A 
HETATM   44  C23 UNL     1       2.308  51.642 -27.550  1.00  0.00     0.000 A 
HETATM   45  C24 UNL     1       2.209  51.472 -26.172  1.00  0.00     0.001 A 
HETATM   46  C25 UNL     1       0.959  51.502 -25.552  1.00  0.00     0.010 A 
ENDBRANCH  38  41
ENDBRANCH  32  38
ENDBRANCH  30  32
ENDBRANCH  27  28
ENDBRANCH  26  27
ENDBRANCH  13  26
TORSDOF 11
ENDMDL
MODEL 4
REMARK minimizedAffinity -7.51412821
REMARK CNNscore 0.285910606
REMARK CNNaffinity 6.24315977
REMARK  11 active torsions:
REMARK  status: ('A' for Active; 'I' for Inactive)
REMARK    1  A    between atoms: C3_3  and  O1_4 
REMARK    2  A    between atoms: N1_14  and  O2_16 
REMARK    3  A    between atoms: O2_16  and  C13_17 
REMARK    4  A    between atoms: C13_17  and  C14_18 
REMARK       I    between atoms: C14_18  and  N2_20 
REMARK    5  A    between atoms: N2_20  and  C15_21 
REMARK    6  A    between atoms: C15_21  and  C16_22 
REMARK    7  A    between atoms: C15_21  and  C19_27 
REMARK    8  A    between atoms: C16_22  and  O5_24 
REMARK    9  A    between atoms: O5_24  and  C17_25 
REMARK   10  A    between atoms: C19_27  and  O6_28 
REMARK   11  A    between atoms: C19_27  and  C20_29 
ROOT
HETATM    1  C1  UNL     1      -3.056  48.469 -25.646  1.00  0.00     0.015 C 
HETATM    2  C2  UNL     1      -3.454  48.892 -24.594  1.00  0.00    -0.078 C 
HETATM    3  C3  UNL     1      -3.944  49.437 -23.307  1.00  0.00     0.128 C 
HETATM    4  C4  UNL     1      -5.460  49.636 -23.401  1.00  0.00     0.052 C 
HETATM    5  C5  UNL     1      -6.066  48.279 -23.042  1.00  0.00     0.010 C 
HETATM    6  C6  UNL     1      -4.969  47.469 -22.316  1.00  0.00     0.002 C 
HETATM    7  C7  UNL     1      -5.434  46.763 -21.027  1.00  0.00    -0.004 C 
HETATM    8  C8  UNL     1      -6.466  45.664 -21.314  1.00  0.00     0.010 C 
HETATM    9  C9  UNL     1      -7.194  45.235 -20.052  1.00  0.00     0.035 C 
HETATM   10  C10 UNL     1      -8.011  46.412 -19.603  1.00  0.00    -0.069 C 
HETATM   11  C11 UNL     1      -9.355  46.353 -19.655  1.00  0.00     0.030 C 
HETATM   12  C12 UNL     1     -10.206  47.535 -19.331  1.00  0.00     0.032 C 
HETATM   13  N1  UNL     1     -11.504  47.553 -19.283  1.00  0.00    -0.271 N 
ATOM     14  H1  UNL     1     -12.054  48.387 -19.075  1.00  0.00     0.194 HD
HETATM   15  C26 UNL     1      -9.509  48.843 -19.018  1.00  0.00     0.060 C 
HETATM   16  C27 UNL     1      -8.088  48.898 -19.562  1.00  0.00     0.020 C 
HETATM   17  C28 UNL     1      -7.231  47.657 -19.200  1.00  0.00    -0.016 C 
HETATM   18  C29 UNL     1      -7.057  47.610 -17.656  1.00  0.00     0.020 C 
HETATM   19  C30 UNL     1      -5.770  47.712 -19.833  1.00  0.00     0.002 C 
HETATM   20  C31 UNL     1      -5.226  49.140 -20.051  1.00  0.00     0.007 C 
HETATM   21  C32 UNL     1      -3.845  49.139 -20.701  1.00  0.00     0.014 C 
HETATM   22  C33 UNL     1      -3.779  48.448 -22.101  1.00  0.00     0.003 C 
HETATM   23  C34 UNL     1      -2.424  47.704 -22.150  1.00  0.00     0.020 C 
ENDROOT
BRANCH   3  24
HETATM   24  O1  UNL     1      -3.262  50.664 -23.094  1.00  0.00    -0.377 OA
HETATM   25  H2  UNL     1      -3.870  51.288 -22.668  1.00  0.00     0.211 HD
ENDBRANCH   3  24
BRANCH  13  26
HETATM   26  O2  UNL     1     -12.062  46.291 -19.548  1.00  0.00    -0.271 OA
BRANCH  26  27
HETATM   27  C13 UNL     1     -13.466  46.447 -19.670  1.00  0.00     0.303 C 
BRANCH  27  28
HETATM   28  C14 UNL     1     -13.883  46.902 -21.067  1.00  0.00     0.244 C 
HETATM   29  O3  UNL     1     -14.070  48.069 -21.393  1.00  0.00    -0.271 OA
HETATM   30  N2  UNL     1     -14.015  45.853 -21.958  1.00  0.00    -0.343 N 
HETATM   31  H16 UNL     1     -14.230  44.939 -21.571  1.00  0.00     0.163 HD
BRANCH  30  32
HETATM   32  C15 UNL     1     -14.544  46.074 -23.322  1.00  0.00     0.217 C 
BRANCH  32  33
HETATM   33  C16 UNL     1     -13.442  46.592 -24.262  1.00  0.00     0.284 C 
HETATM   34  O4  UNL     1     -12.320  46.926 -23.899  1.00  0.00    -0.263 OA
BRANCH  33  35
HETATM   35  O5  UNL     1     -13.851  46.585 -25.570  1.00  0.00    -0.320 OA
BRANCH  35  36
HETATM   36  C17 UNL     1     -12.878  47.010 -26.534  1.00  0.00     0.174 C 
HETATM   37  C18 UNL     1     -12.327  45.812 -27.285  1.00  0.00     0.034 C 
ENDBRANCH  35  36
ENDBRANCH  33  35
ENDBRANCH  32  33
BRANCH  32  38
HETATM   38  C19 UNL     1     -15.711  47.081 -23.227  1.00  0.00     0.183 C 
BRANCH  38  39
HETATM   39  O6  UNL     1     -15.439  48.246 -24.023  1.00  0.00    -0.388 OA
HETATM   40  H24 UNL     1     -16.253  48.783 -24.016  1.00  0.00     0.210 HD
ENDBRANCH  38  39
BRANCH  38  41
HETATM   41  C20 UNL     1     -17.100  46.547 -23.501  1.00  0.00    -0.027 A 
HETATM   42  C21 UNL     1     -17.689  46.633 -24.770  1.00  0.00     0.010 A 
HETATM   43  C22 UNL     1     -18.980  46.148 -24.991  1.00  0.00     0.001 A 
HETATM   44  C23 UNL     1     -19.704  45.587 -23.943  1.00  0.00     0.000 A 
HETATM   45  C24 UNL     1     -19.132  45.493 -22.677  1.00  0.00     0.001 A 
HETATM   46  C25 UNL     1     -17.837  45.964 -22.459  1.00  0.00     0.010 A 
ENDBRANCH  38  41
ENDBRANCH  32  38
ENDBRANCH  30  32
ENDBRANCH  27  28
ENDBRANCH  26  27
ENDBRANCH  13  26
TORSDOF 11
ENDMDL
MODEL 5
REMARK minimizedAffinity -7.71388912
REMARK CNNscore 0.234472647
REMARK CNNaffinity 5.9403348
REMARK  11 active torsions:
REMARK  status: ('A' for Active; 'I' for Inactive)
REMARK    1  A    between atoms: C3_3  and  O1_4 
REMARK    2  A    between atoms: N1_14  and  O2_16 
REMARK    3  A    between atoms: O2_16  and  C13_17 
REMARK    4  A    between atoms: C13_17  and  C14_18 
REMARK       I    between atoms: C14_18  and  N2_20 
REMARK    5  A    between atoms: N2_20  and  C15_21 
REMARK    6  A    between atoms: C15_21  and  C16_22 
REMARK    7  A    between atoms: C15_21  and  C19_27 
REMARK    8  A    between atoms: C16_22  and  O5_24 
REMARK    9  A    between atoms: O5_24  and  C17_25 
REMARK   10  A    between atoms: C19_27  and  O6_28 
REMARK   11  A    between atoms: C19_27  and  C20_29 
ROOT
HETATM    1  C1  UNL     1      -1.958  52.970 -24.173  1.00  0.00     0.015 C 
HETATM    2  C2  UNL     1      -2.015  51.968 -23.512  1.00  0.00    -0.078 C 
HETATM    3  C3  UNL     1      -2.066  50.741 -22.684  1.00  0.00     0.128 C 
HETATM    4  C4  UNL     1      -2.737  51.074 -21.348  1.00  0.00     0.052 C 
HETATM    5  C5  UNL     1      -4.238  50.944 -21.609  1.00  0.00     0.010 C 
HETATM    6  C6  UNL     1      -4.404  50.115 -22.903  1.00  0.00     0.002 C 
HETATM    7  C7  UNL     1      -5.455  48.991 -22.818  1.00  0.00    -0.004 C 
HETATM    8  C8  UNL     1      -6.875  49.545 -22.643  1.00  0.00     0.010 C 
HETATM    9  C9  UNL     1      -7.845  48.467 -22.187  1.00  0.00     0.035 C 
HETATM   10  C10 UNL     1      -7.424  48.064 -20.804  1.00  0.00    -0.069 C 
HETATM   11  C11 UNL     1      -8.215  48.349 -19.753  1.00  0.00     0.030 C 
HETATM   12  C12 UNL     1      -7.787  48.074 -18.350  1.00  0.00     0.032 C 
HETATM   13  N1  UNL     1      -8.508  48.246 -17.283  1.00  0.00    -0.271 N 
ATOM     14  H1  UNL     1      -8.175  48.063 -16.336  1.00  0.00     0.194 HD
HETATM   15  C26 UNL     1      -6.390  47.533 -18.130  1.00  0.00     0.060 C 
HETATM   16  C27 UNL     1      -5.457  47.820 -19.300  1.00  0.00     0.020 C 
HETATM   17  C28 UNL     1      -6.045  47.427 -20.680  1.00  0.00    -0.016 C 
HETATM   18  C29 UNL     1      -6.248  45.886 -20.710  1.00  0.00     0.020 C 
HETATM   19  C30 UNL     1      -5.076  47.793 -21.890  1.00  0.00     0.002 C 
HETATM   20  C31 UNL     1      -3.576  47.790 -21.524  1.00  0.00     0.007 C 
HETATM   21  C32 UNL     1      -2.694  48.193 -22.703  1.00  0.00     0.014 C 
HETATM   22  C33 UNL     1      -2.980  49.615 -23.281  1.00  0.00     0.003 C 
HETATM   23  C34 UNL     1      -2.816  49.497 -24.814  1.00  0.00     0.020 C 
ENDROOT
BRANCH   3  24
HETATM   24  O1  UNL     1      -0.725  50.308 -22.508  1.00  0.00    -0.377 OA
HETATM   25  H2  UNL     1      -0.631  49.939 -21.616  1.00  0.00     0.211 HD
ENDBRANCH   3  24
BRANCH  13  26
HETATM   26  O2  UNL     1      -9.799  48.712 -17.584  1.00  0.00    -0.271 OA
BRANCH  26  27
HETATM   27  C13 UNL     1     -10.735  47.873 -16.929  1.00  0.00     0.303 C 
BRANCH  27  28
HETATM   28  C14 UNL     1     -11.684  47.184 -17.906  1.00  0.00     0.244 C 
HETATM   29  O3  UNL     1     -11.346  46.336 -18.725  1.00  0.00    -0.271 OA
HETATM   30  N2  UNL     1     -12.995  47.599 -17.769  1.00  0.00    -0.343 N 
HETATM   31  H16 UNL     1     -13.150  48.527 -17.386  1.00  0.00     0.163 HD
BRANCH  30  32
HETATM   32  C15 UNL     1     -14.040  47.151 -18.715  1.00  0.00     0.217 C 
BRANCH  32  33
HETATM   33  C16 UNL     1     -13.847  47.799 -20.096  1.00  0.00     0.284 C 
HETATM   34  O4  UNL     1     -13.570  48.979 -20.277  1.00  0.00    -0.263 OA
BRANCH  33  35
HETATM   35  O5  UNL     1     -13.971  46.881 -21.105  1.00  0.00    -0.320 OA
BRANCH  35  36
HETATM   36  C17 UNL     1     -13.610  47.337 -22.416  1.00  0.00     0.174 C 
HETATM   37  C18 UNL     1     -12.378  46.599 -22.907  1.00  0.00     0.034 C 
ENDBRANCH  35  36
ENDBRANCH  33  35
ENDBRANCH  32  33
BRANCH  32  38
HETATM   38  C19 UNL     1     -15.417  47.517 -18.118  1.00  0.00     0.183 C 
BRANCH  38  39
HETATM   39  O6  UNL     1     -15.525  48.938 -17.931  1.00  0.00    -0.388 OA
HETATM   40  H24 UNL     1     -16.447  49.114 -17.667  1.00  0.00     0.210 HD
ENDBRANCH  38  39
BRANCH  38  41
HETATM   41  C20 UNL     1     -16.637  46.967 -18.823  1.00  0.00    -0.027 A 
HETATM   42  C21 UNL     1     -16.736  45.617 -19.187  1.00  0.00     0.010 A 
HETATM   43  C22 UNL     1     -17.867  45.139 -19.853  1.00  0.00     0.001 A 
HETATM   44  C23 UNL     1     -18.904  46.007 -20.179  1.00  0.00     0.000 A 
HETATM   45  C24 UNL     1     -18.822  47.351 -19.823  1.00  0.00     0.001 A 
HETATM   46  C25 UNL     1     -17.699  47.827 -19.145  1.00  0.00     0.010 A 
ENDBRANCH  38  41
ENDBRANCH  32  38
ENDBRANCH  30  32
ENDBRANCH  27  28
ENDBRANCH  26  27
ENDBRANCH  13  26
TORSDOF 11
ENDMDL
MODEL 6
REMARK minimizedAffinity -8.61857796
REMARK CNNscore 0.229965046
REMARK CNNaffinity 5.96361971
REMARK  11 active torsions:
REMARK  status: ('A' for Active; 'I' for Inactive)
REMARK    1  A    between atoms: C3_3  and  O1_4 
REMARK    2  A    between atoms: N1_14  and  O2_16 
REMARK    3  A    between atoms: O2_16  and  C13_17 
REMARK    4  A    between atoms: C13_17  and  C14_18 
REMARK       I    between atoms: C14_18  and  N2_20 
REMARK    5  A    between atoms: N2_20  and  C15_21 
REMARK    6  A    between atoms: C15_21  and  C16_22 
REMARK    7  A    between atoms: C15_21  and  C19_27 
REMARK    8  A    between atoms: C16_22  and  O5_24 
REMARK    9  A    between atoms: O5_24  and  C17_25 
REMARK   10  A    between atoms: C19_27  and  O6_28 
REMARK   11  A    between atoms: C19_27  and  C20_29 
ROOT
HETATM    1  C1  UNL     1       1.068  51.169 -26.456  1.00  0.00     0.015 C 
HETATM    2  C2  UNL     1       0.057  51.535 -25.917  1.00  0.00    -0.078 C 
HETATM    3  C3  UNL     1      -1.191  52.002 -25.272  1.00  0.00     0.128 C 
HETATM    4  C4  UNL     1      -2.381  51.297 -25.931  1.00  0.00     0.052 C 
HETATM    5  C5  UNL     1      -2.516  49.963 -25.196  1.00  0.00     0.010 C 
HETATM    6  C6  UNL     1      -1.741  50.098 -23.866  1.00  0.00     0.002 C 
HETATM    7  C7  UNL     1      -2.497  49.582 -22.625  1.00  0.00    -0.004 C 
HETATM    8  C8  UNL     1      -2.722  48.065 -22.679  1.00  0.00     0.010 C 
HETATM    9  C9  UNL     1      -3.771  47.617 -21.675  1.00  0.00     0.035 C 
HETATM   10  C10 UNL     1      -5.076  48.208 -22.121  1.00  0.00    -0.069 C 
HETATM   11  C11 UNL     1      -6.057  47.403 -22.570  1.00  0.00     0.030 C 
HETATM   12  C12 UNL     1      -7.327  47.951 -23.132  1.00  0.00     0.032 C 
HETATM   13  N1  UNL     1      -8.354  47.256 -23.519  1.00  0.00    -0.271 N 
ATOM     14  H1  UNL     1      -9.200  47.665 -23.917  1.00  0.00     0.194 HD
HETATM   15  C26 UNL     1      -7.452  49.454 -23.262  1.00  0.00     0.060 C 
HETATM   16  C27 UNL     1      -6.101  50.158 -23.277  1.00  0.00     0.020 C 
HETATM   17  C28 UNL     1      -5.159  49.730 -22.121  1.00  0.00    -0.016 C 
HETATM   18  C29 UNL     1      -5.807  50.153 -20.773  1.00  0.00     0.020 C 
HETATM   19  C30 UNL     1      -3.733  50.434 -22.195  1.00  0.00     0.002 C 
HETATM   20  C31 UNL     1      -3.746  51.824 -22.868  1.00  0.00     0.007 C 
HETATM   21  C32 UNL     1      -2.350  52.435 -22.957  1.00  0.00     0.014 C 
HETATM   22  C33 UNL     1      -1.313  51.590 -23.763  1.00  0.00     0.003 C 
HETATM   23  C34 UNL     1       0.034  51.737 -23.018  1.00  0.00     0.020 C 
ENDROOT
BRANCH   3  24
HETATM   24  O1  UNL     1      -1.245  53.409 -25.451  1.00  0.00    -0.377 OA
HETATM   25  H2  UNL     1      -2.169  53.671 -25.589  1.00  0.00     0.211 HD
ENDBRANCH   3  24
BRANCH  13  26
HETATM   26  O2  UNL     1      -8.165  45.877 -23.327  1.00  0.00    -0.271 OA
BRANCH  26  27
HETATM   27  C13 UNL     1      -8.299  45.234 -24.583  1.00  0.00     0.303 C 
BRANCH  27  28
HETATM   28  C14 UNL     1      -9.496  45.751 -25.377  1.00  0.00     0.244 C 
HETATM   29  O3  UNL     1      -9.478  46.741 -26.101  1.00  0.00    -0.271 OA
HETATM   30  N2  UNL     1     -10.627  44.972 -25.217  1.00  0.00    -0.343 N 
HETATM   31  H16 UNL     1     -10.704  44.438 -24.357  1.00  0.00     0.163 HD
BRANCH  30  32
HETATM   32  C15 UNL     1     -11.925  45.384 -25.794  1.00  0.00     0.217 C 
BRANCH  32  33
HETATM   33  C16 UNL     1     -11.806  45.608 -27.312  1.00  0.00     0.284 C 
HETATM   34  O4  UNL     1     -11.195  44.872 -28.076  1.00  0.00    -0.263 OA
BRANCH  33  35
HETATM   35  O5  UNL     1     -12.515  46.709 -27.715  1.00  0.00    -0.320 OA
BRANCH  35  36
HETATM   36  C17 UNL     1     -13.274  46.559 -28.923  1.00  0.00     0.174 C 
HETATM   37  C18 UNL     1     -14.303  45.456 -28.761  1.00  0.00     0.034 C 
ENDBRANCH  35  36
ENDBRANCH  33  35
ENDBRANCH  32  33
BRANCH  32  38
HETATM   38  C19 UNL     1     -12.381  46.674 -25.077  1.00  0.00     0.183 C 
BRANCH  38  39
HETATM   39  O6  UNL     1     -12.090  47.829 -25.881  1.00  0.00    -0.388 OA
HETATM   40  H24 UNL     1     -12.504  48.591 -25.433  1.00  0.00     0.210 HD
ENDBRANCH  38  39
BRANCH  38  41
HETATM   41  C20 UNL     1     -13.807  46.708 -24.571  1.00  0.00    -0.027 A 
HETATM   42  C21 UNL     1     -14.899  46.480 -25.420  1.00  0.00     0.010 A 
HETATM   43  C22 UNL     1     -16.206  46.535 -24.931  1.00  0.00     0.001 A 
HETATM   44  C23 UNL     1     -16.437  46.836 -23.592  1.00  0.00     0.000 A 
HETATM   45  C24 UNL     1     -15.363  47.064 -22.736  1.00  0.00     0.001 A 
HETATM   46  C25 UNL     1     -14.057  46.995 -23.221  1.00  0.00     0.010 A 
ENDBRANCH  38  41
ENDBRANCH  32  38
ENDBRANCH  30  32
ENDBRANCH  27  28
ENDBRANCH  26  27
ENDBRANCH  13  26
TORSDOF 11
ENDMDL
MODEL 7
REMARK minimizedAffinity -8.05949116
REMARK CNNscore 0.211662963
REMARK CNNaffinity 5.88703918
REMARK  11 active torsions:
REMARK  status: ('A' for Active; 'I' for Inactive)
REMARK    1  A    between atoms: C3_3  and  O1_4 
REMARK    2  A    between atoms: N1_14  and  O2_16 
REMARK    3  A    between atoms: O2_16  and  C13_17 
REMARK    4  A    between atoms: C13_17  and  C14_18 
REMARK       I    between atoms: C14_18  and  N2_20 
REMARK    5  A    between atoms: N2_20  and  C15_21 
REMARK    6  A    between atoms: C15_21  and  C16_22 
REMARK    7  A    between atoms: C15_21  and  C19_27 
REMARK    8  A    between atoms: C16_22  and  O5_24 
REMARK    9  A    between atoms: O5_24  and  C17_25 
REMARK   10  A    between atoms: C19_27  and  O6_28 
REMARK   11  A    between atoms: C19_27  and  C20_29 
ROOT
HETATM    1  C1  UNL     1       0.862  51.024 -26.653  1.00  0.00     0.015 C 
HETATM    2  C2  UNL     1      -0.120  51.436 -26.094  1.00  0.00    -0.078 C 
HETATM    3  C3  UNL     1      -1.334  51.957 -25.425  1.00  0.00     0.128 C 
HETATM    4  C4  UNL     1      -2.560  51.239 -25.998  1.00  0.00     0.052 C 
HETATM    5  C5  UNL     1      -2.684  49.948 -25.188  1.00  0.00     0.010 C 
HETATM    6  C6  UNL     1      -1.854  50.139 -23.899  1.00  0.00     0.002 C 
HETATM    7  C7  UNL     1      -2.566  49.702 -22.603  1.00  0.00    -0.004 C 
HETATM    8  C8  UNL     1      -2.815  48.188 -22.567  1.00  0.00     0.010 C 
HETATM    9  C9  UNL     1      -3.829  47.812 -21.499  1.00  0.00     0.035 C 
HETATM   10  C10 UNL     1      -5.142  48.401 -21.924  1.00  0.00    -0.069 C 
HETATM   11  C11 UNL     1      -6.153  47.591 -22.289  1.00  0.00     0.030 C 
HETATM   12  C12 UNL     1      -7.436  48.130 -22.828  1.00  0.00     0.032 C 
HETATM   13  N1  UNL     1      -8.488  47.433 -23.136  1.00  0.00    -0.271 N 
ATOM     14  H1  UNL     1      -9.344  47.835 -23.521  1.00  0.00     0.194 HD
HETATM   15  C26 UNL     1      -7.544  49.626 -23.033  1.00  0.00     0.060 C 
HETATM   16  C27 UNL     1      -6.185  50.305 -23.140  1.00  0.00     0.020 C 
HETATM   17  C28 UNL     1      -5.203  49.922 -22.001  1.00  0.00    -0.016 C 
HETATM   18  C29 UNL     1      -5.789  50.427 -20.653  1.00  0.00     0.020 C 
HETATM   19  C30 UNL     1      -3.771  50.597 -22.170  1.00  0.00     0.002 C 
HETATM   20  C31 UNL     1      -3.790  51.950 -22.915  1.00  0.00     0.007 C 
HETATM   21  C32 UNL     1      -2.390  52.531 -23.092  1.00  0.00     0.014 C 
HETATM   22  C33 UNL     1      -1.400  51.627 -23.893  1.00  0.00     0.003 C 
HETATM   23  C34 UNL     1      -0.021  51.790 -23.212  1.00  0.00     0.020 C 
ENDROOT
BRANCH   3  24
HETATM   24  O1  UNL     1      -1.374  53.353 -25.677  1.00  0.00    -0.377 OA
HETATM   25  H2  UNL     1      -2.298  53.623 -25.792  1.00  0.00     0.211 HD
ENDBRANCH   3  24
BRANCH  13  26
HETATM   26  O2  UNL     1      -8.313  46.062 -22.878  1.00  0.00    -0.271 OA
BRANCH  26  27
HETATM   27  C13 UNL     1      -9.034  45.739 -21.702  1.00  0.00     0.303 C 
BRANCH  27  28
HETATM   28  C14 UNL     1     -10.485  45.363 -21.993  1.00  0.00     0.244 C 
HETATM   29  O3  UNL     1     -10.871  44.231 -22.264  1.00  0.00    -0.271 OA
HETATM   30  N2  UNL     1     -11.349  46.438 -21.903  1.00  0.00    -0.343 N 
HETATM   31  H16 UNL     1     -10.958  47.362 -22.064  1.00  0.00     0.163 HD
BRANCH  30  32
HETATM   32  C15 UNL     1     -12.772  46.307 -22.283  1.00  0.00     0.217 C 
BRANCH  32  33
HETATM   33  C16 UNL     1     -12.937  46.324 -23.813  1.00  0.00     0.284 C 
HETATM   34  O4  UNL     1     -12.658  47.277 -24.530  1.00  0.00    -0.263 OA
BRANCH  33  35
HETATM   35  O5  UNL     1     -13.387  45.119 -24.285  1.00  0.00    -0.320 OA
BRANCH  35  36
HETATM   36  C17 UNL     1     -13.090  44.832 -25.658  1.00  0.00     0.174 C 
HETATM   37  C18 UNL     1     -14.303  44.230 -26.342  1.00  0.00     0.034 C 
ENDBRANCH  35  36
ENDBRANCH  33  35
ENDBRANCH  32  33
BRANCH  32  38
HETATM   38  C19 UNL     1     -13.553  47.467 -21.628  1.00  0.00     0.183 C 
BRANCH  38  39
HETATM   39  O6  UNL     1     -14.724  47.787 -22.397  1.00  0.00    -0.388 OA
HETATM   40  H24 UNL     1     -15.230  48.437 -21.876  1.00  0.00     0.210 HD
ENDBRANCH  38  39
BRANCH  38  41
HETATM   41  C20 UNL     1     -13.890  47.322 -20.160  1.00  0.00    -0.027 A 
HETATM   42  C21 UNL     1     -13.802  46.089 -19.498  1.00  0.00     0.010 A 
HETATM   43  C22 UNL     1     -14.136  45.980 -18.147  1.00  0.00     0.001 A 
HETATM   44  C23 UNL     1     -14.579  47.098 -17.445  1.00  0.00     0.000 A 
HETATM   45  C24 UNL     1     -14.669  48.329 -18.087  1.00  0.00     0.001 A 
HETATM   46  C25 UNL     1     -14.323  48.442 -19.434  1.00  0.00     0.010 A 
ENDBRANCH  38  41
ENDBRANCH  32  38
ENDBRANCH  30  32
ENDBRANCH  27  28
ENDBRANCH  26  27
ENDBRANCH  13  26
TORSDOF 11
ENDMDL
MODEL 8
REMARK minimizedAffinity -7.88138962
REMARK CNNscore 0.200840443
REMARK CNNaffinity 6.05702019
REMARK  11 active torsions:
REMARK  status: ('A' for Active; 'I' for Inactive)
REMARK    1  A    between atoms: C3_3  and  O1_4 
REMARK    2  A    between atoms: N1_14  and  O2_16 
REMARK    3  A    between atoms: O2_16  and  C13_17 
REMARK    4  A    between atoms: C13_17  and  C14_18 
REMARK       I    between atoms: C14_18  and  N2_20 
REMARK    5  A    between atoms: N2_20  and  C15_21 
REMARK    6  A    between atoms: C15_21  and  C16_22 
REMARK    7  A    between atoms: C15_21  and  C19_27 
REMARK    8  A    between atoms: C16_22  and  O5_24 
REMARK    9  A    between atoms: O5_24  and  C17_25 
REMARK   10  A    between atoms: C19_27  and  O6_28 
REMARK   11  A    between atoms: C19_27  and  C20_29 
ROOT
HETATM    1  C1  UNL     1       0.778  51.045 -26.976  1.00  0.00     0.015 C 
HETATM    2  C2  UNL     1      -0.215  51.423 -26.414  1.00  0.00    -0.078 C 
HETATM    3  C3  UNL     1      -1.444  51.903 -25.740  1.00  0.00     0.128 C 
HETATM    4  C4  UNL     1      -2.644  51.128 -26.293  1.00  0.00     0.052 C 
HETATM    5  C5  UNL     1      -2.709  49.844 -25.465  1.00  0.00     0.010 C 
HETATM    6  C6  UNL     1      -1.876  50.085 -24.186  1.00  0.00     0.002 C 
HETATM    7  C7  UNL     1      -2.558  49.636 -22.879  1.00  0.00    -0.004 C 
HETATM    8  C8  UNL     1      -2.745  48.114 -22.822  1.00  0.00     0.010 C 
HETATM    9  C9  UNL     1      -3.732  47.711 -21.740  1.00  0.00     0.035 C 
HETATM   10  C10 UNL     1      -5.073  48.240 -22.159  1.00  0.00    -0.069 C 
HETATM   11  C11 UNL     1      -6.053  47.384 -22.505  1.00  0.00     0.030 C 
HETATM   12  C12 UNL     1      -7.361  47.863 -23.039  1.00  0.00     0.032 C 
HETATM   13  N1  UNL     1      -8.387  47.120 -23.328  1.00  0.00    -0.271 N 
ATOM     14  H1  UNL     1      -9.262  47.482 -23.710  1.00  0.00     0.194 HD
HETATM   15  C26 UNL     1      -7.532  49.351 -23.262  1.00  0.00     0.060 C 
HETATM   16  C27 UNL     1      -6.203  50.084 -23.390  1.00  0.00     0.020 C 
HETATM   17  C28 UNL     1      -5.196  49.756 -22.256  1.00  0.00    -0.016 C 
HETATM   18  C29 UNL     1      -5.791  50.254 -20.908  1.00  0.00     0.020 C 
HETATM   19  C30 UNL     1      -3.794  50.487 -22.446  1.00  0.00     0.002 C 
HETATM   20  C31 UNL     1      -3.876  51.828 -23.208  1.00  0.00     0.007 C 
HETATM   21  C32 UNL     1      -2.503  52.464 -23.405  1.00  0.00     0.014 C 
HETATM   22  C33 UNL     1      -1.483  51.591 -24.204  1.00  0.00     0.003 C 
HETATM   23  C34 UNL     1      -0.106  51.818 -23.537  1.00  0.00     0.020 C 
ENDROOT
BRANCH   3  24
HETATM   24  O1  UNL     1      -1.544  53.293 -26.009  1.00  0.00    -0.377 OA
HETATM   25  H2  UNL     1      -2.479  53.523 -26.119  1.00  0.00     0.211 HD
ENDBRANCH   3  24
BRANCH  13  26
HETATM   26  O2  UNL     1      -8.153  45.761 -23.055  1.00  0.00    -0.271 OA
BRANCH  26  27
HETATM   27  C13 UNL     1      -8.237  45.045 -24.275  1.00  0.00     0.303 C 
BRANCH  27  28
HETATM   28  C14 UNL     1      -9.524  45.346 -25.040  1.00  0.00     0.244 C 
HETATM   29  O3  UNL     1     -10.476  45.970 -24.583  1.00  0.00    -0.271 OA
HETATM   30  N2  UNL     1      -9.511  44.856 -26.332  1.00  0.00    -0.343 N 
HETATM   31  H16 UNL     1      -8.914  44.056 -26.519  1.00  0.00     0.163 HD
BRANCH  30  32
HETATM   32  C15 UNL     1     -10.716  44.925 -27.186  1.00  0.00     0.217 C 
BRANCH  32  33
HETATM   33  C16 UNL     1     -11.897  44.184 -26.534  1.00  0.00     0.284 C 
HETATM   34  O4  UNL     1     -11.821  43.073 -26.023  1.00  0.00    -0.263 OA
BRANCH  33  35
HETATM   35  O5  UNL     1     -13.037  44.942 -26.548  1.00  0.00    -0.320 OA
BRANCH  35  36
HETATM   36  C17 UNL     1     -14.086  44.484 -27.412  1.00  0.00     0.174 C 
HETATM   37  C18 UNL     1     -14.298  45.469 -28.546  1.00  0.00     0.034 C 
ENDBRANCH  35  36
ENDBRANCH  33  35
ENDBRANCH  32  33
BRANCH  32  38
HETATM   38  C19 UNL     1     -10.367  44.312 -28.560  1.00  0.00     0.183 C 
BRANCH  38  39
HETATM   39  O6  UNL     1     -10.980  43.021 -28.708  1.00  0.00    -0.388 OA
HETATM   40  H24 UNL     1     -10.822  42.742 -29.629  1.00  0.00     0.210 HD
ENDBRANCH  38  39
BRANCH  38  41
HETATM   41  C20 UNL     1     -10.616  45.175 -29.778  1.00  0.00    -0.027 A 
HETATM   42  C21 UNL     1     -10.871  44.619 -31.040  1.00  0.00     0.010 A 
HETATM   43  C22 UNL     1     -11.080  45.439 -32.151  1.00  0.00     0.001 A 
HETATM   44  C23 UNL     1     -11.019  46.823 -32.018  1.00  0.00     0.000 A 
HETATM   45  C24 UNL     1     -10.769  47.390 -30.772  1.00  0.00     0.001 A 
HETATM   46  C25 UNL     1     -10.574  46.573 -29.658  1.00  0.00     0.010 A 
ENDBRANCH  38  41
ENDBRANCH  32  38
ENDBRANCH  30  32
ENDBRANCH  27  28
ENDBRANCH  26  27
ENDBRANCH  13  26
TORSDOF 11
ENDMDL
MODEL 9
REMARK minimizedAffinity -8.57631016
REMARK CNNscore 0.185974881
REMARK CNNaffinity 6.87358093
REMARK  11 active torsions:
REMARK  status: ('A' for Active; 'I' for Inactive)
REMARK    1  A    between atoms: C3_3  and  O1_4 
REMARK    2  A    between atoms: N1_14  and  O2_16 
REMARK    3  A    between atoms: O2_16  and  C13_17 
REMARK    4  A    between atoms: C13_17  and  C14_18 
REMARK       I    between atoms: C14_18  and  N2_20 
REMARK    5  A    between atoms: N2_20  and  C15_21 
REMARK    6  A    between atoms: C15_21  and  C16_22 
REMARK    7  A    between atoms: C15_21  and  C19_27 
REMARK    8  A    between atoms: C16_22  and  O5_24 
REMARK    9  A    between atoms: O5_24  and  C17_25 
REMARK   10  A    between atoms: C19_27  and  O6_28 
REMARK   11  A    between atoms: C19_27  and  C20_29 
ROOT
HETATM    1  C1  UNL     1       0.814  52.299 -29.037  1.00  0.00     0.015 C 
HETATM    2  C2  UNL     1       0.293  52.660 -28.015  1.00  0.00    -0.078 C 
HETATM    3  C3  UNL     1      -0.352  53.126 -26.766  1.00  0.00     0.128 C 
HETATM    4  C4  UNL     1      -1.872  53.051 -26.938  1.00  0.00     0.052 C 
HETATM    5  C5  UNL     1      -2.247  51.613 -26.579  1.00  0.00     0.010 C 
HETATM    6  C6  UNL     1      -1.063  51.020 -25.783  1.00  0.00     0.002 C 
HETATM    7  C7  UNL     1      -1.463  50.261 -24.502  1.00  0.00    -0.004 C 
HETATM    8  C8  UNL     1      -2.268  48.992 -24.815  1.00  0.00     0.010 C 
HETATM    9  C9  UNL     1      -2.974  48.458 -23.580  1.00  0.00     0.035 C 
HETATM   10  C10 UNL     1      -4.008  49.476 -23.199  1.00  0.00    -0.069 C 
HETATM   11  C11 UNL     1      -5.316  49.179 -23.315  1.00  0.00     0.030 C 
HETATM   12  C12 UNL     1      -6.378  50.196 -23.060  1.00  0.00     0.032 C 
HETATM   13  N1  UNL     1      -7.659  49.983 -23.075  1.00  0.00    -0.271 N 
ATOM     14  H1  UNL     1      -8.358  50.709 -22.913  1.00  0.00     0.194 HD
HETATM   15  C26 UNL     1      -5.941  51.610 -22.742  1.00  0.00     0.060 C 
HETATM   16  C27 UNL     1      -4.525  51.910 -23.217  1.00  0.00     0.020 C 
HETATM   17  C28 UNL     1      -3.482  50.846 -22.786  1.00  0.00    -0.016 C 
HETATM   18  C29 UNL     1      -3.384  50.851 -21.235  1.00  0.00     0.020 C 
HETATM   19  C30 UNL     1      -2.023  51.151 -23.347  1.00  0.00     0.002 C 
HETATM   20  C31 UNL     1      -1.729  52.650 -23.570  1.00  0.00     0.007 C 
HETATM   21  C32 UNL     1      -0.338  52.885 -24.153  1.00  0.00     0.014 C 
HETATM   22  C33 UNL     1      -0.078  52.199 -25.531  1.00  0.00     0.003 C 
HETATM   23  C34 UNL     1       1.388  51.707 -25.498  1.00  0.00     0.020 C 
ENDROOT
BRANCH   3  24
HETATM   24  O1  UNL     1       0.090  54.457 -26.547  1.00  0.00    -0.377 OA
HETATM   25  H2  UNL     1      -0.640  54.970 -26.166  1.00  0.00     0.211 HD
ENDBRANCH   3  24
BRANCH  13  26
HETATM   26  O2  UNL     1      -7.971  48.638 -23.339  1.00  0.00    -0.271 OA
BRANCH  26  27
HETATM   27  C13 UNL     1      -7.569  48.345 -24.666  1.00  0.00     0.303 C 
BRANCH  27  28
HETATM   28  C14 UNL     1      -8.658  48.661 -25.689  1.00  0.00     0.244 C 
HETATM   29  O3  UNL     1      -9.606  49.412 -25.487  1.00  0.00    -0.271 OA
HETATM   30  N2  UNL     1      -8.463  48.023 -26.899  1.00  0.00    -0.343 N 
HETATM   31  H16 UNL     1      -7.929  47.159 -26.888  1.00  0.00     0.163 HD
BRANCH  30  32
HETATM   32  C15 UNL     1      -9.480  48.092 -27.970  1.00  0.00     0.217 C 
BRANCH  32  33
HETATM   33  C16 UNL     1     -10.235  46.758 -28.101  1.00  0.00     0.284 C 
HETATM   34  O4  UNL     1      -9.709  45.653 -28.026  1.00  0.00    -0.263 OA
BRANCH  33  35
HETATM   35  O5  UNL     1     -11.581  46.954 -28.259  1.00  0.00    -0.320 OA
BRANCH  35  36
HETATM   36  C17 UNL     1     -12.391  45.770 -28.271  1.00  0.00     0.174 C 
HETATM   37  C18 UNL     1     -13.799  46.102 -28.727  1.00  0.00     0.034 C 
ENDBRANCH  35  36
ENDBRANCH  33  35
ENDBRANCH  32  33
BRANCH  32  38
HETATM   38  C19 UNL     1      -8.764  48.455 -29.290  1.00  0.00     0.183 C 
BRANCH  38  39
HETATM   39  O6  UNL     1      -7.362  48.669 -29.061  1.00  0.00    -0.388 OA
HETATM   40  H24 UNL     1      -6.950  48.776 -29.939  1.00  0.00     0.210 HD
ENDBRANCH  38  39
BRANCH  38  41
HETATM   41  C20 UNL     1      -8.989  47.532 -30.468  1.00  0.00    -0.027 A 
HETATM   42  C21 UNL     1      -8.000  46.641 -30.910  1.00  0.00     0.010 A 
HETATM   43  C22 UNL     1      -8.227  45.813 -32.010  1.00  0.00     0.001 A 
HETATM   44  C23 UNL     1      -9.438  45.876 -32.693  1.00  0.00     0.000 A 
HETATM   45  C24 UNL     1     -10.431  46.753 -32.265  1.00  0.00     0.001 A 
HETATM   46  C25 UNL     1     -10.210  47.572 -31.157  1.00  0.00     0.010 A 
ENDBRANCH  38  41
ENDBRANCH  32  38
ENDBRANCH  30  32
ENDBRANCH  27  28
ENDBRANCH  26  27
ENDBRANCH  13  26
TORSDOF 11
ENDMDL
