MODEL 1
REMARK minimizedAffinity -8.13464546
REMARK CNNscore 0.315024734
REMARK CNNaffinity 7.18674612
REMARK  12 active torsions:
REMARK  status: ('A' for Active; 'I' for Inactive)
REMARK    1  A    between atoms: C3_3  and  O1_4 
REMARK    2  A    between atoms: N1_14  and  O2_16 
REMARK    3  A    between atoms: O2_16  and  C13_17 
REMARK    4  A    between atoms: C13_17  and  C14_18 
REMARK       I    between atoms: C14_18  and  N2_20 
REMARK    5  A    between atoms: N2_20  and  C15_21 
REMARK    6  A    between atoms: C15_21  and  C16_22 
REMARK    7  A    between atoms: C15_21  and  C26_36 
REMARK       I    between atoms: C16_22  and  N3_24 
REMARK    8  A    between atoms: N3_24  and  C17_25 
REMARK    9  A    between atoms: C17_25  and  C18_26 
REMARK   10  A    between atoms: C17_25  and  C25_33 
REMARK   11  A    between atoms: C18_26  and  C19_27 
REMARK   12  A    between atoms: C25_33  and  O6_35 
ROOT
HETATM    1  C1  UNL     1     -16.823   8.015  14.410  1.00  0.00     0.015 C 
HETATM    2  C2  UNL     1     -15.773   8.122  13.834  1.00  0.00    -0.078 C 
HETATM    3  C3  UNL     1     -14.474   8.272  13.135  1.00  0.00     0.128 C 
HETATM    4  C4  UNL     1     -14.115   9.757  13.065  1.00  0.00     0.052 C 
HETATM    5  C5  UNL     1     -13.530  10.074  14.435  1.00  0.00     0.010 C 
HETATM    6  C6  UNL     1     -12.900   8.758  14.946  1.00  0.00     0.002 C 
HETATM    7  C7  UNL     1     -11.398   8.846  15.362  1.00  0.00    -0.004 C 
HETATM    8  C8  UNL     1     -10.544   9.952  14.701  1.00  0.00     0.010 C 
HETATM    9  C9  UNL     1      -9.091   9.951  15.191  1.00  0.00     0.035 C 
HETATM   10  C10 UNL     1      -8.450   8.585  15.135  1.00  0.00    -0.069 C 
HETATM   11  C11 UNL     1      -7.270   8.420  14.516  1.00  0.00     0.030 C 
HETATM   12  C12 UNL     1      -6.685   7.058  14.359  1.00  0.00     0.032 C 
HETATM   13  N1  UNL     1      -5.400   6.959  14.169  1.00  0.00    -0.271 N 
ATOM     14  H1  UNL     1      -4.772   7.760  14.117  1.00  0.00     0.194 HD
HETATM   15  C29 UNL     1      -7.660   5.908  14.431  1.00  0.00     0.060 C 
HETATM   16  C30 UNL     1      -8.559   6.066  15.648  1.00  0.00     0.020 C 
HETATM   17  C31 UNL     1      -9.242   7.464  15.796  1.00  0.00    -0.016 C 
HETATM   18  C32 UNL     1      -9.299   7.709  17.339  1.00  0.00     0.020 C 
HETATM   19  C33 UNL     1     -10.700   7.464  15.214  1.00  0.00     0.002 C 
HETATM   20  C34 UNL     1     -10.775   6.982  13.745  1.00  0.00     0.007 C 
HETATM   21  C35 UNL     1     -12.053   7.384  12.995  1.00  0.00     0.014 C 
HETATM   22  C36 UNL     1     -13.269   7.645  13.910  1.00  0.00     0.003 C 
HETATM   23  C37 UNL     1     -13.685   6.309  14.572  1.00  0.00     0.020 C 
ENDROOT
BRANCH   3  24
HETATM   24  O1  UNL     1     -14.618   7.703  11.842  1.00  0.00    -0.377 OA
HETATM   25  H2  UNL     1     -14.063   8.201  11.220  1.00  0.00     0.211 HD
ENDBRANCH   3  24
BRANCH  13  26
HETATM   26  O2  UNL     1      -4.977   5.629  14.045  1.00  0.00    -0.271 OA
BRANCH  26  27
HETATM   27  C13 UNL     1      -3.567   5.556  14.232  1.00  0.00     0.303 C 
BRANCH  27  28
HETATM   28  C14 UNL     1      -2.845   6.612  13.414  1.00  0.00     0.244 C 
HETATM   29  O3  UNL     1      -3.459   7.467  12.769  1.00  0.00    -0.271 OA
HETATM   30  N2  UNL     1      -1.465   6.487  13.389  1.00  0.00    -0.346 N 
HETATM   31  H16 UNL     1      -1.070   5.996  14.190  1.00  0.00     0.163 HD
BRANCH  30  32
HETATM   32  C15 UNL     1      -0.652   7.527  12.775  1.00  0.00     0.180 C 
BRANCH  32  33
HETATM   33  C16 UNL     1       0.477   7.882  13.763  1.00  0.00     0.241 C 
HETATM   34  O4  UNL     1       0.484   8.925  14.414  1.00  0.00    -0.271 OA
HETATM   35  N3  UNL     1       1.438   6.904  13.909  1.00  0.00    -0.345 N 
HETATM   36  H18 UNL     1       1.488   6.218  13.162  1.00  0.00     0.163 HD
BRANCH  35  37
HETATM   37  C17 UNL     1       2.773   7.274  14.402  1.00  0.00     0.186 C 
BRANCH  37  38
HETATM   38  C18 UNL     1       3.485   8.305  13.506  1.00  0.00     0.074 C 
BRANCH  38  39
HETATM   39  C19 UNL     1       4.939   8.008  13.228  1.00  0.00    -0.056 A 
HETATM   40  C20 UNL     1       5.798   7.723  14.301  1.00  0.00     0.007 A 
HETATM   41  C21 UNL     1       7.134   7.388  14.077  1.00  0.00     0.001 A 
HETATM   42  C22 UNL     1       7.619   7.332  12.775  1.00  0.00     0.000 A 
HETATM   43  C23 UNL     1       6.776   7.621  11.703  1.00  0.00     0.001 A 
HETATM   44  C24 UNL     1       5.440   7.965  11.929  1.00  0.00     0.007 A 
ENDBRANCH  38  39
ENDBRANCH  37  38
BRANCH  37  45
HETATM   45  C25 UNL     1       2.651   7.787  15.835  1.00  0.00     0.163 C 
HETATM   46  O5  UNL     1       3.106   8.838  16.262  1.00  0.00    -0.648 OA
BRANCH  45  47
HETATM   47  O6  UNL     1       1.933   6.961  16.649  1.00  0.00    -0.775 OA
HETATM   48  H27 UNL     1       2.035   7.353  17.538  1.00  0.00     0.167 HD
ENDBRANCH  45  47
ENDBRANCH  37  45
ENDBRANCH  35  37
ENDBRANCH  32  33
BRANCH  32  49
HETATM   49  C26 UNL     1      -0.155   7.114  11.375  1.00  0.00     0.009 C 
HETATM   50  C27 UNL     1       0.272   5.647  11.278  1.00  0.00     0.012 C 
HETATM   51  C28 UNL     1       0.997   8.014  10.897  1.00  0.00     0.012 C 
ENDBRANCH  32  49
ENDBRANCH  30  32
ENDBRANCH  27  28
ENDBRANCH  26  27
ENDBRANCH  13  26
TORSDOF 12
ENDMDL
MODEL 2
REMARK minimizedAffinity -10.008872
REMARK CNNscore 0.271257579
REMARK CNNaffinity 7.39590693
REMARK  12 active torsions:
REMARK  status: ('A' for Active; 'I' for Inactive)
REMARK    1  A    between atoms: C3_3  and  O1_4 
REMARK    2  A    between atoms: N1_14  and  O2_16 
REMARK    3  A    between atoms: O2_16  and  C13_17 
REMARK    4  A    between atoms: C13_17  and  C14_18 
REMARK       I    between atoms: C14_18  and  N2_20 
REMARK    5  A    between atoms: N2_20  and  C15_21 
REMARK    6  A    between atoms: C15_21  and  C16_22 
REMARK    7  A    between atoms: C15_21  and  C26_36 
REMARK       I    between atoms: C16_22  and  N3_24 
REMARK    8  A    between atoms: N3_24  and  C17_25 
REMARK    9  A    between atoms: C17_25  and  C18_26 
REMARK   10  A    between atoms: C17_25  and  C25_33 
REMARK   11  A    between atoms: C18_26  and  C19_27 
REMARK   12  A    between atoms: C25_33  and  O6_35 
ROOT
HETATM    1  C1  UNL     1     -10.645   7.019  13.408  1.00  0.00     0.015 C 
HETATM    2  C2  UNL     1      -9.701   6.635  14.045  1.00  0.00    -0.078 C 
HETATM    3  C3  UNL     1      -8.529   6.153  14.813  1.00  0.00     0.128 C 
HETATM    4  C4  UNL     1      -8.036   4.841  14.198  1.00  0.00     0.052 C 
HETATM    5  C5  UNL     1      -7.201   5.271  12.999  1.00  0.00     0.010 C 
HETATM    6  C6  UNL     1      -6.633   6.665  13.351  1.00  0.00     0.002 C 
HETATM    7  C7  UNL     1      -5.082   6.806  13.250  1.00  0.00    -0.004 C 
HETATM    8  C8  UNL     1      -4.241   5.520  13.421  1.00  0.00     0.010 C 
HETATM    9  C9  UNL     1      -2.735   5.775  13.293  1.00  0.00     0.035 C 
HETATM   10  C10 UNL     1      -2.256   6.922  14.150  1.00  0.00    -0.069 C 
HETATM   11  C11 UNL     1      -1.218   6.750  14.985  1.00  0.00     0.030 C 
HETATM   12  C12 UNL     1      -0.810   7.842  15.915  1.00  0.00     0.032 C 
HETATM   13  N1  UNL     1       0.408   7.833  16.376  1.00  0.00    -0.271 N 
ATOM     14  H1  UNL     1       1.097   7.119  16.141  1.00  0.00     0.194 HD
HETATM   15  C29 UNL     1      -1.871   8.865  16.239  1.00  0.00     0.060 C 
HETATM   16  C30 UNL     1      -2.534   9.349  14.958  1.00  0.00     0.020 C 
HETATM   17  C31 UNL     1      -3.036   8.221  13.999  1.00  0.00    -0.016 C 
HETATM   18  C32 UNL     1      -2.809   8.800  12.565  1.00  0.00     0.020 C 
HETATM   19  C33 UNL     1      -4.563   7.920  14.204  1.00  0.00     0.002 C 
HETATM   20  C34 UNL     1      -4.931   7.583  15.670  1.00  0.00     0.007 C 
HETATM   21  C35 UNL     1      -6.269   6.850  15.850  1.00  0.00     0.014 C 
HETATM   22  C36 UNL     1      -7.281   7.091  14.710  1.00  0.00     0.003 C 
HETATM   23  C37 UNL     1      -7.715   8.576  14.740  1.00  0.00     0.020 C 
ENDROOT
BRANCH   3  24
HETATM   24  O1  UNL     1      -8.944   5.980  16.160  1.00  0.00    -0.377 OA
HETATM   25  H2  UNL     1      -8.453   5.235  16.544  1.00  0.00     0.211 HD
ENDBRANCH   3  24
BRANCH  13  26
HETATM   26  O2  UNL     1       0.667   8.914  17.229  1.00  0.00    -0.271 OA
BRANCH  26  27
HETATM   27  C13 UNL     1       1.792   9.643  16.751  1.00  0.00     0.303 C 
BRANCH  27  28
HETATM   28  C14 UNL     1       1.672   9.936  15.266  1.00  0.00     0.244 C 
HETATM   29  O3  UNL     1       1.379  11.059  14.846  1.00  0.00    -0.271 OA
HETATM   30  N2  UNL     1       1.835   8.835  14.440  1.00  0.00    -0.346 N 
HETATM   31  H16 UNL     1       2.388   8.081  14.844  1.00  0.00     0.163 HD
BRANCH  30  32
HETATM   32  C15 UNL     1       1.903   9.013  12.996  1.00  0.00     0.180 C 
BRANCH  32  33
HETATM   33  C16 UNL     1       3.374   8.838  12.572  1.00  0.00     0.241 C 
HETATM   34  O4  UNL     1       4.096   9.788  12.276  1.00  0.00    -0.271 OA
HETATM   35  N3  UNL     1       3.832   7.538  12.620  1.00  0.00    -0.345 N 
HETATM   36  H18 UNL     1       3.118   6.817  12.620  1.00  0.00     0.163 HD
BRANCH  35  37
HETATM   37  C17 UNL     1       4.997   7.154  11.809  1.00  0.00     0.186 C 
BRANCH  37  38
HETATM   38  C18 UNL     1       5.113   7.958  10.500  1.00  0.00     0.074 C 
BRANCH  38  39
HETATM   39  C19 UNL     1       4.074   7.625   9.455  1.00  0.00    -0.056 A 
HETATM   40  C20 UNL     1       3.551   6.324   9.400  1.00  0.00     0.007 A 
HETATM   41  C21 UNL     1       2.548   5.996   8.486  1.00  0.00     0.001 A 
HETATM   42  C22 UNL     1       2.060   6.971   7.623  1.00  0.00     0.000 A 
HETATM   43  C23 UNL     1       2.579   8.263   7.665  1.00  0.00     0.001 A 
HETATM   44  C24 UNL     1       3.589   8.589   8.575  1.00  0.00     0.007 A 
ENDBRANCH  38  39
ENDBRANCH  37  38
BRANCH  37  45
HETATM   45  C25 UNL     1       6.262   7.298  12.652  1.00  0.00     0.163 C 
HETATM   46  O5  UNL     1       6.347   7.109  13.856  1.00  0.00    -0.648 OA
BRANCH  45  47
HETATM   47  O6  UNL     1       7.364   7.644  11.925  1.00  0.00    -0.775 OA
HETATM   48  H27 UNL     1       8.053   7.806  12.598  1.00  0.00     0.167 HD
ENDBRANCH  45  47
ENDBRANCH  37  45
ENDBRANCH  35  37
ENDBRANCH  32  33
BRANCH  32  49
HETATM   49  C26 UNL     1       0.920   8.081  12.258  1.00  0.00     0.009 C 
HETATM   50  C27 UNL     1       1.311   6.603  12.311  1.00  0.00     0.012 C 
HETATM   51  C28 UNL     1       0.731   8.508  10.793  1.00  0.00     0.012 C 
ENDBRANCH  32  49
ENDBRANCH  30  32
ENDBRANCH  27  28
ENDBRANCH  26  27
ENDBRANCH  13  26
TORSDOF 12
ENDMDL
MODEL 3
REMARK minimizedAffinity -8.75935268
REMARK CNNscore 0.234920666
REMARK CNNaffinity 6.69336319
REMARK  12 active torsions:
REMARK  status: ('A' for Active; 'I' for Inactive)
REMARK    1  A    between atoms: C3_3  and  O1_4 
REMARK    2  A    between atoms: N1_14  and  O2_16 
REMARK    3  A    between atoms: O2_16  and  C13_17 
REMARK    4  A    between atoms: C13_17  and  C14_18 
REMARK       I    between atoms: C14_18  and  N2_20 
REMARK    5  A    between atoms: N2_20  and  C15_21 
REMARK    6  A    between atoms: C15_21  and  C16_22 
REMARK    7  A    between atoms: C15_21  and  C26_36 
REMARK       I    between atoms: C16_22  and  N3_24 
REMARK    8  A    between atoms: N3_24  and  C17_25 
REMARK    9  A    between atoms: C17_25  and  C18_26 
REMARK   10  A    between atoms: C17_25  and  C25_33 
REMARK   11  A    between atoms: C18_26  and  C19_27 
REMARK   12  A    between atoms: C25_33  and  O6_35 
ROOT
HETATM    1  C1  UNL     1      -6.745  17.393  23.681  1.00  0.00     0.015 C 
HETATM    2  C2  UNL     1      -6.966  16.470  22.943  1.00  0.00    -0.078 C 
HETATM    3  C3  UNL     1      -7.235  15.344  22.017  1.00  0.00     0.128 C 
HETATM    4  C4  UNL     1      -7.927  15.885  20.765  1.00  0.00     0.052 C 
HETATM    5  C5  UNL     1      -6.795  16.447  19.914  1.00  0.00     0.010 C 
HETATM    6  C6  UNL     1      -5.540  15.618  20.272  1.00  0.00     0.002 C 
HETATM    7  C7  UNL     1      -4.808  14.947  19.067  1.00  0.00    -0.004 C 
HETATM    8  C8  UNL     1      -5.651  14.642  17.808  1.00  0.00     0.010 C 
HETATM    9  C9  UNL     1      -4.830  13.995  16.687  1.00  0.00     0.035 C 
HETATM   10  C10 UNL     1      -4.011  12.818  17.159  1.00  0.00    -0.069 C 
HETATM   11  C11 UNL     1      -4.093  11.641  16.517  1.00  0.00     0.030 C 
HETATM   12  C12 UNL     1      -3.375  10.445  17.044  1.00  0.00     0.032 C 
HETATM   13  N1  UNL     1      -3.109   9.475  16.216  1.00  0.00    -0.271 N 
ATOM     14  H1  UNL     1      -3.368   9.485  15.230  1.00  0.00     0.194 HD
HETATM   15  C29 UNL     1      -3.026  10.476  18.512  1.00  0.00     0.060 C 
HETATM   16  C30 UNL     1      -2.370  11.803  18.861  1.00  0.00     0.020 C 
HETATM   17  C31 UNL     1      -3.142  13.076  18.383  1.00  0.00    -0.016 C 
HETATM   18  C32 UNL     1      -2.018  14.098  18.016  1.00  0.00     0.020 C 
HETATM   19  C33 UNL     1      -4.040  13.674  19.523  1.00  0.00     0.002 C 
HETATM   20  C34 UNL     1      -5.023  12.646  20.133  1.00  0.00     0.007 C 
HETATM   21  C35 UNL     1      -6.208  13.256  20.898  1.00  0.00     0.014 C 
HETATM   22  C36 UNL     1      -5.941  14.672  21.453  1.00  0.00     0.003 C 
HETATM   23  C37 UNL     1      -4.856  14.576  22.552  1.00  0.00     0.020 C 
ENDROOT
BRANCH   3  24
HETATM   24  O1  UNL     1      -8.052  14.411  22.708  1.00  0.00    -0.377 OA
HETATM   25  H2  UNL     1      -8.648  13.986  22.069  1.00  0.00     0.211 HD
ENDBRANCH   3  24
BRANCH  13  26
HETATM   26  O2  UNL     1      -2.426   8.417  16.831  1.00  0.00    -0.271 OA
BRANCH  26  27
HETATM   27  C13 UNL     1      -1.087   8.368  16.350  1.00  0.00     0.303 C 
BRANCH  27  28
HETATM   28  C14 UNL     1      -1.013   7.709  14.984  1.00  0.00     0.244 C 
HETATM   29  O3  UNL     1      -1.471   8.253  13.974  1.00  0.00    -0.271 OA
HETATM   30  N2  UNL     1      -0.471   6.434  14.980  1.00  0.00    -0.346 N 
HETATM   31  H16 UNL     1       0.159   6.239  15.758  1.00  0.00     0.163 HD
BRANCH  30  32
HETATM   32  C15 UNL     1      -0.198   5.764  13.716  1.00  0.00     0.180 C 
BRANCH  32  33
HETATM   33  C16 UNL     1      -1.493   5.056  13.273  1.00  0.00     0.241 C 
HETATM   34  O4  UNL     1      -2.558   5.183  13.874  1.00  0.00    -0.271 OA
HETATM   35  N3  UNL     1      -1.377   4.327  12.108  1.00  0.00    -0.345 N 
HETATM   36  H18 UNL     1      -0.431   4.073  11.837  1.00  0.00     0.163 HD
BRANCH  35  37
HETATM   37  C17 UNL     1      -2.332   3.242  11.838  1.00  0.00     0.186 C 
BRANCH  37  38
HETATM   38  C18 UNL     1      -3.560   3.705  11.030  1.00  0.00     0.074 C 
BRANCH  38  39
HETATM   39  C19 UNL     1      -4.894   3.357  11.647  1.00  0.00    -0.056 A 
HETATM   40  C20 UNL     1      -5.477   2.113  11.362  1.00  0.00     0.007 A 
HETATM   41  C21 UNL     1      -6.681   1.735  11.960  1.00  0.00     0.001 A 
HETATM   42  C22 UNL     1      -7.306   2.600  12.850  1.00  0.00     0.000 A 
HETATM   43  C23 UNL     1      -6.739   3.840  13.134  1.00  0.00     0.001 A 
HETATM   44  C24 UNL     1      -5.538   4.222  12.528  1.00  0.00     0.007 A 
ENDBRANCH  38  39
ENDBRANCH  37  38
BRANCH  37  45
HETATM   45  C25 UNL     1      -1.607   2.104  11.124  1.00  0.00     0.163 C 
HETATM   46  O5  UNL     1      -0.465   2.140  10.693  1.00  0.00    -0.648 OA
BRANCH  45  47
HETATM   47  O6  UNL     1      -2.352   0.965  11.020  1.00  0.00    -0.775 OA
HETATM   48  H27 UNL     1      -1.814   0.378  10.455  1.00  0.00     0.167 HD
ENDBRANCH  45  47
ENDBRANCH  37  45
ENDBRANCH  35  37
ENDBRANCH  32  33
BRANCH  32  49
HETATM   49  C26 UNL     1       0.379   6.735  12.666  1.00  0.00     0.009 C 
HETATM   50  C27 UNL     1      -0.548   6.977  11.473  1.00  0.00     0.012 C 
HETATM   51  C28 UNL     1       1.753   6.267  12.160  1.00  0.00     0.012 C 
ENDBRANCH  32  49
ENDBRANCH  30  32
ENDBRANCH  27  28
ENDBRANCH  26  27
ENDBRANCH  13  26
TORSDOF 12
ENDMDL
MODEL 4
REMARK minimizedAffinity -9.5276432
REMARK CNNscore 0.217099562
REMARK CNNaffinity 6.90695715
REMARK  12 active torsions:
REMARK  status: ('A' for Active; 'I' for Inactive)
REMARK    1  A    between atoms: C3_3  and  O1_4 
REMARK    2  A    between atoms: N1_14  and  O2_16 
REMARK    3  A    between atoms: O2_16  and  C13_17 
REMARK    4  A    between atoms: C13_17  and  C14_18 
REMARK       I    between atoms: C14_18  and  N2_20 
REMARK    5  A    between atoms: N2_20  and  C15_21 
REMARK    6  A    between atoms: C15_21  and  C16_22 
REMARK    7  A    between atoms: C15_21  and  C26_36 
REMARK       I    between atoms: C16_22  and  N3_24 
REMARK    8  A    between atoms: N3_24  and  C17_25 
REMARK    9  A    between atoms: C17_25  and  C18_26 
REMARK   10  A    between atoms: C17_25  and  C25_33 
REMARK   11  A    between atoms: C18_26  and  C19_27 
REMARK   12  A    between atoms: C25_33  and  O6_35 
ROOT
HETATM    1  C1  UNL     1     -10.054   6.593  13.553  1.00  0.00     0.015 C 
HETATM    2  C2  UNL     1      -9.075   6.200  14.131  1.00  0.00    -0.078 C 
HETATM    3  C3  UNL     1      -7.862   5.708  14.825  1.00  0.00     0.128 C 
HETATM    4  C4  UNL     1      -7.386   4.424  14.144  1.00  0.00     0.052 C 
HETATM    5  C5  UNL     1      -6.615   4.903  12.920  1.00  0.00     0.010 C 
HETATM    6  C6  UNL     1      -6.046   6.292  13.290  1.00  0.00     0.002 C 
HETATM    7  C7  UNL     1      -4.503   6.456  13.119  1.00  0.00    -0.004 C 
HETATM    8  C8  UNL     1      -3.641   5.175  13.206  1.00  0.00     0.010 C 
HETATM    9  C9  UNL     1      -2.146   5.454  13.013  1.00  0.00     0.035 C 
HETATM   10  C10 UNL     1      -1.638   6.578  13.883  1.00  0.00    -0.069 C 
HETATM   11  C11 UNL     1      -0.558   6.393  14.660  1.00  0.00     0.030 C 
HETATM   12  C12 UNL     1      -0.118   7.458  15.605  1.00  0.00     0.032 C 
HETATM   13  N1  UNL     1       1.121   7.451  16.006  1.00  0.00    -0.271 N 
ATOM     14  H1  UNL     1       1.806   6.754  15.715  1.00  0.00     0.194 HD
HETATM   15  C29 UNL     1      -1.173   8.457  16.014  1.00  0.00     0.060 C 
HETATM   16  C30 UNL     1      -1.904   8.974  14.784  1.00  0.00     0.020 C 
HETATM   17  C31 UNL     1      -2.439   7.872  13.814  1.00  0.00    -0.016 C 
HETATM   18  C32 UNL     1      -2.289   8.499  12.390  1.00  0.00     0.020 C 
HETATM   19  C33 UNL     1      -3.950   7.544  14.082  1.00  0.00     0.002 C 
HETATM   20  C34 UNL     1      -4.242   7.156  15.552  1.00  0.00     0.007 C 
HETATM   21  C35 UNL     1      -5.562   6.400  15.773  1.00  0.00     0.014 C 
HETATM   22  C36 UNL     1      -6.631   6.665  14.692  1.00  0.00     0.003 C 
HETATM   23  C37 UNL     1      -7.080   8.142  14.792  1.00  0.00     0.020 C 
ENDROOT
BRANCH   3  24
HETATM   24  O1  UNL     1      -8.209   5.486  16.184  1.00  0.00    -0.377 OA
HETATM   25  H2  UNL     1      -7.691   4.736  16.519  1.00  0.00     0.211 HD
ENDBRANCH   3  24
BRANCH  13  26
HETATM   26  O2  UNL     1       1.410   8.506  16.881  1.00  0.00    -0.271 OA
BRANCH  26  27
HETATM   27  C13 UNL     1       1.948   9.602  16.149  1.00  0.00     0.303 C 
BRANCH  27  28
HETATM   28  C14 UNL     1       3.003  10.340  16.953  1.00  0.00     0.244 C 
HETATM   29  O3  UNL     1       4.204  10.066  16.856  1.00  0.00    -0.271 OA
HETATM   30  N2  UNL     1       2.507  11.273  17.849  1.00  0.00    -0.346 N 
HETATM   31  H16 UNL     1       1.590  11.646  17.607  1.00  0.00     0.163 HD
BRANCH  30  32
HETATM   32  C15 UNL     1       3.421  12.157  18.559  1.00  0.00     0.180 C 
BRANCH  32  33
HETATM   33  C16 UNL     1       3.567  11.622  19.997  1.00  0.00     0.241 C 
HETATM   34  O4  UNL     1       3.728  10.429  20.247  1.00  0.00    -0.271 OA
HETATM   35  N3  UNL     1       3.573  12.596  20.973  1.00  0.00    -0.345 N 
HETATM   36  H18 UNL     1       3.183  13.495  20.704  1.00  0.00     0.163 HD
BRANCH  35  37
HETATM   37  C17 UNL     1       3.216  12.237  22.353  1.00  0.00     0.186 C 
BRANCH  37  38
HETATM   38  C18 UNL     1       4.406  11.688  23.162  1.00  0.00     0.074 C 
BRANCH  38  39
HETATM   39  C19 UNL     1       5.693  12.463  23.004  1.00  0.00    -0.056 A 
HETATM   40  C20 UNL     1       6.918  11.792  23.137  1.00  0.00     0.007 A 
HETATM   41  C21 UNL     1       8.126  12.464  22.941  1.00  0.00     0.001 A 
HETATM   42  C22 UNL     1       8.113  13.813  22.606  1.00  0.00     0.000 A 
HETATM   43  C23 UNL     1       6.903  14.490  22.478  1.00  0.00     0.001 A 
HETATM   44  C24 UNL     1       5.694  13.818  22.684  1.00  0.00     0.007 A 
ENDBRANCH  38  39
ENDBRANCH  37  38
BRANCH  37  45
HETATM   45  C25 UNL     1       2.601  13.452  23.043  1.00  0.00     0.163 C 
HETATM   46  O5  UNL     1       2.286  13.526  24.221  1.00  0.00    -0.648 OA
BRANCH  45  47
HETATM   47  O6  UNL     1       2.444  14.526  22.214  1.00  0.00    -0.775 OA
HETATM   48  H27 UNL     1       1.948  15.172  22.753  1.00  0.00     0.167 HD
ENDBRANCH  45  47
ENDBRANCH  37  45
ENDBRANCH  35  37
ENDBRANCH  32  33
BRANCH  32  49
HETATM   49  C26 UNL     1       4.759  12.319  17.810  1.00  0.00     0.009 C 
HETATM   50  C27 UNL     1       5.978  12.407  18.731  1.00  0.00     0.012 C 
HETATM   51  C28 UNL     1       4.737  13.538  16.873  1.00  0.00     0.012 C 
ENDBRANCH  32  49
ENDBRANCH  30  32
ENDBRANCH  27  28
ENDBRANCH  26  27
ENDBRANCH  13  26
TORSDOF 12
ENDMDL
MODEL 5
REMARK minimizedAffinity -9.37658215
REMARK CNNscore 0.200114578
REMARK CNNaffinity 6.80805016
REMARK  12 active torsions:
REMARK  status: ('A' for Active; 'I' for Inactive)
REMARK    1  A    between atoms: C3_3  and  O1_4 
REMARK    2  A    between atoms: N1_14  and  O2_16 
REMARK    3  A    between atoms: O2_16  and  C13_17 
REMARK    4  A    between atoms: C13_17  and  C14_18 
REMARK       I    between atoms: C14_18  and  N2_20 
REMARK    5  A    between atoms: N2_20  and  C15_21 
REMARK    6  A    between atoms: C15_21  and  C16_22 
REMARK    7  A    between atoms: C15_21  and  C26_36 
REMARK       I    between atoms: C16_22  and  N3_24 
REMARK    8  A    between atoms: N3_24  and  C17_25 
REMARK    9  A    between atoms: C17_25  and  C18_26 
REMARK   10  A    between atoms: C17_25  and  C25_33 
REMARK   11  A    between atoms: C18_26  and  C19_27 
REMARK   12  A    between atoms: C25_33  and  O6_35 
ROOT
HETATM    1  C1  UNL     1     -10.247   6.966  13.882  1.00  0.00     0.015 C 
HETATM    2  C2  UNL     1      -9.263   6.445  14.334  1.00  0.00    -0.078 C 
HETATM    3  C3  UNL     1      -8.044   5.797  14.873  1.00  0.00     0.128 C 
HETATM    4  C4  UNL     1      -7.689   4.596  13.995  1.00  0.00     0.052 C 
HETATM    5  C5  UNL     1      -6.963   5.198  12.798  1.00  0.00     0.010 C 
HETATM    6  C6  UNL     1      -6.288   6.490  13.314  1.00  0.00     0.002 C 
HETATM    7  C7  UNL     1      -4.750   6.593  13.064  1.00  0.00    -0.004 C 
HETATM    8  C8  UNL     1      -3.966   5.269  12.920  1.00  0.00     0.010 C 
HETATM    9  C9  UNL     1      -2.470   5.491  12.668  1.00  0.00     0.035 C 
HETATM   10  C10 UNL     1      -1.843   6.455  13.646  1.00  0.00    -0.069 C 
HETATM   11  C11 UNL     1      -0.734   6.106  14.317  1.00  0.00     0.030 C 
HETATM   12  C12 UNL     1      -0.174   7.006  15.366  1.00  0.00     0.032 C 
HETATM   13  N1  UNL     1       1.084   6.876  15.678  1.00  0.00    -0.271 N 
ATOM     14  H1  UNL     1       1.706   6.191  15.251  1.00  0.00     0.194 HD
HETATM   15  C29 UNL     1      -1.139   7.993  15.975  1.00  0.00     0.060 C 
HETATM   16  C30 UNL     1      -1.907   8.713  14.877  1.00  0.00     0.020 C 
HETATM   17  C31 UNL     1      -2.566   7.787  13.805  1.00  0.00    -0.016 C 
HETATM   18  C32 UNL     1      -2.460   8.597  12.472  1.00  0.00     0.020 C 
HETATM   19  C33 UNL     1      -4.076   7.507  14.127  1.00  0.00     0.002 C 
HETATM   20  C34 UNL     1      -4.305   6.934  15.547  1.00  0.00     0.007 C 
HETATM   21  C35 UNL     1      -5.653   6.227  15.751  1.00  0.00     0.014 C 
HETATM   22  C36 UNL     1      -6.766   6.696  14.789  1.00  0.00     0.003 C 
HETATM   23  C37 UNL     1      -7.115   8.167  15.118  1.00  0.00     0.020 C 
ENDROOT
BRANCH   3  24
HETATM   24  O1  UNL     1      -8.323   5.408  16.210  1.00  0.00    -0.377 OA
HETATM   25  H2  UNL     1      -7.834   4.591  16.405  1.00  0.00     0.211 HD
ENDBRANCH   3  24
BRANCH  13  26
HETATM   26  O2  UNL     1       1.488   7.783  16.667  1.00  0.00    -0.271 OA
BRANCH  26  27
HETATM   27  C13 UNL     1       2.556   8.585  16.174  1.00  0.00     0.303 C 
BRANCH  27  28
HETATM   28  C14 UNL     1       2.327  10.056  16.473  1.00  0.00     0.244 C 
HETATM   29  O3  UNL     1       1.191  10.528  16.585  1.00  0.00    -0.271 OA
HETATM   30  N2  UNL     1       3.478  10.826  16.527  1.00  0.00    -0.346 N 
HETATM   31  H16 UNL     1       4.323  10.307  16.760  1.00  0.00     0.163 HD
BRANCH  30  32
HETATM   32  C15 UNL     1       3.405  12.213  16.965  1.00  0.00     0.180 C 
BRANCH  32  33
HETATM   33  C16 UNL     1       4.239  12.342  18.254  1.00  0.00     0.241 C 
HETATM   34  O4  UNL     1       5.442  12.094  18.293  1.00  0.00    -0.271 OA
HETATM   35  N3  UNL     1       3.541  12.826  19.341  1.00  0.00    -0.345 N 
HETATM   36  H18 UNL     1       2.529  12.755  19.285  1.00  0.00     0.163 HD
BRANCH  35  37
HETATM   37  C17 UNL     1       4.035  12.546  20.697  1.00  0.00     0.186 C 
BRANCH  37  38
HETATM   38  C18 UNL     1       4.537  11.101  20.871  1.00  0.00     0.074 C 
BRANCH  38  39
HETATM   39  C19 UNL     1       3.754  10.271  21.862  1.00  0.00    -0.056 A 
HETATM   40  C20 UNL     1       3.766  10.632  23.218  1.00  0.00     0.007 A 
HETATM   41  C21 UNL     1       3.008   9.923  24.152  1.00  0.00     0.001 A 
HETATM   42  C22 UNL     1       2.230   8.850  23.732  1.00  0.00     0.000 A 
HETATM   43  C23 UNL     1       2.218   8.479  22.389  1.00  0.00     0.001 A 
HETATM   44  C24 UNL     1       2.984   9.184  21.456  1.00  0.00     0.007 A 
ENDBRANCH  38  39
ENDBRANCH  37  38
BRANCH  37  45
HETATM   45  C25 UNL     1       5.130  13.551  21.047  1.00  0.00     0.163 C 
HETATM   46  O5  UNL     1       6.205  13.289  21.566  1.00  0.00    -0.648 OA
BRANCH  45  47
HETATM   47  O6  UNL     1       4.824  14.833  20.694  1.00  0.00    -0.775 OA
HETATM   48  H27 UNL     1       5.550  15.365  21.073  1.00  0.00     0.167 HD
ENDBRANCH  45  47
ENDBRANCH  37  45
ENDBRANCH  35  37
ENDBRANCH  32  33
BRANCH  32  49
HETATM   49  C26 UNL     1       3.823  13.188  15.845  1.00  0.00     0.009 C 
HETATM   50  C27 UNL     1       4.159  14.595  16.344  1.00  0.00     0.012 C 
HETATM   51  C28 UNL     1       2.751  13.279  14.746  1.00  0.00     0.012 C 
ENDBRANCH  32  49
ENDBRANCH  30  32
ENDBRANCH  27  28
ENDBRANCH  26  27
ENDBRANCH  13  26
TORSDOF 12
ENDMDL
MODEL 6
REMARK minimizedAffinity -8.68513298
REMARK CNNscore 0.197761893
REMARK CNNaffinity 7.09905815
REMARK  12 active torsions:
REMARK  status: ('A' for Active; 'I' for Inactive)
REMARK    1  A    between atoms: C3_3  and  O1_4 
REMARK    2  A    between atoms: N1_14  and  O2_16 
REMARK    3  A    between atoms: O2_16  and  C13_17 
REMARK    4  A    between atoms: C13_17  and  C14_18 
REMARK       I    between atoms: C14_18  and  N2_20 
REMARK    5  A    between atoms: N2_20  and  C15_21 
REMARK    6  A    between atoms: C15_21  and  C16_22 
REMARK    7  A    between atoms: C15_21  and  C26_36 
REMARK       I    between atoms: C16_22  and  N3_24 
REMARK    8  A    between atoms: N3_24  and  C17_25 
REMARK    9  A    between atoms: C17_25  and  C18_26 
REMARK   10  A    between atoms: C17_25  and  C25_33 
REMARK   11  A    between atoms: C18_26  and  C19_27 
REMARK   12  A    between atoms: C25_33  and  O6_35 
ROOT
HETATM    1  C1  UNL     1       0.895   8.557  14.448  1.00  0.00     0.015 C 
HETATM    2  C2  UNL     1      -0.103   8.480  13.782  1.00  0.00    -0.078 C 
HETATM    3  C3  UNL     1      -1.331   8.364  12.960  1.00  0.00     0.128 C 
HETATM    4  C4  UNL     1      -1.249   7.088  12.120  1.00  0.00     0.052 C 
HETATM    5  C5  UNL     1      -1.659   5.974  13.074  1.00  0.00     0.010 C 
HETATM    6  C6  UNL     1      -2.620   6.620  14.099  1.00  0.00     0.002 C 
HETATM    7  C7  UNL     1      -4.014   5.933  14.244  1.00  0.00    -0.004 C 
HETATM    8  C8  UNL     1      -4.539   5.135  13.028  1.00  0.00     0.010 C 
HETATM    9  C9  UNL     1      -5.909   4.496  13.287  1.00  0.00     0.035 C 
HETATM   10  C10 UNL     1      -6.918   5.468  13.848  1.00  0.00    -0.069 C 
HETATM   11  C11 UNL     1      -8.121   5.600  13.265  1.00  0.00     0.030 C 
HETATM   12  C12 UNL     1      -9.080   6.637  13.743  1.00  0.00     0.032 C 
HETATM   13  N1  UNL     1     -10.346   6.468  13.485  1.00  0.00    -0.271 N 
ATOM     14  H1  UNL     1     -10.717   5.671  12.970  1.00  0.00     0.194 HD
HETATM   15  C29 UNL     1      -8.477   7.802  14.488  1.00  0.00     0.060 C 
HETATM   16  C30 UNL     1      -7.519   7.296  15.556  1.00  0.00     0.020 C 
HETATM   17  C31 UNL     1      -6.456   6.261  15.064  1.00  0.00    -0.016 C 
HETATM   18  C32 UNL     1      -6.266   5.291  16.274  1.00  0.00     0.020 C 
HETATM   19  C33 UNL     1      -5.086   6.949  14.727  1.00  0.00     0.002 C 
HETATM   20  C34 UNL     1      -5.216   8.112  13.713  1.00  0.00     0.007 C 
HETATM   21  C35 UNL     1      -3.909   8.509  13.010  1.00  0.00     0.014 C 
HETATM   22  C36 UNL     1      -2.632   8.157  13.804  1.00  0.00     0.003 C 
HETATM   23  C37 UNL     1      -2.592   9.024  15.085  1.00  0.00     0.020 C 
ENDROOT
BRANCH   3  24
HETATM   24  O1  UNL     1      -1.412   9.525  12.149  1.00  0.00    -0.377 OA
HETATM   25  H2  UNL     1      -1.826   9.286  11.303  1.00  0.00     0.211 HD
ENDBRANCH   3  24
BRANCH  13  26
HETATM   26  O2  UNL     1     -11.140   7.504  13.994  1.00  0.00    -0.271 OA
BRANCH  26  27
HETATM   27  C13 UNL     1     -11.725   8.231  12.919  1.00  0.00     0.303 C 
BRANCH  27  28
HETATM   28  C14 UNL     1     -13.241   8.174  12.973  1.00  0.00     0.244 C 
HETATM   29  O3  UNL     1     -13.840   7.194  13.427  1.00  0.00    -0.271 OA
HETATM   30  N2  UNL     1     -13.886   9.260  12.404  1.00  0.00    -0.346 N 
HETATM   31  H16 UNL     1     -13.334  10.117  12.383  1.00  0.00     0.163 HD
BRANCH  30  32
HETATM   32  C15 UNL     1     -15.330   9.400  12.536  1.00  0.00     0.180 C 
BRANCH  32  33
HETATM   33  C16 UNL     1     -15.971   8.071  12.093  1.00  0.00     0.241 C 
HETATM   34  O4  UNL     1     -15.694   7.523  11.028  1.00  0.00    -0.271 OA
HETATM   35  N3  UNL     1     -16.826   7.511  13.019  1.00  0.00    -0.345 N 
HETATM   36  H18 UNL     1     -17.184   8.142  13.730  1.00  0.00     0.163 HD
BRANCH  35  37
HETATM   37  C17 UNL     1     -17.850   6.556  12.570  1.00  0.00     0.186 C 
BRANCH  37  38
HETATM   38  C18 UNL     1     -18.227   5.522  13.648  1.00  0.00     0.074 C 
BRANCH  38  39
HETATM   39  C19 UNL     1     -18.204   4.084  13.185  1.00  0.00    -0.056 A 
HETATM   40  C20 UNL     1     -19.193   3.634  12.297  1.00  0.00     0.007 A 
HETATM   41  C21 UNL     1     -19.170   2.329  11.804  1.00  0.00     0.001 A 
HETATM   42  C22 UNL     1     -18.151   1.466  12.193  1.00  0.00     0.000 A 
HETATM   43  C23 UNL     1     -17.168   1.901  13.079  1.00  0.00     0.001 A 
HETATM   44  C24 UNL     1     -17.198   3.206  13.581  1.00  0.00     0.007 A 
ENDBRANCH  38  39
ENDBRANCH  37  38
BRANCH  37  45
HETATM   45  C25 UNL     1     -19.081   7.328  12.101  1.00  0.00     0.163 C 
HETATM   46  O5  UNL     1     -19.260   7.779  10.979  1.00  0.00    -0.648 OA
BRANCH  45  47
HETATM   47  O6  UNL     1     -20.037   7.465  13.065  1.00  0.00    -0.775 OA
HETATM   48  H27 UNL     1     -20.697   8.063  12.663  1.00  0.00     0.167 HD
ENDBRANCH  45  47
ENDBRANCH  37  45
ENDBRANCH  35  37
ENDBRANCH  32  33
BRANCH  32  49
HETATM   49  C26 UNL     1     -15.734   9.851  13.955  1.00  0.00     0.009 C 
HETATM   50  C27 UNL     1     -14.598  10.508  14.742  1.00  0.00     0.012 C 
HETATM   51  C28 UNL     1     -16.315   8.685  14.772  1.00  0.00     0.012 C 
ENDBRANCH  32  49
ENDBRANCH  30  32
ENDBRANCH  27  28
ENDBRANCH  26  27
ENDBRANCH  13  26
TORSDOF 12
ENDMDL
MODEL 7
REMARK minimizedAffinity -8.23073292
REMARK CNNscore 0.194257885
REMARK CNNaffinity 6.61067724
REMARK  12 active torsions:
REMARK  status: ('A' for Active; 'I' for Inactive)
REMARK    1  A    between atoms: C3_3  and  O1_4 
REMARK    2  A    between atoms: N1_14  and  O2_16 
REMARK    3  A    between atoms: O2_16  and  C13_17 
REMARK    4  A    between atoms: C13_17  and  C14_18 
REMARK       I    between atoms: C14_18  and  N2_20 
REMARK    5  A    between atoms: N2_20  and  C15_21 
REMARK    6  A    between atoms: C15_21  and  C16_22 
REMARK    7  A    between atoms: C15_21  and  C26_36 
REMARK       I    between atoms: C16_22  and  N3_24 
REMARK    8  A    between atoms: N3_24  and  C17_25 
REMARK    9  A    between atoms: C17_25  and  C18_26 
REMARK   10  A    between atoms: C17_25  and  C25_33 
REMARK   11  A    between atoms: C18_26  and  C19_27 
REMARK   12  A    between atoms: C25_33  and  O6_35 
ROOT
HETATM    1  C1  UNL     1      -6.370   6.639  13.624  1.00  0.00     0.015 C 
HETATM    2  C2  UNL     1      -5.275   6.419  14.068  1.00  0.00    -0.078 C 
HETATM    3  C3  UNL     1      -3.920   6.136  14.597  1.00  0.00     0.128 C 
HETATM    4  C4  UNL     1      -3.490   4.740  14.143  1.00  0.00     0.052 C 
HETATM    5  C5  UNL     1      -3.001   4.936  12.714  1.00  0.00     0.010 C 
HETATM    6  C6  UNL     1      -2.473   6.387  12.638  1.00  0.00     0.002 C 
HETATM    7  C7  UNL     1      -1.006   6.546  12.129  1.00  0.00    -0.004 C 
HETATM    8  C8  UNL     1      -0.054   5.345  12.328  1.00  0.00     0.010 C 
HETATM    9  C9  UNL     1       1.354   5.609  11.782  1.00  0.00     0.035 C 
HETATM   10  C10 UNL     1       1.936   6.919  12.256  1.00  0.00    -0.069 C 
HETATM   11  C11 UNL     1       3.153   6.950  12.822  1.00  0.00     0.030 C 
HETATM   12  C12 UNL     1       3.686   8.220  13.394  1.00  0.00     0.032 C 
HETATM   13  N1  UNL     1       4.976   8.338  13.529  1.00  0.00    -0.271 N 
ATOM     14  H1  UNL     1       5.642   7.610  13.272  1.00  0.00     0.194 HD
HETATM   15  C29 UNL     1       2.658   9.259  13.769  1.00  0.00     0.060 C 
HETATM   16  C30 UNL     1       1.673   9.452  12.626  1.00  0.00     0.020 C 
HETATM   17  C31 UNL     1       1.044   8.139  12.057  1.00  0.00    -0.016 C 
HETATM   18  C32 UNL     1       0.878   8.416  10.528  1.00  0.00     0.020 C 
HETATM   19  C33 UNL     1      -0.361   7.845  12.690  1.00  0.00     0.002 C 
HETATM   20  C34 UNL     1      -0.341   7.807  14.238  1.00  0.00     0.007 C 
HETATM   21  C35 UNL     1      -1.538   7.091  14.884  1.00  0.00     0.014 C 
HETATM   22  C36 UNL     1      -2.808   7.066  14.008  1.00  0.00     0.003 C 
HETATM   23  C37 UNL     1      -3.335   8.513  13.859  1.00  0.00     0.020 C 
ENDROOT
BRANCH   3  24
HETATM   24  O1  UNL     1      -3.987   6.232  16.012  1.00  0.00    -0.377 OA
HETATM   25  H2  UNL     1      -3.363   5.595  16.398  1.00  0.00     0.211 HD
ENDBRANCH   3  24
BRANCH  13  26
HETATM   26  O2  UNL     1       5.348   9.577  14.067  1.00  0.00    -0.271 OA
BRANCH  26  27
HETATM   27  C13 UNL     1       5.326   9.508  15.489  1.00  0.00     0.303 C 
BRANCH  27  28
HETATM   28  C14 UNL     1       6.669   9.893  16.082  1.00  0.00     0.244 C 
HETATM   29  O3  UNL     1       6.945   9.672  17.266  1.00  0.00    -0.271 OA
HETATM   30  N2  UNL     1       7.514  10.573  15.220  1.00  0.00    -0.346 N 
HETATM   31  H16 UNL     1       7.341  10.397  14.231  1.00  0.00     0.163 HD
BRANCH  30  32
HETATM   32  C15 UNL     1       8.888  10.853  15.617  1.00  0.00     0.180 C 
BRANCH  32  33
HETATM   33  C16 UNL     1       8.845  11.529  17.001  1.00  0.00     0.241 C 
HETATM   34  O4  UNL     1       8.107  12.478  17.253  1.00  0.00    -0.271 OA
HETATM   35  N3  UNL     1       9.650  10.937  17.952  1.00  0.00    -0.345 N 
HETATM   36  H18 UNL     1      10.394  10.345  17.596  1.00  0.00     0.163 HD
BRANCH  35  37
HETATM   37  C17 UNL     1      10.085  11.721  19.118  1.00  0.00     0.186 C 
BRANCH  37  38
HETATM   38  C18 UNL     1       9.177  11.531  20.348  1.00  0.00     0.074 C 
BRANCH  38  39
HETATM   39  C19 UNL     1       8.959  12.775  21.175  1.00  0.00    -0.056 A 
HETATM   40  C20 UNL     1       8.426  12.655  22.468  1.00  0.00     0.007 A 
HETATM   41  C21 UNL     1       8.265  13.778  23.281  1.00  0.00     0.001 A 
HETATM   42  C22 UNL     1       8.642  15.029  22.807  1.00  0.00     0.000 A 
HETATM   43  C23 UNL     1       9.166  15.160  21.523  1.00  0.00     0.001 A 
HETATM   44  C24 UNL     1       9.319  14.036  20.705  1.00  0.00     0.007 A 
ENDBRANCH  38  39
ENDBRANCH  37  38
BRANCH  37  45
HETATM   45  C25 UNL     1      11.532  11.365  19.447  1.00  0.00     0.163 C 
HETATM   46  O5  UNL     1      12.384  12.135  19.863  1.00  0.00    -0.648 OA
BRANCH  45  47
HETATM   47  O6  UNL     1      11.822  10.044  19.264  1.00  0.00    -0.775 OA
HETATM   48  H27 UNL     1      12.788   9.989  19.401  1.00  0.00     0.167 HD
ENDBRANCH  45  47
ENDBRANCH  37  45
ENDBRANCH  35  37
ENDBRANCH  32  33
BRANCH  32  49
HETATM   49  C26 UNL     1       9.768   9.588  15.562  1.00  0.00     0.009 C 
HETATM   50  C27 UNL     1       9.715   8.855  14.220  1.00  0.00     0.012 C 
HETATM   51  C28 UNL     1       9.418   8.607  16.694  1.00  0.00     0.012 C 
ENDBRANCH  32  49
ENDBRANCH  30  32
ENDBRANCH  27  28
ENDBRANCH  26  27
ENDBRANCH  13  26
TORSDOF 12
ENDMDL
MODEL 8
REMARK minimizedAffinity -8.0814085
REMARK CNNscore 0.192992806
REMARK CNNaffinity 6.7675395
REMARK  12 active torsions:
REMARK  status: ('A' for Active; 'I' for Inactive)
REMARK    1  A    between atoms: C3_3  and  O1_4 
REMARK    2  A    between atoms: N1_14  and  O2_16 
REMARK    3  A    between atoms: O2_16  and  C13_17 
REMARK    4  A    between atoms: C13_17  and  C14_18 
REMARK       I    between atoms: C14_18  and  N2_20 
REMARK    5  A    between atoms: N2_20  and  C15_21 
REMARK    6  A    between atoms: C15_21  and  C16_22 
REMARK    7  A    between atoms: C15_21  and  C26_36 
REMARK       I    between atoms: C16_22  and  N3_24 
REMARK    8  A    between atoms: N3_24  and  C17_25 
REMARK    9  A    between atoms: C17_25  and  C18_26 
REMARK   10  A    between atoms: C17_25  and  C25_33 
REMARK   11  A    between atoms: C18_26  and  C19_27 
REMARK   12  A    between atoms: C25_33  and  O6_35 
ROOT
HETATM    1  C1  UNL     1      -7.104  17.042  24.708  1.00  0.00     0.015 C 
HETATM    2  C2  UNL     1      -7.246  16.117  23.954  1.00  0.00    -0.078 C 
HETATM    3  C3  UNL     1      -7.426  14.989  23.009  1.00  0.00     0.128 C 
HETATM    4  C4  UNL     1      -8.526  15.349  22.009  1.00  0.00     0.052 C 
HETATM    5  C5  UNL     1      -7.834  16.234  20.980  1.00  0.00     0.010 C 
HETATM    6  C6  UNL     1      -6.355  15.785  20.955  1.00  0.00     0.002 C 
HETATM    7  C7  UNL     1      -5.794  15.386  19.554  1.00  0.00    -0.004 C 
HETATM    8  C8  UNL     1      -6.811  14.892  18.499  1.00  0.00     0.010 C 
HETATM    9  C9  UNL     1      -6.151  14.539  17.161  1.00  0.00     0.035 C 
HETATM   10  C10 UNL     1      -4.956  13.629  17.313  1.00  0.00    -0.069 C 
HETATM   11  C11 UNL     1      -4.877  12.497  16.595  1.00  0.00     0.030 C 
HETATM   12  C12 UNL     1      -3.759  11.538  16.822  1.00  0.00     0.032 C 
HETATM   13  N1  UNL     1      -3.457  10.709  15.864  1.00  0.00    -0.271 N 
ATOM     14  H1  UNL     1      -3.946  10.674  14.970  1.00  0.00     0.194 HD
HETATM   15  C29 UNL     1      -3.077  11.622  18.165  1.00  0.00     0.060 C 
HETATM   16  C30 UNL     1      -2.734  13.070  18.484  1.00  0.00     0.020 C 
HETATM   17  C31 UNL     1      -3.912  14.085  18.324  1.00  0.00    -0.016 C 
HETATM   18  C32 UNL     1      -3.231  15.395  17.811  1.00  0.00     0.020 C 
HETATM   19  C33 UNL     1      -4.625  14.370  19.693  1.00  0.00     0.002 C 
HETATM   20  C34 UNL     1      -5.113  13.087  20.409  1.00  0.00     0.007 C 
HETATM   21  C35 UNL     1      -6.189  13.313  21.483  1.00  0.00     0.014 C 
HETATM   22  C36 UNL     1      -6.181  14.729  22.098  1.00  0.00     0.003 C 
HETATM   23  C37 UNL     1      -4.872  14.911  22.903  1.00  0.00     0.020 C 
ENDROOT
BRANCH   3  24
HETATM   24  O1  UNL     1      -7.764  13.842  23.774  1.00  0.00    -0.377 OA
HETATM   25  H2  UNL     1      -8.364  13.285  23.251  1.00  0.00     0.211 HD
ENDBRANCH   3  24
BRANCH  13  26
HETATM   26  O2  UNL     1      -2.385   9.870  16.197  1.00  0.00    -0.271 OA
BRANCH  26  27
HETATM   27  C13 UNL     1      -1.414   9.896  15.156  1.00  0.00     0.303 C 
BRANCH  27  28
HETATM   28  C14 UNL     1      -1.854   9.059  13.968  1.00  0.00     0.244 C 
HETATM   29  O3  UNL     1      -1.982   9.546  12.841  1.00  0.00    -0.271 OA
HETATM   30  N2  UNL     1      -2.171   7.743  14.268  1.00  0.00    -0.346 N 
HETATM   31  H16 UNL     1      -1.717   7.379  15.105  1.00  0.00     0.163 HD
BRANCH  30  32
HETATM   32  C15 UNL     1      -2.449   6.799  13.194  1.00  0.00     0.180 C 
BRANCH  32  33
HETATM   33  C16 UNL     1      -1.097   6.305  12.644  1.00  0.00     0.241 C 
HETATM   34  O4  UNL     1      -0.751   5.127  12.697  1.00  0.00    -0.271 OA
HETATM   35  N3  UNL     1      -0.340   7.278  12.026  1.00  0.00    -0.345 N 
HETATM   36  H18 UNL     1      -0.579   8.238  12.256  1.00  0.00     0.163 HD
BRANCH  35  37
HETATM   37  C17 UNL     1       1.113   7.091  11.903  1.00  0.00     0.186 C 
BRANCH  37  38
HETATM   38  C18 UNL     1       1.758   8.030  10.865  1.00  0.00     0.074 C 
BRANCH  38  39
HETATM   39  C19 UNL     1       1.945   7.426   9.493  1.00  0.00    -0.056 A 
HETATM   40  C20 UNL     1       1.481   8.125   8.368  1.00  0.00     0.007 A 
HETATM   41  C21 UNL     1       1.689   7.625   7.081  1.00  0.00     0.001 A 
HETATM   42  C22 UNL     1       2.366   6.422   6.913  1.00  0.00     0.000 A 
HETATM   43  C23 UNL     1       2.824   5.718   8.024  1.00  0.00     0.001 A 
HETATM   44  C24 UNL     1       2.608   6.215   9.313  1.00  0.00     0.007 A 
ENDBRANCH  38  39
ENDBRANCH  37  38
BRANCH  37  45
HETATM   45  C25 UNL     1       1.757   7.270  13.275  1.00  0.00     0.163 C 
HETATM   46  O5  UNL     1       2.274   8.293  13.698  1.00  0.00    -0.648 OA
BRANCH  45  47
HETATM   47  O6  UNL     1       1.689   6.153  14.058  1.00  0.00    -0.775 OA
HETATM   48  H27 UNL     1       2.229   6.377  14.841  1.00  0.00     0.167 HD
ENDBRANCH  45  47
ENDBRANCH  37  45
ENDBRANCH  35  37
ENDBRANCH  32  33
BRANCH  32  49
HETATM   49  C26 UNL     1      -3.391   5.669  13.656  1.00  0.00     0.009 C 
HETATM   50  C27 UNL     1      -4.083   4.933  12.507  1.00  0.00     0.012 C 
HETATM   51  C28 UNL     1      -4.451   6.187  14.643  1.00  0.00     0.012 C 
ENDBRANCH  32  49
ENDBRANCH  30  32
ENDBRANCH  27  28
ENDBRANCH  26  27
ENDBRANCH  13  26
TORSDOF 12
ENDMDL
MODEL 9
REMARK minimizedAffinity -9.72874069
REMARK CNNscore 0.188009545
REMARK CNNaffinity 7.07577372
REMARK  12 active torsions:
REMARK  status: ('A' for Active; 'I' for Inactive)
REMARK    1  A    between atoms: C3_3  and  O1_4 
REMARK    2  A    between atoms: N1_14  and  O2_16 
REMARK    3  A    between atoms: O2_16  and  C13_17 
REMARK    4  A    between atoms: C13_17  and  C14_18 
REMARK       I    between atoms: C14_18  and  N2_20 
REMARK    5  A    between atoms: N2_20  and  C15_21 
REMARK    6  A    between atoms: C15_21  and  C16_22 
REMARK    7  A    between atoms: C15_21  and  C26_36 
REMARK       I    between atoms: C16_22  and  N3_24 
REMARK    8  A    between atoms: N3_24  and  C17_25 
REMARK    9  A    between atoms: C17_25  and  C18_26 
REMARK   10  A    between atoms: C17_25  and  C25_33 
REMARK   11  A    between atoms: C18_26  and  C19_27 
REMARK   12  A    between atoms: C25_33  and  O6_35 
ROOT
HETATM    1  C1  UNL     1      -9.895   6.641  13.684  1.00  0.00     0.015 C 
HETATM    2  C2  UNL     1      -8.892   6.174  14.155  1.00  0.00    -0.078 C 
HETATM    3  C3  UNL     1      -7.649   5.593  14.716  1.00  0.00     0.128 C 
HETATM    4  C4  UNL     1      -7.164   4.471  13.796  1.00  0.00     0.052 C 
HETATM    5  C5  UNL     1      -6.439   5.190  12.665  1.00  0.00     0.010 C 
HETATM    6  C6  UNL     1      -5.890   6.501  13.274  1.00  0.00     0.002 C 
HETATM    7  C7  UNL     1      -4.356   6.735  13.100  1.00  0.00    -0.004 C 
HETATM    8  C8  UNL     1      -3.465   5.484  12.926  1.00  0.00     0.010 C 
HETATM    9  C9  UNL     1      -1.982   5.833  12.754  1.00  0.00     0.035 C 
HETATM   10  C10 UNL     1      -1.474   6.789  13.806  1.00  0.00    -0.069 C 
HETATM   11  C11 UNL     1      -0.369   6.491  14.509  1.00  0.00     0.030 C 
HETATM   12  C12 UNL     1       0.074   7.374  15.625  1.00  0.00     0.032 C 
HETATM   13  N1  UNL     1       1.324   7.325  15.988  1.00  0.00    -0.271 N 
ATOM     14  H1  UNL     1       2.015   6.712  15.556  1.00  0.00     0.194 HD
HETATM   15  C29 UNL     1      -0.990   8.250  16.239  1.00  0.00     0.060 C 
HETATM   16  C30 UNL     1      -1.766   8.967  15.144  1.00  0.00     0.020 C 
HETATM   17  C31 UNL     1      -2.305   8.051  13.998  1.00  0.00    -0.016 C 
HETATM   18  C32 UNL     1      -2.209   8.936  12.714  1.00  0.00     0.020 C 
HETATM   19  C33 UNL     1      -3.801   7.639  14.237  1.00  0.00     0.002 C 
HETATM   20  C34 UNL     1      -4.043   6.976  15.615  1.00  0.00     0.007 C 
HETATM   21  C35 UNL     1      -5.338   6.158  15.722  1.00  0.00     0.014 C 
HETATM   22  C36 UNL     1      -6.444   6.591  14.735  1.00  0.00     0.003 C 
HETATM   23  C37 UNL     1      -6.921   8.011  15.120  1.00  0.00     0.020 C 
ENDROOT
BRANCH   3  24
HETATM   24  O1  UNL     1      -7.952   5.114  16.017  1.00  0.00    -0.377 OA
HETATM   25  H2  UNL     1      -7.409   4.328  16.194  1.00  0.00     0.211 HD
ENDBRANCH   3  24
BRANCH  13  26
HETATM   26  O2  UNL     1       1.614   8.206  17.038  1.00  0.00    -0.271 OA
BRANCH  26  27
HETATM   27  C13 UNL     1       2.153   9.415  16.513  1.00  0.00     0.303 C 
BRANCH  27  28
HETATM   28  C14 UNL     1       1.688  10.620  17.311  1.00  0.00     0.244 C 
HETATM   29  O3  UNL     1       1.739  11.764  16.850  1.00  0.00    -0.271 OA
HETATM   30  N2  UNL     1       1.285  10.340  18.607  1.00  0.00    -0.346 N 
HETATM   31  H16 UNL     1       0.966   9.384  18.755  1.00  0.00     0.163 HD
BRANCH  30  32
HETATM   32  C15 UNL     1       0.667  11.382  19.417  1.00  0.00     0.180 C 
BRANCH  32  33
HETATM   33  C16 UNL     1       1.786  12.324  19.900  1.00  0.00     0.241 C 
HETATM   34  O4  UNL     1       1.890  13.485  19.510  1.00  0.00    -0.271 OA
HETATM   35  N3  UNL     1       2.617  11.782  20.859  1.00  0.00    -0.345 N 
HETATM   36  H18 UNL     1       2.616  10.769  20.923  1.00  0.00     0.163 HD
BRANCH  35  37
HETATM   37  C17 UNL     1       3.964  12.341  21.045  1.00  0.00     0.186 C 
BRANCH  37  38
HETATM   38  C18 UNL     1       4.588  11.975  22.405  1.00  0.00     0.074 C 
BRANCH  38  39
HETATM   39  C19 UNL     1       5.893  12.670  22.712  1.00  0.00    -0.056 A 
HETATM   40  C20 UNL     1       5.913  14.068  22.835  1.00  0.00     0.007 A 
HETATM   41  C21 UNL     1       7.090  14.738  23.175  1.00  0.00     0.001 A 
HETATM   42  C22 UNL     1       8.254  14.012  23.397  1.00  0.00     0.000 A 
HETATM   43  C23 UNL     1       8.246  12.624  23.270  1.00  0.00     0.001 A 
HETATM   44  C24 UNL     1       7.070  11.954  22.921  1.00  0.00     0.007 A 
ENDBRANCH  38  39
ENDBRANCH  37  38
BRANCH  37  45
HETATM   45  C25 UNL     1       4.857  11.885  19.893  1.00  0.00     0.163 C 
HETATM   46  O5  UNL     1       5.182  12.559  18.927  1.00  0.00    -0.648 OA
BRANCH  45  47
HETATM   47  O6  UNL     1       5.320  10.610  20.037  1.00  0.00    -0.775 OA
HETATM   48  H27 UNL     1       5.772  10.423  19.191  1.00  0.00     0.167 HD
ENDBRANCH  45  47
ENDBRANCH  37  45
ENDBRANCH  35  37
ENDBRANCH  32  33
BRANCH  32  49
HETATM   49  C26 UNL     1      -0.473  12.094  18.661  1.00  0.00     0.009 C 
HETATM   50  C27 UNL     1      -1.016  13.330  19.381  1.00  0.00     0.012 C 
HETATM   51  C28 UNL     1      -1.632  11.133  18.351  1.00  0.00     0.012 C 
ENDBRANCH  32  49
ENDBRANCH  30  32
ENDBRANCH  27  28
ENDBRANCH  26  27
ENDBRANCH  13  26
TORSDOF 12
ENDMDL
