MODEL 1
REMARK minimizedAffinity -8.35969448
REMARK CNNscore 0.540582836
REMARK CNNaffinity 6.90129137
REMARK  15 active torsions:
REMARK  status: ('A' for Active; 'I' for Inactive)
REMARK    1  A    between atoms: C2_2  and  C3_3 
REMARK    2  A    between atoms: C3_3  and  C4_4 
REMARK    3  A    between atoms: C4_4  and  C5_5 
REMARK    4  A    between atoms: C5_5  and  C6_6 
REMARK    5  A    between atoms: C6_6  and  C7_7 
REMARK    6  A    between atoms: C7_7  and  C8_8 
REMARK    7  A    between atoms: C7_7  and  C30_36 
REMARK    8  A    between atoms: C9_9  and  C11_11 
REMARK    9  A    between atoms: C11_11  and  O1_12 
REMARK   10  A    between atoms: C11_11  and  C12_13 
REMARK   11  A    between atoms: C12_13  and  C14_15 
REMARK   12  A    between atoms: C14_15  and  O3_17 
REMARK   13  A    between atoms: O3_17  and  C15_18 
REMARK   14  A    between atoms: C27_31  and  O5_32 
REMARK   15  A    between atoms: C30_36  and  O7_37 
ROOT
HETATM    1  C14 UNL     1      -5.005  48.249 -27.470  1.00  0.00     0.266 C 
HETATM    2  O2  UNL     1      -5.539  47.770 -26.478  1.00  0.00    -0.265 OA
ENDROOT
BRANCH   1   3
HETATM    3  C12 UNL     1      -3.610  48.831 -27.498  1.00  0.00     0.114 C 
HETATM    4  C13 UNL     1      -2.978  48.592 -26.127  1.00  0.00     0.023 C 
BRANCH   3   5
HETATM    5  C11 UNL     1      -3.698  50.309 -27.898  1.00  0.00     0.159 C 
BRANCH   5   6
HETATM    6  C9  UNL     1      -2.742  51.212 -27.126  1.00  0.00    -0.058 C 
HETATM    7  C8  UNL     1      -1.432  51.273 -27.448  1.00  0.00    -0.015 C 
HETATM    8  C10 UNL     1      -3.377  51.960 -25.984  1.00  0.00     0.046 C 
BRANCH   7   9
HETATM    9  C7  UNL     1      -0.340  52.074 -26.760  1.00  0.00     0.032 C 
BRANCH   9  10
HETATM   10  C6  UNL     1       0.276  51.201 -25.645  1.00  0.00     0.010 C 
BRANCH  10  11
HETATM   11  C5  UNL     1      -0.398  51.391 -24.283  1.00  0.00     0.001 C 
BRANCH  11  12
HETATM   12  C4  UNL     1       0.272  52.468 -23.420  1.00  0.00     0.000 C 
BRANCH  12  13
HETATM   13  C3  UNL     1       0.661  51.974 -22.024  1.00  0.00    -0.000 C 
BRANCH  13  14
HETATM   14  C2  UNL     1       0.604  53.072 -20.956  1.00  0.00    -0.005 C 
HETATM   15  C1  UNL     1       1.529  54.245 -21.241  1.00  0.00     0.005 C 
ENDBRANCH  13  14
ENDBRANCH  12  13
ENDBRANCH  11  12
ENDBRANCH  10  11
ENDBRANCH   9  10
BRANCH   9  16
HETATM   16  C30 UNL     1       0.710  52.533 -27.790  1.00  0.00     0.172 C 
BRANCH  16  17
HETATM   17  O7  UNL     1       0.085  53.195 -28.890  1.00  0.00    -0.400 OA
HETATM   18  H50 UNL     1      -0.583  52.587 -29.251  1.00  0.00     0.209 HD
ENDBRANCH  16  17
ENDBRANCH   9  16
ENDBRANCH   7   9
ENDBRANCH   5   6
BRANCH   5  19
HETATM   19  O1  UNL     1      -3.370  50.429 -29.289  1.00  0.00    -0.390 OA
HETATM   20  H20 UNL     1      -3.315  51.377 -29.487  1.00  0.00     0.210 HD
ENDBRANCH   5  19
ENDBRANCH   3   5
ENDBRANCH   1   3
BRANCH   1  21
HETATM   21  O3  UNL     1      -5.553  48.301 -28.715  1.00  0.00    -0.312 OA
BRANCH  21  22
HETATM   22  C15 UNL     1      -5.981  47.055 -29.289  1.00  0.00     0.170 C 
HETATM   23  C16 UNL     1      -5.349  46.936 -30.678  1.00  0.00     0.036 C 
HETATM   24  C17 UNL     1      -6.240  46.156 -31.630  1.00  0.00     0.007 C 
HETATM   25  C18 UNL     1      -7.594  46.859 -31.879  1.00  0.00    -0.007 C 
HETATM   26  C19 UNL     1      -7.509  47.726 -33.143  1.00  0.00     0.011 C 
HETATM   27  C20 UNL     1      -8.155  47.627 -30.611  1.00  0.00    -0.004 C 
HETATM   28  C21 UNL     1      -7.924  49.157 -30.676  1.00  0.00     0.019 C 
HETATM   29  C22 UNL     1      -9.684  47.358 -30.547  1.00  0.00     0.023 C 
HETATM   30  C29 UNL     1      -7.489  47.078 -29.353  1.00  0.00     0.127 A 
HETATM   31  C23 UNL     1     -10.381  47.838 -29.257  1.00  0.00     0.057 C 
HETATM   32  C24 UNL     1     -11.610  46.982 -28.930  1.00  0.00     0.015 C 
HETATM   33  C27 UNL     1      -9.561  47.773 -27.954  1.00  0.00     0.195 C 
HETATM   34  C25 UNL     1     -12.866  47.375 -29.686  1.00  0.00     0.012 C 
HETATM   35  C26 UNL     1     -11.726  47.153 -27.430  1.00  0.00     0.176 C 
HETATM   36  O4  UNL     1     -10.374  47.135 -26.963  1.00  0.00    -0.352 OA
HETATM   37  C28 UNL     1      -8.240  47.086 -28.042  1.00  0.00     0.223 A 
HETATM   38  O6  UNL     1      -8.132  45.893 -28.827  1.00  0.00    -0.360 OA
BRANCH  33  39
HETATM   39  O5  UNL     1      -9.355  49.110 -27.512  1.00  0.00    -0.363 OA
HETATM   40  H46 UNL     1      -8.865  49.033 -26.673  1.00  0.00     0.213 HD
ENDBRANCH  33  39
ENDBRANCH  21  22
ENDBRANCH   1  21
TORSDOF 15
ENDMDL
MODEL 2
REMARK minimizedAffinity -6.97341871
REMARK CNNscore 0.447108865
REMARK CNNaffinity 6.73125505
REMARK  15 active torsions:
REMARK  status: ('A' for Active; 'I' for Inactive)
REMARK    1  A    between atoms: C2_2  and  C3_3 
REMARK    2  A    between atoms: C3_3  and  C4_4 
REMARK    3  A    between atoms: C4_4  and  C5_5 
REMARK    4  A    between atoms: C5_5  and  C6_6 
REMARK    5  A    between atoms: C6_6  and  C7_7 
REMARK    6  A    between atoms: C7_7  and  C8_8 
REMARK    7  A    between atoms: C7_7  and  C30_36 
REMARK    8  A    between atoms: C9_9  and  C11_11 
REMARK    9  A    between atoms: C11_11  and  O1_12 
REMARK   10  A    between atoms: C11_11  and  C12_13 
REMARK   11  A    between atoms: C12_13  and  C14_15 
REMARK   12  A    between atoms: C14_15  and  O3_17 
REMARK   13  A    between atoms: O3_17  and  C15_18 
REMARK   14  A    between atoms: C27_31  and  O5_32 
REMARK   15  A    between atoms: C30_36  and  O7_37 
ROOT
HETATM    1  C14 UNL     1      -4.283  48.415 -27.641  1.00  0.00     0.266 C 
HETATM    2  O2  UNL     1      -3.299  47.918 -28.174  1.00  0.00    -0.265 OA
ENDROOT
BRANCH   1   3
HETATM    3  C12 UNL     1      -5.694  48.306 -28.173  1.00  0.00     0.114 C 
HETATM    4  C13 UNL     1      -6.489  47.422 -27.211  1.00  0.00     0.023 C 
BRANCH   3   5
HETATM    5  C11 UNL     1      -5.642  47.776 -29.611  1.00  0.00     0.159 C 
BRANCH   5   6
HETATM    6  C9  UNL     1      -7.005  47.383 -30.171  1.00  0.00    -0.058 C 
HETATM    7  C8  UNL     1      -7.322  46.087 -30.377  1.00  0.00    -0.015 C 
HETATM    8  C10 UNL     1      -7.901  48.546 -30.502  1.00  0.00     0.046 C 
BRANCH   7   9
HETATM    9  C7  UNL     1      -8.603  45.525 -30.970  1.00  0.00     0.032 C 
BRANCH   9  10
HETATM   10  C6  UNL     1      -8.241  44.315 -31.857  1.00  0.00     0.010 C 
BRANCH  10  11
HETATM   11  C5  UNL     1      -6.803  44.356 -32.383  1.00  0.00     0.001 C 
BRANCH  11  12
HETATM   12  C4  UNL     1      -5.925  43.223 -31.835  1.00  0.00     0.000 C 
BRANCH  12  13
HETATM   13  C3  UNL     1      -5.991  41.943 -32.672  1.00  0.00    -0.000 C 
BRANCH  13  14
HETATM   14  C2  UNL     1      -5.332  42.087 -34.048  1.00  0.00    -0.005 C 
HETATM   15  C1  UNL     1      -3.818  42.210 -33.988  1.00  0.00     0.005 C 
ENDBRANCH  13  14
ENDBRANCH  12  13
ENDBRANCH  11  12
ENDBRANCH  10  11
ENDBRANCH   9  10
BRANCH   9  16
HETATM   16  C30 UNL     1      -9.588  45.152 -29.845  1.00  0.00     0.172 C 
BRANCH  16  17
HETATM   17  O7  UNL     1     -10.409  46.268 -29.500  1.00  0.00    -0.400 OA
HETATM   18  H50 UNL     1      -9.816  47.006 -29.276  1.00  0.00     0.209 HD
ENDBRANCH  16  17
ENDBRANCH   9  16
ENDBRANCH   7   9
ENDBRANCH   5   6
BRANCH   5  19
HETATM   19  O1  UNL     1      -5.110  48.803 -30.460  1.00  0.00    -0.390 OA
HETATM   20  H20 UNL     1      -5.199  48.489 -31.374  1.00  0.00     0.210 HD
ENDBRANCH   5  19
ENDBRANCH   3   5
ENDBRANCH   1   3
BRANCH   1  21
HETATM   21  O3  UNL     1      -4.283  49.104 -26.468  1.00  0.00    -0.312 OA
BRANCH  21  22
HETATM   22  C15 UNL     1      -3.164  48.893 -25.590  1.00  0.00     0.170 C 
HETATM   23  C16 UNL     1      -3.714  48.501 -24.216  1.00  0.00     0.036 C 
HETATM   24  C17 UNL     1      -2.803  48.976 -23.096  1.00  0.00     0.007 C 
HETATM   25  C18 UNL     1      -2.690  50.517 -23.043  1.00  0.00    -0.007 C 
HETATM   26  C19 UNL     1      -3.713  51.083 -22.049  1.00  0.00     0.011 C 
HETATM   27  C20 UNL     1      -2.732  51.208 -24.470  1.00  0.00    -0.004 C 
HETATM   28  C21 UNL     1      -4.111  51.826 -24.805  1.00  0.00     0.019 C 
HETATM   29  C22 UNL     1      -1.668  52.340 -24.466  1.00  0.00     0.023 C 
HETATM   30  C29 UNL     1      -2.376  50.179 -25.539  1.00  0.00     0.127 A 
HETATM   31  C23 UNL     1      -1.397  52.990 -25.838  1.00  0.00     0.057 C 
HETATM   32  C24 UNL     1       0.036  53.525 -25.935  1.00  0.00     0.015 C 
HETATM   33  C27 UNL     1      -1.508  52.080 -27.077  1.00  0.00     0.195 C 
HETATM   34  C25 UNL     1       0.237  54.895 -25.311  1.00  0.00     0.012 C 
HETATM   35  C26 UNL     1       0.287  53.495 -27.428  1.00  0.00     0.176 C 
HETATM   36  O4  UNL     1      -0.334  52.285 -27.870  1.00  0.00    -0.352 OA
HETATM   37  C28 UNL     1      -1.690  50.624 -26.809  1.00  0.00     0.223 A 
HETATM   38  O6  UNL     1      -0.952  50.021 -25.740  1.00  0.00    -0.360 OA
BRANCH  33  39
HETATM   39  O5  UNL     1      -2.607  52.545 -27.852  1.00  0.00    -0.363 OA
HETATM   40  H46 UNL     1      -2.630  51.973 -28.640  1.00  0.00     0.213 HD
ENDBRANCH  33  39
ENDBRANCH  21  22
ENDBRANCH   1  21
TORSDOF 15
ENDMDL
MODEL 3
REMARK minimizedAffinity -8.3013916
REMARK CNNscore 0.330561966
REMARK CNNaffinity 6.77853012
REMARK  15 active torsions:
REMARK  status: ('A' for Active; 'I' for Inactive)
REMARK    1  A    between atoms: C2_2  and  C3_3 
REMARK    2  A    between atoms: C3_3  and  C4_4 
REMARK    3  A    between atoms: C4_4  and  C5_5 
REMARK    4  A    between atoms: C5_5  and  C6_6 
REMARK    5  A    between atoms: C6_6  and  C7_7 
REMARK    6  A    between atoms: C7_7  and  C8_8 
REMARK    7  A    between atoms: C7_7  and  C30_36 
REMARK    8  A    between atoms: C9_9  and  C11_11 
REMARK    9  A    between atoms: C11_11  and  O1_12 
REMARK   10  A    between atoms: C11_11  and  C12_13 
REMARK   11  A    between atoms: C12_13  and  C14_15 
REMARK   12  A    between atoms: C14_15  and  O3_17 
REMARK   13  A    between atoms: O3_17  and  C15_18 
REMARK   14  A    between atoms: C27_31  and  O5_32 
REMARK   15  A    between atoms: C30_36  and  O7_37 
ROOT
HETATM    1  C14 UNL     1      -5.046  48.176 -22.237  1.00  0.00     0.266 C 
HETATM    2  O2  UNL     1      -5.117  46.957 -22.147  1.00  0.00    -0.265 OA
ENDROOT
BRANCH   1   3
HETATM    3  C12 UNL     1      -5.774  49.005 -23.271  1.00  0.00     0.114 C 
HETATM    4  C13 UNL     1      -6.153  48.080 -24.428  1.00  0.00     0.023 C 
BRANCH   3   5
HETATM    5  C11 UNL     1      -4.881  50.183 -23.679  1.00  0.00     0.159 C 
BRANCH   5   6
HETATM    6  C9  UNL     1      -3.955  49.876 -24.851  1.00  0.00    -0.058 C 
HETATM    7  C8  UNL     1      -3.848  50.730 -25.892  1.00  0.00    -0.015 C 
HETATM    8  C10 UNL     1      -3.242  48.554 -24.752  1.00  0.00     0.046 C 
BRANCH   7   9
HETATM    9  C7  UNL     1      -3.019  50.559 -27.154  1.00  0.00     0.032 C 
BRANCH   9  10
HETATM   10  C6  UNL     1      -1.603  50.100 -26.748  1.00  0.00     0.010 C 
BRANCH  10  11
HETATM   11  C5  UNL     1      -0.524  51.155 -27.010  1.00  0.00     0.001 C 
BRANCH  11  12
HETATM   12  C4  UNL     1       0.709  50.997 -26.111  1.00  0.00     0.000 C 
BRANCH  12  13
HETATM   13  C3  UNL     1       2.013  51.432 -26.785  1.00  0.00    -0.000 C 
BRANCH  13  14
HETATM   14  C2  UNL     1       1.816  51.924 -28.223  1.00  0.00    -0.005 C 
HETATM   15  C1  UNL     1       0.781  53.030 -28.351  1.00  0.00     0.005 C 
ENDBRANCH  13  14
ENDBRANCH  12  13
ENDBRANCH  11  12
ENDBRANCH  10  11
ENDBRANCH   9  10
BRANCH   9  16
HETATM   16  C30 UNL     1      -3.706  49.562 -28.108  1.00  0.00     0.172 C 
BRANCH  16  17
HETATM   17  O7  UNL     1      -3.818  50.113 -29.420  1.00  0.00    -0.400 OA
HETATM   18  H50 UNL     1      -4.283  50.964 -29.338  1.00  0.00     0.209 HD
ENDBRANCH  16  17
ENDBRANCH   9  16
ENDBRANCH   7   9
ENDBRANCH   5   6
BRANCH   5  19
HETATM   19  O1  UNL     1      -5.717  51.280 -24.070  1.00  0.00    -0.390 OA
HETATM   20  H20 UNL     1      -5.135  51.965 -24.435  1.00  0.00     0.210 HD
ENDBRANCH   5  19
ENDBRANCH   3   5
ENDBRANCH   1   3
BRANCH   1  21
HETATM   21  O3  UNL     1      -4.342  48.989 -21.404  1.00  0.00    -0.312 OA
BRANCH  21  22
HETATM   22  C15 UNL     1      -3.138  48.450 -20.832  1.00  0.00     0.170 C 
HETATM   23  C16 UNL     1      -3.481  47.905 -19.443  1.00  0.00     0.036 C 
HETATM   24  C17 UNL     1      -2.301  48.021 -18.493  1.00  0.00     0.007 C 
HETATM   25  C18 UNL     1      -1.890  49.490 -18.242  1.00  0.00    -0.007 C 
HETATM   26  C19 UNL     1      -2.579  50.018 -16.976  1.00  0.00     0.011 C 
HETATM   27  C20 UNL     1      -2.070  50.427 -19.508  1.00  0.00    -0.004 C 
HETATM   28  C21 UNL     1      -3.344  51.303 -19.440  1.00  0.00     0.019 C 
HETATM   29  C22 UNL     1      -0.829  51.360 -19.573  1.00  0.00     0.023 C 
HETATM   30  C29 UNL     1      -2.125  49.567 -20.768  1.00  0.00     0.127 A 
HETATM   31  C23 UNL     1      -0.705  52.199 -20.861  1.00  0.00     0.057 C 
HETATM   32  C24 UNL     1       0.759  52.512 -21.190  1.00  0.00     0.015 C 
HETATM   33  C27 UNL     1      -1.220  51.558 -22.165  1.00  0.00     0.195 C 
HETATM   34  C25 UNL     1       1.331  53.697 -20.433  1.00  0.00     0.012 C 
HETATM   35  C26 UNL     1       0.711  52.716 -22.690  1.00  0.00     0.176 C 
HETATM   36  O4  UNL     1      -0.200  51.718 -23.157  1.00  0.00    -0.352 OA
HETATM   37  C28 UNL     1      -1.620  50.123 -22.079  1.00  0.00     0.223 A 
HETATM   38  O6  UNL     1      -0.822  49.228 -21.297  1.00  0.00    -0.360 OA
BRANCH  33  39
HETATM   39  O5  UNL     1      -2.338  52.321 -22.604  1.00  0.00    -0.363 OA
HETATM   40  H46 UNL     1      -2.617  51.912 -23.443  1.00  0.00     0.213 HD
ENDBRANCH  33  39
ENDBRANCH  21  22
ENDBRANCH   1  21
TORSDOF 15
ENDMDL
MODEL 4
REMARK minimizedAffinity -7.34237146
REMARK CNNscore 0.317669004
REMARK CNNaffinity 6.47512817
REMARK  15 active torsions:
REMARK  status: ('A' for Active; 'I' for Inactive)
REMARK    1  A    between atoms: C2_2  and  C3_3 
REMARK    2  A    between atoms: C3_3  and  C4_4 
REMARK    3  A    between atoms: C4_4  and  C5_5 
REMARK    4  A    between atoms: C5_5  and  C6_6 
REMARK    5  A    between atoms: C6_6  and  C7_7 
REMARK    6  A    between atoms: C7_7  and  C8_8 
REMARK    7  A    between atoms: C7_7  and  C30_36 
REMARK    8  A    between atoms: C9_9  and  C11_11 
REMARK    9  A    between atoms: C11_11  and  O1_12 
REMARK   10  A    between atoms: C11_11  and  C12_13 
REMARK   11  A    between atoms: C12_13  and  C14_15 
REMARK   12  A    between atoms: C14_15  and  O3_17 
REMARK   13  A    between atoms: O3_17  and  C15_18 
REMARK   14  A    between atoms: C27_31  and  O5_32 
REMARK   15  A    between atoms: C30_36  and  O7_37 
ROOT
HETATM    1  C14 UNL     1      -4.474  48.364 -27.654  1.00  0.00     0.266 C 
HETATM    2  O2  UNL     1      -3.519  48.036 -28.347  1.00  0.00    -0.265 OA
ENDROOT
BRANCH   1   3
HETATM    3  C12 UNL     1      -5.913  48.007 -27.950  1.00  0.00     0.114 C 
HETATM    4  C13 UNL     1      -6.558  47.546 -26.643  1.00  0.00     0.023 C 
BRANCH   3   5
HETATM    5  C11 UNL     1      -5.942  46.955 -29.067  1.00  0.00     0.159 C 
BRANCH   5   6
HETATM    6  C9  UNL     1      -7.332  46.394 -29.347  1.00  0.00    -0.058 C 
HETATM    7  C8  UNL     1      -8.286  47.158 -29.922  1.00  0.00    -0.015 C 
HETATM    8  C10 UNL     1      -7.533  44.974 -28.889  1.00  0.00     0.046 C 
BRANCH   7   9
HETATM    9  C7  UNL     1      -9.725  46.778 -30.224  1.00  0.00     0.032 C 
BRANCH   9  10
HETATM   10  C6  UNL     1     -10.623  47.999 -29.935  1.00  0.00     0.010 C 
BRANCH  10  11
HETATM   11  C5  UNL     1     -11.696  47.728 -28.876  1.00  0.00     0.001 C 
BRANCH  11  12
HETATM   12  C4  UNL     1     -12.868  46.890 -29.402  1.00  0.00     0.000 C 
BRANCH  12  13
HETATM   13  C3  UNL     1     -13.248  45.729 -28.478  1.00  0.00    -0.000 C 
BRANCH  13  14
HETATM   14  C2  UNL     1     -14.686  45.818 -27.955  1.00  0.00    -0.005 C 
HETATM   15  C1  UNL     1     -15.602  44.740 -28.511  1.00  0.00     0.005 C 
ENDBRANCH  13  14
ENDBRANCH  12  13
ENDBRANCH  11  12
ENDBRANCH  10  11
ENDBRANCH   9  10
BRANCH   9  16
HETATM   16  C30 UNL     1      -9.850  46.292 -31.682  1.00  0.00     0.172 C 
BRANCH  16  17
HETATM   17  O7  UNL     1      -9.881  44.866 -31.739  1.00  0.00    -0.400 OA
HETATM   18  H50 UNL     1      -9.086  44.541 -31.281  1.00  0.00     0.209 HD
ENDBRANCH  16  17
ENDBRANCH   9  16
ENDBRANCH   7   9
ENDBRANCH   5   6
BRANCH   5  19
HETATM   19  O1  UNL     1      -5.473  47.560 -30.280  1.00  0.00    -0.390 OA
HETATM   20  H20 UNL     1      -5.613  46.915 -30.991  1.00  0.00     0.210 HD
ENDBRANCH   5  19
ENDBRANCH   3   5
ENDBRANCH   1   3
BRANCH   1  21
HETATM   21  O3  UNL     1      -4.401  49.062 -26.489  1.00  0.00    -0.312 OA
BRANCH  21  22
HETATM   22  C15 UNL     1      -3.263  48.807 -25.648  1.00  0.00     0.170 C 
HETATM   23  C16 UNL     1      -3.783  48.387 -24.271  1.00  0.00     0.036 C 
HETATM   24  C17 UNL     1      -2.834  48.815 -23.164  1.00  0.00     0.007 C 
HETATM   25  C18 UNL     1      -2.692  50.352 -23.072  1.00  0.00    -0.007 C 
HETATM   26  C19 UNL     1      -3.677  50.907 -22.035  1.00  0.00     0.011 C 
HETATM   27  C20 UNL     1      -2.760  51.082 -24.477  1.00  0.00    -0.004 C 
HETATM   28  C21 UNL     1      -4.136  51.734 -24.758  1.00  0.00     0.019 C 
HETATM   29  C22 UNL     1      -1.675  52.196 -24.472  1.00  0.00     0.023 C 
HETATM   30  C29 UNL     1      -2.451  50.078 -25.583  1.00  0.00     0.127 A 
HETATM   31  C23 UNL     1      -1.430  52.878 -25.833  1.00  0.00     0.057 C 
HETATM   32  C24 UNL     1       0.010  53.390 -25.954  1.00  0.00     0.015 C 
HETATM   33  C27 UNL     1      -1.591  52.005 -27.092  1.00  0.00     0.195 C 
HETATM   34  C25 UNL     1       0.253  54.739 -25.299  1.00  0.00     0.012 C 
HETATM   35  C26 UNL     1       0.220  53.398 -27.453  1.00  0.00     0.176 C 
HETATM   36  O4  UNL     1      -0.434  52.211 -27.911  1.00  0.00    -0.352 OA
HETATM   37  C28 UNL     1      -1.791  50.546 -26.860  1.00  0.00     0.223 A 
HETATM   38  O6  UNL     1      -1.036  49.900 -25.828  1.00  0.00    -0.360 OA
BRANCH  33  39
HETATM   39  O5  UNL     1      -2.702  52.510 -27.824  1.00  0.00    -0.363 OA
HETATM   40  H46 UNL     1      -2.756  51.961 -28.626  1.00  0.00     0.213 HD
ENDBRANCH  33  39
ENDBRANCH  21  22
ENDBRANCH   1  21
TORSDOF 15
ENDMDL
MODEL 5
REMARK minimizedAffinity -6.83392525
REMARK CNNscore 0.294142872
REMARK CNNaffinity 6.31586266
REMARK  15 active torsions:
REMARK  status: ('A' for Active; 'I' for Inactive)
REMARK    1  A    between atoms: C2_2  and  C3_3 
REMARK    2  A    between atoms: C3_3  and  C4_4 
REMARK    3  A    between atoms: C4_4  and  C5_5 
REMARK    4  A    between atoms: C5_5  and  C6_6 
REMARK    5  A    between atoms: C6_6  and  C7_7 
REMARK    6  A    between atoms: C7_7  and  C8_8 
REMARK    7  A    between atoms: C7_7  and  C30_36 
REMARK    8  A    between atoms: C9_9  and  C11_11 
REMARK    9  A    between atoms: C11_11  and  O1_12 
REMARK   10  A    between atoms: C11_11  and  C12_13 
REMARK   11  A    between atoms: C12_13  and  C14_15 
REMARK   12  A    between atoms: C14_15  and  O3_17 
REMARK   13  A    between atoms: O3_17  and  C15_18 
REMARK   14  A    between atoms: C27_31  and  O5_32 
REMARK   15  A    between atoms: C30_36  and  O7_37 
ROOT
HETATM    1  C14 UNL     1      -4.505  48.457 -27.615  1.00  0.00     0.266 C 
HETATM    2  O2  UNL     1      -3.594  48.067 -28.335  1.00  0.00    -0.265 OA
ENDROOT
BRANCH   1   3
HETATM    3  C12 UNL     1      -5.968  48.143 -27.835  1.00  0.00     0.114 C 
HETATM    4  C13 UNL     1      -6.436  47.262 -26.677  1.00  0.00     0.023 C 
BRANCH   3   5
HETATM    5  C11 UNL     1      -6.133  47.499 -29.217  1.00  0.00     0.159 C 
BRANCH   5   6
HETATM    6  C9  UNL     1      -7.467  46.784 -29.406  1.00  0.00    -0.058 C 
HETATM    7  C8  UNL     1      -8.560  47.157 -28.706  1.00  0.00    -0.015 C 
HETATM    8  C10 UNL     1      -7.425  45.636 -30.379  1.00  0.00     0.046 C 
BRANCH   7   9
HETATM    9  C7  UNL     1      -9.942  46.528 -28.734  1.00  0.00     0.032 C 
BRANCH   9  10
HETATM   10  C6  UNL     1     -10.018  45.468 -27.614  1.00  0.00     0.010 C 
BRANCH  10  11
HETATM   11  C5  UNL     1      -9.750  44.043 -28.107  1.00  0.00     0.001 C 
BRANCH  11  12
HETATM   12  C4  UNL     1     -10.983  43.374 -28.728  1.00  0.00     0.000 C 
BRANCH  12  13
HETATM   13  C3  UNL     1     -10.679  42.023 -29.379  1.00  0.00    -0.000 C 
BRANCH  13  14
HETATM   14  C2  UNL     1     -11.364  40.845 -28.677  1.00  0.00    -0.005 C 
HETATM   15  C1  UNL     1     -12.871  40.814 -28.872  1.00  0.00     0.005 C 
ENDBRANCH  13  14
ENDBRANCH  12  13
ENDBRANCH  11  12
ENDBRANCH  10  11
ENDBRANCH   9  10
BRANCH   9  16
HETATM   16  C30 UNL     1     -11.023  47.616 -28.583  1.00  0.00     0.172 C 
BRANCH  16  17
HETATM   17  O7  UNL     1     -11.014  48.497 -29.706  1.00  0.00    -0.400 OA
HETATM   18  H50 UNL     1     -10.110  48.847 -29.793  1.00  0.00     0.209 HD
ENDBRANCH  16  17
ENDBRANCH   9  16
ENDBRANCH   7   9
ENDBRANCH   5   6
BRANCH   5  19
HETATM   19  O1  UNL     1      -6.053  48.525 -30.216  1.00  0.00    -0.390 OA
HETATM   20  H20 UNL     1      -6.279  48.113 -31.065  1.00  0.00     0.210 HD
ENDBRANCH   5  19
ENDBRANCH   3   5
ENDBRANCH   1   3
BRANCH   1  21
HETATM   21  O3  UNL     1      -4.356  49.194 -26.481  1.00  0.00    -0.312 OA
BRANCH  21  22
HETATM   22  C15 UNL     1      -3.203  48.911 -25.669  1.00  0.00     0.170 C 
HETATM   23  C16 UNL     1      -3.698  48.456 -24.294  1.00  0.00     0.036 C 
HETATM   24  C17 UNL     1      -2.726  48.850 -23.194  1.00  0.00     0.007 C 
HETATM   25  C18 UNL     1      -2.575  50.383 -23.064  1.00  0.00    -0.007 C 
HETATM   26  C19 UNL     1      -3.538  50.914 -21.993  1.00  0.00     0.011 C 
HETATM   27  C20 UNL     1      -2.667  51.152 -24.447  1.00  0.00    -0.004 C 
HETATM   28  C21 UNL     1      -4.045  51.816 -24.683  1.00  0.00     0.019 C 
HETATM   29  C22 UNL     1      -1.578  52.260 -24.433  1.00  0.00     0.023 C 
HETATM   30  C29 UNL     1      -2.384  50.176 -25.586  1.00  0.00     0.127 A 
HETATM   31  C23 UNL     1      -1.356  52.979 -25.779  1.00  0.00     0.057 C 
HETATM   32  C24 UNL     1       0.084  53.489 -25.914  1.00  0.00     0.015 C 
HETATM   33  C27 UNL     1      -1.544  52.141 -27.059  1.00  0.00     0.195 C 
HETATM   34  C25 UNL     1       0.345  54.818 -25.228  1.00  0.00     0.012 C 
HETATM   35  C26 UNL     1       0.265  53.536 -27.416  1.00  0.00     0.176 C 
HETATM   36  O4  UNL     1      -0.403  52.365 -27.894  1.00  0.00    -0.352 OA
HETATM   37  C28 UNL     1      -1.747  50.677 -26.862  1.00  0.00     0.223 A 
HETATM   38  O6  UNL     1      -0.975  50.000 -25.862  1.00  0.00    -0.360 OA
BRANCH  33  39
HETATM   39  O5  UNL     1      -2.667  52.670 -27.755  1.00  0.00    -0.363 OA
HETATM   40  H46 UNL     1      -2.739  52.143 -28.571  1.00  0.00     0.213 HD
ENDBRANCH  33  39
ENDBRANCH  21  22
ENDBRANCH   1  21
TORSDOF 15
ENDMDL
MODEL 6
REMARK minimizedAffinity -7.0007
REMARK CNNscore 0.272344977
REMARK CNNaffinity 6.1511178
REMARK  15 active torsions:
REMARK  status: ('A' for Active; 'I' for Inactive)
REMARK    1  A    between atoms: C2_2  and  C3_3 
REMARK    2  A    between atoms: C3_3  and  C4_4 
REMARK    3  A    between atoms: C4_4  and  C5_5 
REMARK    4  A    between atoms: C5_5  and  C6_6 
REMARK    5  A    between atoms: C6_6  and  C7_7 
REMARK    6  A    between atoms: C7_7  and  C8_8 
REMARK    7  A    between atoms: C7_7  and  C30_36 
REMARK    8  A    between atoms: C9_9  and  C11_11 
REMARK    9  A    between atoms: C11_11  and  O1_12 
REMARK   10  A    between atoms: C11_11  and  C12_13 
REMARK   11  A    between atoms: C12_13  and  C14_15 
REMARK   12  A    between atoms: C14_15  and  O3_17 
REMARK   13  A    between atoms: O3_17  and  C15_18 
REMARK   14  A    between atoms: C27_31  and  O5_32 
REMARK   15  A    between atoms: C30_36  and  O7_37 
ROOT
HETATM    1  C14 UNL     1      -1.487  50.761 -18.536  1.00  0.00     0.266 C 
HETATM    2  O2  UNL     1      -2.398  50.229 -17.914  1.00  0.00    -0.265 OA
ENDROOT
BRANCH   1   3
HETATM    3  C12 UNL     1      -0.039  50.768 -18.101  1.00  0.00     0.114 C 
HETATM    4  C13 UNL     1       0.154  49.626 -17.104  1.00  0.00     0.023 C 
BRANCH   3   5
HETATM    5  C11 UNL     1       0.302  52.153 -17.539  1.00  0.00     0.159 C 
BRANCH   5   6
HETATM    6  C9  UNL     1       1.141  52.111 -16.266  1.00  0.00    -0.058 C 
HETATM    7  C8  UNL     1       0.564  51.911 -15.061  1.00  0.00    -0.015 C 
HETATM    8  C10 UNL     1       2.611  52.354 -16.480  1.00  0.00     0.046 C 
BRANCH   7   9
HETATM    9  C7  UNL     1       1.237  51.889 -13.699  1.00  0.00     0.032 C 
BRANCH   9  10
HETATM   10  C6  UNL     1       0.218  52.371 -12.645  1.00  0.00     0.010 C 
BRANCH  10  11
HETATM   11  C5  UNL     1      -1.023  51.478 -12.546  1.00  0.00     0.001 C 
BRANCH  11  12
HETATM   12  C4  UNL     1      -2.330  52.221 -12.852  1.00  0.00     0.000 C 
BRANCH  12  13
HETATM   13  C3  UNL     1      -3.441  51.941 -11.837  1.00  0.00    -0.000 C 
BRANCH  13  14
HETATM   14  C2  UNL     1      -4.020  53.212 -11.207  1.00  0.00    -0.005 C 
HETATM   15  C1  UNL     1      -2.975  54.087 -10.533  1.00  0.00     0.005 C 
ENDBRANCH  13  14
ENDBRANCH  12  13
ENDBRANCH  11  12
ENDBRANCH  10  11
ENDBRANCH   9  10
BRANCH   9  16
HETATM   16  C30 UNL     1       1.770  50.476 -13.394  1.00  0.00     0.172 C 
BRANCH  16  17
HETATM   17  O7  UNL     1       2.314  50.414 -12.075  1.00  0.00    -0.400 OA
HETATM   18  H50 UNL     1       2.987  51.114 -12.007  1.00  0.00     0.209 HD
ENDBRANCH  16  17
ENDBRANCH   9  16
ENDBRANCH   7   9
ENDBRANCH   5   6
BRANCH   5  19
HETATM   19  O1  UNL     1       1.055  52.876 -18.523  1.00  0.00    -0.390 OA
HETATM   20  H20 UNL     1       1.359  53.696 -18.101  1.00  0.00     0.210 HD
ENDBRANCH   5  19
ENDBRANCH   3   5
ENDBRANCH   1   3
BRANCH   1  21
HETATM   21  O3  UNL     1      -1.612  51.392 -19.735  1.00  0.00    -0.312 OA
BRANCH  21  22
HETATM   22  C15 UNL     1      -1.038  50.736 -20.879  1.00  0.00     0.170 C 
HETATM   23  C16 UNL     1      -0.305  51.794 -21.707  1.00  0.00     0.036 C 
HETATM   24  C17 UNL     1      -0.329  51.456 -23.189  1.00  0.00     0.007 C 
HETATM   25  C18 UNL     1      -1.764  51.439 -23.765  1.00  0.00    -0.007 C 
HETATM   26  C19 UNL     1      -2.099  52.806 -24.375  1.00  0.00     0.011 C 
HETATM   27  C20 UNL     1      -2.854  50.908 -22.743  1.00  0.00    -0.004 C 
HETATM   28  C21 UNL     1      -3.675  52.044 -22.086  1.00  0.00     0.019 C 
HETATM   29  C22 UNL     1      -3.824  49.990 -23.538  1.00  0.00     0.023 C 
HETATM   30  C29 UNL     1      -2.166  50.095 -21.650  1.00  0.00     0.127 A 
HETATM   31  C23 UNL     1      -4.828  49.197 -22.678  1.00  0.00     0.057 C 
HETATM   32  C24 UNL     1      -5.226  47.878 -23.350  1.00  0.00     0.015 C 
HETATM   33  C27 UNL     1      -4.350  48.741 -21.285  1.00  0.00     0.195 C 
HETATM   34  C25 UNL     1      -6.317  48.012 -24.397  1.00  0.00     0.012 C 
HETATM   35  C26 UNL     1      -5.624  47.024 -22.165  1.00  0.00     0.176 C 
HETATM   36  O4  UNL     1      -4.670  47.352 -21.152  1.00  0.00    -0.352 OA
HETATM   37  C28 UNL     1      -2.906  48.959 -20.983  1.00  0.00     0.223 A 
HETATM   38  O6  UNL     1      -1.940  48.713 -22.010  1.00  0.00    -0.360 OA
BRANCH  33  39
HETATM   39  O5  UNL     1      -5.131  49.433 -20.318  1.00  0.00    -0.363 OA
HETATM   40  H46 UNL     1      -4.829  49.100 -19.454  1.00  0.00     0.213 HD
ENDBRANCH  33  39
ENDBRANCH  21  22
ENDBRANCH   1  21
TORSDOF 15
ENDMDL
MODEL 7
REMARK minimizedAffinity -7.17553997
REMARK CNNscore 0.271967232
REMARK CNNaffinity 6.05822706
REMARK  15 active torsions:
REMARK  status: ('A' for Active; 'I' for Inactive)
REMARK    1  A    between atoms: C2_2  and  C3_3 
REMARK    2  A    between atoms: C3_3  and  C4_4 
REMARK    3  A    between atoms: C4_4  and  C5_5 
REMARK    4  A    between atoms: C5_5  and  C6_6 
REMARK    5  A    between atoms: C6_6  and  C7_7 
REMARK    6  A    between atoms: C7_7  and  C8_8 
REMARK    7  A    between atoms: C7_7  and  C30_36 
REMARK    8  A    between atoms: C9_9  and  C11_11 
REMARK    9  A    between atoms: C11_11  and  O1_12 
REMARK   10  A    between atoms: C11_11  and  C12_13 
REMARK   11  A    between atoms: C12_13  and  C14_15 
REMARK   12  A    between atoms: C14_15  and  O3_17 
REMARK   13  A    between atoms: O3_17  and  C15_18 
REMARK   14  A    between atoms: C27_31  and  O5_32 
REMARK   15  A    between atoms: C30_36  and  O7_37 
ROOT
HETATM    1  C14 UNL     1      -4.410  48.594 -26.038  1.00  0.00     0.266 C 
HETATM    2  O2  UNL     1      -3.627  48.225 -26.904  1.00  0.00    -0.265 OA
ENDROOT
BRANCH   1   3
HETATM    3  C12 UNL     1      -5.893  48.302 -26.040  1.00  0.00     0.114 C 
HETATM    4  C13 UNL     1      -6.228  47.573 -24.739  1.00  0.00     0.023 C 
BRANCH   3   5
HETATM    5  C11 UNL     1      -6.240  47.510 -27.307  1.00  0.00     0.159 C 
BRANCH   5   6
HETATM    6  C9  UNL     1      -7.669  46.977 -27.328  1.00  0.00    -0.058 C 
HETATM    7  C8  UNL     1      -8.661  47.628 -26.683  1.00  0.00    -0.015 C 
HETATM    8  C10 UNL     1      -7.839  45.680 -28.072  1.00  0.00     0.046 C 
BRANCH   7   9
HETATM    9  C7  UNL     1     -10.118  47.215 -26.560  1.00  0.00     0.032 C 
BRANCH   9  10
HETATM   10  C6  UNL     1     -10.703  47.064 -27.980  1.00  0.00     0.010 C 
BRANCH  10  11
HETATM   11  C5  UNL     1     -11.985  47.875 -28.199  1.00  0.00     0.001 C 
BRANCH  11  12
HETATM   12  C4  UNL     1     -13.251  47.141 -27.740  1.00  0.00     0.000 C 
BRANCH  12  13
HETATM   13  C3  UNL     1     -13.831  46.205 -28.803  1.00  0.00    -0.000 C 
BRANCH  13  14
HETATM   14  C2  UNL     1     -14.360  44.887 -28.225  1.00  0.00    -0.005 C 
HETATM   15  C1  UNL     1     -15.828  44.636 -28.529  1.00  0.00     0.005 C 
ENDBRANCH  13  14
ENDBRANCH  12  13
ENDBRANCH  11  12
ENDBRANCH  10  11
ENDBRANCH   9  10
BRANCH   9  16
HETATM   16  C30 UNL     1     -10.234  45.916 -25.739  1.00  0.00     0.172 C 
BRANCH  16  17
HETATM   17  O7  UNL     1     -10.841  44.881 -26.513  1.00  0.00    -0.400 OA
HETATM   18  H50 UNL     1     -11.694  45.223 -26.835  1.00  0.00     0.209 HD
ENDBRANCH  16  17
ENDBRANCH   9  16
ENDBRANCH   7   9
ENDBRANCH   5   6
BRANCH   5  19
HETATM   19  O1  UNL     1      -6.088  48.371 -28.444  1.00  0.00    -0.390 OA
HETATM   20  H20 UNL     1      -6.426  47.887 -29.214  1.00  0.00     0.210 HD
ENDBRANCH   5  19
ENDBRANCH   3   5
ENDBRANCH   1   3
BRANCH   1  21
HETATM   21  O3  UNL     1      -4.077  49.286 -24.915  1.00  0.00    -0.312 OA
BRANCH  21  22
HETATM   22  C15 UNL     1      -2.755  49.075 -24.390  1.00  0.00     0.170 C 
HETATM   23  C16 UNL     1      -2.895  48.622 -22.934  1.00  0.00     0.036 C 
HETATM   24  C17 UNL     1      -1.718  49.083 -22.092  1.00  0.00     0.007 C 
HETATM   25  C18 UNL     1      -1.620  50.624 -22.010  1.00  0.00    -0.007 C 
HETATM   26  C19 UNL     1      -2.336  51.127 -20.750  1.00  0.00     0.011 C 
HETATM   27  C20 UNL     1      -2.068  51.361 -23.340  1.00  0.00    -0.004 C 
HETATM   28  C21 UNL     1      -3.496  51.953 -23.256  1.00  0.00     0.019 C 
HETATM   29  C22 UNL     1      -1.063  52.521 -23.586  1.00  0.00     0.023 C 
HETATM   30  C29 UNL     1      -2.005  50.379 -24.507  1.00  0.00     0.127 A 
HETATM   31  C23 UNL     1      -1.195  53.225 -24.952  1.00  0.00     0.057 C 
HETATM   32  C24 UNL     1       0.147  53.801 -25.419  1.00  0.00     0.015 C 
HETATM   33  C27 UNL     1      -1.630  52.355 -26.147  1.00  0.00     0.195 C 
HETATM   34  C25 UNL     1       0.490  55.153 -24.822  1.00  0.00     0.012 C 
HETATM   35  C26 UNL     1      -0.026  53.829 -26.923  1.00  0.00     0.176 C 
HETATM   36  O4  UNL     1      -0.725  52.618 -27.225  1.00  0.00    -0.352 OA
HETATM   37  C28 UNL     1      -1.705  50.886 -25.899  1.00  0.00     0.223 A 
HETATM   38  O6  UNL     1      -0.691  50.267 -25.100  1.00  0.00    -0.360 OA
BRANCH  33  39
HETATM   39  O5  UNL     1      -2.908  52.815 -26.569  1.00  0.00    -0.363 OA
HETATM   40  H46 UNL     1      -3.139  52.270 -27.342  1.00  0.00     0.213 HD
ENDBRANCH  33  39
ENDBRANCH  21  22
ENDBRANCH   1  21
TORSDOF 15
ENDMDL
MODEL 8
REMARK minimizedAffinity -7.09581137
REMARK CNNscore 0.267482102
REMARK CNNaffinity 6.32954788
REMARK  15 active torsions:
REMARK  status: ('A' for Active; 'I' for Inactive)
REMARK    1  A    between atoms: C2_2  and  C3_3 
REMARK    2  A    between atoms: C3_3  and  C4_4 
REMARK    3  A    between atoms: C4_4  and  C5_5 
REMARK    4  A    between atoms: C5_5  and  C6_6 
REMARK    5  A    between atoms: C6_6  and  C7_7 
REMARK    6  A    between atoms: C7_7  and  C8_8 
REMARK    7  A    between atoms: C7_7  and  C30_36 
REMARK    8  A    between atoms: C9_9  and  C11_11 
REMARK    9  A    between atoms: C11_11  and  O1_12 
REMARK   10  A    between atoms: C11_11  and  C12_13 
REMARK   11  A    between atoms: C12_13  and  C14_15 
REMARK   12  A    between atoms: C14_15  and  O3_17 
REMARK   13  A    between atoms: O3_17  and  C15_18 
REMARK   14  A    between atoms: C27_31  and  O5_32 
REMARK   15  A    between atoms: C30_36  and  O7_37 
ROOT
HETATM    1  C14 UNL     1      -4.558  48.331 -27.700  1.00  0.00     0.266 C 
HETATM    2  O2  UNL     1      -3.609  48.015 -28.407  1.00  0.00    -0.265 OA
ENDROOT
BRANCH   1   3
HETATM    3  C12 UNL     1      -5.996  47.958 -27.975  1.00  0.00     0.114 C 
HETATM    4  C13 UNL     1      -6.612  47.471 -26.664  1.00  0.00     0.023 C 
BRANCH   3   5
HETATM    5  C11 UNL     1      -6.031  46.922 -29.105  1.00  0.00     0.159 C 
BRANCH   5   6
HETATM    6  C9  UNL     1      -7.390  46.253 -29.285  1.00  0.00    -0.058 C 
HETATM    7  C8  UNL     1      -8.443  46.944 -29.772  1.00  0.00    -0.015 C 
HETATM    8  C10 UNL     1      -7.441  44.817 -28.836  1.00  0.00     0.046 C 
BRANCH   7   9
HETATM    9  C7  UNL     1      -9.867  46.452 -29.968  1.00  0.00     0.032 C 
BRANCH   9  10
HETATM   10  C6  UNL     1     -10.003  45.070 -29.294  1.00  0.00     0.010 C 
BRANCH  10  11
HETATM   11  C5  UNL     1     -10.543  43.986 -30.233  1.00  0.00     0.001 C 
BRANCH  11  12
HETATM   12  C4  UNL     1     -10.137  44.195 -31.697  1.00  0.00     0.000 C 
BRANCH  12  13
HETATM   13  C3  UNL     1     -11.324  44.457 -32.627  1.00  0.00    -0.000 C 
BRANCH  13  14
HETATM   14  C2  UNL     1     -11.074  45.594 -33.624  1.00  0.00    -0.005 C 
HETATM   15  C1  UNL     1      -9.848  45.377 -34.497  1.00  0.00     0.005 C 
ENDBRANCH  13  14
ENDBRANCH  12  13
ENDBRANCH  11  12
ENDBRANCH  10  11
ENDBRANCH   9  10
BRANCH   9  16
HETATM   16  C30 UNL     1     -10.865  47.479 -29.400  1.00  0.00     0.172 C 
BRANCH  16  17
HETATM   17  O7  UNL     1     -10.488  48.807 -29.765  1.00  0.00    -0.400 OA
HETATM   18  H50 UNL     1      -9.571  48.940 -29.466  1.00  0.00     0.209 HD
ENDBRANCH  16  17
ENDBRANCH   9  16
ENDBRANCH   7   9
ENDBRANCH   5   6
BRANCH   5  19
HETATM   19  O1  UNL     1      -5.710  47.577 -30.340  1.00  0.00    -0.390 OA
HETATM   20  H20 UNL     1      -5.855  46.931 -31.050  1.00  0.00     0.210 HD
ENDBRANCH   5  19
ENDBRANCH   3   5
ENDBRANCH   1   3
BRANCH   1  21
HETATM   21  O3  UNL     1      -4.476  49.028 -26.534  1.00  0.00    -0.312 OA
BRANCH  21  22
HETATM   22  C15 UNL     1      -3.340  48.760 -25.694  1.00  0.00     0.170 C 
HETATM   23  C16 UNL     1      -3.863  48.340 -24.318  1.00  0.00     0.036 C 
HETATM   24  C17 UNL     1      -2.910  48.756 -23.210  1.00  0.00     0.007 C 
HETATM   25  C18 UNL     1      -2.754  50.291 -23.113  1.00  0.00    -0.007 C 
HETATM   26  C19 UNL     1      -3.734  50.852 -22.074  1.00  0.00     0.011 C 
HETATM   27  C20 UNL     1      -2.815  51.027 -24.516  1.00  0.00    -0.004 C 
HETATM   28  C21 UNL     1      -4.185  51.692 -24.794  1.00  0.00     0.019 C 
HETATM   29  C22 UNL     1      -1.721  52.130 -24.508  1.00  0.00     0.023 C 
HETATM   30  C29 UNL     1      -2.516  50.023 -25.625  1.00  0.00     0.127 A 
HETATM   31  C23 UNL     1      -1.470  52.816 -25.866  1.00  0.00     0.057 C 
HETATM   32  C24 UNL     1      -0.025  53.315 -25.986  1.00  0.00     0.015 C 
HETATM   33  C27 UNL     1      -1.639  51.948 -27.129  1.00  0.00     0.195 C 
HETATM   34  C25 UNL     1       0.229  54.659 -25.327  1.00  0.00     0.012 C 
HETATM   35  C26 UNL     1       0.184  53.325 -27.486  1.00  0.00     0.176 C 
HETATM   36  O4  UNL     1      -0.481  52.146 -27.947  1.00  0.00    -0.352 OA
HETATM   37  C28 UNL     1      -1.852  50.489 -26.901  1.00  0.00     0.223 A 
HETATM   38  O6  UNL     1      -1.103  49.834 -25.871  1.00  0.00    -0.360 OA
BRANCH  33  39
HETATM   39  O5  UNL     1      -2.745  52.465 -27.858  1.00  0.00    -0.363 OA
HETATM   40  H46 UNL     1      -2.804  51.919 -28.663  1.00  0.00     0.213 HD
ENDBRANCH  33  39
ENDBRANCH  21  22
ENDBRANCH   1  21
TORSDOF 15
ENDMDL
MODEL 9
REMARK minimizedAffinity -8.22734261
REMARK CNNscore 0.255660295
REMARK CNNaffinity 6.36524248
REMARK  15 active torsions:
REMARK  status: ('A' for Active; 'I' for Inactive)
REMARK    1  A    between atoms: C2_2  and  C3_3 
REMARK    2  A    between atoms: C3_3  and  C4_4 
REMARK    3  A    between atoms: C4_4  and  C5_5 
REMARK    4  A    between atoms: C5_5  and  C6_6 
REMARK    5  A    between atoms: C6_6  and  C7_7 
REMARK    6  A    between atoms: C7_7  and  C8_8 
REMARK    7  A    between atoms: C7_7  and  C30_36 
REMARK    8  A    between atoms: C9_9  and  C11_11 
REMARK    9  A    between atoms: C11_11  and  O1_12 
REMARK   10  A    between atoms: C11_11  and  C12_13 
REMARK   11  A    between atoms: C12_13  and  C14_15 
REMARK   12  A    between atoms: C14_15  and  O3_17 
REMARK   13  A    between atoms: O3_17  and  C15_18 
REMARK   14  A    between atoms: C27_31  and  O5_32 
REMARK   15  A    between atoms: C30_36  and  O7_37 
ROOT
HETATM    1  C14 UNL     1       0.818  52.991 -20.313  1.00  0.00     0.266 C 
HETATM    2  O2  UNL     1       1.192  53.962 -19.668  1.00  0.00    -0.265 OA
ENDROOT
BRANCH   1   3
HETATM    3  C12 UNL     1       0.980  52.838 -21.808  1.00  0.00     0.114 C 
HETATM    4  C13 UNL     1       1.336  54.209 -22.381  1.00  0.00     0.023 C 
BRANCH   3   5
HETATM    5  C11 UNL     1      -0.306  52.234 -22.386  1.00  0.00     0.159 C 
BRANCH   5   6
HETATM    6  C9  UNL     1      -0.436  52.395 -23.897  1.00  0.00    -0.058 C 
HETATM    7  C8  UNL     1       0.632  52.234 -24.706  1.00  0.00    -0.015 C 
HETATM    8  C10 UNL     1      -1.813  52.785 -24.365  1.00  0.00     0.046 C 
BRANCH   7   9
HETATM    9  C7  UNL     1       0.691  52.405 -26.215  1.00  0.00     0.032 C 
BRANCH   9  10
HETATM   10  C6  UNL     1       0.376  51.044 -26.872  1.00  0.00     0.010 C 
BRANCH  10  11
HETATM   11  C5  UNL     1      -1.096  50.885 -27.264  1.00  0.00     0.001 C 
BRANCH  11  12
HETATM   12  C4  UNL     1      -1.851  49.876 -26.390  1.00  0.00     0.000 C 
BRANCH  12  13
HETATM   13  C3  UNL     1      -3.373  50.005 -26.487  1.00  0.00    -0.000 C 
BRANCH  13  14
HETATM   14  C2  UNL     1      -4.086  48.658 -26.647  1.00  0.00    -0.005 C 
HETATM   15  C1  UNL     1      -5.052  48.343 -25.515  1.00  0.00     0.005 C 
ENDBRANCH  13  14
ENDBRANCH  12  13
ENDBRANCH  11  12
ENDBRANCH  10  11
ENDBRANCH   9  10
BRANCH   9  16
HETATM   16  C30 UNL     1      -0.286  53.510 -26.661  1.00  0.00     0.172 C 
BRANCH  16  17
HETATM   17  O7  UNL     1       0.230  54.802 -26.342  1.00  0.00    -0.400 OA
HETATM   18  H50 UNL     1       0.424  54.808 -25.388  1.00  0.00     0.209 HD
ENDBRANCH  16  17
ENDBRANCH   9  16
ENDBRANCH   7   9
ENDBRANCH   5   6
BRANCH   5  19
HETATM   19  O1  UNL     1      -0.321  50.828 -22.103  1.00  0.00    -0.390 OA
HETATM   20  H20 UNL     1      -1.078  50.451 -22.579  1.00  0.00     0.210 HD
ENDBRANCH   5  19
ENDBRANCH   3   5
ENDBRANCH   1   3
BRANCH   1  21
HETATM   21  O3  UNL     1       0.238  51.874 -19.794  1.00  0.00    -0.312 OA
BRANCH  21  22
HETATM   22  C15 UNL     1      -0.463  52.025 -18.548  1.00  0.00     0.170 C 
HETATM   23  C16 UNL     1       0.492  51.627 -17.420  1.00  0.00     0.036 C 
HETATM   24  C17 UNL     1      -0.257  51.025 -16.243  1.00  0.00     0.007 C 
HETATM   25  C18 UNL     1      -0.984  49.712 -16.617  1.00  0.00    -0.007 C 
HETATM   26  C19 UNL     1      -0.093  48.508 -16.283  1.00  0.00     0.011 C 
HETATM   27  C20 UNL     1      -1.553  49.699 -18.096  1.00  0.00    -0.004 C 
HETATM   28  C21 UNL     1      -0.668  48.895 -19.080  1.00  0.00     0.019 C 
HETATM   29  C22 UNL     1      -2.960  49.042 -18.044  1.00  0.00     0.023 C 
HETATM   30  C29 UNL     1      -1.680  51.133 -18.600  1.00  0.00     0.127 A 
HETATM   31  C23 UNL     1      -3.776  49.134 -19.349  1.00  0.00     0.057 C 
HETATM   32  C24 UNL     1      -5.283  49.142 -19.070  1.00  0.00     0.015 C 
HETATM   33  C27 UNL     1      -3.579  50.397 -20.209  1.00  0.00     0.195 C 
HETATM   34  C25 UNL     1      -5.889  47.766 -18.858  1.00  0.00     0.012 C 
HETATM   35  C26 UNL     1      -5.827  49.863 -20.286  1.00  0.00     0.176 C 
HETATM   36  O4  UNL     1      -4.877  50.901 -20.540  1.00  0.00    -0.352 OA
HETATM   37  C28 UNL     1      -2.755  51.483 -19.603  1.00  0.00     0.223 A 
HETATM   38  O6  UNL     1      -2.915  51.777 -18.211  1.00  0.00    -0.360 OA
BRANCH  33  39
HETATM   39  O5  UNL     1      -2.976  49.993 -21.433  1.00  0.00    -0.363 OA
HETATM   40  H46 UNL     1      -2.896  50.805 -21.964  1.00  0.00     0.213 HD
ENDBRANCH  33  39
ENDBRANCH  21  22
ENDBRANCH   1  21
TORSDOF 15
ENDMDL
