MODEL 1
REMARK minimizedAffinity -9.96993732
REMARK  4 active torsions:
REMARK  status: ('A' for Active; 'I' for Inactive)
REMARK    1  A    between atoms: C4_4  and  C5_5 
REMARK    2  A    between atoms: C5_5  and  C6_6 
REMARK    3  A    between atoms: C6_6  and  C7_7 
REMARK    4  A    between atoms: C7_7  and  C9_9 
ROOT
HETATM    1  C9  UNL     1      -1.459  49.538 -18.968  1.00  0.00    -0.002 C 
HETATM    2  C10 UNL     1      -2.899  49.064 -18.603  1.00  0.00     0.007 C 
HETATM    3  C11 UNL     1      -3.633  48.789 -19.915  1.00  0.00     0.015 C 
HETATM    4  C12 UNL     1      -2.998  49.783 -20.901  1.00  0.00    -0.013 C 
HETATM    5  C13 UNL     1      -3.599  51.186 -20.594  1.00  0.00     0.021 C 
HETATM    6  C14 UNL     1      -3.217  49.532 -22.383  1.00  0.00    -0.070 C 
HETATM    7  C15 UNL     1      -4.212  48.781 -22.881  1.00  0.00    -0.022 C 
HETATM    8  C16 UNL     1      -4.337  48.506 -24.345  1.00  0.00     0.034 C 
HETATM    9  C17 UNL     1      -3.907  49.663 -25.288  1.00  0.00     0.013 C 
HETATM   10  C18 UNL     1      -3.479  49.136 -26.703  1.00  0.00     0.018 C 
HETATM   11  C19 UNL     1      -2.255  48.202 -26.690  1.00  0.00     0.023 C 
HETATM   12  C20 UNL     1      -4.650  48.354 -27.351  1.00  0.00     0.023 C 
HETATM   13  C21 UNL     1      -3.175  50.342 -27.603  1.00  0.00     0.135 C 
HETATM   14  O1  UNL     1      -3.520  50.392 -28.792  1.00  0.00    -0.297 OA
HETATM   15  C22 UNL     1      -2.414  51.511 -27.021  1.00  0.00     0.080 C 
HETATM   16  C23 UNL     1      -1.873  51.247 -25.629  1.00  0.00     0.017 C 
HETATM   17  C24 UNL     1      -2.933  50.727 -24.624  1.00  0.00    -0.031 C 
HETATM   18  C25 UNL     1      -3.812  51.949 -24.212  1.00  0.00     0.016 C 
HETATM   19  C26 UNL     1      -2.206  50.123 -23.357  1.00  0.00     0.024 C 
HETATM   20  C27 UNL     1      -1.157  51.067 -22.706  1.00  0.00     0.010 C 
HETATM   21  C28 UNL     1      -0.701  50.760 -21.259  1.00  0.00     0.011 C 
HETATM   22  C29 UNL     1      -1.478  49.638 -20.549  1.00  0.00    -0.029 C 
HETATM   23  C30 UNL     1      -0.859  48.281 -21.032  1.00  0.00     0.016 C 
ENDROOT
BRANCH   1  24
HETATM   24  C7  UNL     1      -0.950  50.759 -18.134  1.00  0.00    -0.014 C 
HETATM   25  C8  UNL     1      -0.651  51.973 -19.030  1.00  0.00     0.010 C 
BRANCH  24  26
HETATM   26  C6  UNL     1       0.284  50.460 -17.236  1.00  0.00     0.008 C 
BRANCH  26  27
HETATM   27  C5  UNL     1       0.696  51.521 -16.198  1.00  0.00     0.028 C 
BRANCH  27  28
HETATM   28  C4  UNL     1       2.049  52.125 -16.449  1.00  0.00    -0.025 C 
HETATM   29  C2  UNL     1       3.171  52.013 -15.707  1.00  0.00    -0.091 C 
HETATM   30  C1  UNL     1       3.299  51.227 -14.431  1.00  0.00     0.042 C 
HETATM   31  C3  UNL     1       4.444  52.699 -16.140  1.00  0.00     0.042 C 
ENDBRANCH  27  28
ENDBRANCH  26  27
ENDBRANCH  24  26
ENDBRANCH   1  24
TORSDOF 4
ENDMDL
MODEL 2
REMARK minimizedAffinity -9.3837471
REMARK  4 active torsions:
REMARK  status: ('A' for Active; 'I' for Inactive)
REMARK    1  A    between atoms: C4_4  and  C5_5 
REMARK    2  A    between atoms: C5_5  and  C6_6 
REMARK    3  A    between atoms: C6_6  and  C7_7 
REMARK    4  A    between atoms: C7_7  and  C9_9 
ROOT
HETATM    1  C9  UNL     1      -1.676  49.323 -19.195  1.00  0.00    -0.002 C 
HETATM    2  C10 UNL     1      -3.137  48.907 -18.844  1.00  0.00     0.007 C 
HETATM    3  C11 UNL     1      -3.871  48.669 -20.162  1.00  0.00     0.015 C 
HETATM    4  C12 UNL     1      -3.188  49.641 -21.138  1.00  0.00    -0.013 C 
HETATM    5  C13 UNL     1      -3.733  51.067 -20.827  1.00  0.00     0.021 C 
HETATM    6  C14 UNL     1      -3.406  49.408 -22.623  1.00  0.00    -0.070 C 
HETATM    7  C15 UNL     1      -4.427  48.701 -23.132  1.00  0.00    -0.022 C 
HETATM    8  C16 UNL     1      -4.552  48.440 -24.599  1.00  0.00     0.034 C 
HETATM    9  C17 UNL     1      -4.068  49.584 -25.532  1.00  0.00     0.013 C 
HETATM   10  C18 UNL     1      -3.650  49.047 -26.947  1.00  0.00     0.018 C 
HETATM   11  C19 UNL     1      -2.466  48.063 -26.931  1.00  0.00     0.023 C 
HETATM   12  C20 UNL     1      -4.848  48.318 -27.608  1.00  0.00     0.023 C 
HETATM   13  C21 UNL     1      -3.290  50.245 -27.838  1.00  0.00     0.135 C 
HETATM   14  O1  UNL     1      -3.623  50.315 -29.029  1.00  0.00    -0.297 OA
HETATM   15  C22 UNL     1      -2.486  51.377 -27.243  1.00  0.00     0.080 C 
HETATM   16  C23 UNL     1      -1.967  51.084 -25.848  1.00  0.00     0.017 C 
HETATM   17  C24 UNL     1      -3.055  50.603 -24.854  1.00  0.00    -0.031 C 
HETATM   18  C25 UNL     1      -3.886  51.858 -24.442  1.00  0.00     0.016 C 
HETATM   19  C26 UNL     1      -2.364  49.962 -23.586  1.00  0.00     0.024 C 
HETATM   20  C27 UNL     1      -1.281  50.858 -22.921  1.00  0.00     0.010 C 
HETATM   21  C28 UNL     1      -0.850  50.524 -21.473  1.00  0.00     0.011 C 
HETATM   22  C29 UNL     1      -1.679  49.432 -20.775  1.00  0.00    -0.029 C 
HETATM   23  C30 UNL     1      -1.112  48.053 -21.261  1.00  0.00     0.016 C 
ENDROOT
BRANCH   1  24
HETATM   24  C7  UNL     1      -1.124  50.516 -18.350  1.00  0.00    -0.014 C 
HETATM   25  C8  UNL     1      -1.923  50.710 -17.050  1.00  0.00     0.010 C 
BRANCH  24  26
HETATM   26  C6  UNL     1      -1.043  51.869 -19.116  1.00  0.00     0.008 C 
BRANCH  26  27
HETATM   27  C5  UNL     1       0.119  52.822 -18.775  1.00  0.00     0.028 C 
BRANCH  27  28
HETATM   28  C4  UNL     1       0.467  53.777 -19.882  1.00  0.00    -0.025 C 
HETATM   29  C2  UNL     1       1.224  53.556 -20.977  1.00  0.00    -0.091 C 
HETATM   30  C1  UNL     1       1.896  52.257 -21.326  1.00  0.00     0.042 C 
HETATM   31  C3  UNL     1       1.449  54.658 -21.984  1.00  0.00     0.042 C 
ENDBRANCH  27  28
ENDBRANCH  26  27
ENDBRANCH  24  26
ENDBRANCH   1  24
TORSDOF 4
ENDMDL
MODEL 3
REMARK minimizedAffinity -9.36982441
REMARK  4 active torsions:
REMARK  status: ('A' for Active; 'I' for Inactive)
REMARK    1  A    between atoms: C4_4  and  C5_5 
REMARK    2  A    between atoms: C5_5  and  C6_6 
REMARK    3  A    between atoms: C6_6  and  C7_7 
REMARK    4  A    between atoms: C7_7  and  C9_9 
ROOT
HETATM    1  C9  UNL     1      -0.136  51.147 -21.053  1.00  0.00    -0.002 C 
HETATM    2  C10 UNL     1      -0.812  51.936 -19.892  1.00  0.00     0.007 C 
HETATM    3  C11 UNL     1      -2.233  51.395 -19.739  1.00  0.00     0.015 C 
HETATM    4  C12 UNL     1      -2.609  50.960 -21.165  1.00  0.00    -0.013 C 
HETATM    5  C13 UNL     1      -2.943  52.252 -21.968  1.00  0.00     0.021 C 
HETATM    6  C14 UNL     1      -3.802  50.033 -21.320  1.00  0.00    -0.070 C 
HETATM    7  C15 UNL     1      -4.767  49.886 -20.398  1.00  0.00    -0.022 C 
HETATM    8  C16 UNL     1      -5.880  48.904 -20.569  1.00  0.00     0.034 C 
HETATM    9  C17 UNL     1      -6.383  48.701 -22.025  1.00  0.00     0.013 C 
HETATM   10  C18 UNL     1      -7.056  47.297 -22.221  1.00  0.00     0.018 C 
HETATM   11  C19 UNL     1      -6.113  46.102 -21.992  1.00  0.00     0.023 C 
HETATM   12  C20 UNL     1      -8.247  47.141 -21.240  1.00  0.00     0.023 C 
HETATM   13  C21 UNL     1      -7.620  47.219 -23.647  1.00  0.00     0.135 C 
HETATM   14  O1  UNL     1      -8.719  46.707 -23.904  1.00  0.00    -0.297 OA
HETATM   15  C22 UNL     1      -6.798  47.777 -24.785  1.00  0.00     0.080 C 
HETATM   16  C23 UNL     1      -5.396  48.187 -24.375  1.00  0.00     0.017 C 
HETATM   17  C24 UNL     1      -5.345  49.132 -23.147  1.00  0.00    -0.031 C 
HETATM   18  C25 UNL     1      -5.775  50.548 -23.641  1.00  0.00     0.016 C 
HETATM   19  C26 UNL     1      -3.872  49.174 -22.576  1.00  0.00     0.024 C 
HETATM   20  C27 UNL     1      -2.779  49.489 -23.635  1.00  0.00     0.010 C 
HETATM   21  C28 UNL     1      -1.392  49.957 -23.133  1.00  0.00     0.011 C 
HETATM   22  C29 UNL     1      -1.299  50.233 -21.622  1.00  0.00    -0.029 C 
HETATM   23  C30 UNL     1      -1.085  48.848 -20.920  1.00  0.00     0.016 C 
ENDROOT
BRANCH   1  24
HETATM   24  C7  UNL     1       0.689  52.032 -22.042  1.00  0.00    -0.014 C 
HETATM   25  C8  UNL     1       1.092  53.373 -21.403  1.00  0.00     0.010 C 
BRANCH  24  26
HETATM   26  C6  UNL     1      -0.005  52.296 -23.409  1.00  0.00     0.008 C 
BRANCH  26  27
HETATM   27  C5  UNL     1       0.761  53.121 -24.460  1.00  0.00     0.028 C 
BRANCH  27  28
HETATM   28  C4  UNL     1       0.434  52.754 -25.880  1.00  0.00    -0.025 C 
HETATM   29  C2  UNL     1       1.153  52.006 -26.743  1.00  0.00    -0.091 C 
HETATM   30  C1  UNL     1       2.478  51.361 -26.445  1.00  0.00     0.042 C 
HETATM   31  C3  UNL     1       0.639  51.745 -28.138  1.00  0.00     0.042 C 
ENDBRANCH  27  28
ENDBRANCH  26  27
ENDBRANCH  24  26
ENDBRANCH   1  24
TORSDOF 4
ENDMDL
MODEL 4
REMARK minimizedAffinity -9.31425953
REMARK  4 active torsions:
REMARK  status: ('A' for Active; 'I' for Inactive)
REMARK    1  A    between atoms: C4_4  and  C5_5 
REMARK    2  A    between atoms: C5_5  and  C6_6 
REMARK    3  A    between atoms: C6_6  and  C7_7 
REMARK    4  A    between atoms: C7_7  and  C9_9 
ROOT
HETATM    1  C9  UNL     1      -2.032  48.046 -19.254  1.00  0.00    -0.002 C 
HETATM    2  C10 UNL     1      -3.413  47.526 -19.756  1.00  0.00     0.007 C 
HETATM    3  C11 UNL     1      -3.548  47.936 -21.222  1.00  0.00     0.015 C 
HETATM    4  C12 UNL     1      -2.746  49.245 -21.307  1.00  0.00    -0.013 C 
HETATM    5  C13 UNL     1      -3.623  50.366 -20.675  1.00  0.00     0.021 C 
HETATM    6  C14 UNL     1      -2.349  49.732 -22.690  1.00  0.00    -0.070 C 
HETATM    7  C15 UNL     1      -2.957  49.353 -23.825  1.00  0.00    -0.022 C 
HETATM    8  C16 UNL     1      -2.479  49.805 -25.167  1.00  0.00     0.034 C 
HETATM    9  C17 UNL     1      -1.905  51.248 -25.227  1.00  0.00     0.013 C 
HETATM   10  C18 UNL     1      -0.901  51.429 -26.420  1.00  0.00     0.018 C 
HETATM   11  C19 UNL     1       0.354  50.541 -26.335  1.00  0.00     0.023 C 
HETATM   12  C20 UNL     1      -1.608  51.101 -27.759  1.00  0.00     0.023 C 
HETATM   13  C21 UNL     1      -0.466  52.900 -26.474  1.00  0.00     0.135 C 
HETATM   14  O1  UNL     1      -0.341  53.520 -27.540  1.00  0.00    -0.297 OA
HETATM   15  C22 UNL     1      -0.167  53.619 -25.180  1.00  0.00     0.080 C 
HETATM   16  C23 UNL     1      -0.157  52.705 -23.969  1.00  0.00     0.017 C 
HETATM   17  C24 UNL     1      -1.426  51.826 -23.827  1.00  0.00    -0.031 C 
HETATM   18  C25 UNL     1      -2.569  52.751 -23.306  1.00  0.00     0.016 C 
HETATM   19  C26 UNL     1      -1.148  50.662 -22.794  1.00  0.00     0.024 C 
HETATM   20  C27 UNL     1      -0.577  51.137 -21.429  1.00  0.00     0.010 C 
HETATM   21  C28 UNL     1      -0.659  50.163 -20.228  1.00  0.00     0.011 C 
HETATM   22  C29 UNL     1      -1.468  48.878 -20.478  1.00  0.00    -0.029 C 
HETATM   23  C30 UNL     1      -0.515  47.880 -21.222  1.00  0.00     0.016 C 
ENDROOT
BRANCH   1  24
HETATM   24  C7  UNL     1      -2.065  48.704 -17.837  1.00  0.00    -0.014 C 
HETATM   25  C8  UNL     1      -3.096  49.844 -17.764  1.00  0.00     0.010 C 
BRANCH  24  26
HETATM   26  C6  UNL     1      -0.687  49.218 -17.328  1.00  0.00     0.008 C 
BRANCH  26  27
HETATM   27  C5  UNL     1      -0.660  50.526 -16.516  1.00  0.00     0.028 C 
BRANCH  27  28
HETATM   28  C4  UNL     1       0.721  51.078 -16.297  1.00  0.00    -0.025 C 
HETATM   29  C2  UNL     1       1.373  52.020 -17.010  1.00  0.00    -0.091 C 
HETATM   30  C1  UNL     1       0.828  52.738 -18.213  1.00  0.00     0.042 C 
HETATM   31  C3  UNL     1       2.768  52.445 -16.616  1.00  0.00     0.042 C 
ENDBRANCH  27  28
ENDBRANCH  26  27
ENDBRANCH  24  26
ENDBRANCH   1  24
TORSDOF 4
ENDMDL
MODEL 5
REMARK minimizedAffinity -9.22465229
REMARK  4 active torsions:
REMARK  status: ('A' for Active; 'I' for Inactive)
REMARK    1  A    between atoms: C4_4  and  C5_5 
REMARK    2  A    between atoms: C5_5  and  C6_6 
REMARK    3  A    between atoms: C6_6  and  C7_7 
REMARK    4  A    between atoms: C7_7  and  C9_9 
ROOT
HETATM    1  C9  UNL     1      -1.134  52.327 -22.465  1.00  0.00    -0.002 C 
HETATM    2  C10 UNL     1      -0.350  51.550 -23.565  1.00  0.00     0.007 C 
HETATM    3  C11 UNL     1      -1.319  50.547 -24.191  1.00  0.00     0.015 C 
HETATM    4  C12 UNL     1      -2.273  50.197 -23.037  1.00  0.00    -0.013 C 
HETATM    5  C13 UNL     1      -1.514  49.221 -22.091  1.00  0.00     0.021 C 
HETATM    6  C14 UNL     1      -3.585  49.521 -23.397  1.00  0.00    -0.070 C 
HETATM    7  C15 UNL     1      -3.802  48.862 -24.546  1.00  0.00    -0.022 C 
HETATM    8  C16 UNL     1      -5.136  48.279 -24.882  1.00  0.00     0.034 C 
HETATM    9  C17 UNL     1      -5.945  47.710 -23.683  1.00  0.00     0.013 C 
HETATM   10  C18 UNL     1      -7.488  47.699 -23.971  1.00  0.00     0.018 C 
HETATM   11  C19 UNL     1      -8.103  49.091 -24.199  1.00  0.00     0.023 C 
HETATM   12  C20 UNL     1      -7.782  46.852 -25.235  1.00  0.00     0.023 C 
HETATM   13  C21 UNL     1      -8.201  47.026 -22.789  1.00  0.00     0.135 C 
HETATM   14  O1  UNL     1      -9.145  46.237 -22.940  1.00  0.00    -0.297 OA
HETATM   15  C22 UNL     1      -7.744  47.348 -21.386  1.00  0.00     0.080 C 
HETATM   16  C23 UNL     1      -6.728  48.473 -21.323  1.00  0.00     0.017 C 
HETATM   17  C24 UNL     1      -5.512  48.282 -22.265  1.00  0.00    -0.031 C 
HETATM   18  C25 UNL     1      -4.587  47.210 -21.609  1.00  0.00     0.016 C 
HETATM   19  C26 UNL     1      -4.741  49.654 -22.415  1.00  0.00     0.024 C 
HETATM   20  C27 UNL     1      -4.369  50.333 -21.067  1.00  0.00     0.010 C 
HETATM   21  C28 UNL     1      -3.280  51.432 -21.083  1.00  0.00     0.011 C 
HETATM   22  C29 UNL     1      -2.547  51.612 -22.424  1.00  0.00    -0.029 C 
HETATM   23  C30 UNL     1      -3.464  52.510 -23.324  1.00  0.00     0.016 C 
ENDROOT
BRANCH   1  24
HETATM   24  C7  UNL     1      -0.344  52.531 -21.131  1.00  0.00    -0.014 C 
HETATM   25  C8  UNL     1       1.106  52.975 -21.391  1.00  0.00     0.010 C 
BRANCH  24  26
HETATM   26  C6  UNL     1      -0.347  51.298 -20.182  1.00  0.00     0.008 C 
BRANCH  26  27
HETATM   27  C5  UNL     1      -0.507  51.550 -18.671  1.00  0.00     0.028 C 
BRANCH  27  28
HETATM   28  C4  UNL     1       0.686  52.205 -18.033  1.00  0.00    -0.025 C 
HETATM   29  C2  UNL     1       1.330  51.857 -16.899  1.00  0.00    -0.091 C 
HETATM   30  C1  UNL     1       0.971  50.697 -16.012  1.00  0.00     0.042 C 
HETATM   31  C3  UNL     1       2.525  52.649 -16.427  1.00  0.00     0.042 C 
ENDBRANCH  27  28
ENDBRANCH  26  27
ENDBRANCH  24  26
ENDBRANCH   1  24
TORSDOF 4
ENDMDL
MODEL 6
REMARK minimizedAffinity -9.19684982
REMARK  4 active torsions:
REMARK  status: ('A' for Active; 'I' for Inactive)
REMARK    1  A    between atoms: C4_4  and  C5_5 
REMARK    2  A    between atoms: C5_5  and  C6_6 
REMARK    3  A    between atoms: C6_6  and  C7_7 
REMARK    4  A    between atoms: C7_7  and  C9_9 
ROOT
HETATM    1  C9  UNL     1      -3.762  50.744 -25.581  1.00  0.00    -0.002 C 
HETATM    2  C10 UNL     1      -3.471  49.218 -25.704  1.00  0.00     0.007 C 
HETATM    3  C11 UNL     1      -2.928  48.748 -24.355  1.00  0.00     0.015 C 
HETATM    4  C12 UNL     1      -2.200  49.986 -23.806  1.00  0.00    -0.013 C 
HETATM    5  C13 UNL     1      -0.847  50.101 -24.568  1.00  0.00     0.021 C 
HETATM    6  C14 UNL     1      -1.866  50.000 -22.324  1.00  0.00    -0.070 C 
HETATM    7  C15 UNL     1      -1.791  48.899 -21.559  1.00  0.00    -0.022 C 
HETATM    8  C16 UNL     1      -1.532  48.976 -20.089  1.00  0.00     0.034 C 
HETATM    9  C17 UNL     1      -0.575  50.112 -19.631  1.00  0.00     0.013 C 
HETATM   10  C18 UNL     1      -0.827  50.522 -18.137  1.00  0.00     0.018 C 
HETATM   11  C19 UNL     1      -2.230  51.093 -17.861  1.00  0.00     0.023 C 
HETATM   12  C20 UNL     1      -0.640  49.290 -17.214  1.00  0.00     0.023 C 
HETATM   13  C21 UNL     1       0.224  51.565 -17.733  1.00  0.00     0.135 C 
HETATM   14  O1  UNL     1       0.782  51.557 -16.626  1.00  0.00    -0.297 OA
HETATM   15  C22 UNL     1       0.583  52.654 -18.716  1.00  0.00     0.080 C 
HETATM   16  C23 UNL     1      -0.308  52.680 -19.943  1.00  0.00     0.017 C 
HETATM   17  C24 UNL     1      -0.437  51.312 -20.662  1.00  0.00    -0.031 C 
HETATM   18  C25 UNL     1       0.892  51.081 -21.448  1.00  0.00     0.016 C 
HETATM   19  C26 UNL     1      -1.663  51.354 -21.658  1.00  0.00     0.024 C 
HETATM   20  C27 UNL     1      -1.656  52.561 -22.637  1.00  0.00     0.010 C 
HETATM   21  C28 UNL     1      -2.552  52.481 -23.897  1.00  0.00     0.011 C 
HETATM   22  C29 UNL     1      -3.228  51.120 -24.137  1.00  0.00    -0.029 C 
HETATM   23  C30 UNL     1      -4.505  51.082 -23.228  1.00  0.00     0.016 C 
ENDROOT
BRANCH   1  24
HETATM   24  C7  UNL     1      -3.297  51.592 -26.809  1.00  0.00    -0.014 C 
HETATM   25  C8  UNL     1      -3.085  50.716 -28.056  1.00  0.00     0.010 C 
BRANCH  24  26
HETATM   26  C6  UNL     1      -2.026  52.454 -26.557  1.00  0.00     0.008 C 
BRANCH  26  27
HETATM   27  C5  UNL     1      -1.046  52.652 -27.729  1.00  0.00     0.028 C 
BRANCH  27  28
HETATM   28  C4  UNL     1       0.288  51.990 -27.526  1.00  0.00    -0.025 C 
HETATM   29  C2  UNL     1       1.146  52.125 -26.493  1.00  0.00    -0.091 C 
HETATM   30  C1  UNL     1       0.930  52.998 -25.288  1.00  0.00     0.042 C 
HETATM   31  C3  UNL     1       2.445  51.357 -26.475  1.00  0.00     0.042 C 
ENDBRANCH  27  28
ENDBRANCH  26  27
ENDBRANCH  24  26
ENDBRANCH   1  24
TORSDOF 4
ENDMDL
MODEL 7
REMARK minimizedAffinity -9.03212833
REMARK  4 active torsions:
REMARK  status: ('A' for Active; 'I' for Inactive)
REMARK    1  A    between atoms: C4_4  and  C5_5 
REMARK    2  A    between atoms: C5_5  and  C6_6 
REMARK    3  A    between atoms: C6_6  and  C7_7 
REMARK    4  A    between atoms: C7_7  and  C9_9 
ROOT
HETATM    1  C9  UNL     1      -1.504  52.176 -24.616  1.00  0.00    -0.002 C 
HETATM    2  C10 UNL     1      -0.837  51.068 -25.485  1.00  0.00     0.007 C 
HETATM    3  C11 UNL     1      -1.897  50.001 -25.756  1.00  0.00     0.015 C 
HETATM    4  C12 UNL     1      -2.793  50.057 -24.508  1.00  0.00    -0.013 C 
HETATM    5  C13 UNL     1      -2.031  49.334 -23.359  1.00  0.00     0.021 C 
HETATM    6  C14 UNL     1      -4.161  49.403 -24.600  1.00  0.00    -0.070 C 
HETATM    7  C15 UNL     1      -4.487  48.465 -25.504  1.00  0.00    -0.022 C 
HETATM    8  C16 UNL     1      -5.871  47.907 -25.599  1.00  0.00     0.034 C 
HETATM    9  C17 UNL     1      -6.631  47.757 -24.252  1.00  0.00     0.013 C 
HETATM   10  C18 UNL     1      -8.188  47.775 -24.454  1.00  0.00     0.018 C 
HETATM   11  C19 UNL     1      -8.739  49.087 -25.039  1.00  0.00     0.023 C 
HETATM   12  C20 UNL     1      -8.608  46.630 -25.411  1.00  0.00     0.023 C 
HETATM   13  C21 UNL     1      -8.860  47.513 -23.099  1.00  0.00     0.135 C 
HETATM   14  O1  UNL     1      -9.854  46.783 -22.976  1.00  0.00    -0.297 OA
HETATM   15  C22 UNL     1      -8.297  48.182 -21.867  1.00  0.00     0.080 C 
HETATM   16  C23 UNL     1      -7.218  49.204 -22.172  1.00  0.00     0.017 C 
HETATM   17  C24 UNL     1      -6.078  48.671 -23.077  1.00  0.00    -0.031 C 
HETATM   18  C25 UNL     1      -5.174  47.762 -22.186  1.00  0.00     0.016 C 
HETATM   19  C26 UNL     1      -5.243  49.887 -23.644  1.00  0.00     0.024 C 
HETATM   20  C27 UNL     1      -4.749  50.889 -22.563  1.00  0.00     0.010 C 
HETATM   21  C28 UNL     1      -3.603  51.859 -22.940  1.00  0.00     0.011 C 
HETATM   22  C29 UNL     1      -2.949  51.603 -24.309  1.00  0.00    -0.029 C 
HETATM   23  C30 UNL     1      -3.871  52.275 -25.385  1.00  0.00     0.016 C 
ENDROOT
BRANCH   1  24
HETATM   24  C7  UNL     1      -0.621  52.689 -23.433  1.00  0.00    -0.014 C 
HETATM   25  C8  UNL     1       0.629  53.431 -23.937  1.00  0.00     0.010 C 
BRANCH  24  26
HETATM   26  C6  UNL     1      -0.197  51.588 -22.417  1.00  0.00     0.008 C 
BRANCH  26  27
HETATM   27  C5  UNL     1      -0.968  51.499 -21.087  1.00  0.00     0.028 C 
BRANCH  27  28
HETATM   28  C4  UNL     1      -0.103  51.663 -19.869  1.00  0.00    -0.025 C 
HETATM   29  C2  UNL     1       0.579  52.755 -19.463  1.00  0.00    -0.091 C 
HETATM   30  C1  UNL     1       0.609  54.080 -20.173  1.00  0.00     0.042 C 
HETATM   31  C3  UNL     1       1.393  52.717 -18.192  1.00  0.00     0.042 C 
ENDBRANCH  27  28
ENDBRANCH  26  27
ENDBRANCH  24  26
ENDBRANCH   1  24
TORSDOF 4
ENDMDL
MODEL 8
REMARK minimizedAffinity -8.8426075
REMARK  4 active torsions:
REMARK  status: ('A' for Active; 'I' for Inactive)
REMARK    1  A    between atoms: C4_4  and  C5_5 
REMARK    2  A    between atoms: C5_5  and  C6_6 
REMARK    3  A    between atoms: C6_6  and  C7_7 
REMARK    4  A    between atoms: C7_7  and  C9_9 
ROOT
HETATM    1  C9  UNL     1      -1.229  50.511 -22.641  1.00  0.00    -0.002 C 
HETATM    2  C10 UNL     1      -1.426  51.537 -21.484  1.00  0.00     0.007 C 
HETATM    3  C11 UNL     1      -2.696  51.138 -20.734  1.00  0.00     0.015 C 
HETATM    4  C12 UNL     1      -3.572  50.495 -21.821  1.00  0.00    -0.013 C 
HETATM    5  C13 UNL     1      -4.167  51.650 -22.678  1.00  0.00     0.021 C 
HETATM    6  C14 UNL     1      -4.745  49.647 -21.360  1.00  0.00    -0.070 C 
HETATM    7  C15 UNL     1      -5.305  49.733 -20.143  1.00  0.00    -0.022 C 
HETATM    8  C16 UNL     1      -6.411  48.822 -19.716  1.00  0.00     0.034 C 
HETATM    9  C17 UNL     1      -7.414  48.411 -20.829  1.00  0.00     0.013 C 
HETATM   10  C18 UNL     1      -8.122  47.048 -20.504  1.00  0.00     0.018 C 
HETATM   11  C19 UNL     1      -7.169  45.843 -20.409  1.00  0.00     0.023 C 
HETATM   12  C20 UNL     1      -8.871  47.153 -19.151  1.00  0.00     0.023 C 
HETATM   13  C21 UNL     1      -9.170  46.770 -21.591  1.00  0.00     0.135 C 
HETATM   14  O1  UNL     1     -10.290  46.305 -21.336  1.00  0.00    -0.297 OA
HETATM   15  C22 UNL     1      -8.818  47.060 -23.031  1.00  0.00     0.080 C 
HETATM   16  C23 UNL     1      -7.361  47.428 -23.236  1.00  0.00     0.017 C 
HETATM   17  C24 UNL     1      -6.857  48.563 -22.309  1.00  0.00    -0.031 C 
HETATM   18  C25 UNL     1      -7.428  49.902 -22.871  1.00  0.00     0.016 C 
HETATM   19  C26 UNL     1      -5.276  48.593 -22.323  1.00  0.00     0.024 C 
HETATM   20  C27 UNL     1      -4.646  48.638 -23.743  1.00  0.00     0.010 C 
HETATM   21  C28 UNL     1      -3.168  49.080 -23.869  1.00  0.00     0.011 C 
HETATM   22  C29 UNL     1      -2.526  49.604 -22.572  1.00  0.00    -0.029 C 
HETATM   23  C30 UNL     1      -2.079  48.347 -21.749  1.00  0.00     0.016 C 
ENDROOT
BRANCH   1  24
HETATM   24  C7  UNL     1      -0.817  51.149 -24.007  1.00  0.00    -0.014 C 
HETATM   25  C8  UNL     1      -0.660  52.675 -23.897  1.00  0.00     0.010 C 
BRANCH  24  26
HETATM   26  C6  UNL     1      -1.766  50.809 -25.193  1.00  0.00     0.008 C 
BRANCH  26  27
HETATM   27  C5  UNL     1      -1.127  50.443 -26.546  1.00  0.00     0.028 C 
BRANCH  27  28
HETATM   28  C4  UNL     1       0.358  50.664 -26.598  1.00  0.00    -0.025 C 
HETATM   29  C2  UNL     1       1.045  51.613 -27.268  1.00  0.00    -0.091 C 
HETATM   30  C1  UNL     1       0.437  52.684 -28.131  1.00  0.00     0.042 C 
HETATM   31  C3  UNL     1       2.551  51.670 -27.182  1.00  0.00     0.042 C 
ENDBRANCH  27  28
ENDBRANCH  26  27
ENDBRANCH  24  26
ENDBRANCH   1  24
TORSDOF 4
ENDMDL
MODEL 9
REMARK minimizedAffinity -8.63255215
REMARK  4 active torsions:
REMARK  status: ('A' for Active; 'I' for Inactive)
REMARK    1  A    between atoms: C4_4  and  C5_5 
REMARK    2  A    between atoms: C5_5  and  C6_6 
REMARK    3  A    between atoms: C6_6  and  C7_7 
REMARK    4  A    between atoms: C7_7  and  C9_9 
ROOT
HETATM    1  C9  UNL     1      -1.873  50.409 -22.996  1.00  0.00    -0.002 C 
HETATM    2  C10 UNL     1      -2.320  51.252 -21.765  1.00  0.00     0.007 C 
HETATM    3  C11 UNL     1      -3.611  50.631 -21.231  1.00  0.00     0.015 C 
HETATM    4  C12 UNL     1      -4.276  50.044 -22.487  1.00  0.00    -0.013 C 
HETATM    5  C13 UNL     1      -4.903  51.231 -23.275  1.00  0.00     0.021 C 
HETATM    6  C14 UNL     1      -5.384  49.027 -22.279  1.00  0.00    -0.070 C 
HETATM    7  C15 UNL     1      -6.085  48.899 -21.141  1.00  0.00    -0.022 C 
HETATM    8  C16 UNL     1      -7.116  47.831 -20.964  1.00  0.00     0.034 C 
HETATM    9  C17 UNL     1      -7.931  47.463 -22.235  1.00  0.00     0.013 C 
HETATM   10  C18 UNL     1      -8.504  46.004 -22.160  1.00  0.00     0.018 C 
HETATM   11  C19 UNL     1      -7.432  44.902 -22.082  1.00  0.00     0.023 C 
HETATM   12  C20 UNL     1      -9.408  45.856 -20.909  1.00  0.00     0.023 C 
HETATM   13  C21 UNL     1      -9.381  45.758 -23.395  1.00  0.00     0.135 C 
HETATM   14  O1  UNL     1     -10.460  45.151 -23.339  1.00  0.00    -0.297 OA
HETATM   15  C22 UNL     1      -8.906  46.265 -24.737  1.00  0.00     0.080 C 
HETATM   16  C23 UNL     1      -7.489  46.806 -24.712  1.00  0.00     0.017 C 
HETATM   17  C24 UNL     1      -7.231  47.860 -23.605  1.00  0.00    -0.031 C 
HETATM   18  C25 UNL     1      -7.890  49.193 -24.078  1.00  0.00     0.016 C 
HETATM   19  C26 UNL     1      -5.674  48.055 -23.415  1.00  0.00     0.024 C 
HETATM   20  C27 UNL     1      -4.897  48.346 -24.729  1.00  0.00     0.010 C 
HETATM   21  C28 UNL     1      -3.477  48.952 -24.615  1.00  0.00     0.011 C 
HETATM   22  C29 UNL     1      -3.053  49.370 -23.197  1.00  0.00    -0.029 C 
HETATM   23  C30 UNL     1      -2.556  48.072 -22.472  1.00  0.00     0.016 C 
ENDROOT
BRANCH   1  24
HETATM   24  C7  UNL     1      -1.388  51.255 -24.218  1.00  0.00    -0.014 C 
HETATM   25  C8  UNL     1      -1.352  50.419 -25.509  1.00  0.00     0.010 C 
BRANCH  24  26
HETATM   26  C6  UNL     1      -0.014  51.956 -24.015  1.00  0.00     0.008 C 
BRANCH  26  27
HETATM   27  C5  UNL     1       0.311  53.175 -24.898  1.00  0.00     0.028 C 
BRANCH  27  28
HETATM   28  C4  UNL     1       0.396  52.860 -26.365  1.00  0.00    -0.025 C 
HETATM   29  C2  UNL     1       1.304  52.098 -27.011  1.00  0.00    -0.091 C 
HETATM   30  C1  UNL     1       2.459  51.382 -26.367  1.00  0.00     0.042 C 
HETATM   31  C3  UNL     1       1.208  51.897 -28.504  1.00  0.00     0.042 C 
ENDBRANCH  27  28
ENDBRANCH  26  27
ENDBRANCH  24  26
ENDBRANCH   1  24
TORSDOF 4
ENDMDL
