MODEL 1
REMARK minimizedAffinity -11.6261272
REMARK  5 active torsions:
REMARK  status: ('A' for Active; 'I' for Inactive)
REMARK    1  A    between atoms: N1_2  and  C2_3 
REMARK    2  A    between atoms: C4_5  and  N3_29 
REMARK    3  A    between atoms: C5_7  and  N2_12 
REMARK    4  A    between atoms: C7_9  and  O2_10 
REMARK    5  A    between atoms: C28_35  and  O4_36 
ROOT
HETATM    1  C2  UNL     1      -4.252  49.142 -20.189  1.00  0.00     0.257 C 
HETATM    2  C3  UNL     1      -3.118  49.632 -21.177  1.00  0.00     0.092 C 
HETATM    3  C4  UNL     1      -3.665  49.318 -22.537  1.00  0.00     0.234 C 
HETATM    4  O1  UNL     1      -4.957  49.929 -22.548  1.00  0.00    -0.333 OA
HETATM    5  C5  UNL     1      -5.947  48.947 -22.197  1.00  0.00     0.168 C 
HETATM    6  C6  UNL     1      -7.207  49.798 -21.959  1.00  0.00     0.074 C 
HETATM    7  C7  UNL     1      -5.416  48.238 -20.865  1.00  0.00     0.209 C 
ENDROOT
BRANCH   1   8
HETATM    8  N1  UNL     1      -3.692  48.607 -18.930  1.00  0.00     0.086 N 
HETATM    9  C1  UNL     1      -2.355  48.046 -19.033  1.00  0.00     0.307 C 
HETATM   10  H4  UNL     1      -4.334  47.891 -18.582  1.00  0.00     0.316 HD
ENDBRANCH   1   8
BRANCH   7  11
HETATM   11  O2  UNL     1      -6.488  48.062 -19.919  1.00  0.00    -0.384 OA
HETATM   12  C8  UNL     1      -6.050  47.865 -18.581  1.00  0.00     0.202 C 
ENDBRANCH   7  11
BRANCH   3  13
HETATM   13  N3  UNL     1      -3.192  49.464 -23.866  1.00  0.00    -0.316 N 
HETATM   14  C24 UNL     1      -3.647  49.108 -25.098  1.00  0.00     0.048 A 
HETATM   15  C19 UNL     1      -2.810  49.762 -26.036  1.00  0.00     0.004 A 
HETATM   16  C23 UNL     1      -4.714  48.288 -25.489  1.00  0.00     0.030 A 
HETATM   17  C18 UNL     1      -1.844  50.540 -25.310  1.00  0.00     0.022 A 
HETATM   18  C20 UNL     1      -3.077  49.567 -27.407  1.00  0.00     0.014 A 
HETATM   19  C17 UNL     1      -0.790  51.444 -25.501  1.00  0.00     0.057 A 
HETATM   20  C25 UNL     1      -2.105  50.285 -23.988  1.00  0.00     0.077 A 
HETATM   21  C16 UNL     1      -0.062  52.101 -24.444  1.00  0.00     0.020 A 
HETATM   22  C27 UNL     1      -0.253  51.943 -26.771  1.00  0.00     0.255 A 
HETATM   23  C15 UNL     1      -0.325  51.866 -23.076  1.00  0.00     0.017 A 
HETATM   24  C28 UNL     1       0.965  53.002 -25.073  1.00  0.00     0.257 A 
HETATM   25  C14 UNL     1       0.122  52.348 -21.811  1.00  0.00     0.004 A 
HETATM   26  C26 UNL     1      -1.303  50.938 -22.797  1.00  0.00     0.077 A 
HETATM   27  C9  UNL     1      -0.586  51.661 -20.803  1.00  0.00     0.049 A 
HETATM   28  C13 UNL     1       1.064  53.330 -21.431  1.00  0.00     0.014 A 
HETATM   29  N2  UNL     1      -1.412  50.732 -21.428  1.00  0.00    -0.308 N 
HETATM   30  C10 UNL     1      -0.371  51.948 -19.443  1.00  0.00     0.030 A 
HETATM   31  C11 UNL     1       0.566  52.928 -19.101  1.00  0.00     0.002 A 
HETATM   32  C12 UNL     1       1.276  53.609 -20.080  1.00  0.00     0.001 A 
HETATM   33  N4  UNL     1       0.711  52.875 -26.468  1.00  0.00    -0.326 N 
HETATM   34  H24 UNL     1       1.278  53.302 -27.185  1.00  0.00     0.165 HD
HETATM   35  O3  UNL     1      -0.584  51.616 -27.893  1.00  0.00    -0.268 OA
HETATM   36  C21 UNL     1      -4.138  48.744 -27.802  1.00  0.00     0.001 A 
HETATM   37  C22 UNL     1      -4.942  48.116 -26.856  1.00  0.00     0.002 A 
BRANCH  24  38
HETATM   38  O4  UNL     1       0.769  54.355 -24.755  1.00  0.00    -0.372 OA
HETATM   39  H26 UNL     1      -0.162  54.537 -24.967  1.00  0.00     0.212 HD
ENDBRANCH  24  38
ENDBRANCH   3  13
TORSDOF 5
ENDMDL
MODEL 2
REMARK minimizedAffinity -11.5366383
REMARK  5 active torsions:
REMARK  status: ('A' for Active; 'I' for Inactive)
REMARK    1  A    between atoms: N1_2  and  C2_3 
REMARK    2  A    between atoms: C4_5  and  N3_29 
REMARK    3  A    between atoms: C5_7  and  N2_12 
REMARK    4  A    between atoms: C7_9  and  O2_10 
REMARK    5  A    between atoms: C28_35  and  O4_36 
ROOT
HETATM    1  C2  UNL     1       0.053  53.503 -26.678  1.00  0.00     0.257 C 
HETATM    2  C3  UNL     1      -0.357  53.827 -25.186  1.00  0.00     0.092 C 
HETATM    3  C4  UNL     1      -0.169  52.524 -24.470  1.00  0.00     0.234 C 
HETATM    4  O1  UNL     1       1.169  52.134 -24.791  1.00  0.00    -0.333 OA
HETATM    5  C5  UNL     1       1.141  51.230 -25.908  1.00  0.00     0.168 C 
HETATM    6  C6  UNL     1       2.622  51.143 -26.318  1.00  0.00     0.074 C 
HETATM    7  C7  UNL     1       0.229  51.927 -27.022  1.00  0.00     0.209 C 
ENDROOT
BRANCH   1   8
HETATM    8  N1  UNL     1      -0.752  54.272 -27.651  1.00  0.00     0.086 N 
HETATM    9  C1  UNL     1      -1.767  53.508 -28.359  1.00  0.00     0.307 C 
HETATM   10  H4  UNL     1      -0.109  54.689 -28.328  1.00  0.00     0.316 HD
ENDBRANCH   1   8
BRANCH   7  11
HETATM   11  O2  UNL     1       0.823  51.790 -28.327  1.00  0.00    -0.384 OA
HETATM   12  C8  UNL     1       2.202  52.133 -28.371  1.00  0.00     0.202 C 
ENDBRANCH   7  11
BRANCH   3  13
HETATM   13  N3  UNL     1      -0.358  52.076 -23.137  1.00  0.00    -0.316 N 
HETATM   14  C24 UNL     1       0.055  52.493 -21.909  1.00  0.00     0.048 A 
HETATM   15  C19 UNL     1      -0.682  51.738 -20.964  1.00  0.00     0.004 A 
HETATM   16  C23 UNL     1       0.991  53.464 -21.529  1.00  0.00     0.030 A 
HETATM   17  C18 UNL     1      -1.567  50.862 -21.680  1.00  0.00     0.022 A 
HETATM   18  C20 UNL     1      -0.450  51.988 -19.595  1.00  0.00     0.014 A 
HETATM   19  C17 UNL     1      -2.582  49.916 -21.479  1.00  0.00     0.057 A 
HETATM   20  C25 UNL     1      -1.294  51.087 -23.004  1.00  0.00     0.077 A 
HETATM   21  C16 UNL     1      -3.323  49.262 -22.528  1.00  0.00     0.020 A 
HETATM   22  C27 UNL     1      -3.130  49.443 -20.202  1.00  0.00     0.255 A 
HETATM   23  C15 UNL     1      -3.070  49.491 -23.899  1.00  0.00     0.017 A 
HETATM   24  C28 UNL     1      -4.328  48.344 -21.889  1.00  0.00     0.257 A 
HETATM   25  C14 UNL     1      -3.606  49.095 -25.158  1.00  0.00     0.004 A 
HETATM   26  C26 UNL     1      -2.040  50.359 -24.188  1.00  0.00     0.077 A 
HETATM   27  C9  UNL     1      -2.852  49.718 -26.174  1.00  0.00     0.049 A 
HETATM   28  C13 UNL     1      -4.690  48.267 -25.527  1.00  0.00     0.014 A 
HETATM   29  N2  UNL     1      -1.832  50.439 -25.559  1.00  0.00    -0.308 N 
HETATM   30  C10 UNL     1      -3.170  49.531 -27.531  1.00  0.00     0.030 A 
HETATM   31  C11 UNL     1      -4.250  48.708 -27.862  1.00  0.00     0.002 A 
HETATM   32  C12 UNL     1      -5.000  48.082 -26.876  1.00  0.00     0.001 A 
HETATM   33  N4  UNL     1      -4.165  48.588 -20.496  1.00  0.00    -0.326 N 
HETATM   34  H24 UNL     1      -4.648  48.075 -19.773  1.00  0.00     0.165 HD
HETATM   35  O3  UNL     1      -2.760  49.740 -19.085  1.00  0.00    -0.268 OA
HETATM   36  C21 UNL     1       0.489  52.952 -19.210  1.00  0.00     0.001 A 
HETATM   37  C22 UNL     1       1.196  53.677 -20.164  1.00  0.00     0.002 A 
BRANCH  24  38
HETATM   38  O4  UNL     1      -5.653  48.688 -22.199  1.00  0.00    -0.372 OA
HETATM   39  H26 UNL     1      -5.730  49.634 -21.990  1.00  0.00     0.212 HD
ENDBRANCH  24  38
ENDBRANCH   3  13
TORSDOF 5
ENDMDL
MODEL 3
REMARK minimizedAffinity -11.3982458
REMARK  5 active torsions:
REMARK  status: ('A' for Active; 'I' for Inactive)
REMARK    1  A    between atoms: N1_2  and  C2_3 
REMARK    2  A    between atoms: C4_5  and  N3_29 
REMARK    3  A    between atoms: C5_7  and  N2_12 
REMARK    4  A    between atoms: C7_9  and  O2_10 
REMARK    5  A    between atoms: C28_35  and  O4_36 
ROOT
HETATM    1  C2  UNL     1      -4.537  49.377 -20.244  1.00  0.00     0.257 C 
HETATM    2  C3  UNL     1      -4.463  50.214 -21.583  1.00  0.00     0.092 C 
HETATM    3  C4  UNL     1      -3.650  49.354 -22.502  1.00  0.00     0.234 C 
HETATM    4  O1  UNL     1      -4.306  48.084 -22.470  1.00  0.00    -0.333 OA
HETATM    5  C5  UNL     1      -3.653  47.240 -21.506  1.00  0.00     0.168 C 
HETATM    6  C6  UNL     1      -4.628  46.057 -21.369  1.00  0.00     0.074 C 
HETATM    7  C7  UNL     1      -3.533  48.105 -20.167  1.00  0.00     0.209 C 
ENDROOT
BRANCH   1   8
HETATM    8  N1  UNL     1      -4.541  50.247 -19.050  1.00  0.00     0.086 N 
HETATM    9  C1  UNL     1      -3.247  50.432 -18.411  1.00  0.00     0.307 C 
HETATM   10  H4  UNL     1      -5.197  49.848 -18.374  1.00  0.00     0.316 HD
ENDBRANCH   1   8
BRANCH   7  11
HETATM   11  O2  UNL     1      -3.867  47.308 -19.014  1.00  0.00    -0.384 OA
HETATM   12  C8  UNL     1      -2.736  46.791 -18.324  1.00  0.00     0.202 C 
ENDBRANCH   7  11
BRANCH   3  13
HETATM   13  N3  UNL     1      -3.178  49.475 -23.835  1.00  0.00    -0.316 N 
HETATM   14  C24 UNL     1      -3.643  49.111 -25.061  1.00  0.00     0.048 A 
HETATM   15  C19 UNL     1      -2.797  49.739 -26.009  1.00  0.00     0.004 A 
HETATM   16  C23 UNL     1      -4.725  48.305 -25.439  1.00  0.00     0.030 A 
HETATM   17  C18 UNL     1      -1.816  50.509 -25.295  1.00  0.00     0.022 A 
HETATM   18  C20 UNL     1      -3.072  49.532 -27.377  1.00  0.00     0.014 A 
HETATM   19  C17 UNL     1      -0.748  51.392 -25.500  1.00  0.00     0.057 A 
HETATM   20  C25 UNL     1      -2.078  50.276 -23.970  1.00  0.00     0.077 A 
HETATM   21  C16 UNL     1      -0.006  52.050 -24.454  1.00  0.00     0.020 A 
HETATM   22  C27 UNL     1      -0.206  51.867 -26.779  1.00  0.00     0.255 A 
HETATM   23  C15 UNL     1      -0.268  51.837 -23.082  1.00  0.00     0.017 A 
HETATM   24  C28 UNL     1       1.035  52.925 -25.097  1.00  0.00     0.257 A 
HETATM   25  C14 UNL     1       0.191  52.327 -21.825  1.00  0.00     0.004 A 
HETATM   26  C26 UNL     1      -1.262  50.930 -22.789  1.00  0.00     0.077 A 
HETATM   27  C9  UNL     1      -0.527  51.665 -20.806  1.00  0.00     0.049 A 
HETATM   28  C13 UNL     1       1.150  53.297 -21.460  1.00  0.00     0.014 A 
HETATM   29  N2  UNL     1      -1.371  50.742 -21.417  1.00  0.00    -0.308 N 
HETATM   30  C10 UNL     1      -0.302  51.965 -19.451  1.00  0.00     0.030 A 
HETATM   31  C11 UNL     1       0.652  52.933 -19.124  1.00  0.00     0.002 A 
HETATM   32  C12 UNL     1       1.371  53.590 -20.113  1.00  0.00     0.001 A 
HETATM   33  N4  UNL     1       0.775  52.786 -26.489  1.00  0.00    -0.326 N 
HETATM   34  H24 UNL     1       1.347  53.194 -27.214  1.00  0.00     0.165 HD
HETATM   35  O3  UNL     1      -0.546  51.531 -27.895  1.00  0.00    -0.268 OA
HETATM   36  C21 UNL     1      -4.148  48.722 -27.759  1.00  0.00     0.001 A 
HETATM   37  C22 UNL     1      -4.960  48.120 -26.803  1.00  0.00     0.002 A 
BRANCH  24  38
HETATM   38  O4  UNL     1       0.863  54.285 -24.795  1.00  0.00    -0.372 OA
HETATM   39  H26 UNL     1      -0.065  54.481 -25.007  1.00  0.00     0.212 HD
ENDBRANCH  24  38
ENDBRANCH   3  13
TORSDOF 5
ENDMDL
MODEL 4
REMARK minimizedAffinity -11.3601723
REMARK  5 active torsions:
REMARK  status: ('A' for Active; 'I' for Inactive)
REMARK    1  A    between atoms: N1_2  and  C2_3 
REMARK    2  A    between atoms: C4_5  and  N3_29 
REMARK    3  A    between atoms: C5_7  and  N2_12 
REMARK    4  A    between atoms: C7_9  and  O2_10 
REMARK    5  A    between atoms: C28_35  and  O4_36 
ROOT
HETATM    1  C2  UNL     1      -3.155  47.633 -20.914  1.00  0.00     0.257 C 
HETATM    2  C3  UNL     1      -1.765  48.384 -20.952  1.00  0.00     0.092 C 
HETATM    3  C4  UNL     1      -2.121  49.780 -21.366  1.00  0.00     0.234 C 
HETATM    4  O1  UNL     1      -3.139  50.174 -20.443  1.00  0.00    -0.333 OA
HETATM    5  C5  UNL     1      -4.428  49.936 -21.033  1.00  0.00     0.168 C 
HETATM    6  C6  UNL     1      -5.389  50.115 -19.844  1.00  0.00     0.074 C 
HETATM    7  C7  UNL     1      -4.395  48.436 -21.584  1.00  0.00     0.209 C 
ENDROOT
BRANCH   1   8
HETATM    8  N1  UNL     1      -3.029  46.218 -21.322  1.00  0.00     0.086 N 
HETATM    9  C1  UNL     1      -3.772  45.267 -20.509  1.00  0.00     0.307 C 
HETATM   10  H4  UNL     1      -2.035  45.975 -21.304  1.00  0.00     0.316 HD
ENDBRANCH   1   8
BRANCH   7  11
HETATM   11  O2  UNL     1      -5.625  47.752 -21.275  1.00  0.00    -0.384 OA
HETATM   12  C8  UNL     1      -6.438  47.487 -22.411  1.00  0.00     0.202 C 
ENDBRANCH   7  11
BRANCH   3  13
HETATM   13  N3  UNL     1      -1.389  50.969 -21.616  1.00  0.00    -0.316 N 
HETATM   14  C24 UNL     1      -0.537  51.749 -20.896  1.00  0.00     0.048 A 
HETATM   15  C19 UNL     1       0.032  52.667 -21.812  1.00  0.00     0.004 A 
HETATM   16  C23 UNL     1      -0.197  51.736 -19.537  1.00  0.00     0.030 A 
HETATM   17  C18 UNL     1      -0.504  52.392 -23.116  1.00  0.00     0.022 A 
HETATM   18  C20 UNL     1       0.973  53.595 -21.317  1.00  0.00     0.014 A 
HETATM   19  C17 UNL     1      -0.403  52.792 -24.456  1.00  0.00     0.057 A 
HETATM   20  C25 UNL     1      -1.396  51.369 -22.924  1.00  0.00     0.077 A 
HETATM   21  C16 UNL     1      -1.108  52.184 -25.556  1.00  0.00     0.020 A 
HETATM   22  C27 UNL     1       0.453  53.843 -25.018  1.00  0.00     0.255 A 
HETATM   23  C15 UNL     1      -2.019  51.118 -25.384  1.00  0.00     0.017 A 
HETATM   24  C28 UNL     1      -0.703  52.891 -26.820  1.00  0.00     0.257 A 
HETATM   25  C14 UNL     1      -2.820  50.264 -26.196  1.00  0.00     0.004 A 
HETATM   26  C26 UNL     1      -2.230  50.705 -24.087  1.00  0.00     0.077 A 
HETATM   27  C9  UNL     1      -3.518  49.378 -25.349  1.00  0.00     0.049 A 
HETATM   28  C13 UNL     1      -3.000  50.152 -27.592  1.00  0.00     0.014 A 
HETATM   29  N2  UNL     1      -3.203  49.715 -24.036  1.00  0.00    -0.308 N 
HETATM   30  C10 UNL     1      -4.374  48.395 -25.876  1.00  0.00     0.030 A 
HETATM   31  C11 UNL     1      -4.529  48.310 -27.263  1.00  0.00     0.002 A 
HETATM   32  C12 UNL     1      -3.853  49.176 -28.112  1.00  0.00     0.001 A 
HETATM   33  N4  UNL     1       0.284  53.819 -26.382  1.00  0.00    -0.326 N 
HETATM   34  H24 UNL     1       0.716  54.508 -26.980  1.00  0.00     0.165 HD
HETATM   35  O3  UNL     1       1.185  54.600 -24.415  1.00  0.00    -0.268 OA
HETATM   36  C21 UNL     1       1.311  53.591 -19.960  1.00  0.00     0.001 A 
HETATM   37  C22 UNL     1       0.734  52.675 -19.086  1.00  0.00     0.002 A 
BRANCH  24  38
HETATM   38  O4  UNL     1      -0.069  52.042 -27.740  1.00  0.00    -0.372 OA
HETATM   39  H26 UNL     1       0.638  51.601 -27.239  1.00  0.00     0.212 HD
ENDBRANCH  24  38
ENDBRANCH   3  13
TORSDOF 5
ENDMDL
MODEL 5
REMARK minimizedAffinity -11.0528469
REMARK  5 active torsions:
REMARK  status: ('A' for Active; 'I' for Inactive)
REMARK    1  A    between atoms: N1_2  and  C2_3 
REMARK    2  A    between atoms: C4_5  and  N3_29 
REMARK    3  A    between atoms: C5_7  and  N2_12 
REMARK    4  A    between atoms: C7_9  and  O2_10 
REMARK    5  A    between atoms: C28_35  and  O4_36 
ROOT
HETATM    1  C2  UNL     1      -4.537  48.755 -20.448  1.00  0.00     0.257 C 
HETATM    2  C3  UNL     1      -4.265  50.198 -21.034  1.00  0.00     0.092 C 
HETATM    3  C4  UNL     1      -2.770  50.313 -21.029  1.00  0.00     0.234 C 
HETATM    4  O1  UNL     1      -2.323  49.147 -21.724  1.00  0.00    -0.333 OA
HETATM    5  C5  UNL     1      -1.999  48.123 -20.767  1.00  0.00     0.168 C 
HETATM    6  C6  UNL     1      -1.833  46.871 -21.647  1.00  0.00     0.074 C 
HETATM    7  C7  UNL     1      -3.252  48.026 -19.779  1.00  0.00     0.209 C 
ENDROOT
BRANCH   1   8
HETATM    8  N1  UNL     1      -5.775  48.712 -19.642  1.00  0.00     0.086 N 
HETATM    9  C1  UNL     1      -6.828  49.620 -20.071  1.00  0.00     0.307 C 
HETATM   10  H4  UNL     1      -5.524  48.920 -18.673  1.00  0.00     0.316 HD
ENDBRANCH   1   8
BRANCH   7  11
HETATM   11  O2  UNL     1      -3.579  46.650 -19.503  1.00  0.00    -0.384 OA
HETATM   12  C8  UNL     1      -3.416  46.281 -18.140  1.00  0.00     0.202 C 
ENDBRANCH   7  11
BRANCH   3  13
HETATM   13  N3  UNL     1      -1.841  51.321 -21.393  1.00  0.00    -0.316 N 
HETATM   14  C24 UNL     1      -0.933  52.085 -20.726  1.00  0.00     0.048 A 
HETATM   15  C19 UNL     1      -0.156  52.734 -21.717  1.00  0.00     0.004 A 
HETATM   16  C23 UNL     1      -0.705  52.266 -19.356  1.00  0.00     0.030 A 
HETATM   17  C18 UNL     1      -0.627  52.312 -23.007  1.00  0.00     0.022 A 
HETATM   18  C20 UNL     1       0.880  53.590 -21.286  1.00  0.00     0.014 A 
HETATM   19  C17 UNL     1      -0.360  52.449 -24.376  1.00  0.00     0.057 A 
HETATM   20  C25 UNL     1      -1.683  51.479 -22.743  1.00  0.00     0.077 A 
HETATM   21  C16 UNL     1      -1.066  51.762 -25.429  1.00  0.00     0.020 A 
HETATM   22  C27 UNL     1       0.693  53.248 -25.011  1.00  0.00     0.255 A 
HETATM   23  C15 UNL     1      -2.147  50.887 -25.179  1.00  0.00     0.017 A 
HETATM   24  C28 UNL     1      -0.457  52.168 -26.742  1.00  0.00     0.257 A 
HETATM   25  C14 UNL     1      -3.009  50.026 -25.919  1.00  0.00     0.004 A 
HETATM   26  C26 UNL     1      -2.520  50.746 -23.861  1.00  0.00     0.077 A 
HETATM   27  C9  UNL     1      -3.903  49.416 -25.014  1.00  0.00     0.049 A 
HETATM   28  C13 UNL     1      -3.096  49.695 -27.289  1.00  0.00     0.014 A 
HETATM   29  N2  UNL     1      -3.640  49.932 -23.749  1.00  0.00    -0.308 N 
HETATM   30  C10 UNL     1      -4.862  48.489 -25.460  1.00  0.00     0.030 A 
HETATM   31  C11 UNL     1      -4.921  48.181 -26.822  1.00  0.00     0.002 A 
HETATM   32  C12 UNL     1      -4.052  48.776 -27.727  1.00  0.00     0.001 A 
HETATM   33  N4  UNL     1       0.629  53.006 -26.363  1.00  0.00    -0.326 N 
HETATM   34  H24 UNL     1       1.210  53.508 -27.018  1.00  0.00     0.165 HD
HETATM   35  O3  UNL     1       1.489  53.987 -24.468  1.00  0.00    -0.268 OA
HETATM   36  C21 UNL     1       1.108  53.779 -19.918  1.00  0.00     0.001 A 
HETATM   37  C22 UNL     1       0.326  53.125 -18.971  1.00  0.00     0.002 A 
BRANCH  24  38
HETATM   38  O4  UNL     1       0.101  51.085 -27.440  1.00  0.00    -0.372 OA
HETATM   39  H26 UNL     1       0.688  50.644 -26.803  1.00  0.00     0.212 HD
ENDBRANCH  24  38
ENDBRANCH   3  13
TORSDOF 5
ENDMDL
MODEL 6
REMARK minimizedAffinity -10.9687271
REMARK  5 active torsions:
REMARK  status: ('A' for Active; 'I' for Inactive)
REMARK    1  A    between atoms: N1_2  and  C2_3 
REMARK    2  A    between atoms: C4_5  and  N3_29 
REMARK    3  A    between atoms: C5_7  and  N2_12 
REMARK    4  A    between atoms: C7_9  and  O2_10 
REMARK    5  A    between atoms: C28_35  and  O4_36 
ROOT
HETATM    1  C2  UNL     1      -3.667  47.158 -21.326  1.00  0.00     0.257 C 
HETATM    2  C3  UNL     1      -2.271  47.754 -21.768  1.00  0.00     0.092 C 
HETATM    3  C4  UNL     1      -2.635  48.875 -22.694  1.00  0.00     0.234 C 
HETATM    4  O1  UNL     1      -3.563  49.664 -21.946  1.00  0.00    -0.333 OA
HETATM    5  C5  UNL     1      -4.902  49.275 -22.294  1.00  0.00     0.168 C 
HETATM    6  C6  UNL     1      -5.753  49.975 -21.220  1.00  0.00     0.074 C 
HETATM    7  C7  UNL     1      -4.945  47.681 -22.179  1.00  0.00     0.209 C 
ENDROOT
BRANCH   1   8
HETATM    8  N1  UNL     1      -3.603  45.695 -21.124  1.00  0.00     0.086 N 
HETATM    9  C1  UNL     1      -3.921  45.239 -19.779  1.00  0.00     0.307 C 
HETATM   10  H4  UNL     1      -2.660  45.386 -21.372  1.00  0.00     0.316 HD
ENDBRANCH   1   8
BRANCH   7  11
HETATM   11  O2  UNL     1      -6.156  47.248 -21.530  1.00  0.00    -0.384 OA
HETATM   12  C8  UNL     1      -7.030  46.510 -22.375  1.00  0.00     0.202 C 
ENDBRANCH   7  11
BRANCH   3  13
HETATM   13  N3  UNL     1      -1.905  49.818 -23.462  1.00  0.00    -0.316 N 
HETATM   14  C24 UNL     1      -1.937  50.244 -24.755  1.00  0.00     0.048 A 
HETATM   15  C19 UNL     1      -1.092  51.379 -24.820  1.00  0.00     0.004 A 
HETATM   16  C23 UNL     1      -2.629  49.758 -25.872  1.00  0.00     0.030 A 
HETATM   17  C18 UNL     1      -0.566  51.624 -23.506  1.00  0.00     0.022 A 
HETATM   18  C20 UNL     1      -0.957  52.029 -26.065  1.00  0.00     0.014 A 
HETATM   19  C17 UNL     1       0.235  52.525 -22.791  1.00  0.00     0.057 A 
HETATM   20  C25 UNL     1      -1.068  50.613 -22.729  1.00  0.00     0.077 A 
HETATM   21  C16 UNL     1       0.488  52.461 -21.373  1.00  0.00     0.020 A 
HETATM   22  C27 UNL     1       0.920  53.719 -23.299  1.00  0.00     0.255 A 
HETATM   23  C15 UNL     1      -0.032  51.438 -20.550  1.00  0.00     0.017 A 
HETATM   24  C28 UNL     1       1.372  53.620 -21.003  1.00  0.00     0.257 A 
HETATM   25  C14 UNL     1      -0.047  51.091 -19.168  1.00  0.00     0.004 A 
HETATM   26  C26 UNL     1      -0.777  50.469 -21.185  1.00  0.00     0.077 A 
HETATM   27  C9  UNL     1      -0.780  49.895 -19.021  1.00  0.00     0.049 A 
HETATM   28  C13 UNL     1       0.489  51.705 -18.014  1.00  0.00     0.014 A 
HETATM   29  N2  UNL     1      -1.162  49.477 -20.292  1.00  0.00    -0.308 N 
HETATM   30  C10 UNL     1      -0.985  49.322 -17.753  1.00  0.00     0.030 A 
HETATM   31  C11 UNL     1      -0.444  49.957 -16.631  1.00  0.00     0.002 A 
HETATM   32  C12 UNL     1       0.285  51.131 -16.757  1.00  0.00     0.001 A 
HETATM   33  N4  UNL     1       1.509  54.340 -22.223  1.00  0.00    -0.326 N 
HETATM   34  H24 UNL     1       2.105  55.146 -22.339  1.00  0.00     0.165 HD
HETATM   35  O3  UNL     1       0.969  54.109 -24.448  1.00  0.00    -0.268 OA
HETATM   36  C21 UNL     1      -1.641  51.544 -27.185  1.00  0.00     0.001 A 
HETATM   37  C22 UNL     1      -2.464  50.426 -27.087  1.00  0.00     0.002 A 
BRANCH  24  38
HETATM   38  O4  UNL     1       0.764  54.497 -20.091  1.00  0.00    -0.372 OA
HETATM   39  H26 UNL     1      -0.101  54.713 -20.477  1.00  0.00     0.212 HD
ENDBRANCH  24  38
ENDBRANCH   3  13
TORSDOF 5
ENDMDL
MODEL 7
REMARK minimizedAffinity -10.834857
REMARK  5 active torsions:
REMARK  status: ('A' for Active; 'I' for Inactive)
REMARK    1  A    between atoms: N1_2  and  C2_3 
REMARK    2  A    between atoms: C4_5  and  N3_29 
REMARK    3  A    between atoms: C5_7  and  N2_12 
REMARK    4  A    between atoms: C7_9  and  O2_10 
REMARK    5  A    between atoms: C28_35  and  O4_36 
ROOT
HETATM    1  C2  UNL     1      -2.838  47.178 -20.249  1.00  0.00     0.257 C 
HETATM    2  C3  UNL     1      -1.439  47.906 -20.349  1.00  0.00     0.092 C 
HETATM    3  C4  UNL     1      -1.754  49.338 -20.038  1.00  0.00     0.234 C 
HETATM    4  O1  UNL     1      -2.461  49.282 -18.797  1.00  0.00    -0.333 OA
HETATM    5  C5  UNL     1      -3.875  49.287 -19.059  1.00  0.00     0.168 C 
HETATM    6  C6  UNL     1      -4.479  48.926 -17.690  1.00  0.00     0.074 C 
HETATM    7  C7  UNL     1      -4.126  48.161 -20.165  1.00  0.00     0.209 C 
ENDROOT
BRANCH   1   8
HETATM    8  N1  UNL     1      -2.955  46.071 -21.222  1.00  0.00     0.086 N 
HETATM    9  C1  UNL     1      -3.793  44.959 -20.801  1.00  0.00     0.307 C 
HETATM   10  H4  UNL     1      -2.012  45.728 -21.420  1.00  0.00     0.316 HD
ENDBRANCH   1   8
BRANCH   7  11
HETATM   11  O2  UNL     1      -5.295  47.383 -19.846  1.00  0.00    -0.384 OA
HETATM   12  C8  UNL     1      -6.434  47.704 -20.634  1.00  0.00     0.202 C 
ENDBRANCH   7  11
BRANCH   3  13
HETATM   13  N3  UNL     1      -1.000  50.537 -19.964  1.00  0.00    -0.316 N 
HETATM   14  C24 UNL     1      -0.264  51.158 -19.001  1.00  0.00     0.048 A 
HETATM   15  C19 UNL     1       0.425  52.214 -19.647  1.00  0.00     0.004 A 
HETATM   16  C23 UNL     1      -0.122  50.895 -17.633  1.00  0.00     0.030 A 
HETATM   17  C18 UNL     1       0.081  52.187 -21.042  1.00  0.00     0.022 A 
HETATM   18  C20 UNL     1       1.280  53.018 -18.865  1.00  0.00     0.014 A 
HETATM   19  C17 UNL     1       0.371  52.819 -22.260  1.00  0.00     0.057 A 
HETATM   20  C25 UNL     1      -0.823  51.165 -21.166  1.00  0.00     0.077 A 
HETATM   21  C16 UNL     1      -0.166  52.432 -23.540  1.00  0.00     0.020 A 
HETATM   22  C27 UNL     1       1.293  53.936 -22.497  1.00  0.00     0.255 A 
HETATM   23  C15 UNL     1      -1.087  51.372 -23.693  1.00  0.00     0.017 A 
HETATM   24  C28 UNL     1       0.411  53.346 -24.585  1.00  0.00     0.257 A 
HETATM   25  C14 UNL     1      -1.759  50.693 -24.751  1.00  0.00     0.004 A 
HETATM   26  C26 UNL     1      -1.478  50.738 -22.535  1.00  0.00     0.077 A 
HETATM   27  C9  UNL     1      -2.566  49.685 -24.185  1.00  0.00     0.049 A 
HETATM   28  C13 UNL     1      -1.737  50.838 -26.156  1.00  0.00     0.014 A 
HETATM   29  N2  UNL     1      -2.444  49.775 -22.801  1.00  0.00    -0.308 N 
HETATM   30  C10 UNL     1      -3.333  48.830 -24.997  1.00  0.00     0.030 A 
HETATM   31  C11 UNL     1      -3.287  48.997 -26.384  1.00  0.00     0.002 A 
HETATM   32  C12 UNL     1      -2.502  49.988 -26.958  1.00  0.00     0.001 A 
HETATM   33  N4  UNL     1       1.321  54.160 -23.853  1.00  0.00    -0.326 N 
HETATM   34  H24 UNL     1       1.830  54.936 -24.250  1.00  0.00     0.165 HD
HETATM   35  O3  UNL     1       1.927  54.558 -21.669  1.00  0.00    -0.268 OA
HETATM   36  C21 UNL     1       1.421  52.764 -17.496  1.00  0.00     0.001 A 
HETATM   37  C22 UNL     1       0.730  51.718 -16.893  1.00  0.00     0.002 A 
BRANCH  24  38
HETATM   38  O4  UNL     1       1.174  52.662 -25.544  1.00  0.00    -0.372 OA
HETATM   39  H26 UNL     1       1.805  52.125 -25.036  1.00  0.00     0.212 HD
ENDBRANCH  24  38
ENDBRANCH   3  13
TORSDOF 5
ENDMDL
MODEL 8
REMARK minimizedAffinity -10.6354895
REMARK  5 active torsions:
REMARK  status: ('A' for Active; 'I' for Inactive)
REMARK    1  A    between atoms: N1_2  and  C2_3 
REMARK    2  A    between atoms: C4_5  and  N3_29 
REMARK    3  A    between atoms: C5_7  and  N2_12 
REMARK    4  A    between atoms: C7_9  and  O2_10 
REMARK    5  A    between atoms: C28_35  and  O4_36 
ROOT
HETATM    1  C2  UNL     1      -5.890  50.302 -23.871  1.00  0.00     0.257 C 
HETATM    2  C3  UNL     1      -5.056  51.638 -24.014  1.00  0.00     0.092 C 
HETATM    3  C4  UNL     1      -3.672  51.165 -24.343  1.00  0.00     0.234 C 
HETATM    4  O1  UNL     1      -3.853  50.294 -25.462  1.00  0.00    -0.333 OA
HETATM    5  C5  UNL     1      -3.937  48.937 -24.995  1.00  0.00     0.168 C 
HETATM    6  C6  UNL     1      -4.422  48.174 -26.241  1.00  0.00     0.074 C 
HETATM    7  C7  UNL     1      -5.012  48.940 -23.811  1.00  0.00     0.209 C 
ENDROOT
BRANCH   1   8
HETATM    8  N1  UNL     1      -6.943  50.417 -22.841  1.00  0.00     0.086 N 
HETATM    9  C1  UNL     1      -6.566  49.955 -21.514  1.00  0.00     0.307 C 
HETATM   10  H4  UNL     1      -7.756  49.889 -23.164  1.00  0.00     0.316 HD
ENDBRANCH   1   8
BRANCH   7  11
HETATM   11  O2  UNL     1      -5.891  47.804 -23.918  1.00  0.00    -0.384 OA
HETATM   12  C8  UNL     1      -7.040  48.038 -24.723  1.00  0.00     0.202 C 
ENDBRANCH   7  11
BRANCH   3  13
HETATM   13  N3  UNL     1      -2.426  51.799 -24.584  1.00  0.00    -0.316 N 
HETATM   14  C24 UNL     1      -1.843  52.408 -25.654  1.00  0.00     0.048 A 
HETATM   15  C19 UNL     1      -0.675  53.041 -25.162  1.00  0.00     0.004 A 
HETATM   16  C23 UNL     1      -2.225  52.479 -26.999  1.00  0.00     0.030 A 
HETATM   17  C18 UNL     1      -0.594  52.799 -23.748  1.00  0.00     0.022 A 
HETATM   18  C20 UNL     1       0.118  53.764 -26.078  1.00  0.00     0.014 A 
HETATM   19  C17 UNL     1       0.176  53.113 -22.619  1.00  0.00     0.057 A 
HETATM   20  C25 UNL     1      -1.671  52.001 -23.462  1.00  0.00     0.077 A 
HETATM   21  C16 UNL     1      -0.128  52.703 -21.271  1.00  0.00     0.020 A 
HETATM   22  C27 UNL     1       1.384  53.943 -22.557  1.00  0.00     0.255 A 
HETATM   23  C15 UNL     1      -1.242  51.895 -20.951  1.00  0.00     0.017 A 
HETATM   24  C28 UNL     1       0.929  53.265 -20.361  1.00  0.00     0.257 A 
HETATM   25  C14 UNL     1      -1.868  51.362 -19.787  1.00  0.00     0.004 A 
HETATM   26  C26 UNL     1      -2.016  51.484 -22.013  1.00  0.00     0.077 A 
HETATM   27  C9  UNL     1      -2.991  50.613 -20.195  1.00  0.00     0.049 A 
HETATM   28  C13 UNL     1      -1.586  51.468 -18.407  1.00  0.00     0.014 A 
HETATM   29  N2  UNL     1      -3.027  50.631 -21.586  1.00  0.00    -0.308 N 
HETATM   30  C10 UNL     1      -3.823  49.985 -19.251  1.00  0.00     0.030 A 
HETATM   31  C11 UNL     1      -3.518  50.111 -17.893  1.00  0.00     0.002 A 
HETATM   32  C12 UNL     1      -2.414  50.840 -17.474  1.00  0.00     0.001 A 
HETATM   33  N4  UNL     1       1.741  54.044 -21.233  1.00  0.00    -0.326 N 
HETATM   34  H24 UNL     1       2.592  54.507 -20.950  1.00  0.00     0.165 HD
HETATM   35  O3  UNL     1       1.973  54.460 -23.484  1.00  0.00    -0.268 OA
HETATM   36  C21 UNL     1      -0.256  53.832 -27.424  1.00  0.00     0.001 A 
HETATM   37  C22 UNL     1      -1.410  53.199 -27.875  1.00  0.00     0.002 A 
BRANCH  24  38
HETATM   38  O4  UNL     1       0.408  54.152 -19.406  1.00  0.00    -0.372 OA
HETATM   39  H26 UNL     1      -0.121  54.792 -19.910  1.00  0.00     0.212 HD
ENDBRANCH  24  38
ENDBRANCH   3  13
TORSDOF 5
ENDMDL
MODEL 9
REMARK minimizedAffinity -10.4319706
REMARK  5 active torsions:
REMARK  status: ('A' for Active; 'I' for Inactive)
REMARK    1  A    between atoms: N1_2  and  C2_3 
REMARK    2  A    between atoms: C4_5  and  N3_29 
REMARK    3  A    between atoms: C5_7  and  N2_12 
REMARK    4  A    between atoms: C7_9  and  O2_10 
REMARK    5  A    between atoms: C28_35  and  O4_36 
ROOT
HETATM    1  C2  UNL     1      -3.394  47.089 -18.983  1.00  0.00     0.257 C 
HETATM    2  C3  UNL     1      -2.107  47.721 -19.648  1.00  0.00     0.092 C 
HETATM    3  C4  UNL     1      -2.637  48.430 -20.858  1.00  0.00     0.234 C 
HETATM    4  O1  UNL     1      -3.681  49.263 -20.349  1.00  0.00    -0.333 OA
HETATM    5  C5  UNL     1      -4.941  48.587 -20.500  1.00  0.00     0.168 C 
HETATM    6  C6  UNL     1      -5.897  49.450 -19.657  1.00  0.00     0.074 C 
HETATM    7  C7  UNL     1      -4.733  47.121 -19.897  1.00  0.00     0.209 C 
ENDROOT
BRANCH   1   8
HETATM    8  N1  UNL     1      -3.101  45.789 -18.343  1.00  0.00     0.086 N 
HETATM    9  C1  UNL     1      -3.060  45.808 -16.889  1.00  0.00     0.307 C 
HETATM   10  H4  UNL     1      -2.202  45.459 -18.702  1.00  0.00     0.316 HD
ENDBRANCH   1   8
BRANCH   7  11
HETATM   11  O2  UNL     1      -5.864  46.735 -19.094  1.00  0.00    -0.384 OA
HETATM   12  C8  UNL     1      -5.921  47.382 -17.829  1.00  0.00     0.202 C 
ENDBRANCH   7  11
BRANCH   3  13
HETATM   13  N3  UNL     1      -2.061  49.185 -21.911  1.00  0.00    -0.316 N 
HETATM   14  C24 UNL     1      -2.290  49.313 -23.247  1.00  0.00     0.048 A 
HETATM   15  C19 UNL     1      -1.511  50.414 -23.680  1.00  0.00     0.004 A 
HETATM   16  C23 UNL     1      -3.110  48.584 -24.118  1.00  0.00     0.030 A 
HETATM   17  C18 UNL     1      -0.818  50.950 -22.542  1.00  0.00     0.022 A 
HETATM   18  C20 UNL     1      -1.577  50.772 -25.043  1.00  0.00     0.014 A 
HETATM   19  C17 UNL     1       0.036  51.996 -22.164  1.00  0.00     0.057 A 
HETATM   20  C25 UNL     1      -1.165  50.132 -21.498  1.00  0.00     0.077 A 
HETATM   21  C16 UNL     1       0.486  52.251 -20.819  1.00  0.00     0.020 A 
HETATM   22  C27 UNL     1       0.594  53.053 -23.015  1.00  0.00     0.255 A 
HETATM   23  C15 UNL     1       0.129  51.431 -19.725  1.00  0.00     0.017 A 
HETATM   24  C28 UNL     1       1.364  53.472 -20.842  1.00  0.00     0.257 A 
HETATM   25  C14 UNL     1       0.321  51.401 -18.313  1.00  0.00     0.004 A 
HETATM   26  C26 UNL     1      -0.657  50.339 -20.019  1.00  0.00     0.077 A 
HETATM   27  C9  UNL     1      -0.335  50.260 -17.805  1.00  0.00     0.049 A 
HETATM   28  C13 UNL     1       0.985  52.261 -17.412  1.00  0.00     0.014 A 
HETATM   29  N2  UNL     1      -0.872  49.566 -18.885  1.00  0.00    -0.308 N 
HETATM   30  C10 UNL     1      -0.338  49.981 -16.426  1.00  0.00     0.030 A 
HETATM   31  C11 UNL     1       0.327  50.855 -15.560  1.00  0.00     0.002 A 
HETATM   32  C12 UNL     1       0.982  51.979 -16.044  1.00  0.00     0.001 A 
HETATM   33  N4  UNL     1       1.299  53.904 -22.197  1.00  0.00    -0.326 N 
HETATM   34  H24 UNL     1       1.840  54.669 -22.572  1.00  0.00     0.165 HD
HETATM   35  O3  UNL     1       0.466  53.179 -24.216  1.00  0.00    -0.268 OA
HETATM   36  C21 UNL     1      -2.389  50.043 -25.919  1.00  0.00     0.001 A 
HETATM   37  C22 UNL     1      -3.143  48.967 -25.461  1.00  0.00     0.002 A 
BRANCH  24  38
HETATM   38  O4  UNL     1       0.852  54.524 -20.066  1.00  0.00    -0.372 OA
HETATM   39  H26 UNL     1      -0.066  54.639 -20.361  1.00  0.00     0.212 HD
ENDBRANCH  24  38
ENDBRANCH   3  13
TORSDOF 5
ENDMDL
