MODEL 1
REMARK minimizedAffinity -8.54667759
REMARK CNNscore 0.765314698
REMARK CNNaffinity 6.94605684
REMARK  15 active torsions:
REMARK  status: ('A' for Active; 'I' for Inactive)
REMARK    1  A    between atoms: C2_2  and  O2_4 
REMARK    2  A    between atoms: O2_4  and  C3_5 
REMARK    3  A    between atoms: C3_5  and  C4_6 
REMARK    4  A    between atoms: C4_6  and  C5_8 
REMARK    5  A    between atoms: C5_8  and  O4_9 
REMARK    6  A    between atoms: O4_9  and  C6_10 
REMARK    7  A    between atoms: C6_10  and  C7_12 
REMARK    8  A    between atoms: C7_12  and  C8_13 
REMARK    9  A    between atoms: C8_13  and  C9_14 
REMARK       I    between atoms: C9_14  and  N1_16 
REMARK   10  A    between atoms: N1_16  and  C10_17 
REMARK   11  A    between atoms: C10_17  and  C11_18 
REMARK   12  A    between atoms: C11_18  and  C12_19 
REMARK   13  A    between atoms: C12_19  and  C13_20 
REMARK   14  A    between atoms: C13_20  and  C14_21 
REMARK   15  A    between atoms: C14_21  and  O8_23 
ROOT
HETATM    1  C3  UNL     1      -1.183   9.189  13.601  1.00  0.00     0.140 C 
HETATM    2  C15 UNL     1      -0.162   8.139  14.152  1.00  0.00     0.048 C 
HETATM    3  C16 UNL     1      -0.925   6.812  14.341  1.00  0.00     0.009 C 
HETATM    4  C17 UNL     1      -2.320   7.087  13.794  1.00  0.00     0.002 C 
HETATM    5  C18 UNL     1      -3.480   6.182  14.240  1.00  0.00    -0.004 C 
HETATM    6  C19 UNL     1      -3.220   4.677  14.033  1.00  0.00     0.010 C 
HETATM    7  C20 UNL     1      -4.159   4.007  13.033  1.00  0.00     0.035 C 
HETATM    8  C21 UNL     1      -5.623   4.335  13.225  1.00  0.00    -0.068 C 
HETATM    9  C22 UNL     1      -6.553   3.478  12.766  1.00  0.00     0.053 C 
HETATM   10  C23 UNL     1      -7.998   3.807  12.785  1.00  0.00     0.149 C 
HETATM   11  O9  UNL     1      -8.812   2.940  12.479  1.00  0.00    -0.293 OA
HETATM   12  C24 UNL     1      -8.426   5.194  13.201  1.00  0.00     0.084 C 
HETATM   13  C25 UNL     1      -7.279   6.201  13.142  1.00  0.00     0.022 C 
HETATM   14  C26 UNL     1      -5.981   5.698  13.825  1.00  0.00    -0.016 C 
HETATM   15  C27 UNL     1      -6.237   5.545  15.343  1.00  0.00     0.020 C 
HETATM   16  C28 UNL     1      -4.785   6.667  13.535  1.00  0.00     0.002 C 
HETATM   17  C29 UNL     1      -5.046   8.164  13.824  1.00  0.00     0.007 C 
HETATM   18  C30 UNL     1      -3.837   9.039  13.434  1.00  0.00     0.013 C 
HETATM   19  C31 UNL     1      -2.542   8.591  14.135  1.00  0.00    -0.001 C 
HETATM   20  C32 UNL     1      -2.707   8.831  15.667  1.00  0.00     0.019 C 
ENDROOT
BRANCH   1  21
HETATM   21  O2  UNL     1      -1.079   9.049  12.157  1.00  0.00    -0.301 OA
BRANCH  21  22
HETATM   22  C2  UNL     1       0.118   8.764  11.584  1.00  0.00     0.256 C 
HETATM   23  C1  UNL     1      -0.091   8.082  10.267  1.00  0.00     0.126 C 
HETATM   24  O1  UNL     1       1.209   8.998  12.075  1.00  0.00    -0.266 OA
ENDBRANCH  21  22
ENDBRANCH   1  21
BRANCH   1  25
HETATM   25  C4  UNL     1      -0.768  10.598  14.116  1.00  0.00     0.186 C 
HETATM   26  O3  UNL     1      -1.439  11.612  13.917  1.00  0.00    -0.292 OA
BRANCH  25  27
HETATM   27  C5  UNL     1       0.551  10.681  14.896  1.00  0.00     0.260 C 
BRANCH  27  28
HETATM   28  O4  UNL     1       0.445  11.486  16.072  1.00  0.00    -0.314 OA
BRANCH  28  29
HETATM   29  C6  UNL     1       0.722  10.817  17.224  1.00  0.00     0.259 C 
HETATM   30  O5  UNL     1       0.469   9.635  17.422  1.00  0.00    -0.265 OA
BRANCH  29  31
HETATM   31  C7  UNL     1       1.442  11.701  18.199  1.00  0.00     0.120 C 
BRANCH  31  32
HETATM   32  C8  UNL     1       1.077  11.297  19.618  1.00  0.00     0.112 C 
BRANCH  32  33
HETATM   33  C9  UNL     1       2.219  10.585  20.307  1.00  0.00     0.217 C 
HETATM   34  O6  UNL     1       2.746   9.570  19.869  1.00  0.00    -0.274 OA
HETATM   35  N1  UNL     1       2.605  11.200  21.480  1.00  0.00    -0.361 N 
HETATM   36  H10 UNL     1       2.200  12.095  21.721  1.00  0.00     0.162 HD
BRANCH  35  37
HETATM   37  C10 UNL     1       3.747  10.735  22.241  1.00  0.00     0.122 C 
BRANCH  37  38
HETATM   38  C11 UNL     1       4.985  11.582  21.950  1.00  0.00     0.020 C 
BRANCH  38  39
HETATM   39  C12 UNL     1       5.959  11.672  23.126  1.00  0.00     0.012 C 
BRANCH  39  40
HETATM   40  C13 UNL     1       6.964  12.816  22.996  1.00  0.00     0.110 C 
BRANCH  40  41
HETATM   41  C14 UNL     1       8.384  12.326  23.115  1.00  0.00     0.139 C 
HETATM   42  O7  UNL     1       8.765  11.188  23.321  1.00  0.00    -0.650 OA
BRANCH  41  43
HETATM   43  O8  UNL     1       9.273  13.324  22.945  1.00  0.00    -0.776 OA
HETATM   44  H19 UNL     1      10.144  12.883  23.034  1.00  0.00     0.167 HD
ENDBRANCH  41  43
ENDBRANCH  40  41
ENDBRANCH  39  40
ENDBRANCH  38  39
ENDBRANCH  37  38
ENDBRANCH  35  37
ENDBRANCH  32  33
ENDBRANCH  31  32
ENDBRANCH  29  31
ENDBRANCH  28  29
ENDBRANCH  27  28
ENDBRANCH  25  27
ENDBRANCH   1  25
TORSDOF 15
ENDMDL
MODEL 2
REMARK minimizedAffinity -9.02416897
REMARK CNNscore 0.719395518
REMARK CNNaffinity 7.37641859
REMARK  15 active torsions:
REMARK  status: ('A' for Active; 'I' for Inactive)
REMARK    1  A    between atoms: C2_2  and  O2_4 
REMARK    2  A    between atoms: O2_4  and  C3_5 
REMARK    3  A    between atoms: C3_5  and  C4_6 
REMARK    4  A    between atoms: C4_6  and  C5_8 
REMARK    5  A    between atoms: C5_8  and  O4_9 
REMARK    6  A    between atoms: O4_9  and  C6_10 
REMARK    7  A    between atoms: C6_10  and  C7_12 
REMARK    8  A    between atoms: C7_12  and  C8_13 
REMARK    9  A    between atoms: C8_13  and  C9_14 
REMARK       I    between atoms: C9_14  and  N1_16 
REMARK   10  A    between atoms: N1_16  and  C10_17 
REMARK   11  A    between atoms: C10_17  and  C11_18 
REMARK   12  A    between atoms: C11_18  and  C12_19 
REMARK   13  A    between atoms: C12_19  and  C13_20 
REMARK   14  A    between atoms: C13_20  and  C14_21 
REMARK   15  A    between atoms: C14_21  and  O8_23 
ROOT
HETATM    1  C3  UNL     1       1.145   6.617  11.025  1.00  0.00     0.140 C 
HETATM    2  C15 UNL     1       1.414   5.078  11.119  1.00  0.00     0.048 C 
HETATM    3  C16 UNL     1       0.168   4.432  11.757  1.00  0.00     0.009 C 
HETATM    4  C17 UNL     1      -0.826   5.578  11.909  1.00  0.00     0.002 C 
HETATM    5  C18 UNL     1      -1.971   5.432  12.924  1.00  0.00    -0.004 C 
HETATM    6  C19 UNL     1      -2.809   4.149  12.749  1.00  0.00     0.010 C 
HETATM    7  C20 UNL     1      -4.266   4.395  12.369  1.00  0.00     0.035 C 
HETATM    8  C21 UNL     1      -4.965   5.450  13.198  1.00  0.00    -0.068 C 
HETATM    9  C22 UNL     1      -6.306   5.419  13.305  1.00  0.00     0.053 C 
HETATM   10  C23 UNL     1      -7.062   6.504  13.973  1.00  0.00     0.149 C 
HETATM   11  O9  UNL     1      -8.269   6.363  14.161  1.00  0.00    -0.293 OA
HETATM   12  C24 UNL     1      -6.323   7.742  14.420  1.00  0.00     0.084 C 
HETATM   13  C25 UNL     1      -4.962   7.886  13.743  1.00  0.00     0.022 C 
HETATM   14  C26 UNL     1      -4.117   6.587  13.776  1.00  0.00    -0.016 C 
HETATM   15  C27 UNL     1      -3.748   6.263  15.243  1.00  0.00     0.020 C 
HETATM   16  C28 UNL     1      -2.842   6.726  12.876  1.00  0.00     0.002 C 
HETATM   17  C29 UNL     1      -1.977   7.984  13.125  1.00  0.00     0.007 C 
HETATM   18  C30 UNL     1      -0.793   8.065  12.139  1.00  0.00     0.013 C 
HETATM   19  C31 UNL     1       0.092   6.806  12.184  1.00  0.00    -0.001 C 
HETATM   20  C32 UNL     1       0.769   6.734  13.587  1.00  0.00     0.019 C 
ENDROOT
BRANCH   1  21
HETATM   21  O2  UNL     1       0.525   6.781   9.720  1.00  0.00    -0.301 OA
BRANCH  21  22
HETATM   22  C2  UNL     1       0.902   7.803   8.909  1.00  0.00     0.256 C 
HETATM   23  C1  UNL     1       1.910   7.323   7.910  1.00  0.00     0.126 C 
HETATM   24  O1  UNL     1       0.507   8.953   8.993  1.00  0.00    -0.266 OA
ENDBRANCH  21  22
ENDBRANCH   1  21
BRANCH   1  25
HETATM   25  C4  UNL     1       2.504   7.364  11.161  1.00  0.00     0.186 C 
HETATM   26  O3  UNL     1       2.589   8.554  11.469  1.00  0.00    -0.292 OA
BRANCH  25  27
HETATM   27  C5  UNL     1       3.769   6.542  10.884  1.00  0.00     0.260 C 
BRANCH  27  28
HETATM   28  O4  UNL     1       4.863   7.347  10.439  1.00  0.00    -0.314 OA
BRANCH  28  29
HETATM   29  C6  UNL     1       6.054   7.021  11.010  1.00  0.00     0.259 C 
HETATM   30  O5  UNL     1       6.752   6.072  10.674  1.00  0.00    -0.265 OA
BRANCH  29  31
HETATM   31  C7  UNL     1       6.435   8.019  12.064  1.00  0.00     0.120 C 
BRANCH  31  32
HETATM   32  C8  UNL     1       6.697   7.299  13.376  1.00  0.00     0.112 C 
BRANCH  32  33
HETATM   33  C9  UNL     1       8.057   7.643  13.940  1.00  0.00     0.217 C 
HETATM   34  O6  UNL     1       9.028   7.914  13.245  1.00  0.00    -0.274 OA
HETATM   35  N1  UNL     1       8.088   7.618  15.319  1.00  0.00    -0.361 N 
HETATM   36  H10 UNL     1       7.222   7.496  15.827  1.00  0.00     0.162 HD
BRANCH  35  37
HETATM   37  C10 UNL     1       9.269   8.015  16.059  1.00  0.00     0.122 C 
BRANCH  37  38
HETATM   38  C11 UNL     1       9.281   9.522  16.309  1.00  0.00     0.020 C 
BRANCH  38  39
HETATM   39  C12 UNL     1       9.632   9.904  17.749  1.00  0.00     0.012 C 
BRANCH  39  40
HETATM   40  C13 UNL     1      10.329  11.259  17.866  1.00  0.00     0.110 C 
BRANCH  40  41
HETATM   41  C14 UNL     1      11.754  11.113  18.329  1.00  0.00     0.139 C 
HETATM   42  O7  UNL     1      12.748  11.635  17.858  1.00  0.00    -0.650 OA
BRANCH  41  43
HETATM   43  O8  UNL     1      11.851  10.307  19.405  1.00  0.00    -0.776 OA
HETATM   44  H19 UNL     1      12.810  10.302  19.611  1.00  0.00     0.167 HD
ENDBRANCH  41  43
ENDBRANCH  40  41
ENDBRANCH  39  40
ENDBRANCH  38  39
ENDBRANCH  37  38
ENDBRANCH  35  37
ENDBRANCH  32  33
ENDBRANCH  31  32
ENDBRANCH  29  31
ENDBRANCH  28  29
ENDBRANCH  27  28
ENDBRANCH  25  27
ENDBRANCH   1  25
TORSDOF 15
ENDMDL
MODEL 3
REMARK minimizedAffinity -8.55498028
REMARK CNNscore 0.656150997
REMARK CNNaffinity 7.13163567
REMARK  15 active torsions:
REMARK  status: ('A' for Active; 'I' for Inactive)
REMARK    1  A    between atoms: C2_2  and  O2_4 
REMARK    2  A    between atoms: O2_4  and  C3_5 
REMARK    3  A    between atoms: C3_5  and  C4_6 
REMARK    4  A    between atoms: C4_6  and  C5_8 
REMARK    5  A    between atoms: C5_8  and  O4_9 
REMARK    6  A    between atoms: O4_9  and  C6_10 
REMARK    7  A    between atoms: C6_10  and  C7_12 
REMARK    8  A    between atoms: C7_12  and  C8_13 
REMARK    9  A    between atoms: C8_13  and  C9_14 
REMARK       I    between atoms: C9_14  and  N1_16 
REMARK   10  A    between atoms: N1_16  and  C10_17 
REMARK   11  A    between atoms: C10_17  and  C11_18 
REMARK   12  A    between atoms: C11_18  and  C12_19 
REMARK   13  A    between atoms: C12_19  and  C13_20 
REMARK   14  A    between atoms: C13_20  and  C14_21 
REMARK   15  A    between atoms: C14_21  and  O8_23 
ROOT
HETATM    1  C3  UNL     1       1.124   6.582  11.079  1.00  0.00     0.140 C 
HETATM    2  C15 UNL     1       1.406   5.046  11.182  1.00  0.00     0.048 C 
HETATM    3  C16 UNL     1       0.156   4.390  11.803  1.00  0.00     0.009 C 
HETATM    4  C17 UNL     1      -0.851   5.526  11.935  1.00  0.00     0.002 C 
HETATM    5  C18 UNL     1      -2.010   5.372  12.932  1.00  0.00    -0.004 C 
HETATM    6  C19 UNL     1      -2.832   4.081  12.748  1.00  0.00     0.010 C 
HETATM    7  C20 UNL     1      -4.286   4.311  12.345  1.00  0.00     0.035 C 
HETATM    8  C21 UNL     1      -5.008   5.362  13.159  1.00  0.00    -0.068 C 
HETATM    9  C22 UNL     1      -6.350   5.318  13.246  1.00  0.00     0.053 C 
HETATM   10  C23 UNL     1      -7.127   6.397  13.898  1.00  0.00     0.149 C 
HETATM   11  O9  UNL     1      -8.335   6.245  14.068  1.00  0.00    -0.293 OA
HETATM   12  C24 UNL     1      -6.408   7.644  14.353  1.00  0.00     0.084 C 
HETATM   13  C25 UNL     1      -5.037   7.799  13.697  1.00  0.00     0.022 C 
HETATM   14  C26 UNL     1      -4.180   6.508  13.747  1.00  0.00    -0.016 C 
HETATM   15  C27 UNL     1      -3.831   6.192  15.221  1.00  0.00     0.020 C 
HETATM   16  C28 UNL     1      -2.892   6.657  12.867  1.00  0.00     0.002 C 
HETATM   17  C29 UNL     1      -2.044   7.925  13.125  1.00  0.00     0.007 C 
HETATM   18  C30 UNL     1      -0.846   8.014  12.158  1.00  0.00     0.013 C 
HETATM   19  C31 UNL     1       0.051   6.764  12.220  1.00  0.00    -0.001 C 
HETATM   20  C32 UNL     1       0.707   6.704  13.634  1.00  0.00     0.019 C 
ENDROOT
BRANCH   1  21
HETATM   21  O2  UNL     1       0.523   6.736   9.763  1.00  0.00    -0.301 OA
BRANCH  21  22
HETATM   22  C2  UNL     1       0.897   7.764   8.959  1.00  0.00     0.256 C 
HETATM   23  C1  UNL     1       1.934   7.302   7.982  1.00  0.00     0.126 C 
HETATM   24  O1  UNL     1       0.477   8.906   9.033  1.00  0.00    -0.266 OA
ENDBRANCH  21  22
ENDBRANCH   1  21
BRANCH   1  25
HETATM   25  C4  UNL     1       2.473   7.343  11.234  1.00  0.00     0.186 C 
HETATM   26  O3  UNL     1       2.541   8.536  11.534  1.00  0.00    -0.292 OA
BRANCH  25  27
HETATM   27  C5  UNL     1       3.750   6.530  10.985  1.00  0.00     0.260 C 
BRANCH  27  28
HETATM   28  O4  UNL     1       4.792   7.309  10.393  1.00  0.00    -0.314 OA
BRANCH  28  29
HETATM   29  C6  UNL     1       6.015   7.108  10.954  1.00  0.00     0.259 C 
HETATM   30  O5  UNL     1       6.839   6.294  10.556  1.00  0.00    -0.265 OA
BRANCH  29  31
HETATM   31  C7  UNL     1       6.252   8.065  12.085  1.00  0.00     0.120 C 
BRANCH  31  32
HETATM   32  C8  UNL     1       6.522   7.288  13.362  1.00  0.00     0.112 C 
BRANCH  32  33
HETATM   33  C9  UNL     1       7.913   7.551  13.892  1.00  0.00     0.217 C 
HETATM   34  O6  UNL     1       8.892   7.713  13.174  1.00  0.00    -0.274 OA
HETATM   35  N1  UNL     1       7.964   7.589  15.271  1.00  0.00    -0.361 N 
HETATM   36  H10 UNL     1       7.099   7.559  15.795  1.00  0.00     0.162 HD
BRANCH  35  37
HETATM   37  C10 UNL     1       9.183   7.928  15.977  1.00  0.00     0.122 C 
BRANCH  37  38
HETATM   38  C11 UNL     1       9.228   9.417  16.314  1.00  0.00     0.020 C 
BRANCH  38  39
HETATM   39  C12 UNL     1      10.202  10.215  15.444  1.00  0.00     0.012 C 
BRANCH  39  40
HETATM   40  C13 UNL     1       9.522  10.959  14.296  1.00  0.00     0.110 C 
BRANCH  40  41
HETATM   41  C14 UNL     1      10.463  11.185  13.142  1.00  0.00     0.139 C 
HETATM   42  O7  UNL     1      10.667  10.451  12.193  1.00  0.00    -0.650 OA
BRANCH  41  43
HETATM   43  O8  UNL     1      11.103  12.367  13.242  1.00  0.00    -0.776 OA
HETATM   44  H19 UNL     1      11.669  12.398  12.442  1.00  0.00     0.167 HD
ENDBRANCH  41  43
ENDBRANCH  40  41
ENDBRANCH  39  40
ENDBRANCH  38  39
ENDBRANCH  37  38
ENDBRANCH  35  37
ENDBRANCH  32  33
ENDBRANCH  31  32
ENDBRANCH  29  31
ENDBRANCH  28  29
ENDBRANCH  27  28
ENDBRANCH  25  27
ENDBRANCH   1  25
TORSDOF 15
ENDMDL
MODEL 4
REMARK minimizedAffinity -8.77460098
REMARK CNNscore 0.612188458
REMARK CNNaffinity 7.49239349
REMARK  15 active torsions:
REMARK  status: ('A' for Active; 'I' for Inactive)
REMARK    1  A    between atoms: C2_2  and  O2_4 
REMARK    2  A    between atoms: O2_4  and  C3_5 
REMARK    3  A    between atoms: C3_5  and  C4_6 
REMARK    4  A    between atoms: C4_6  and  C5_8 
REMARK    5  A    between atoms: C5_8  and  O4_9 
REMARK    6  A    between atoms: O4_9  and  C6_10 
REMARK    7  A    between atoms: C6_10  and  C7_12 
REMARK    8  A    between atoms: C7_12  and  C8_13 
REMARK    9  A    between atoms: C8_13  and  C9_14 
REMARK       I    between atoms: C9_14  and  N1_16 
REMARK   10  A    between atoms: N1_16  and  C10_17 
REMARK   11  A    between atoms: C10_17  and  C11_18 
REMARK   12  A    between atoms: C11_18  and  C12_19 
REMARK   13  A    between atoms: C12_19  and  C13_20 
REMARK   14  A    between atoms: C13_20  and  C14_21 
REMARK   15  A    between atoms: C14_21  and  O8_23 
ROOT
HETATM    1  C3  UNL     1      -2.060   6.672  13.308  1.00  0.00     0.140 C 
HETATM    2  C15 UNL     1      -2.072   5.249  12.658  1.00  0.00     0.048 C 
HETATM    3  C16 UNL     1      -3.526   4.738  12.695  1.00  0.00     0.009 C 
HETATM    4  C17 UNL     1      -4.331   5.907  13.252  1.00  0.00     0.002 C 
HETATM    5  C18 UNL     1      -5.707   5.624  13.876  1.00  0.00    -0.004 C 
HETATM    6  C19 UNL     1      -6.663   4.833  12.961  1.00  0.00     0.010 C 
HETATM    7  C20 UNL     1      -7.916   5.599  12.545  1.00  0.00     0.035 C 
HETATM    8  C21 UNL     1      -8.629   6.306  13.678  1.00  0.00    -0.068 C 
HETATM    9  C22 UNL     1      -9.939   6.584  13.557  1.00  0.00     0.053 C 
HETATM   10  C23 UNL     1     -10.660   7.404  14.557  1.00  0.00     0.149 C 
HETATM   11  O9  UNL     1     -11.881   7.517  14.470  1.00  0.00    -0.293 OA
HETATM   12  C24 UNL     1      -9.875   8.061  15.668  1.00  0.00     0.084 C 
HETATM   13  C25 UNL     1      -8.380   8.131  15.362  1.00  0.00     0.022 C 
HETATM   14  C26 UNL     1      -7.789   6.787  14.865  1.00  0.00    -0.016 C 
HETATM   15  C27 UNL     1      -7.866   5.748  16.009  1.00  0.00     0.020 C 
HETATM   16  C28 UNL     1      -6.320   6.977  14.354  1.00  0.00     0.002 C 
HETATM   17  C29 UNL     1      -5.360   7.707  15.323  1.00  0.00     0.007 C 
HETATM   18  C30 UNL     1      -3.965   7.911  14.697  1.00  0.00     0.013 C 
HETATM   19  C31 UNL     1      -3.332   6.585  14.236  1.00  0.00    -0.001 C 
HETATM   20  C32 UNL     1      -3.059   5.709  15.497  1.00  0.00     0.019 C 
ENDROOT
BRANCH   1  21
HETATM   21  O2  UNL     1      -2.289   7.568  12.185  1.00  0.00    -0.301 OA
BRANCH  21  22
HETATM   22  C2  UNL     1      -1.601   8.734  12.092  1.00  0.00     0.256 C 
HETATM   23  C1  UNL     1      -0.560   8.634  11.019  1.00  0.00     0.126 C 
HETATM   24  O1  UNL     1      -1.777   9.715  12.794  1.00  0.00    -0.266 OA
ENDBRANCH  21  22
ENDBRANCH   1  21
BRANCH   1  25
HETATM   25  C4  UNL     1      -0.682   6.888  13.998  1.00  0.00     0.186 C 
HETATM   26  O3  UNL     1      -0.462   7.807  14.789  1.00  0.00    -0.292 OA
BRANCH  25  27
HETATM   27  C5  UNL     1       0.427   5.889  13.641  1.00  0.00     0.260 C 
BRANCH  27  28
HETATM   28  O4  UNL     1       1.562   6.517  13.042  1.00  0.00    -0.314 OA
BRANCH  28  29
HETATM   29  C6  UNL     1       1.802   6.117  11.764  1.00  0.00     0.259 C 
HETATM   30  O5  UNL     1       1.170   5.250  11.175  1.00  0.00    -0.265 OA
BRANCH  29  31
HETATM   31  C7  UNL     1       2.901   6.929  11.144  1.00  0.00     0.120 C 
BRANCH  31  32
HETATM   32  C8  UNL     1       3.967   6.001  10.585  1.00  0.00     0.112 C 
BRANCH  32  33
HETATM   33  C9  UNL     1       5.357   6.448  10.975  1.00  0.00     0.217 C 
HETATM   34  O6  UNL     1       6.378   5.879  10.611  1.00  0.00    -0.274 OA
HETATM   35  N1  UNL     1       5.354   7.566  11.783  1.00  0.00    -0.361 N 
HETATM   36  H10 UNL     1       4.480   8.048  11.951  1.00  0.00     0.162 HD
BRANCH  35  37
HETATM   37  C10 UNL     1       6.585   8.216  12.187  1.00  0.00     0.122 C 
BRANCH  37  38
HETATM   38  C11 UNL     1       7.022   7.754  13.576  1.00  0.00     0.020 C 
BRANCH  38  39
HETATM   39  C12 UNL     1       8.525   7.892  13.825  1.00  0.00     0.012 C 
BRANCH  39  40
HETATM   40  C13 UNL     1       8.871   8.908  14.913  1.00  0.00     0.110 C 
BRANCH  40  41
HETATM   41  C14 UNL     1       8.424   8.439  16.273  1.00  0.00     0.139 C 
HETATM   42  O7  UNL     1       7.312   8.519  16.761  1.00  0.00    -0.650 OA
BRANCH  41  43
HETATM   43  O8  UNL     1       9.432   7.863  16.959  1.00  0.00    -0.776 OA
HETATM   44  H19 UNL     1       9.018   7.598  17.808  1.00  0.00     0.167 HD
ENDBRANCH  41  43
ENDBRANCH  40  41
ENDBRANCH  39  40
ENDBRANCH  38  39
ENDBRANCH  37  38
ENDBRANCH  35  37
ENDBRANCH  32  33
ENDBRANCH  31  32
ENDBRANCH  29  31
ENDBRANCH  28  29
ENDBRANCH  27  28
ENDBRANCH  25  27
ENDBRANCH   1  25
TORSDOF 15
ENDMDL
MODEL 5
REMARK minimizedAffinity -6.59324265
REMARK CNNscore 0.609673738
REMARK CNNaffinity 6.80637741
REMARK  15 active torsions:
REMARK  status: ('A' for Active; 'I' for Inactive)
REMARK    1  A    between atoms: C2_2  and  O2_4 
REMARK    2  A    between atoms: O2_4  and  C3_5 
REMARK    3  A    between atoms: C3_5  and  C4_6 
REMARK    4  A    between atoms: C4_6  and  C5_8 
REMARK    5  A    between atoms: C5_8  and  O4_9 
REMARK    6  A    between atoms: O4_9  and  C6_10 
REMARK    7  A    between atoms: C6_10  and  C7_12 
REMARK    8  A    between atoms: C7_12  and  C8_13 
REMARK    9  A    between atoms: C8_13  and  C9_14 
REMARK       I    between atoms: C9_14  and  N1_16 
REMARK   10  A    between atoms: N1_16  and  C10_17 
REMARK   11  A    between atoms: C10_17  and  C11_18 
REMARK   12  A    between atoms: C11_18  and  C12_19 
REMARK   13  A    between atoms: C12_19  and  C13_20 
REMARK   14  A    between atoms: C13_20  and  C14_21 
REMARK   15  A    between atoms: C14_21  and  O8_23 
ROOT
HETATM    1  C3  UNL     1      -1.392  12.127  15.944  1.00  0.00     0.140 C 
HETATM    2  C15 UNL     1      -0.530  11.898  14.659  1.00  0.00     0.048 C 
HETATM    3  C16 UNL     1      -1.139  10.699  13.905  1.00  0.00     0.009 C 
HETATM    4  C17 UNL     1      -2.390  10.340  14.698  1.00  0.00     0.002 C 
HETATM    5  C18 UNL     1      -2.983   8.930  14.542  1.00  0.00    -0.004 C 
HETATM    6  C19 UNL     1      -3.261   8.521  13.081  1.00  0.00     0.010 C 
HETATM    7  C20 UNL     1      -4.735   8.292  12.760  1.00  0.00     0.035 C 
HETATM    8  C21 UNL     1      -5.474   7.436  13.766  1.00  0.00    -0.068 C 
HETATM    9  C22 UNL     1      -6.579   6.775  13.378  1.00  0.00     0.053 C 
HETATM   10  C23 UNL     1      -7.433   6.044  14.344  1.00  0.00     0.149 C 
HETATM   11  O9  UNL     1      -8.353   5.348  13.920  1.00  0.00    -0.293 OA
HETATM   12  C24 UNL     1      -7.133   6.161  15.819  1.00  0.00     0.084 C 
HETATM   13  C25 UNL     1      -6.242   7.359  16.140  1.00  0.00     0.022 C 
HETATM   14  C26 UNL     1      -4.998   7.466  15.221  1.00  0.00    -0.016 C 
HETATM   15  C27 UNL     1      -4.070   6.256  15.486  1.00  0.00     0.020 C 
HETATM   16  C28 UNL     1      -4.252   8.825  15.444  1.00  0.00     0.002 C 
HETATM   17  C29 UNL     1      -3.918   9.177  16.913  1.00  0.00     0.007 C 
HETATM   18  C30 UNL     1      -3.257  10.565  17.030  1.00  0.00     0.013 C 
HETATM   19  C31 UNL     1      -1.989  10.684  16.163  1.00  0.00    -0.001 C 
HETATM   20  C32 UNL     1      -0.917   9.703  16.728  1.00  0.00     0.019 C 
ENDROOT
BRANCH   1  21
HETATM   21  O2  UNL     1      -2.419  13.061  15.511  1.00  0.00    -0.301 OA
BRANCH  21  22
HETATM   22  C2  UNL     1      -2.095  14.110  14.713  1.00  0.00     0.256 C 
HETATM   23  C1  UNL     1      -1.833  15.328  15.545  1.00  0.00     0.126 C 
HETATM   24  O1  UNL     1      -2.049  14.083  13.494  1.00  0.00    -0.266 OA
ENDBRANCH  21  22
ENDBRANCH   1  21
BRANCH   1  25
HETATM   25  C4  UNL     1      -0.471  12.700  17.061  1.00  0.00     0.186 C 
HETATM   26  O3  UNL     1       0.703  13.021  16.866  1.00  0.00    -0.292 OA
BRANCH  25  27
HETATM   27  C5  UNL     1      -1.094  12.846  18.455  1.00  0.00     0.260 C 
BRANCH  27  28
HETATM   28  O4  UNL     1      -0.113  12.933  19.491  1.00  0.00    -0.314 OA
BRANCH  28  29
HETATM   29  C6  UNL     1       0.244  11.728  20.013  1.00  0.00     0.259 C 
HETATM   30  O5  UNL     1      -0.370  10.683  19.839  1.00  0.00    -0.265 OA
BRANCH  29  31
HETATM   31  C7  UNL     1       1.531  11.834  20.777  1.00  0.00     0.120 C 
BRANCH  31  32
HETATM   32  C8  UNL     1       2.102  10.445  21.009  1.00  0.00     0.112 C 
BRANCH  32  33
HETATM   33  C9  UNL     1       3.585  10.491  21.295  1.00  0.00     0.217 C 
HETATM   34  O6  UNL     1       4.441  10.164  20.483  1.00  0.00    -0.274 OA
HETATM   35  N1  UNL     1       3.872  10.939  22.568  1.00  0.00    -0.361 N 
HETATM   36  H10 UNL     1       3.121  11.297  23.143  1.00  0.00     0.162 HD
BRANCH  35  37
HETATM   37  C10 UNL     1       5.236  11.154  23.008  1.00  0.00     0.122 C 
BRANCH  37  38
HETATM   38  C11 UNL     1       5.581  12.642  23.028  1.00  0.00     0.020 C 
BRANCH  38  39
HETATM   39  C12 UNL     1       7.085  12.925  23.027  1.00  0.00     0.012 C 
BRANCH  39  40
HETATM   40  C13 UNL     1       7.451  14.261  22.383  1.00  0.00     0.110 C 
BRANCH  40  41
HETATM   41  C14 UNL     1       8.794  14.756  22.853  1.00  0.00     0.139 C 
HETATM   42  O7  UNL     1       9.717  15.164  22.173  1.00  0.00    -0.650 OA
BRANCH  41  43
HETATM   43  O8  UNL     1       8.896  14.726  24.197  1.00  0.00    -0.776 OA
HETATM   44  H19 UNL     1       9.795  15.075  24.374  1.00  0.00     0.167 HD
ENDBRANCH  41  43
ENDBRANCH  40  41
ENDBRANCH  39  40
ENDBRANCH  38  39
ENDBRANCH  37  38
ENDBRANCH  35  37
ENDBRANCH  32  33
ENDBRANCH  31  32
ENDBRANCH  29  31
ENDBRANCH  28  29
ENDBRANCH  27  28
ENDBRANCH  25  27
ENDBRANCH   1  25
TORSDOF 15
ENDMDL
MODEL 6
REMARK minimizedAffinity -8.24272251
REMARK CNNscore 0.600933313
REMARK CNNaffinity 7.67338037
REMARK  15 active torsions:
REMARK  status: ('A' for Active; 'I' for Inactive)
REMARK    1  A    between atoms: C2_2  and  O2_4 
REMARK    2  A    between atoms: O2_4  and  C3_5 
REMARK    3  A    between atoms: C3_5  and  C4_6 
REMARK    4  A    between atoms: C4_6  and  C5_8 
REMARK    5  A    between atoms: C5_8  and  O4_9 
REMARK    6  A    between atoms: O4_9  and  C6_10 
REMARK    7  A    between atoms: C6_10  and  C7_12 
REMARK    8  A    between atoms: C7_12  and  C8_13 
REMARK    9  A    between atoms: C8_13  and  C9_14 
REMARK       I    between atoms: C9_14  and  N1_16 
REMARK   10  A    between atoms: N1_16  and  C10_17 
REMARK   11  A    between atoms: C10_17  and  C11_18 
REMARK   12  A    between atoms: C11_18  and  C12_19 
REMARK   13  A    between atoms: C12_19  and  C13_20 
REMARK   14  A    between atoms: C13_20  and  C14_21 
REMARK   15  A    between atoms: C14_21  and  O8_23 
ROOT
HETATM    1  C3  UNL     1      -2.677   7.054  13.970  1.00  0.00     0.140 C 
HETATM    2  C15 UNL     1      -2.619   5.579  13.450  1.00  0.00     0.048 C 
HETATM    3  C16 UNL     1      -4.070   5.064  13.369  1.00  0.00     0.009 C 
HETATM    4  C17 UNL     1      -4.929   6.271  13.727  1.00  0.00     0.002 C 
HETATM    5  C18 UNL     1      -6.367   6.033  14.215  1.00  0.00    -0.004 C 
HETATM    6  C19 UNL     1      -7.217   5.158  13.272  1.00  0.00     0.010 C 
HETATM    7  C20 UNL     1      -8.413   5.876  12.653  1.00  0.00     0.035 C 
HETATM    8  C21 UNL     1      -9.246   6.674  13.632  1.00  0.00    -0.068 C 
HETATM    9  C22 UNL     1     -10.534   6.931  13.341  1.00  0.00     0.053 C 
HETATM   10  C23 UNL     1     -11.361   7.830  14.178  1.00  0.00     0.149 C 
HETATM   11  O9  UNL     1     -12.564   7.926  13.945  1.00  0.00    -0.293 OA
HETATM   12  C24 UNL     1     -10.704   8.587  15.308  1.00  0.00     0.084 C 
HETATM   13  C25 UNL     1      -9.184   8.641  15.167  1.00  0.00     0.022 C 
HETATM   14  C26 UNL     1      -8.544   7.263  14.859  1.00  0.00    -0.016 C 
HETATM   15  C27 UNL     1      -8.752   6.328  16.073  1.00  0.00     0.020 C 
HETATM   16  C28 UNL     1      -7.027   7.418  14.502  1.00  0.00     0.002 C 
HETATM   17  C29 UNL     1      -6.180   8.238  15.504  1.00  0.00     0.007 C 
HETATM   18  C30 UNL     1      -4.723   8.396  15.023  1.00  0.00     0.013 C 
HETATM   19  C31 UNL     1      -4.046   7.040  14.754  1.00  0.00    -0.001 C 
HETATM   20  C32 UNL     1      -3.918   6.279  16.109  1.00  0.00     0.019 C 
ENDROOT
BRANCH   1  21
HETATM   21  O2  UNL     1      -2.776   7.847  12.754  1.00  0.00    -0.301 OA
BRANCH  21  22
HETATM   22  C2  UNL     1      -2.049   8.986  12.622  1.00  0.00     0.256 C 
HETATM   23  C1  UNL     1      -0.962   8.788  11.611  1.00  0.00     0.126 C 
HETATM   24  O1  UNL     1      -2.230  10.015  13.250  1.00  0.00    -0.266 OA
ENDBRANCH  21  22
ENDBRANCH   1  21
BRANCH   1  25
HETATM   25  C4  UNL     1      -1.384   7.340  14.789  1.00  0.00     0.186 C 
HETATM   26  O3  UNL     1      -1.160   8.420  15.338  1.00  0.00    -0.292 OA
BRANCH  25  27
HETATM   27  C5  UNL     1      -0.367   6.195  14.884  1.00  0.00     0.260 C 
BRANCH  27  28
HETATM   28  O4  UNL     1       0.242   5.893  13.627  1.00  0.00    -0.314 OA
BRANCH  28  29
HETATM   29  C6  UNL     1       1.426   6.532  13.422  1.00  0.00     0.259 C 
HETATM   30  O5  UNL     1       2.106   7.039  14.304  1.00  0.00    -0.265 OA
BRANCH  29  31
HETATM   31  C7  UNL     1       1.824   6.472  11.976  1.00  0.00     0.120 C 
BRANCH  31  32
HETATM   32  C8  UNL     1       0.699   5.856  11.162  1.00  0.00     0.112 C 
BRANCH  32  33
HETATM   33  C9  UNL     1       0.833   4.354  11.070  1.00  0.00     0.217 C 
HETATM   34  O6  UNL     1       1.874   3.785  10.765  1.00  0.00    -0.274 OA
HETATM   35  N1  UNL     1      -0.340   3.691  11.366  1.00  0.00    -0.361 N 
HETATM   36  H10 UNL     1      -1.127   4.220  11.718  1.00  0.00     0.162 HD
BRANCH  35  37
HETATM   37  C10 UNL     1      -0.399   2.244  11.435  1.00  0.00     0.122 C 
BRANCH  37  38
HETATM   38  C11 UNL     1      -1.725   1.721  10.887  1.00  0.00     0.020 C 
BRANCH  38  39
HETATM   39  C12 UNL     1      -2.954   2.330  11.565  1.00  0.00     0.012 C 
BRANCH  39  40
HETATM   40  C13 UNL     1      -4.110   1.344  11.728  1.00  0.00     0.110 C 
BRANCH  40  41
HETATM   41  C14 UNL     1      -5.421   1.945  11.295  1.00  0.00     0.139 C 
HETATM   42  O7  UNL     1      -5.619   3.064  10.856  1.00  0.00    -0.650 OA
BRANCH  41  43
HETATM   43  O8  UNL     1      -6.439   1.072  11.425  1.00  0.00    -0.776 OA
HETATM   44  H19 UNL     1      -7.221   1.571  11.107  1.00  0.00     0.167 HD
ENDBRANCH  41  43
ENDBRANCH  40  41
ENDBRANCH  39  40
ENDBRANCH  38  39
ENDBRANCH  37  38
ENDBRANCH  35  37
ENDBRANCH  32  33
ENDBRANCH  31  32
ENDBRANCH  29  31
ENDBRANCH  28  29
ENDBRANCH  27  28
ENDBRANCH  25  27
ENDBRANCH   1  25
TORSDOF 15
ENDMDL
MODEL 7
REMARK minimizedAffinity -7.74035692
REMARK CNNscore 0.587853909
REMARK CNNaffinity 7.93830061
REMARK  15 active torsions:
REMARK  status: ('A' for Active; 'I' for Inactive)
REMARK    1  A    between atoms: C2_2  and  O2_4 
REMARK    2  A    between atoms: O2_4  and  C3_5 
REMARK    3  A    between atoms: C3_5  and  C4_6 
REMARK    4  A    between atoms: C4_6  and  C5_8 
REMARK    5  A    between atoms: C5_8  and  O4_9 
REMARK    6  A    between atoms: O4_9  and  C6_10 
REMARK    7  A    between atoms: C6_10  and  C7_12 
REMARK    8  A    between atoms: C7_12  and  C8_13 
REMARK    9  A    between atoms: C8_13  and  C9_14 
REMARK       I    between atoms: C9_14  and  N1_16 
REMARK   10  A    between atoms: N1_16  and  C10_17 
REMARK   11  A    between atoms: C10_17  and  C11_18 
REMARK   12  A    between atoms: C11_18  and  C12_19 
REMARK   13  A    between atoms: C12_19  and  C13_20 
REMARK   14  A    between atoms: C13_20  and  C14_21 
REMARK   15  A    between atoms: C14_21  and  O8_23 
ROOT
HETATM    1  C3  UNL     1      -6.479   6.674  14.316  1.00  0.00     0.140 C 
HETATM    2  C15 UNL     1      -6.451   8.212  14.605  1.00  0.00     0.048 C 
HETATM    3  C16 UNL     1      -5.063   8.733  14.182  1.00  0.00     0.009 C 
HETATM    4  C17 UNL     1      -4.371   7.527  13.558  1.00  0.00     0.002 C 
HETATM    5  C18 UNL     1      -2.837   7.525  13.462  1.00  0.00    -0.004 C 
HETATM    6  C19 UNL     1      -2.247   8.770  12.771  1.00  0.00     0.010 C 
HETATM    7  C20 UNL     1      -1.517   8.479  11.463  1.00  0.00     0.035 C 
HETATM    8  C21 UNL     1      -0.545   7.321  11.527  1.00  0.00    -0.068 C 
HETATM    9  C22 UNL     1       0.475   7.270  10.651  1.00  0.00     0.053 C 
HETATM   10  C23 UNL     1       1.371   6.094  10.560  1.00  0.00     0.149 C 
HETATM   11  O9  UNL     1       2.363   6.153   9.838  1.00  0.00    -0.293 OA
HETATM   12  C24 UNL     1       1.047   4.864  11.373  1.00  0.00     0.084 C 
HETATM   13  C25 UNL     1      -0.401   4.851  11.861  1.00  0.00     0.022 C 
HETATM   14  C26 UNL     1      -0.843   6.187  12.513  1.00  0.00    -0.016 C 
HETATM   15  C27 UNL     1      -0.035   6.406  13.813  1.00  0.00     0.020 C 
HETATM   16  C28 UNL     1      -2.386   6.194  12.783  1.00  0.00     0.002 C 
HETATM   17  C29 UNL     1      -2.941   4.968  13.545  1.00  0.00     0.007 C 
HETATM   18  C30 UNL     1      -4.475   5.034  13.691  1.00  0.00     0.013 C 
HETATM   19  C31 UNL     1      -4.941   6.331  14.378  1.00  0.00    -0.001 C 
HETATM   20  C32 UNL     1      -4.419   6.320  15.848  1.00  0.00     0.019 C 
ENDROOT
BRANCH   1  21
HETATM   21  O2  UNL     1      -6.982   6.587  12.953  1.00  0.00    -0.301 OA
BRANCH  21  22
HETATM   22  C2  UNL     1      -8.000   5.741  12.655  1.00  0.00     0.256 C 
HETATM   23  C1  UNL     1      -7.457   4.411  12.230  1.00  0.00     0.126 C 
HETATM   24  O1  UNL     1      -9.186   6.022  12.695  1.00  0.00    -0.266 OA
ENDBRANCH  21  22
ENDBRANCH   1  21
BRANCH   1  25
HETATM   25  C4  UNL     1      -7.410   5.992  15.361  1.00  0.00     0.186 C 
HETATM   26  O3  UNL     1      -7.381   4.784  15.601  1.00  0.00    -0.292 OA
BRANCH  25  27
HETATM   27  C5  UNL     1      -8.398   6.906  16.097  1.00  0.00     0.260 C 
BRANCH  27  28
HETATM   28  O4  UNL     1      -8.904   7.953  15.267  1.00  0.00    -0.314 OA
BRANCH  28  29
HETATM   29  C6  UNL     1      -9.868   8.709  15.860  1.00  0.00     0.259 C 
HETATM   30  O5  UNL     1     -10.024   8.814  17.070  1.00  0.00    -0.265 OA
BRANCH  29  31
HETATM   31  C7  UNL     1     -10.673   9.454  14.836  1.00  0.00     0.120 C 
BRANCH  31  32
HETATM   32  C8  UNL     1     -11.392   8.463  13.935  1.00  0.00     0.112 C 
BRANCH  32  33
HETATM   33  C9  UNL     1     -12.505   7.749  14.667  1.00  0.00     0.217 C 
HETATM   34  O6  UNL     1     -13.052   8.194  15.668  1.00  0.00    -0.274 OA
HETATM   35  N1  UNL     1     -12.840   6.542  14.088  1.00  0.00    -0.361 N 
HETATM   36  H10 UNL     1     -12.424   6.292  13.200  1.00  0.00     0.162 HD
BRANCH  35  37
HETATM   37  C10 UNL     1     -13.950   5.748  14.574  1.00  0.00     0.122 C 
BRANCH  37  38
HETATM   38  C11 UNL     1     -15.216   6.015  13.762  1.00  0.00     0.020 C 
BRANCH  38  39
HETATM   39  C12 UNL     1     -16.320   4.979  13.987  1.00  0.00     0.012 C 
BRANCH  39  40
HETATM   40  C13 UNL     1     -16.024   4.016  15.136  1.00  0.00     0.110 C 
BRANCH  40  41
HETATM   41  C14 UNL     1     -15.784   2.614  14.640  1.00  0.00     0.139 C 
HETATM   42  O7  UNL     1     -16.582   1.863  14.112  1.00  0.00    -0.650 OA
BRANCH  41  43
HETATM   43  O8  UNL     1     -14.505   2.230  14.827  1.00  0.00    -0.776 OA
HETATM   44  H19 UNL     1     -14.475   1.321  14.461  1.00  0.00     0.167 HD
ENDBRANCH  41  43
ENDBRANCH  40  41
ENDBRANCH  39  40
ENDBRANCH  38  39
ENDBRANCH  37  38
ENDBRANCH  35  37
ENDBRANCH  32  33
ENDBRANCH  31  32
ENDBRANCH  29  31
ENDBRANCH  28  29
ENDBRANCH  27  28
ENDBRANCH  25  27
ENDBRANCH   1  25
TORSDOF 15
ENDMDL
MODEL 8
REMARK minimizedAffinity -7.99880934
REMARK CNNscore 0.525634706
REMARK CNNaffinity 7.88015699
REMARK  15 active torsions:
REMARK  status: ('A' for Active; 'I' for Inactive)
REMARK    1  A    between atoms: C2_2  and  O2_4 
REMARK    2  A    between atoms: O2_4  and  C3_5 
REMARK    3  A    between atoms: C3_5  and  C4_6 
REMARK    4  A    between atoms: C4_6  and  C5_8 
REMARK    5  A    between atoms: C5_8  and  O4_9 
REMARK    6  A    between atoms: O4_9  and  C6_10 
REMARK    7  A    between atoms: C6_10  and  C7_12 
REMARK    8  A    between atoms: C7_12  and  C8_13 
REMARK    9  A    between atoms: C8_13  and  C9_14 
REMARK       I    between atoms: C9_14  and  N1_16 
REMARK   10  A    between atoms: N1_16  and  C10_17 
REMARK   11  A    between atoms: C10_17  and  C11_18 
REMARK   12  A    between atoms: C11_18  and  C12_19 
REMARK   13  A    between atoms: C12_19  and  C13_20 
REMARK   14  A    between atoms: C13_20  and  C14_21 
REMARK   15  A    between atoms: C14_21  and  O8_23 
ROOT
HETATM    1  C3  UNL     1      -6.164   6.685  14.378  1.00  0.00     0.140 C 
HETATM    2  C15 UNL     1      -6.167   8.227  14.643  1.00  0.00     0.048 C 
HETATM    3  C16 UNL     1      -4.809   8.778  14.165  1.00  0.00     0.009 C 
HETATM    4  C17 UNL     1      -4.106   7.580  13.537  1.00  0.00     0.002 C 
HETATM    5  C18 UNL     1      -2.576   7.616  13.388  1.00  0.00    -0.004 C 
HETATM    6  C19 UNL     1      -2.044   8.865  12.659  1.00  0.00     0.010 C 
HETATM    7  C20 UNL     1      -1.350   8.572  11.331  1.00  0.00     0.035 C 
HETATM    8  C21 UNL     1      -0.346   7.441  11.380  1.00  0.00    -0.068 C 
HETATM    9  C22 UNL     1       0.645   7.403  10.471  1.00  0.00     0.053 C 
HETATM   10  C23 UNL     1       1.568   6.249  10.368  1.00  0.00     0.149 C 
HETATM   11  O9  UNL     1       2.534   6.323   9.612  1.00  0.00    -0.293 OA
HETATM   12  C24 UNL     1       1.305   5.025  11.211  1.00  0.00     0.084 C 
HETATM   13  C25 UNL     1      -0.125   4.982  11.748  1.00  0.00     0.022 C 
HETATM   14  C26 UNL     1      -0.581   6.316  12.393  1.00  0.00    -0.016 C 
HETATM   15  C27 UNL     1       0.264   6.577  13.662  1.00  0.00     0.020 C 
HETATM   16  C28 UNL     1      -2.114   6.287  12.715  1.00  0.00     0.002 C 
HETATM   17  C29 UNL     1      -2.610   5.059  13.514  1.00  0.00     0.007 C 
HETATM   18  C30 UNL     1      -4.139   5.088  13.711  1.00  0.00     0.013 C 
HETATM   19  C31 UNL     1      -4.616   6.383  14.394  1.00  0.00    -0.001 C 
HETATM   20  C32 UNL     1      -4.046   6.410  15.845  1.00  0.00     0.019 C 
ENDROOT
BRANCH   1  21
HETATM   21  O2  UNL     1      -6.710   6.562  13.035  1.00  0.00    -0.301 OA
BRANCH  21  22
HETATM   22  C2  UNL     1      -7.704   5.674  12.781  1.00  0.00     0.256 C 
HETATM   23  C1  UNL     1      -7.126   4.372  12.319  1.00  0.00     0.126 C 
HETATM   24  O1  UNL     1      -8.898   5.903  12.883  1.00  0.00    -0.266 OA
ENDBRANCH  21  22
ENDBRANCH   1  21
BRANCH   1  25
HETATM   25  C4  UNL     1      -7.041   5.996  15.464  1.00  0.00     0.186 C 
HETATM   26  O3  UNL     1      -7.080   4.774  15.622  1.00  0.00    -0.292 OA
BRANCH  25  27
HETATM   27  C5  UNL     1      -7.883   6.921  16.352  1.00  0.00     0.260 C 
BRANCH  27  28
HETATM   28  O4  UNL     1      -9.249   6.991  15.936  1.00  0.00    -0.314 OA
BRANCH  28  29
HETATM   29  C6  UNL     1      -9.820   8.211  16.124  1.00  0.00     0.259 C 
HETATM   30  O5  UNL     1     -10.058   8.708  17.217  1.00  0.00    -0.265 OA
BRANCH  29  31
HETATM   31  C7  UNL     1     -10.057   8.901  14.812  1.00  0.00     0.120 C 
BRANCH  31  32
HETATM   32  C8  UNL     1     -11.022   8.081  13.972  1.00  0.00     0.112 C 
BRANCH  32  33
HETATM   33  C9  UNL     1     -12.416   8.089  14.557  1.00  0.00     0.217 C 
HETATM   34  O6  UNL     1     -13.062   9.111  14.753  1.00  0.00    -0.274 OA
HETATM   35  N1  UNL     1     -12.884   6.824  14.845  1.00  0.00    -0.361 N 
HETATM   36  H10 UNL     1     -12.342   6.021  14.552  1.00  0.00     0.162 HD
BRANCH  35  37
HETATM   37  C10 UNL     1     -14.237   6.603  15.317  1.00  0.00     0.122 C 
BRANCH  37  38
HETATM   38  C11 UNL     1     -15.084   5.905  14.255  1.00  0.00     0.020 C 
BRANCH  38  39
HETATM   39  C12 UNL     1     -16.370   6.657  13.904  1.00  0.00     0.012 C 
BRANCH  39  40
HETATM   40  C13 UNL     1     -16.133   8.111  13.498  1.00  0.00     0.110 C 
BRANCH  40  41
HETATM   41  C14 UNL     1     -15.528   8.213  12.122  1.00  0.00     0.139 C 
HETATM   42  O7  UNL     1     -15.794   7.544  11.140  1.00  0.00    -0.650 OA
BRANCH  41  43
HETATM   43  O8  UNL     1     -14.606   9.193  12.052  1.00  0.00    -0.776 OA
HETATM   44  H19 UNL     1     -14.300   9.164  11.121  1.00  0.00     0.167 HD
ENDBRANCH  41  43
ENDBRANCH  40  41
ENDBRANCH  39  40
ENDBRANCH  38  39
ENDBRANCH  37  38
ENDBRANCH  35  37
ENDBRANCH  32  33
ENDBRANCH  31  32
ENDBRANCH  29  31
ENDBRANCH  28  29
ENDBRANCH  27  28
ENDBRANCH  25  27
ENDBRANCH   1  25
TORSDOF 15
ENDMDL
MODEL 9
REMARK minimizedAffinity -8.36710262
REMARK CNNscore 0.474148124
REMARK CNNaffinity 7.40504456
REMARK  15 active torsions:
REMARK  status: ('A' for Active; 'I' for Inactive)
REMARK    1  A    between atoms: C2_2  and  O2_4 
REMARK    2  A    between atoms: O2_4  and  C3_5 
REMARK    3  A    between atoms: C3_5  and  C4_6 
REMARK    4  A    between atoms: C4_6  and  C5_8 
REMARK    5  A    between atoms: C5_8  and  O4_9 
REMARK    6  A    between atoms: O4_9  and  C6_10 
REMARK    7  A    between atoms: C6_10  and  C7_12 
REMARK    8  A    between atoms: C7_12  and  C8_13 
REMARK    9  A    between atoms: C8_13  and  C9_14 
REMARK       I    between atoms: C9_14  and  N1_16 
REMARK   10  A    between atoms: N1_16  and  C10_17 
REMARK   11  A    between atoms: C10_17  and  C11_18 
REMARK   12  A    between atoms: C11_18  and  C12_19 
REMARK   13  A    between atoms: C12_19  and  C13_20 
REMARK   14  A    between atoms: C13_20  and  C14_21 
REMARK   15  A    between atoms: C14_21  and  O8_23 
ROOT
HETATM    1  C3  UNL     1      -2.045   6.723  13.431  1.00  0.00     0.140 C 
HETATM    2  C15 UNL     1      -2.040   5.293  12.795  1.00  0.00     0.048 C 
HETATM    3  C16 UNL     1      -3.493   4.776  12.815  1.00  0.00     0.009 C 
HETATM    4  C17 UNL     1      -4.312   5.947  13.346  1.00  0.00     0.002 C 
HETATM    5  C18 UNL     1      -5.696   5.664  13.951  1.00  0.00    -0.004 C 
HETATM    6  C19 UNL     1      -6.634   4.859  13.030  1.00  0.00     0.010 C 
HETATM    7  C20 UNL     1      -7.883   5.615  12.586  1.00  0.00     0.035 C 
HETATM    8  C21 UNL     1      -8.617   6.330  13.700  1.00  0.00    -0.068 C 
HETATM    9  C22 UNL     1      -9.927   6.601  13.555  1.00  0.00     0.053 C 
HETATM   10  C23 UNL     1     -10.668   7.428  14.536  1.00  0.00     0.149 C 
HETATM   11  O9  UNL     1     -11.887   7.534  14.427  1.00  0.00    -0.293 OA
HETATM   12  C24 UNL     1      -9.903   8.099  15.652  1.00  0.00     0.084 C 
HETATM   13  C25 UNL     1      -8.404   8.173  15.370  1.00  0.00     0.022 C 
HETATM   14  C26 UNL     1      -7.798   6.827  14.895  1.00  0.00    -0.016 C 
HETATM   15  C27 UNL     1      -7.889   5.800  16.048  1.00  0.00     0.020 C 
HETATM   16  C28 UNL     1      -6.322   7.019  14.406  1.00  0.00     0.002 C 
HETATM   17  C29 UNL     1      -5.382   7.763  15.383  1.00  0.00     0.007 C 
HETATM   18  C30 UNL     1      -3.978   7.967  14.777  1.00  0.00     0.013 C 
HETATM   19  C31 UNL     1      -3.332   6.640  14.340  1.00  0.00    -0.001 C 
HETATM   20  C32 UNL     1      -3.075   5.778  15.614  1.00  0.00     0.019 C 
ENDROOT
BRANCH   1  21
HETATM   21  O2  UNL     1      -2.260   7.607  12.295  1.00  0.00    -0.301 OA
BRANCH  21  22
HETATM   22  C2  UNL     1      -1.528   8.742  12.167  1.00  0.00     0.256 C 
HETATM   23  C1  UNL     1      -0.371   8.507  11.245  1.00  0.00     0.126 C 
HETATM   24  O1  UNL     1      -1.754   9.796  12.737  1.00  0.00    -0.266 OA
ENDBRANCH  21  22
ENDBRANCH   1  21
BRANCH   1  25
HETATM   25  C4  UNL     1      -0.679   6.952  14.141  1.00  0.00     0.186 C 
HETATM   26  O3  UNL     1       0.338   6.313  13.865  1.00  0.00    -0.292 OA
BRANCH  25  27
HETATM   27  C5  UNL     1      -0.647   8.030  15.232  1.00  0.00     0.260 C 
BRANCH  27  28
HETATM   28  O4  UNL     1       0.401   8.982  15.035  1.00  0.00    -0.314 OA
BRANCH  28  29
HETATM   29  C6  UNL     1       1.515   8.736  15.777  1.00  0.00     0.259 C 
HETATM   30  O5  UNL     1       1.524   8.126  16.839  1.00  0.00    -0.265 OA
BRANCH  29  31
HETATM   31  C7  UNL     1       2.744   9.251  15.088  1.00  0.00     0.120 C 
BRANCH  31  32
HETATM   32  C8  UNL     1       3.931   8.369  15.437  1.00  0.00     0.112 C 
BRANCH  32  33
HETATM   33  C9  UNL     1       4.748   8.023  14.213  1.00  0.00     0.217 C 
HETATM   34  O6  UNL     1       4.506   8.455  13.093  1.00  0.00    -0.274 OA
HETATM   35  N1  UNL     1       5.795   7.169  14.491  1.00  0.00    -0.361 N 
HETATM   36  H10 UNL     1       6.001   6.942  15.455  1.00  0.00     0.162 HD
BRANCH  35  37
HETATM   37  C10 UNL     1       6.760   6.794  13.477  1.00  0.00     0.122 C 
BRANCH  37  38
HETATM   38  C11 UNL     1       7.790   7.901  13.260  1.00  0.00     0.020 C 
BRANCH  38  39
HETATM   39  C12 UNL     1       8.971   7.841  14.232  1.00  0.00     0.012 C 
BRANCH  39  40
HETATM   40  C13 UNL     1       8.996   8.997  15.231  1.00  0.00     0.110 C 
BRANCH  40  41
HETATM   41  C14 UNL     1       8.430   8.592  16.566  1.00  0.00     0.139 C 
HETATM   42  O7  UNL     1       7.564   9.155  17.211  1.00  0.00    -0.650 OA
BRANCH  41  43
HETATM   43  O8  UNL     1       8.991   7.454  17.023  1.00  0.00    -0.776 OA
HETATM   44  H19 UNL     1       8.540   7.295  17.878  1.00  0.00     0.167 HD
ENDBRANCH  41  43
ENDBRANCH  40  41
ENDBRANCH  39  40
ENDBRANCH  38  39
ENDBRANCH  37  38
ENDBRANCH  35  37
ENDBRANCH  32  33
ENDBRANCH  31  32
ENDBRANCH  29  31
ENDBRANCH  28  29
ENDBRANCH  27  28
ENDBRANCH  25  27
ENDBRANCH   1  25
TORSDOF 15
ENDMDL
