MODEL 1
REMARK minimizedAffinity -8.72270393
REMARK  7 active torsions:
REMARK  status: ('A' for Active; 'I' for Inactive)
REMARK    1  A    between atoms: C3_3  and  C5_5 
REMARK    2  A    between atoms: C6_6  and  C7_7 
REMARK    3  A    between atoms: C8_8  and  C9_9 
REMARK    4  A    between atoms: C10_10  and  C12_12 
REMARK    5  A    between atoms: C12_12  and  C13_14 
REMARK    6  A    between atoms: C13_14  and  C15_16 
REMARK    7  A    between atoms: C15_16  and  O2_17 
ROOT
HETATM    1  C5  UNL     1      -5.589   4.561  13.924  1.00  0.00     0.058 C 
HETATM    2  C6  UNL     1      -4.217   5.042  13.341  1.00  0.00     0.024 C 
HETATM    3  C16 UNL     1      -3.377   3.836  12.824  1.00  0.00     0.003 C 
HETATM    4  C17 UNL     1      -1.959   4.269  12.385  1.00  0.00     0.041 C 
HETATM    5  C18 UNL     1      -1.194   3.180  11.701  1.00  0.00     0.157 A 
HETATM    6  O3  UNL     1      -1.486   3.072  10.295  1.00  0.00    -0.370 OA
HETATM    7  C19 UNL     1      -1.884   1.971  11.118  1.00  0.00     0.084 A 
HETATM    8  C20 UNL     1      -1.102   0.722  10.861  1.00  0.00     0.049 C 
HETATM    9  C21 UNL     1      -3.367   1.821  11.290  1.00  0.00     0.048 C 
HETATM   10  C22 UNL     1      -4.088   3.137  11.638  1.00  0.00     0.025 C 
HETATM   11  C23 UNL     1      -5.538   2.862  11.919  1.00  0.00     0.162 A 
HETATM   12  O4  UNL     1      -6.396   3.986  11.637  1.00  0.00    -0.368 OA
HETATM   13  C24 UNL     1      -6.305   3.580  13.008  1.00  0.00     0.092 A 
HETATM   14  C25 UNL     1      -7.548   2.927  13.535  1.00  0.00     0.049 C 
ENDROOT
BRANCH   2  15
HETATM   15  C7  UNL     1      -3.444   5.816  14.403  1.00  0.00    -0.021 C 
HETATM   16  C8  UNL     1      -2.544   6.801  14.236  1.00  0.00    -0.003 C 
BRANCH  16  17
HETATM   17  C9  UNL     1      -2.131   7.377  12.973  1.00  0.00     0.010 C 
HETATM   18  C10 UNL     1      -0.881   7.751  12.642  1.00  0.00    -0.016 C 
HETATM   19  C11 UNL     1       0.344   7.637  13.504  1.00  0.00     0.052 C 
BRANCH  18  20
HETATM   20  C12 UNL     1      -0.611   8.380  11.296  1.00  0.00     0.161 C 
HETATM   21  O1  UNL     1      -1.313   9.336  10.957  1.00  0.00    -0.292 OA
BRANCH  20  22
HETATM   22  C13 UNL     1       0.477   7.809  10.375  1.00  0.00     0.080 C 
HETATM   23  C14 UNL     1       0.623   6.299  10.594  1.00  0.00     0.020 C 
BRANCH  22  24
HETATM   24  C15 UNL     1       0.205   8.118   8.900  1.00  0.00     0.176 C 
BRANCH  24  25
HETATM   25  O2  UNL     1      -0.485   9.353   8.753  1.00  0.00    -0.400 OA
HETATM   26  H22 UNL     1      -0.741   9.433   7.818  1.00  0.00     0.209 HD
ENDBRANCH  24  25
ENDBRANCH  22  24
ENDBRANCH  20  22
ENDBRANCH  18  20
ENDBRANCH  16  17
ENDBRANCH   2  15
BRANCH   1  27
HETATM   27  C3  UNL     1      -6.480   5.738  14.372  1.00  0.00    -0.080 C 
HETATM   28  C2  UNL     1      -6.955   5.784  15.634  1.00  0.00    -0.028 C 
HETATM   29  C1  UNL     1      -7.860   6.810  16.241  1.00  0.00     0.036 C 
HETATM   30  C4  UNL     1      -6.780   6.785  13.329  1.00  0.00     0.043 C 
ENDBRANCH   1  27
TORSDOF 7
ENDMDL
MODEL 2
REMARK minimizedAffinity -8.6351614
REMARK  7 active torsions:
REMARK  status: ('A' for Active; 'I' for Inactive)
REMARK    1  A    between atoms: C3_3  and  C5_5 
REMARK    2  A    between atoms: C6_6  and  C7_7 
REMARK    3  A    between atoms: C8_8  and  C9_9 
REMARK    4  A    between atoms: C10_10  and  C12_12 
REMARK    5  A    between atoms: C12_12  and  C13_14 
REMARK    6  A    between atoms: C13_14  and  C15_16 
REMARK    7  A    between atoms: C15_16  and  O2_17 
ROOT
HETATM    1  C5  UNL     1      -2.420   7.122  13.982  1.00  0.00     0.058 C 
HETATM    2  C6  UNL     1      -2.509   5.953  12.944  1.00  0.00     0.024 C 
HETATM    3  C16 UNL     1      -3.799   5.106  13.168  1.00  0.00     0.003 C 
HETATM    4  C17 UNL     1      -3.831   3.858  12.255  1.00  0.00     0.041 C 
HETATM    5  C18 UNL     1      -5.138   3.130  12.296  1.00  0.00     0.157 A 
HETATM    6  O3  UNL     1      -6.128   3.681  11.407  1.00  0.00    -0.370 OA
HETATM    7  C19 UNL     1      -6.396   3.787  12.810  1.00  0.00     0.084 A 
HETATM    8  C20 UNL     1      -7.543   2.941  13.262  1.00  0.00     0.049 C 
HETATM    9  C21 UNL     1      -6.323   5.181  13.358  1.00  0.00     0.048 C 
HETATM   10  C22 UNL     1      -5.068   5.957  12.915  1.00  0.00     0.025 C 
HETATM   11  C23 UNL     1      -5.018   7.285  13.616  1.00  0.00     0.162 A 
HETATM   12  O4  UNL     1      -4.315   8.298  12.870  1.00  0.00    -0.368 OA
HETATM   13  C24 UNL     1      -3.724   7.894  14.111  1.00  0.00     0.092 A 
HETATM   14  C25 UNL     1      -3.808   8.930  15.193  1.00  0.00     0.049 C 
ENDROOT
BRANCH   2  15
HETATM   15  C7  UNL     1      -1.268   5.072  13.044  1.00  0.00    -0.021 C 
HETATM   16  C8  UNL     1      -0.224   4.995  12.201  1.00  0.00    -0.003 C 
BRANCH  16  17
HETATM   17  C9  UNL     1      -0.035   5.779  10.999  1.00  0.00     0.010 C 
HETATM   18  C10 UNL     1       1.000   6.599  10.741  1.00  0.00    -0.016 C 
HETATM   19  C11 UNL     1       2.178   6.861  11.636  1.00  0.00     0.052 C 
BRANCH  18  20
HETATM   20  C12 UNL     1       1.037   7.389   9.454  1.00  0.00     0.161 C 
HETATM   21  O1  UNL     1       0.111   8.174   9.234  1.00  0.00    -0.292 OA
BRANCH  20  22
HETATM   22  C13 UNL     1       2.176   7.179   8.445  1.00  0.00     0.080 C 
HETATM   23  C14 UNL     1       1.631   7.203   7.013  1.00  0.00     0.020 C 
BRANCH  22  24
HETATM   24  C15 UNL     1       3.295   8.212   8.615  1.00  0.00     0.176 C 
BRANCH  24  25
HETATM   25  O2  UNL     1       3.248   9.194   7.589  1.00  0.00    -0.400 OA
HETATM   26  H22 UNL     1       4.048   9.741   7.674  1.00  0.00     0.209 HD
ENDBRANCH  24  25
ENDBRANCH  22  24
ENDBRANCH  20  22
ENDBRANCH  18  20
ENDBRANCH  16  17
ENDBRANCH   2  15
BRANCH   1  27
HETATM   27  C3  UNL     1      -1.196   8.028  13.740  1.00  0.00    -0.080 C 
HETATM   28  C2  UNL     1      -0.175   8.037  14.622  1.00  0.00    -0.028 C 
HETATM   29  C1  UNL     1       1.068   8.870  14.585  1.00  0.00     0.036 C 
HETATM   30  C4  UNL     1      -1.232   8.883  12.498  1.00  0.00     0.043 C 
ENDBRANCH   1  27
TORSDOF 7
ENDMDL
MODEL 3
REMARK minimizedAffinity -8.31638241
REMARK  7 active torsions:
REMARK  status: ('A' for Active; 'I' for Inactive)
REMARK    1  A    between atoms: C3_3  and  C5_5 
REMARK    2  A    between atoms: C6_6  and  C7_7 
REMARK    3  A    between atoms: C8_8  and  C9_9 
REMARK    4  A    between atoms: C10_10  and  C12_12 
REMARK    5  A    between atoms: C12_12  and  C13_14 
REMARK    6  A    between atoms: C13_14  and  C15_16 
REMARK    7  A    between atoms: C15_16  and  O2_17 
ROOT
HETATM    1  C5  UNL     1      -3.506   7.482  14.911  1.00  0.00     0.058 C 
HETATM    2  C6  UNL     1      -3.039   6.299  13.997  1.00  0.00     0.024 C 
HETATM    3  C16 UNL     1      -4.191   5.271  13.784  1.00  0.00     0.003 C 
HETATM    4  C17 UNL     1      -3.708   4.021  13.013  1.00  0.00     0.041 C 
HETATM    5  C18 UNL     1      -4.824   3.105  12.616  1.00  0.00     0.157 A 
HETATM    6  O3  UNL     1      -5.469   3.489  11.387  1.00  0.00    -0.370 OA
HETATM    7  C19 UNL     1      -6.258   3.571  12.579  1.00  0.00     0.084 A 
HETATM    8  C20 UNL     1      -7.366   2.569  12.630  1.00  0.00     0.049 C 
HETATM    9  C21 UNL     1      -6.585   4.968  13.017  1.00  0.00     0.048 C 
HETATM   10  C22 UNL     1      -5.372   5.918  13.020  1.00  0.00     0.025 C 
HETATM   11  C23 UNL     1      -5.770   7.248  13.596  1.00  0.00     0.162 A 
HETATM   12  O4  UNL     1      -4.980   8.344  13.096  1.00  0.00    -0.368 OA
HETATM   13  C24 UNL     1      -4.853   8.051  14.493  1.00  0.00     0.092 A 
HETATM   14  C25 UNL     1      -5.477   9.077  15.391  1.00  0.00     0.049 C 
ENDROOT
BRANCH   2  15
HETATM   15  C7  UNL     1      -1.821   5.617  14.611  1.00  0.00    -0.021 C 
HETATM   16  C8  UNL     1      -0.567   5.548  14.133  1.00  0.00    -0.003 C 
BRANCH  16  17
HETATM   17  C9  UNL     1      -0.084   6.154  12.910  1.00  0.00     0.010 C 
HETATM   18  C10 UNL     1       0.250   5.504  11.780  1.00  0.00    -0.016 C 
HETATM   19  C11 UNL     1       0.177   4.022  11.546  1.00  0.00     0.052 C 
BRANCH  18  20
HETATM   20  C12 UNL     1       0.783   6.273  10.594  1.00  0.00     0.161 C 
HETATM   21  O1  UNL     1       1.489   5.665   9.785  1.00  0.00    -0.292 OA
BRANCH  20  22
HETATM   22  C13 UNL     1       0.481   7.771  10.438  1.00  0.00     0.080 C 
HETATM   23  C14 UNL     1       1.463   8.603  11.270  1.00  0.00     0.020 C 
BRANCH  22  24
HETATM   24  C15 UNL     1       0.503   8.214   8.972  1.00  0.00     0.176 C 
BRANCH  24  25
HETATM   25  O2  UNL     1      -0.517   9.168   8.709  1.00  0.00    -0.400 OA
HETATM   26  H22 UNL     1      -0.536   9.315   7.747  1.00  0.00     0.209 HD
ENDBRANCH  24  25
ENDBRANCH  22  24
ENDBRANCH  20  22
ENDBRANCH  18  20
ENDBRANCH  16  17
ENDBRANCH   2  15
BRANCH   1  27
HETATM   27  C3  UNL     1      -2.415   8.559  15.078  1.00  0.00    -0.080 C 
HETATM   28  C2  UNL     1      -1.913   8.830  16.302  1.00  0.00    -0.028 C 
HETATM   29  C1  UNL     1      -0.890   9.858  16.671  1.00  0.00     0.036 C 
HETATM   30  C4  UNL     1      -1.977   9.270  13.822  1.00  0.00     0.043 C 
ENDBRANCH   1  27
TORSDOF 7
ENDMDL
MODEL 4
REMARK minimizedAffinity -8.14558792
REMARK  7 active torsions:
REMARK  status: ('A' for Active; 'I' for Inactive)
REMARK    1  A    between atoms: C3_3  and  C5_5 
REMARK    2  A    between atoms: C6_6  and  C7_7 
REMARK    3  A    between atoms: C8_8  and  C9_9 
REMARK    4  A    between atoms: C10_10  and  C12_12 
REMARK    5  A    between atoms: C12_12  and  C13_14 
REMARK    6  A    between atoms: C13_14  and  C15_16 
REMARK    7  A    between atoms: C15_16  and  O2_17 
ROOT
HETATM    1  C5  UNL     1      -1.184   6.734  12.626  1.00  0.00     0.058 C 
HETATM    2  C6  UNL     1       0.226   6.159  12.256  1.00  0.00     0.024 C 
HETATM    3  C16 UNL     1       0.564   6.432  10.759  1.00  0.00     0.003 C 
HETATM    4  C17 UNL     1       1.881   5.742  10.333  1.00  0.00     0.041 C 
HETATM    5  C18 UNL     1       2.340   6.140   8.966  1.00  0.00     0.157 A 
HETATM    6  O3  UNL     1       3.096   7.366   8.952  1.00  0.00    -0.370 OA
HETATM    7  C19 UNL     1       1.828   7.387   8.289  1.00  0.00     0.084 A 
HETATM    8  C20 UNL     1       1.935   7.522   6.803  1.00  0.00     0.049 C 
HETATM    9  C21 UNL     1       0.778   8.213   8.972  1.00  0.00     0.048 C 
HETATM   10  C22 UNL     1       0.673   7.952  10.487  1.00  0.00     0.025 C 
HETATM   11  C23 UNL     1      -0.486   8.722  11.054  1.00  0.00     0.162 A 
HETATM   12  O4  UNL     1      -0.317   9.063  12.444  1.00  0.00    -0.368 OA
HETATM   13  C24 UNL     1      -1.385   8.159  12.134  1.00  0.00     0.092 A 
HETATM   14  C25 UNL     1      -2.753   8.754  12.286  1.00  0.00     0.049 C 
ENDROOT
BRANCH   2  15
HETATM   15  C7  UNL     1       0.272   4.664  12.550  1.00  0.00    -0.021 C 
HETATM   16  C8  UNL     1      -0.657   3.728  12.290  1.00  0.00    -0.003 C 
BRANCH  16  17
HETATM   17  C9  UNL     1      -1.924   3.943  11.623  1.00  0.00     0.010 C 
HETATM   18  C10 UNL     1      -2.832   2.997  11.318  1.00  0.00    -0.016 C 
HETATM   19  C11 UNL     1      -2.727   1.528  11.616  1.00  0.00     0.052 C 
BRANCH  18  20
HETATM   20  C12 UNL     1      -4.095   3.370  10.578  1.00  0.00     0.161 C 
HETATM   21  O1  UNL     1      -3.985   3.756   9.411  1.00  0.00    -0.292 OA
BRANCH  20  22
HETATM   22  C13 UNL     1      -5.457   3.305  11.284  1.00  0.00     0.080 C 
HETATM   23  C14 UNL     1      -6.002   1.873  11.263  1.00  0.00     0.020 C 
BRANCH  22  24
HETATM   24  C15 UNL     1      -5.388   3.837  12.719  1.00  0.00     0.176 C 
BRANCH  24  25
HETATM   25  O2  UNL     1      -6.398   4.808  12.956  1.00  0.00    -0.400 OA
HETATM   26  H22 UNL     1      -6.227   5.198  13.831  1.00  0.00     0.209 HD
ENDBRANCH  24  25
ENDBRANCH  22  24
ENDBRANCH  20  22
ENDBRANCH  18  20
ENDBRANCH  16  17
ENDBRANCH   2  15
BRANCH   1  27
HETATM   27  C3  UNL     1      -1.517   6.552  14.120  1.00  0.00    -0.080 C 
HETATM   28  C2  UNL     1      -2.737   6.111  14.493  1.00  0.00    -0.028 C 
HETATM   29  C1  UNL     1      -3.260   5.912  15.881  1.00  0.00     0.036 C 
HETATM   30  C4  UNL     1      -0.423   6.903  15.098  1.00  0.00     0.043 C 
ENDBRANCH   1  27
TORSDOF 7
ENDMDL
MODEL 5
REMARK minimizedAffinity -7.90053463
REMARK  7 active torsions:
REMARK  status: ('A' for Active; 'I' for Inactive)
REMARK    1  A    between atoms: C3_3  and  C5_5 
REMARK    2  A    between atoms: C6_6  and  C7_7 
REMARK    3  A    between atoms: C8_8  and  C9_9 
REMARK    4  A    between atoms: C10_10  and  C12_12 
REMARK    5  A    between atoms: C12_12  and  C13_14 
REMARK    6  A    between atoms: C13_14  and  C15_16 
REMARK    7  A    between atoms: C15_16  and  O2_17 
ROOT
HETATM    1  C5  UNL     1      -4.050   6.624  14.927  1.00  0.00     0.058 C 
HETATM    2  C6  UNL     1      -3.263   5.848  13.817  1.00  0.00     0.024 C 
HETATM    3  C16 UNL     1      -4.051   4.585  13.355  1.00  0.00     0.003 C 
HETATM    4  C17 UNL     1      -3.226   3.722  12.372  1.00  0.00     0.041 C 
HETATM    5  C18 UNL     1      -4.018   2.612  11.754  1.00  0.00     0.157 A 
HETATM    6  O3  UNL     1      -4.774   3.023  10.599  1.00  0.00    -0.370 OA
HETATM    7  C19 UNL     1      -5.527   2.621  11.748  1.00  0.00     0.084 A 
HETATM    8  C20 UNL     1      -6.276   1.342  11.552  1.00  0.00     0.049 C 
HETATM    9  C21 UNL     1      -6.255   3.735  12.441  1.00  0.00     0.048 C 
HETATM   10  C22 UNL     1      -5.388   4.986  12.684  1.00  0.00     0.025 C 
HETATM   11  C23 UNL     1      -6.160   5.988  13.495  1.00  0.00     0.162 A 
HETATM   12  O4  UNL     1      -5.752   7.350  13.257  1.00  0.00    -0.368 OA
HETATM   13  C24 UNL     1      -5.514   6.832  14.572  1.00  0.00     0.092 A 
HETATM   14  C25 UNL     1      -6.403   7.418  15.628  1.00  0.00     0.049 C 
ENDROOT
BRANCH   2  15
HETATM   15  C7  UNL     1      -1.883   5.456  14.336  1.00  0.00    -0.021 C 
HETATM   16  C8  UNL     1      -0.678   5.880  13.920  1.00  0.00    -0.003 C 
BRANCH  16  17
HETATM   17  C9  UNL     1      -0.427   6.857  12.881  1.00  0.00     0.010 C 
HETATM   18  C10 UNL     1      -0.002   6.594  11.631  1.00  0.00    -0.016 C 
HETATM   19  C11 UNL     1       0.287   5.239  11.051  1.00  0.00     0.052 C 
BRANCH  18  20
HETATM   20  C12 UNL     1       0.258   7.727  10.666  1.00  0.00     0.161 C 
HETATM   21  O1  UNL     1      -0.256   8.822  10.913  1.00  0.00    -0.292 OA
BRANCH  20  22
HETATM   22  C13 UNL     1       1.101   7.495   9.404  1.00  0.00     0.080 C 
HETATM   23  C14 UNL     1       0.462   8.195   8.199  1.00  0.00     0.020 C 
BRANCH  22  24
HETATM   24  C15 UNL     1       2.551   7.952   9.588  1.00  0.00     0.176 C 
BRANCH  24  25
HETATM   25  O2  UNL     1       3.229   8.024   8.341  1.00  0.00    -0.400 OA
HETATM   26  H22 UNL     1       4.169   8.193   8.530  1.00  0.00     0.209 HD
ENDBRANCH  24  25
ENDBRANCH  22  24
ENDBRANCH  20  22
ENDBRANCH  18  20
ENDBRANCH  16  17
ENDBRANCH   2  15
BRANCH   1  27
HETATM   27  C3  UNL     1      -3.335   7.923  15.351  1.00  0.00    -0.080 C 
HETATM   28  C2  UNL     1      -3.199   8.939  14.473  1.00  0.00    -0.028 C 
HETATM   29  C1  UNL     1      -2.506  10.249  14.680  1.00  0.00     0.036 C 
HETATM   30  C4  UNL     1      -2.808   7.966  16.764  1.00  0.00     0.043 C 
ENDBRANCH   1  27
TORSDOF 7
ENDMDL
MODEL 6
REMARK minimizedAffinity -7.63872528
REMARK  7 active torsions:
REMARK  status: ('A' for Active; 'I' for Inactive)
REMARK    1  A    between atoms: C3_3  and  C5_5 
REMARK    2  A    between atoms: C6_6  and  C7_7 
REMARK    3  A    between atoms: C8_8  and  C9_9 
REMARK    4  A    between atoms: C10_10  and  C12_12 
REMARK    5  A    between atoms: C12_12  and  C13_14 
REMARK    6  A    between atoms: C13_14  and  C15_16 
REMARK    7  A    between atoms: C15_16  and  O2_17 
ROOT
HETATM    1  C5  UNL     1       0.081   8.075  13.826  1.00  0.00     0.058 C 
HETATM    2  C6  UNL     1      -0.625   8.045  12.428  1.00  0.00     0.024 C 
HETATM    3  C16 UNL     1       0.396   8.320  11.283  1.00  0.00     0.003 C 
HETATM    4  C17 UNL     1      -0.303   8.446   9.909  1.00  0.00     0.041 C 
HETATM    5  C18 UNL     1       0.657   8.512   8.762  1.00  0.00     0.157 A 
HETATM    6  O3  UNL     1       1.094   7.218   8.307  1.00  0.00    -0.370 OA
HETATM    7  C19 UNL     1       2.089   8.059   8.899  1.00  0.00     0.084 A 
HETATM    8  C20 UNL     1       3.117   8.541   7.926  1.00  0.00     0.049 C 
HETATM    9  C21 UNL     1       2.586   7.595  10.237  1.00  0.00     0.048 C 
HETATM   10  C22 UNL     1       1.461   7.198  11.213  1.00  0.00     0.025 C 
HETATM   11  C23 UNL     1       2.047   6.877  12.559  1.00  0.00     0.162 A 
HETATM   12  O4  UNL     1       1.257   5.939  13.315  1.00  0.00    -0.368 OA
HETATM   13  C24 UNL     1       1.366   7.262  13.854  1.00  0.00     0.092 A 
HETATM   14  C25 UNL     1       2.211   7.351  15.090  1.00  0.00     0.049 C 
ENDROOT
BRANCH   2  15
HETATM   15  C7  UNL     1      -1.755   9.068  12.393  1.00  0.00    -0.021 C 
HETATM   16  C8  UNL     1      -3.072   8.870  12.570  1.00  0.00    -0.003 C 
BRANCH  16  17
HETATM   17  C9  UNL     1      -3.714   7.608  12.874  1.00  0.00     0.010 C 
HETATM   18  C10 UNL     1      -4.741   7.425  13.724  1.00  0.00    -0.016 C 
HETATM   19  C11 UNL     1      -5.443   8.487  14.522  1.00  0.00     0.052 C 
BRANCH  18  20
HETATM   20  C12 UNL     1      -5.279   6.035  13.972  1.00  0.00     0.161 C 
HETATM   21  O1  UNL     1      -4.492   5.089  13.881  1.00  0.00    -0.292 OA
BRANCH  20  22
HETATM   22  C13 UNL     1      -6.767   5.822  14.286  1.00  0.00     0.080 C 
HETATM   23  C14 UNL     1      -7.335   4.683  13.431  1.00  0.00     0.020 C 
BRANCH  22  24
HETATM   24  C15 UNL     1      -7.010   5.553  15.774  1.00  0.00     0.176 C 
BRANCH  24  25
HETATM   25  O2  UNL     1      -7.927   4.483  15.960  1.00  0.00    -0.400 OA
HETATM   26  H22 UNL     1      -8.138   4.442  16.909  1.00  0.00     0.209 HD
ENDBRANCH  24  25
ENDBRANCH  22  24
ENDBRANCH  20  22
ENDBRANCH  18  20
ENDBRANCH  16  17
ENDBRANCH   2  15
BRANCH   1  27
HETATM   27  C3  UNL     1      -0.886   7.728  14.977  1.00  0.00    -0.080 C 
HETATM   28  C2  UNL     1      -1.280   8.687  15.841  1.00  0.00    -0.028 C 
HETATM   29  C1  UNL     1      -2.171   8.540  17.035  1.00  0.00     0.036 C 
HETATM   30  C4  UNL     1      -1.328   6.289  15.069  1.00  0.00     0.043 C 
ENDBRANCH   1  27
TORSDOF 7
ENDMDL
MODEL 7
REMARK minimizedAffinity -7.63731909
REMARK  7 active torsions:
REMARK  status: ('A' for Active; 'I' for Inactive)
REMARK    1  A    between atoms: C3_3  and  C5_5 
REMARK    2  A    between atoms: C6_6  and  C7_7 
REMARK    3  A    between atoms: C8_8  and  C9_9 
REMARK    4  A    between atoms: C10_10  and  C12_12 
REMARK    5  A    between atoms: C12_12  and  C13_14 
REMARK    6  A    between atoms: C13_14  and  C15_16 
REMARK    7  A    between atoms: C15_16  and  O2_17 
ROOT
HETATM    1  C5  UNL     1      -2.193   6.907  14.492  1.00  0.00     0.058 C 
HETATM    2  C6  UNL     1      -1.395   6.170  13.364  1.00  0.00     0.024 C 
HETATM    3  C16 UNL     1      -2.054   4.801  13.018  1.00  0.00     0.003 C 
HETATM    4  C17 UNL     1      -1.199   3.988  12.018  1.00  0.00     0.041 C 
HETATM    5  C18 UNL     1      -1.890   2.761  11.511  1.00  0.00     0.157 A 
HETATM    6  O3  UNL     1      -2.767   3.018  10.397  1.00  0.00    -0.370 OA
HETATM    7  C19 UNL     1      -3.386   2.593  11.616  1.00  0.00     0.084 A 
HETATM    8  C20 UNL     1      -3.987   1.226  11.533  1.00  0.00     0.049 C 
HETATM    9  C21 UNL     1      -4.195   3.649  12.309  1.00  0.00     0.048 C 
HETATM   10  C22 UNL     1      -3.472   5.004  12.430  1.00  0.00     0.025 C 
HETATM   11  C23 UNL     1      -4.303   5.951  13.250  1.00  0.00     0.162 A 
HETATM   12  O4  UNL     1      -4.079   7.336  12.920  1.00  0.00    -0.368 OA
HETATM   13  C24 UNL     1      -3.692   6.922  14.236  1.00  0.00     0.092 A 
HETATM   14  C25 UNL     1      -4.572   7.456  15.328  1.00  0.00     0.049 C 
ENDROOT
BRANCH   2  15
HETATM   15  C7  UNL     1       0.054   5.971  13.797  1.00  0.00    -0.021 C 
HETATM   16  C8  UNL     1       1.150   5.847  13.029  1.00  0.00    -0.003 C 
BRANCH  16  17
HETATM   17  C9  UNL     1       1.193   5.910  11.583  1.00  0.00     0.010 C 
HETATM   18  C10 UNL     1       2.233   6.329  10.838  1.00  0.00    -0.016 C 
HETATM   19  C11 UNL     1       3.564   6.804  11.346  1.00  0.00     0.052 C 
BRANCH  18  20
HETATM   20  C12 UNL     1       2.113   6.380   9.333  1.00  0.00     0.161 C 
HETATM   21  O1  UNL     1       2.774   5.570   8.676  1.00  0.00    -0.292 OA
BRANCH  20  22
HETATM   22  C13 UNL     1       1.226   7.437   8.659  1.00  0.00     0.080 C 
HETATM   23  C14 UNL     1       0.458   8.241   9.713  1.00  0.00     0.020 C 
BRANCH  22  24
HETATM   24  C15 UNL     1       2.032   8.369   7.749  1.00  0.00     0.176 C 
BRANCH  24  25
HETATM   25  O2  UNL     1       3.380   8.476   8.188  1.00  0.00    -0.400 OA
HETATM   26  H22 UNL     1       3.805   9.171   7.656  1.00  0.00     0.209 HD
ENDBRANCH  24  25
ENDBRANCH  22  24
ENDBRANCH  20  22
ENDBRANCH  18  20
ENDBRANCH  16  17
ENDBRANCH   2  15
BRANCH   1  27
HETATM   27  C3  UNL     1      -1.614   8.302  14.803  1.00  0.00    -0.080 C 
HETATM   28  C2  UNL     1      -1.698   9.290  13.887  1.00  0.00    -0.028 C 
HETATM   29  C1  UNL     1      -1.164  10.684  13.985  1.00  0.00     0.036 C 
HETATM   30  C4  UNL     1      -0.959   8.469  16.151  1.00  0.00     0.043 C 
ENDBRANCH   1  27
TORSDOF 7
ENDMDL
MODEL 8
REMARK minimizedAffinity -7.52516985
REMARK  7 active torsions:
REMARK  status: ('A' for Active; 'I' for Inactive)
REMARK    1  A    between atoms: C3_3  and  C5_5 
REMARK    2  A    between atoms: C6_6  and  C7_7 
REMARK    3  A    between atoms: C8_8  and  C9_9 
REMARK    4  A    between atoms: C10_10  and  C12_12 
REMARK    5  A    between atoms: C12_12  and  C13_14 
REMARK    6  A    between atoms: C13_14  and  C15_16 
REMARK    7  A    between atoms: C15_16  and  O2_17 
ROOT
HETATM    1  C5  UNL     1      -2.278   5.339  12.536  1.00  0.00     0.058 C 
HETATM    2  C6  UNL     1      -3.167   5.819  13.733  1.00  0.00     0.024 C 
HETATM    3  C16 UNL     1      -4.661   5.935  13.306  1.00  0.00     0.003 C 
HETATM    4  C17 UNL     1      -5.531   6.553  14.426  1.00  0.00     0.041 C 
HETATM    5  C18 UNL     1      -6.998   6.498  14.132  1.00  0.00     0.157 A 
HETATM    6  O3  UNL     1      -7.606   5.243  14.491  1.00  0.00    -0.370 OA
HETATM    7  C19 UNL     1      -7.564   5.559  13.095  1.00  0.00     0.084 A 
HETATM    8  C20 UNL     1      -8.912   5.831  12.506  1.00  0.00     0.049 C 
HETATM    9  C21 UNL     1      -6.629   4.709  12.288  1.00  0.00     0.048 C 
HETATM   10  C22 UNL     1      -5.233   4.549  12.921  1.00  0.00     0.025 C 
HETATM   11  C23 UNL     1      -4.333   3.797  11.982  1.00  0.00     0.162 A 
HETATM   12  O4  UNL     1      -3.291   3.065  12.656  1.00  0.00    -0.368 OA
HETATM   13  C24 UNL     1      -2.870   4.141  11.809  1.00  0.00     0.092 A 
HETATM   14  C25 UNL     1      -2.191   3.697  10.547  1.00  0.00     0.049 C 
ENDROOT
BRANCH   2  15
HETATM   15  C7  UNL     1      -2.655   7.157  14.256  1.00  0.00    -0.021 C 
HETATM   16  C8  UNL     1      -2.085   8.164  13.572  1.00  0.00    -0.003 C 
BRANCH  16  17
HETATM   17  C9  UNL     1      -1.859   8.206  12.142  1.00  0.00     0.010 C 
HETATM   18  C10 UNL     1      -0.715   8.560  11.529  1.00  0.00    -0.016 C 
HETATM   19  C11 UNL     1       0.567   8.972  12.197  1.00  0.00     0.052 C 
BRANCH  18  20
HETATM   20  C12 UNL     1      -0.643   8.597  10.021  1.00  0.00     0.161 C 
HETATM   21  O1  UNL     1      -1.294   9.468   9.436  1.00  0.00    -0.292 OA
BRANCH  20  22
HETATM   22  C13 UNL     1       0.182   7.553   9.255  1.00  0.00     0.080 C 
HETATM   23  C14 UNL     1       1.099   8.240   8.237  1.00  0.00     0.020 C 
BRANCH  22  24
HETATM   24  C15 UNL     1       0.994   6.658  10.197  1.00  0.00     0.176 C 
BRANCH  24  25
HETATM   25  O2  UNL     1       1.859   5.797   9.468  1.00  0.00    -0.400 OA
HETATM   26  H22 UNL     1       2.249   5.172  10.104  1.00  0.00     0.209 HD
ENDBRANCH  24  25
ENDBRANCH  22  24
ENDBRANCH  20  22
ENDBRANCH  18  20
ENDBRANCH  16  17
ENDBRANCH   2  15
BRANCH   1  27
HETATM   27  C3  UNL     1      -0.805   5.137  12.944  1.00  0.00    -0.080 C 
HETATM   28  C2  UNL     1      -0.257   5.910  13.906  1.00  0.00    -0.028 C 
HETATM   29  C1  UNL     1       1.153   5.895  14.407  1.00  0.00     0.036 C 
HETATM   30  C4  UNL     1      -0.047   4.062  12.207  1.00  0.00     0.043 C 
ENDBRANCH   1  27
TORSDOF 7
ENDMDL
MODEL 9
REMARK minimizedAffinity -7.50631285
REMARK  7 active torsions:
REMARK  status: ('A' for Active; 'I' for Inactive)
REMARK    1  A    between atoms: C3_3  and  C5_5 
REMARK    2  A    between atoms: C6_6  and  C7_7 
REMARK    3  A    between atoms: C8_8  and  C9_9 
REMARK    4  A    between atoms: C10_10  and  C12_12 
REMARK    5  A    between atoms: C12_12  and  C13_14 
REMARK    6  A    between atoms: C13_14  and  C15_16 
REMARK    7  A    between atoms: C15_16  and  O2_17 
ROOT
HETATM    1  C5  UNL     1      -5.852   4.319  13.896  1.00  0.00     0.058 C 
HETATM    2  C6  UNL     1      -4.497   4.965  13.450  1.00  0.00     0.024 C 
HETATM    3  C16 UNL     1      -3.524   3.886  12.886  1.00  0.00     0.003 C 
HETATM    4  C17 UNL     1      -2.127   4.476  12.583  1.00  0.00     0.041 C 
HETATM    5  C18 UNL     1      -1.229   3.523  11.858  1.00  0.00     0.157 A 
HETATM    6  O3  UNL     1      -1.427   3.523  10.432  1.00  0.00    -0.370 OA
HETATM    7  C19 UNL     1      -1.772   2.320  11.127  1.00  0.00     0.084 A 
HETATM    8  C20 UNL     1      -0.868   1.171  10.814  1.00  0.00     0.049 C 
HETATM    9  C21 UNL     1      -3.243   2.031  11.185  1.00  0.00     0.048 C 
HETATM   10  C22 UNL     1      -4.098   3.244  11.599  1.00  0.00     0.025 C 
HETATM   11  C23 UNL     1      -5.532   2.824  11.758  1.00  0.00     0.162 A 
HETATM   12  O4  UNL     1      -6.468   3.893  11.519  1.00  0.00    -0.368 OA
HETATM   13  C24 UNL     1      -6.422   3.370  12.852  1.00  0.00     0.092 A 
HETATM   14  C25 UNL     1      -7.631   2.569  13.236  1.00  0.00     0.049 C 
ENDROOT
BRANCH   2  15
HETATM   15  C7  UNL     1      -3.859   5.698  14.625  1.00  0.00    -0.021 C 
HETATM   16  C8  UNL     1      -2.858   6.595  14.611  1.00  0.00    -0.003 C 
BRANCH  16  17
HETATM   17  C9  UNL     1      -2.173   7.094  13.437  1.00  0.00     0.010 C 
HETATM   18  C10 UNL     1      -1.891   8.383  13.171  1.00  0.00    -0.016 C 
HETATM   19  C11 UNL     1      -2.215   9.567  14.038  1.00  0.00     0.052 C 
BRANCH  18  20
HETATM   20  C12 UNL     1      -1.206   8.756  11.877  1.00  0.00     0.161 C 
HETATM   21  O1  UNL     1      -1.891   9.278  10.993  1.00  0.00    -0.292 OA
BRANCH  20  22
HETATM   22  C13 UNL     1       0.284   8.451  11.671  1.00  0.00     0.080 C 
HETATM   23  C14 UNL     1       1.063   8.690  12.970  1.00  0.00     0.020 C 
BRANCH  22  24
HETATM   24  C15 UNL     1       0.515   7.027  11.156  1.00  0.00     0.176 C 
BRANCH  24  25
HETATM   25  O2  UNL     1       1.098   6.206  12.160  1.00  0.00    -0.400 OA
HETATM   26  H22 UNL     1       1.336   5.360  11.742  1.00  0.00     0.209 HD
ENDBRANCH  24  25
ENDBRANCH  22  24
ENDBRANCH  20  22
ENDBRANCH  18  20
ENDBRANCH  16  17
ENDBRANCH   2  15
BRANCH   1  27
HETATM   27  C3  UNL     1      -6.870   5.369  14.385  1.00  0.00    -0.080 C 
HETATM   28  C2  UNL     1      -7.463   6.199  13.501  1.00  0.00    -0.028 C 
HETATM   29  C1  UNL     1      -8.435   7.302  13.783  1.00  0.00     0.036 C 
HETATM   30  C4  UNL     1      -7.131   5.408  15.870  1.00  0.00     0.043 C 
ENDBRANCH   1  27
TORSDOF 7
ENDMDL
