MODEL 1
REMARK minimizedAffinity -7.31687021
REMARK CNNscore 0.548828959
REMARK CNNaffinity 6.76598024
REMARK  4 active torsions:
REMARK  status: ('A' for Active; 'I' for Inactive)
REMARK    1  A    between atoms: C4_4  and  C5_5 
REMARK    2  A    between atoms: C5_5  and  C6_6 
REMARK    3  A    between atoms: C6_6  and  C7_7 
REMARK    4  A    between atoms: C7_7  and  C9_9 
ROOT
HETATM    1  C9  UNL     1      -1.251   9.924  15.678  1.00  0.00    -0.002 C 
HETATM    2  C10 UNL     1      -0.047   9.529  16.579  1.00  0.00     0.006 C 
HETATM    3  C11 UNL     1       0.735   8.417  15.832  1.00  0.00     0.011 C 
HETATM    4  C12 UNL     1       0.159   8.421  14.401  1.00  0.00    -0.032 C 
HETATM    5  C13 UNL     1       0.900   9.570  13.644  1.00  0.00     0.016 C 
HETATM    6  C14 UNL     1       0.286   7.102  13.562  1.00  0.00     0.004 C 
HETATM    7  C15 UNL     1       1.735   6.598  13.433  1.00  0.00     0.007 C 
HETATM    8  C16 UNL     1       2.400   6.602  12.054  1.00  0.00     0.007 C 
HETATM    9  C17 UNL     1       1.815   7.571  11.014  1.00  0.00     0.010 C 
HETATM   10  C18 UNL     1       2.496   7.414   9.608  1.00  0.00     0.018 C 
HETATM   11  C19 UNL     1       3.989   7.797   9.680  1.00  0.00     0.023 C 
HETATM   12  C20 UNL     1       2.406   5.992   9.026  1.00  0.00     0.023 C 
HETATM   13  C21 UNL     1       1.792   8.369   8.633  1.00  0.00     0.135 C 
HETATM   14  O1  UNL     1       2.390   9.194   7.950  1.00  0.00    -0.297 OA
HETATM   15  C22 UNL     1       0.294   8.236   8.534  1.00  0.00     0.080 C 
HETATM   16  C23 UNL     1      -0.309   8.450   9.911  1.00  0.00     0.018 C 
HETATM   17  C24 UNL     1       0.280   7.491  10.935  1.00  0.00    -0.026 A 
HETATM   18  C25 UNL     1      -0.405   6.168  11.184  1.00  0.00     0.021 A 
HETATM   19  C26 UNL     1      -0.507   7.253  12.240  1.00  0.00    -0.027 A 
HETATM   20  C27 UNL     1      -1.950   7.761  12.438  1.00  0.00     0.011 C 
HETATM   21  C28 UNL     1      -2.083   8.968  13.381  1.00  0.00     0.011 C 
HETATM   22  C29 UNL     1      -1.362   8.706  14.711  1.00  0.00    -0.032 C 
HETATM   23  C30 UNL     1      -2.097   7.539  15.438  1.00  0.00     0.016 C 
ENDROOT
BRANCH   1  24
HETATM   24  C7  UNL     1      -2.544  10.415  16.397  1.00  0.00    -0.014 C 
HETATM   25  C8  UNL     1      -2.525  10.309  17.926  1.00  0.00     0.010 C 
BRANCH  24  26
HETATM   26  C6  UNL     1      -2.849  11.877  15.973  1.00  0.00     0.008 C 
BRANCH  26  27
HETATM   27  C5  UNL     1      -3.601  12.686  17.037  1.00  0.00     0.028 C 
BRANCH  27  28
HETATM   28  C4  UNL     1      -4.970  13.084  16.557  1.00  0.00    -0.025 C 
HETATM   29  C2  UNL     1      -5.963  13.633  17.286  1.00  0.00    -0.091 C 
HETATM   30  C1  UNL     1      -5.908  13.920  18.767  1.00  0.00     0.042 C 
HETATM   31  C3  UNL     1      -7.268  14.009  16.636  1.00  0.00     0.042 C 
ENDBRANCH  27  28
ENDBRANCH  26  27
ENDBRANCH  24  26
ENDBRANCH   1  24
TORSDOF 4
ENDMDL
MODEL 2
REMARK minimizedAffinity -7.04252195
REMARK CNNscore 0.433943272
REMARK CNNaffinity 6.39436102
REMARK  4 active torsions:
REMARK  status: ('A' for Active; 'I' for Inactive)
REMARK    1  A    between atoms: C4_4  and  C5_5 
REMARK    2  A    between atoms: C5_5  and  C6_6 
REMARK    3  A    between atoms: C6_6  and  C7_7 
REMARK    4  A    between atoms: C7_7  and  C9_9 
ROOT
HETATM    1  C9  UNL     1      -0.191   8.695  12.994  1.00  0.00    -0.002 C 
HETATM    2  C10 UNL     1      -1.472   8.730  12.115  1.00  0.00     0.006 C 
HETATM    3  C11 UNL     1      -2.654   9.108  13.047  1.00  0.00     0.011 C 
HETATM    4  C12 UNL     1      -1.990   9.587  14.354  1.00  0.00    -0.032 C 
HETATM    5  C13 UNL     1      -1.592  11.080  14.110  1.00  0.00     0.016 C 
HETATM    6  C14 UNL     1      -2.833   9.502  15.673  1.00  0.00     0.004 C 
HETATM    7  C15 UNL     1      -4.178  10.243  15.587  1.00  0.00     0.007 C 
HETATM    8  C16 UNL     1      -4.401  11.479  16.462  1.00  0.00     0.007 C 
HETATM    9  C17 UNL     1      -3.140  12.206  16.953  1.00  0.00     0.010 C 
HETATM   10  C18 UNL     1      -3.478  13.387  17.931  1.00  0.00     0.018 C 
HETATM   11  C19 UNL     1      -4.283  14.483  17.202  1.00  0.00     0.023 C 
HETATM   12  C20 UNL     1      -4.284  12.960  19.171  1.00  0.00     0.023 C 
HETATM   13  C21 UNL     1      -2.153  13.993  18.416  1.00  0.00     0.135 C 
HETATM   14  O1  UNL     1      -1.889  15.188  18.329  1.00  0.00    -0.297 OA
HETATM   15  C22 UNL     1      -1.167  13.036  19.035  1.00  0.00     0.080 C 
HETATM   16  C23 UNL     1      -0.840  11.950  18.025  1.00  0.00     0.018 C 
HETATM   17  C24 UNL     1      -2.095  11.239  17.540  1.00  0.00    -0.026 A 
HETATM   18  C25 UNL     1      -2.561   9.995  18.259  1.00  0.00     0.021 A 
HETATM   19  C26 UNL     1      -1.934   9.853  16.884  1.00  0.00    -0.027 A 
HETATM   20  C27 UNL     1      -0.601   9.077  16.912  1.00  0.00     0.011 C 
HETATM   21  C28 UNL     1       0.151   9.041  15.572  1.00  0.00     0.011 C 
HETATM   22  C29 UNL     1      -0.774   8.584  14.436  1.00  0.00    -0.032 C 
HETATM   23  C30 UNL     1      -1.183   7.104  14.711  1.00  0.00     0.016 C 
ENDROOT
BRANCH   1  24
HETATM   24  C7  UNL     1       0.931   7.698  12.574  1.00  0.00    -0.014 C 
HETATM   25  C8  UNL     1       1.723   7.076  13.730  1.00  0.00     0.010 C 
BRANCH  24  26
HETATM   26  C6  UNL     1       0.323   6.577  11.689  1.00  0.00     0.008 C 
BRANCH  26  27
HETATM   27  C5  UNL     1       1.245   6.114  10.554  1.00  0.00     0.028 C 
BRANCH  27  28
HETATM   28  C4  UNL     1       1.786   7.282   9.776  1.00  0.00    -0.025 C 
HETATM   29  C2  UNL     1       2.389   7.251   8.570  1.00  0.00    -0.091 C 
HETATM   30  C1  UNL     1       2.684   6.006   7.769  1.00  0.00     0.042 C 
HETATM   31  C3  UNL     1       2.840   8.527   7.910  1.00  0.00     0.042 C 
ENDBRANCH  27  28
ENDBRANCH  26  27
ENDBRANCH  24  26
ENDBRANCH   1  24
TORSDOF 4
ENDMDL
MODEL 3
REMARK minimizedAffinity -8.0089016
REMARK CNNscore 0.423739344
REMARK CNNaffinity 6.94557714
REMARK  4 active torsions:
REMARK  status: ('A' for Active; 'I' for Inactive)
REMARK    1  A    between atoms: C4_4  and  C5_5 
REMARK    2  A    between atoms: C5_5  and  C6_6 
REMARK    3  A    between atoms: C6_6  and  C7_7 
REMARK    4  A    between atoms: C7_7  and  C9_9 
ROOT
HETATM    1  C9  UNL     1      -1.683   9.436  15.269  1.00  0.00    -0.002 C 
HETATM    2  C10 UNL     1      -0.516   9.199  16.268  1.00  0.00     0.006 C 
HETATM    3  C11 UNL     1       0.466   8.206  15.591  1.00  0.00     0.011 C 
HETATM    4  C12 UNL     1       0.015   8.144  14.118  1.00  0.00    -0.032 C 
HETATM    5  C13 UNL     1       0.656   9.388  13.421  1.00  0.00     0.016 C 
HETATM    6  C14 UNL     1       0.385   6.861  13.296  1.00  0.00     0.004 C 
HETATM    7  C15 UNL     1       1.893   6.555  13.289  1.00  0.00     0.007 C 
HETATM    8  C16 UNL     1       2.663   6.658  11.970  1.00  0.00     0.007 C 
HETATM    9  C17 UNL     1       2.042   7.548  10.882  1.00  0.00     0.010 C 
HETATM   10  C18 UNL     1       2.851   7.494   9.538  1.00  0.00     0.018 C 
HETATM   11  C19 UNL     1       4.268   8.071   9.731  1.00  0.00     0.023 C 
HETATM   12  C20 UNL     1       2.999   6.076   8.954  1.00  0.00     0.023 C 
HETATM   13  C21 UNL     1       2.108   8.354   8.504  1.00  0.00     0.135 C 
HETATM   14  O1  UNL     1       2.645   9.257   7.871  1.00  0.00    -0.297 OA
HETATM   15  C22 UNL     1       0.655   8.024   8.282  1.00  0.00     0.080 C 
HETATM   16  C23 UNL     1      -0.082   8.145   9.604  1.00  0.00     0.018 C 
HETATM   17  C24 UNL     1       0.542   7.265  10.677  1.00  0.00    -0.026 A 
HETATM   18  C25 UNL     1       0.022   5.861  10.873  1.00  0.00     0.021 A 
HETATM   19  C26 UNL     1      -0.310   6.914  11.913  1.00  0.00    -0.027 A 
HETATM   20  C27 UNL     1      -1.819   7.225  11.990  1.00  0.00     0.011 C 
HETATM   21  C28 UNL     1      -2.189   8.396  12.915  1.00  0.00     0.011 C 
HETATM   22  C29 UNL     1      -1.551   8.222  14.300  1.00  0.00    -0.032 C 
HETATM   23  C30 UNL     1      -2.182   6.962  14.968  1.00  0.00     0.016 C 
ENDROOT
BRANCH   1  24
HETATM   24  C7  UNL     1      -3.085   9.746  15.877  1.00  0.00    -0.014 C 
HETATM   25  C8  UNL     1      -3.773  11.003  15.334  1.00  0.00     0.010 C 
BRANCH  24  26
HETATM   26  C6  UNL     1      -4.013   8.515  15.691  1.00  0.00     0.008 C 
BRANCH  26  27
HETATM   27  C5  UNL     1      -5.336   8.838  14.986  1.00  0.00     0.028 C 
BRANCH  27  28
HETATM   28  C4  UNL     1      -6.329   7.719  15.143  1.00  0.00    -0.025 C 
HETATM   29  C2  UNL     1      -6.370   6.560  14.457  1.00  0.00    -0.091 C 
HETATM   30  C1  UNL     1      -5.431   6.169  13.341  1.00  0.00     0.042 C 
HETATM   31  C3  UNL     1      -7.417   5.524  14.770  1.00  0.00     0.042 C 
ENDBRANCH  27  28
ENDBRANCH  26  27
ENDBRANCH  24  26
ENDBRANCH   1  24
TORSDOF 4
ENDMDL
MODEL 4
REMARK minimizedAffinity -7.16554403
REMARK CNNscore 0.421397418
REMARK CNNaffinity 6.6858573
REMARK  4 active torsions:
REMARK  status: ('A' for Active; 'I' for Inactive)
REMARK    1  A    between atoms: C4_4  and  C5_5 
REMARK    2  A    between atoms: C5_5  and  C6_6 
REMARK    3  A    between atoms: C6_6  and  C7_7 
REMARK    4  A    between atoms: C7_7  and  C9_9 
ROOT
HETATM    1  C9  UNL     1      -1.106  10.093  15.805  1.00  0.00    -0.002 C 
HETATM    2  C10 UNL     1       0.105   9.659  16.677  1.00  0.00     0.006 C 
HETATM    3  C11 UNL     1       0.824   8.512  15.918  1.00  0.00     0.011 C 
HETATM    4  C12 UNL     1       0.211   8.527  14.503  1.00  0.00    -0.032 C 
HETATM    5  C13 UNL     1       0.975   9.642  13.717  1.00  0.00     0.016 C 
HETATM    6  C14 UNL     1       0.265   7.199  13.672  1.00  0.00     0.004 C 
HETATM    7  C15 UNL     1       1.688   6.639  13.509  1.00  0.00     0.007 C 
HETATM    8  C16 UNL     1       2.317   6.606  12.113  1.00  0.00     0.007 C 
HETATM    9  C17 UNL     1       1.741   7.589  11.081  1.00  0.00     0.010 C 
HETATM   10  C18 UNL     1       2.378   7.396   9.659  1.00  0.00     0.018 C 
HETATM   11  C19 UNL     1       3.885   7.722   9.688  1.00  0.00     0.023 C 
HETATM   12  C20 UNL     1       2.217   5.973   9.091  1.00  0.00     0.023 C 
HETATM   13  C21 UNL     1       1.684   8.370   8.695  1.00  0.00     0.135 C 
HETATM   14  O1  UNL     1       2.295   9.166   7.989  1.00  0.00    -0.297 OA
HETATM   15  C22 UNL     1       0.180   8.294   8.636  1.00  0.00     0.080 C 
HETATM   16  C23 UNL     1      -0.377   8.541  10.027  1.00  0.00     0.018 C 
HETATM   17  C24 UNL     1       0.202   7.568  11.043  1.00  0.00    -0.026 A 
HETATM   18  C25 UNL     1      -0.526   6.274  11.322  1.00  0.00     0.021 A 
HETATM   19  C26 UNL     1      -0.557   7.369  12.371  1.00  0.00    -0.027 A 
HETATM   20  C27 UNL     1      -1.974   7.935  12.603  1.00  0.00     0.011 C 
HETATM   21  C28 UNL     1      -2.036   9.153  13.539  1.00  0.00     0.011 C 
HETATM   22  C29 UNL     1      -1.290   8.874  14.851  1.00  0.00    -0.032 C 
HETATM   23  C30 UNL     1      -2.049   7.741  15.608  1.00  0.00     0.016 C 
ENDROOT
BRANCH   1  24
HETATM   24  C7  UNL     1      -2.360  10.639  16.554  1.00  0.00    -0.014 C 
HETATM   25  C8  UNL     1      -2.525  10.152  17.998  1.00  0.00     0.010 C 
BRANCH  24  26
HETATM   26  C6  UNL     1      -2.349  12.191  16.519  1.00  0.00     0.008 C 
BRANCH  26  27
HETATM   27  C5  UNL     1      -2.942  12.786  15.236  1.00  0.00     0.028 C 
BRANCH  27  28
HETATM   28  C4  UNL     1      -1.881  13.439  14.392  1.00  0.00    -0.025 C 
HETATM   29  C2  UNL     1      -1.972  14.608  13.727  1.00  0.00    -0.091 C 
HETATM   30  C1  UNL     1      -3.198  15.486  13.661  1.00  0.00     0.042 C 
HETATM   31  C3  UNL     1      -0.793  15.139  12.955  1.00  0.00     0.042 C 
ENDBRANCH  27  28
ENDBRANCH  26  27
ENDBRANCH  24  26
ENDBRANCH   1  24
TORSDOF 4
ENDMDL
MODEL 5
REMARK minimizedAffinity -6.71248484
REMARK CNNscore 0.412834823
REMARK CNNaffinity 6.30726862
REMARK  4 active torsions:
REMARK  status: ('A' for Active; 'I' for Inactive)
REMARK    1  A    between atoms: C4_4  and  C5_5 
REMARK    2  A    between atoms: C5_5  and  C6_6 
REMARK    3  A    between atoms: C6_6  and  C7_7 
REMARK    4  A    between atoms: C7_7  and  C9_9 
ROOT
HETATM    1  C9  UNL     1      -0.950   7.983  13.930  1.00  0.00    -0.002 C 
HETATM    2  C10 UNL     1      -1.920   7.003  14.648  1.00  0.00     0.006 C 
HETATM    3  C11 UNL     1      -2.300   7.652  16.005  1.00  0.00     0.011 C 
HETATM    4  C12 UNL     1      -1.803   9.108  15.901  1.00  0.00    -0.032 C 
HETATM    5  C13 UNL     1      -2.913   9.885  15.121  1.00  0.00     0.016 C 
HETATM    6  C14 UNL     1      -1.499   9.871  17.237  1.00  0.00     0.004 C 
HETATM    7  C15 UNL     1      -2.693   9.901  18.207  1.00  0.00     0.007 C 
HETATM    8  C16 UNL     1      -3.361  11.242  18.519  1.00  0.00     0.007 C 
HETATM    9  C17 UNL     1      -3.172  12.359  17.480  1.00  0.00     0.010 C 
HETATM   10  C18 UNL     1      -3.801  13.719  17.949  1.00  0.00     0.018 C 
HETATM   11  C19 UNL     1      -5.331  13.592  18.089  1.00  0.00     0.023 C 
HETATM   12  C20 UNL     1      -3.249  14.231  19.293  1.00  0.00     0.023 C 
HETATM   13  C21 UNL     1      -3.492  14.776  16.879  1.00  0.00     0.135 C 
HETATM   14  O1  UNL     1      -4.355  15.469  16.350  1.00  0.00    -0.297 OA
HETATM   15  C22 UNL     1      -2.041  14.944  16.505  1.00  0.00     0.080 C 
HETATM   16  C23 UNL     1      -1.507  13.611  16.010  1.00  0.00     0.018 C 
HETATM   17  C24 UNL     1      -1.703  12.511  17.042  1.00  0.00    -0.026 A 
HETATM   18  C25 UNL     1      -0.603  12.229  18.038  1.00  0.00     0.021 A 
HETATM   19  C26 UNL     1      -0.844  11.237  16.915  1.00  0.00    -0.027 A 
HETATM   20  C27 UNL     1       0.345  11.138  15.938  1.00  0.00     0.011 C 
HETATM   21  C28 UNL     1       0.089  10.266  14.698  1.00  0.00     0.011 C 
HETATM   22  C29 UNL     1      -0.461   8.890  15.099  1.00  0.00    -0.032 C 
HETATM   23  C30 UNL     1       0.649   8.141  15.900  1.00  0.00     0.016 C 
ENDROOT
BRANCH   1  24
HETATM   24  C7  UNL     1       0.121   7.356  12.985  1.00  0.00    -0.014 C 
HETATM   25  C8  UNL     1       0.276   5.835  13.088  1.00  0.00     0.010 C 
BRANCH  24  26
HETATM   26  C6  UNL     1      -0.186   7.757  11.517  1.00  0.00     0.008 C 
BRANCH  26  27
HETATM   27  C5  UNL     1       1.052   8.183  10.720  1.00  0.00     0.028 C 
BRANCH  27  28
HETATM   28  C4  UNL     1       1.565   7.061   9.860  1.00  0.00    -0.025 C 
HETATM   29  C2  UNL     1       2.253   7.166   8.705  1.00  0.00    -0.091 C 
HETATM   30  C1  UNL     1       2.612   8.458   8.012  1.00  0.00     0.042 C 
HETATM   31  C3  UNL     1       2.728   5.930   7.986  1.00  0.00     0.042 C 
ENDBRANCH  27  28
ENDBRANCH  26  27
ENDBRANCH  24  26
ENDBRANCH   1  24
TORSDOF 4
ENDMDL
MODEL 6
REMARK minimizedAffinity -7.93311262
REMARK CNNscore 0.40929693
REMARK CNNaffinity 6.68590784
REMARK  4 active torsions:
REMARK  status: ('A' for Active; 'I' for Inactive)
REMARK    1  A    between atoms: C4_4  and  C5_5 
REMARK    2  A    between atoms: C5_5  and  C6_6 
REMARK    3  A    between atoms: C6_6  and  C7_7 
REMARK    4  A    between atoms: C7_7  and  C9_9 
ROOT
HETATM    1  C9  UNL     1      -1.251  10.041  15.544  1.00  0.00    -0.002 C 
HETATM    2  C10 UNL     1      -0.060   9.665  16.470  1.00  0.00     0.006 C 
HETATM    3  C11 UNL     1       0.734   8.541  15.754  1.00  0.00     0.011 C 
HETATM    4  C12 UNL     1       0.179   8.517  14.316  1.00  0.00    -0.032 C 
HETATM    5  C13 UNL     1       0.929   9.653  13.548  1.00  0.00     0.016 C 
HETATM    6  C14 UNL     1       0.320   7.183  13.503  1.00  0.00     0.004 C 
HETATM    7  C15 UNL     1       1.770   6.679  13.404  1.00  0.00     0.007 C 
HETATM    8  C16 UNL     1       2.456   6.659  12.035  1.00  0.00     0.007 C 
HETATM    9  C17 UNL     1       1.885   7.607  10.969  1.00  0.00     0.010 C 
HETATM   10  C18 UNL     1       2.586   7.425   9.576  1.00  0.00     0.018 C 
HETATM   11  C19 UNL     1       4.076   7.812   9.663  1.00  0.00     0.023 C 
HETATM   12  C20 UNL     1       2.505   5.992   9.019  1.00  0.00     0.023 C 
HETATM   13  C21 UNL     1       1.894   8.360   8.574  1.00  0.00     0.135 C 
HETATM   14  O1  UNL     1       2.500   9.174   7.884  1.00  0.00    -0.297 OA
HETATM   15  C22 UNL     1       0.398   8.223   8.455  1.00  0.00     0.080 C 
HETATM   16  C23 UNL     1      -0.225   8.462   9.820  1.00  0.00     0.018 C 
HETATM   17  C24 UNL     1       0.350   7.523  10.870  1.00  0.00    -0.026 A 
HETATM   18  C25 UNL     1      -0.336   6.203  11.134  1.00  0.00     0.021 A 
HETATM   19  C26 UNL     1      -0.454   7.307  12.167  1.00  0.00    -0.027 A 
HETATM   20  C27 UNL     1      -1.901   7.817  12.335  1.00  0.00     0.011 C 
HETATM   21  C28 UNL     1      -2.050   9.041  13.254  1.00  0.00     0.011 C 
HETATM   22  C29 UNL     1      -1.347   8.806  14.598  1.00  0.00    -0.032 C 
HETATM   23  C30 UNL     1      -2.091   7.651  15.337  1.00  0.00     0.016 C 
ENDROOT
BRANCH   1  24
HETATM   24  C7  UNL     1      -2.556  10.543  16.236  1.00  0.00    -0.014 C 
HETATM   25  C8  UNL     1      -3.843  10.354  15.425  1.00  0.00     0.010 C 
BRANCH  24  26
HETATM   26  C6  UNL     1      -2.702   9.861  17.623  1.00  0.00     0.008 C 
BRANCH  26  27
HETATM   27  C5  UNL     1      -3.057  10.832  18.756  1.00  0.00     0.028 C 
BRANCH  27  28
HETATM   28  C4  UNL     1      -2.190  12.061  18.716  1.00  0.00    -0.025 C 
HETATM   29  C2  UNL     1      -0.905  12.168  19.111  1.00  0.00    -0.091 C 
HETATM   30  C1  UNL     1      -0.082  11.061  19.723  1.00  0.00     0.042 C 
HETATM   31  C3  UNL     1      -0.170  13.474  18.966  1.00  0.00     0.042 C 
ENDBRANCH  27  28
ENDBRANCH  26  27
ENDBRANCH  24  26
ENDBRANCH   1  24
TORSDOF 4
ENDMDL
MODEL 7
REMARK minimizedAffinity -7.1134944
REMARK CNNscore 0.315841585
REMARK CNNaffinity 6.54015732
REMARK  4 active torsions:
REMARK  status: ('A' for Active; 'I' for Inactive)
REMARK    1  A    between atoms: C4_4  and  C5_5 
REMARK    2  A    between atoms: C5_5  and  C6_6 
REMARK    3  A    between atoms: C6_6  and  C7_7 
REMARK    4  A    between atoms: C7_7  and  C9_9 
ROOT
HETATM    1  C9  UNL     1       1.159   6.825  11.785  1.00  0.00    -0.002 C 
HETATM    2  C10 UNL     1      -0.107   6.551  10.926  1.00  0.00     0.006 C 
HETATM    3  C11 UNL     1      -1.338   6.857  11.821  1.00  0.00     0.011 C 
HETATM    4  C12 UNL     1      -0.763   7.593  13.048  1.00  0.00    -0.032 C 
HETATM    5  C13 UNL     1      -0.599   9.086  12.613  1.00  0.00     0.016 C 
HETATM    6  C14 UNL     1      -1.589   7.545  14.379  1.00  0.00     0.004 C 
HETATM    7  C15 UNL     1      -3.033   8.053  14.220  1.00  0.00     0.007 C 
HETATM    8  C16 UNL     1      -3.449   9.340  14.938  1.00  0.00     0.007 C 
HETATM    9  C17 UNL     1      -2.317  10.309  15.316  1.00  0.00     0.010 C 
HETATM   10  C18 UNL     1      -2.839  11.537  16.143  1.00  0.00     0.018 C 
HETATM   11  C19 UNL     1      -3.800  12.395  15.296  1.00  0.00     0.023 C 
HETATM   12  C20 UNL     1      -3.576  11.150  17.439  1.00  0.00     0.023 C 
HETATM   13  C21 UNL     1      -1.626  12.396  16.530  1.00  0.00     0.135 C 
HETATM   14  O1  UNL     1      -1.549  13.597  16.291  1.00  0.00    -0.297 OA
HETATM   15  C22 UNL     1      -0.508  11.687  17.249  1.00  0.00     0.080 C 
HETATM   16  C23 UNL     1      -0.011  10.547  16.378  1.00  0.00     0.018 C 
HETATM   17  C24 UNL     1      -1.138   9.596  16.004  1.00  0.00    -0.026 A 
HETATM   18  C25 UNL     1      -1.411   8.395  16.879  1.00  0.00     0.021 A 
HETATM   19  C26 UNL     1      -0.762   8.179  15.524  1.00  0.00    -0.027 A 
HETATM   20  C27 UNL     1       0.674   7.627  15.630  1.00  0.00     0.011 C 
HETATM   21  C28 UNL     1       1.431   7.540  14.294  1.00  0.00     0.011 C 
HETATM   22  C29 UNL     1       0.593   6.807  13.237  1.00  0.00    -0.032 C 
HETATM   23  C30 UNL     1       0.416   5.329  13.700  1.00  0.00     0.016 C 
ENDROOT
BRANCH   1  24
HETATM   24  C7  UNL     1       2.424   5.968  11.476  1.00  0.00    -0.014 C 
HETATM   25  C8  UNL     1       2.217   4.830  10.470  1.00  0.00     0.010 C 
BRANCH  24  26
HETATM   26  C6  UNL     1       3.573   6.895  10.994  1.00  0.00     0.008 C 
BRANCH  26  27
HETATM   27  C5  UNL     1       3.109   8.026  10.069  1.00  0.00     0.028 C 
BRANCH  27  28
HETATM   28  C4  UNL     1       2.935   7.543   8.655  1.00  0.00    -0.025 C 
HETATM   29  C2  UNL     1       1.853   7.701   7.866  1.00  0.00    -0.091 C 
HETATM   30  C1  UNL     1       0.562   8.370   8.271  1.00  0.00     0.042 C 
HETATM   31  C3  UNL     1       1.860   7.184   6.451  1.00  0.00     0.042 C 
ENDBRANCH  27  28
ENDBRANCH  26  27
ENDBRANCH  24  26
ENDBRANCH   1  24
TORSDOF 4
ENDMDL
MODEL 8
REMARK minimizedAffinity -8.67296219
REMARK CNNscore 0.29510662
REMARK CNNaffinity 6.84563065
REMARK  4 active torsions:
REMARK  status: ('A' for Active; 'I' for Inactive)
REMARK    1  A    between atoms: C4_4  and  C5_5 
REMARK    2  A    between atoms: C5_5  and  C6_6 
REMARK    3  A    between atoms: C6_6  and  C7_7 
REMARK    4  A    between atoms: C7_7  and  C9_9 
ROOT
HETATM    1  C9  UNL     1      -6.554   7.252  13.943  1.00  0.00    -0.002 C 
HETATM    2  C10 UNL     1      -6.407   8.577  14.744  1.00  0.00     0.006 C 
HETATM    3  C11 UNL     1      -4.920   8.684  15.175  1.00  0.00     0.011 C 
HETATM    4  C12 UNL     1      -4.191   7.599  14.357  1.00  0.00    -0.032 C 
HETATM    5  C13 UNL     1      -3.918   8.232  12.953  1.00  0.00     0.016 C 
HETATM    6  C14 UNL     1      -2.841   7.041  14.927  1.00  0.00     0.004 C 
HETATM    7  C15 UNL     1      -1.796   8.136  15.202  1.00  0.00     0.007 C 
HETATM    8  C16 UNL     1      -0.514   8.165  14.365  1.00  0.00     0.007 C 
HETATM    9  C17 UNL     1      -0.576   7.472  12.995  1.00  0.00     0.010 C 
HETATM   10  C18 UNL     1       0.817   7.463  12.271  1.00  0.00     0.018 C 
HETATM   11  C19 UNL     1       1.271   8.901  11.945  1.00  0.00     0.023 C 
HETATM   12  C20 UNL     1       1.939   6.791  13.085  1.00  0.00     0.023 C 
HETATM   13  C21 UNL     1       0.660   6.688  10.955  1.00  0.00     0.135 C 
HETATM   14  O1  UNL     1       0.985   7.144   9.863  1.00  0.00    -0.297 OA
HETATM   15  C22 UNL     1       0.091   5.297  11.063  1.00  0.00     0.080 C 
HETATM   16  C23 UNL     1      -1.276   5.378  11.720  1.00  0.00     0.018 C 
HETATM   17  C24 UNL     1      -1.206   6.070  13.073  1.00  0.00    -0.026 A 
HETATM   18  C25 UNL     1      -1.003   5.237  14.317  1.00  0.00     0.021 A 
HETATM   19  C26 UNL     1      -2.369   5.846  14.062  1.00  0.00    -0.027 A 
HETATM   20  C27 UNL     1      -3.462   4.785  13.822  1.00  0.00     0.011 C 
HETATM   21  C28 UNL     1      -4.829   5.351  13.404  1.00  0.00     0.011 C 
HETATM   22  C29 UNL     1      -5.281   6.458  14.366  1.00  0.00    -0.032 C 
HETATM   23  C30 UNL     1      -5.521   5.813  15.766  1.00  0.00     0.016 C 
ENDROOT
BRANCH   1  24
HETATM   24  C7  UNL     1      -7.934   6.528  14.018  1.00  0.00    -0.014 C 
HETATM   25  C8  UNL     1      -7.972   5.124  13.404  1.00  0.00     0.010 C 
BRANCH  24  26
HETATM   26  C6  UNL     1      -8.409   6.471  15.495  1.00  0.00     0.008 C 
BRANCH  26  27
HETATM   27  C5  UNL     1      -9.623   7.360  15.789  1.00  0.00     0.028 C 
BRANCH  27  28
HETATM   28  C4  UNL     1     -10.165   7.984  14.532  1.00  0.00    -0.025 C 
HETATM   29  C2  UNL     1     -11.310   7.669  13.892  1.00  0.00    -0.091 C 
HETATM   30  C1  UNL     1     -12.268   6.575  14.297  1.00  0.00     0.042 C 
HETATM   31  C3  UNL     1     -11.725   8.424  12.657  1.00  0.00     0.042 C 
ENDBRANCH  27  28
ENDBRANCH  26  27
ENDBRANCH  24  26
ENDBRANCH   1  24
TORSDOF 4
ENDMDL
MODEL 9
REMARK minimizedAffinity -8.00100231
REMARK CNNscore 0.283888519
REMARK CNNaffinity 6.41769171
REMARK  4 active torsions:
REMARK  status: ('A' for Active; 'I' for Inactive)
REMARK    1  A    between atoms: C4_4  and  C5_5 
REMARK    2  A    between atoms: C5_5  and  C6_6 
REMARK    3  A    between atoms: C6_6  and  C7_7 
REMARK    4  A    between atoms: C7_7  and  C9_9 
ROOT
HETATM    1  C9  UNL     1      -2.736   7.862  13.973  1.00  0.00    -0.002 C 
HETATM    2  C10 UNL     1      -2.040   8.498  15.208  1.00  0.00     0.006 C 
HETATM    3  C11 UNL     1      -0.534   8.136  15.117  1.00  0.00     0.011 C 
HETATM    4  C12 UNL     1      -0.345   7.581  13.691  1.00  0.00    -0.032 C 
HETATM    5  C13 UNL     1      -0.189   8.829  12.763  1.00  0.00     0.016 C 
HETATM    6  C14 UNL     1       0.863   6.613  13.440  1.00  0.00     0.004 C 
HETATM    7  C15 UNL     1       2.221   7.216  13.841  1.00  0.00     0.007 C 
HETATM    8  C16 UNL     1       3.253   7.510  12.749  1.00  0.00     0.007 C 
HETATM    9  C17 UNL     1       2.708   7.694  11.324  1.00  0.00     0.010 C 
HETATM   10  C18 UNL     1       3.856   7.878  10.269  1.00  0.00     0.018 C 
HETATM   11  C19 UNL     1       4.642   9.178  10.541  1.00  0.00     0.023 C 
HETATM   12  C20 UNL     1       4.867   6.718  10.237  1.00  0.00     0.023 C 
HETATM   13  C21 UNL     1       3.209   7.978   8.880  1.00  0.00     0.135 C 
HETATM   14  O1  UNL     1       3.425   8.903   8.103  1.00  0.00    -0.297 OA
HETATM   15  C22 UNL     1       2.285   6.854   8.491  1.00  0.00     0.080 C 
HETATM   16  C23 UNL     1       1.169   6.761   9.518  1.00  0.00     0.018 C 
HETATM   17  C24 UNL     1       1.718   6.584  10.926  1.00  0.00    -0.026 A 
HETATM   18  C25 UNL     1       1.913   5.189  11.472  1.00  0.00     0.021 A 
HETATM   19  C26 UNL     1       0.770   6.030  12.008  1.00  0.00    -0.027 A 
HETATM   20  C27 UNL     1      -0.616   5.442  11.669  1.00  0.00     0.011 C 
HETATM   21  C28 UNL     1      -1.806   6.336  12.052  1.00  0.00     0.011 C 
HETATM   22  C29 UNL     1      -1.701   6.791  13.515  1.00  0.00    -0.032 C 
HETATM   23  C30 UNL     1      -1.830   5.531  14.424  1.00  0.00     0.016 C 
ENDROOT
BRANCH   1  24
HETATM   24  C7  UNL     1      -4.223   7.424  14.145  1.00  0.00    -0.014 C 
HETATM   25  C8  UNL     1      -4.518   6.576  15.388  1.00  0.00     0.010 C 
BRANCH  24  26
HETATM   26  C6  UNL     1      -5.137   8.679  14.134  1.00  0.00     0.008 C 
BRANCH  26  27
HETATM   27  C5  UNL     1      -6.096   8.757  15.328  1.00  0.00     0.028 C 
BRANCH  27  28
HETATM   28  C4  UNL     1      -7.524   8.554  14.900  1.00  0.00    -0.025 C 
HETATM   29  C2  UNL     1      -8.367   7.582  15.304  1.00  0.00    -0.091 C 
HETATM   30  C1  UNL     1      -8.020   6.458  16.249  1.00  0.00     0.042 C 
HETATM   31  C3  UNL     1      -9.786   7.547  14.802  1.00  0.00     0.042 C 
ENDBRANCH  27  28
ENDBRANCH  26  27
ENDBRANCH  24  26
ENDBRANCH   1  24
TORSDOF 4
ENDMDL
