MODEL 1
REMARK minimizedAffinity -7.54222059
REMARK CNNscore 0.789482236
REMARK CNNaffinity 7.50687551
REMARK  9 active torsions:
REMARK  status: ('A' for Active; 'I' for Inactive)
REMARK    1  A    between atoms: C2_2  and  O1_3 
REMARK    2  A    between atoms: O1_3  and  C3_4 
REMARK    3  A    between atoms: C14_15  and  O2_16 
REMARK    4  A    between atoms: O2_16  and  C15_17 
REMARK    5  A    between atoms: C21_24  and  O4_25 
REMARK    6  A    between atoms: O4_25  and  C22_26 
REMARK    7  A    between atoms: C24_29  and  O6_30 
REMARK    8  A    between atoms: C25_31  and  O7_32 
REMARK    9  A    between atoms: C26_33  and  O8_34 
ROOT
HETATM    1  C3  UNL     1       6.024  56.197  -6.070  1.00  0.00     0.260 C 
HETATM    2  C4  UNL     1       4.967  57.313  -6.017  1.00  0.00     0.065 C 
HETATM    3  C5  UNL     1       3.588  56.767  -6.408  1.00  0.00    -0.007 C 
HETATM    4  C6  UNL     1       2.507  57.825  -6.215  1.00  0.00     0.010 C 
HETATM    5  C7  UNL     1       3.676  56.278  -7.869  1.00  0.00     0.027 C 
HETATM    6  C8  UNL     1       5.059  55.629  -8.168  1.00  0.00     0.130 C 
HETATM    7  C9  UNL     1       4.799  54.441  -9.116  1.00  0.00     0.042 C 
HETATM    8  C10 UNL     1       3.383  54.684  -9.675  1.00  0.00    -0.029 C 
HETATM    9  C11 UNL     1       3.520  55.727 -10.829  1.00  0.00     0.016 C 
HETATM   10  C12 UNL     1       2.671  53.405 -10.183  1.00  0.00     0.006 C 
HETATM   11  C13 UNL     1       3.198  52.889 -11.526  1.00  0.00     0.039 C 
HETATM   12  C14 UNL     1       2.534  51.556 -11.884  1.00  0.00     0.138 C 
HETATM   13  C17 UNL     1       1.035  51.778 -12.201  1.00  0.00     0.035 C 
HETATM   14  C18 UNL     1       0.199  50.470 -12.524  1.00  0.00    -0.015 C 
HETATM   15  C19 UNL     1       0.369  50.115 -14.027  1.00  0.00     0.018 C 
HETATM   16  C20 UNL     1       0.669  49.239 -11.718  1.00  0.00     0.018 C 
HETATM   17  C21 UNL     1      -1.341  50.706 -12.271  1.00  0.00     0.133 C 
HETATM   18  C27 UNL     1      -1.728  52.148 -12.605  1.00  0.00     0.034 C 
HETATM   19  C28 UNL     1      -1.030  53.165 -11.702  1.00  0.00     0.013 C 
HETATM   20  C29 UNL     1       0.314  52.668 -11.180  1.00  0.00    -0.025 A 
HETATM   21  C30 UNL     1       0.373  52.338  -9.710  1.00  0.00     0.021 A 
HETATM   22  C31 UNL     1       1.133  53.555 -10.203  1.00  0.00    -0.027 A 
HETATM   23  C32 UNL     1       0.552  54.932  -9.867  1.00  0.00     0.011 C 
HETATM   24  C33 UNL     1       1.287  55.782  -8.816  1.00  0.00     0.011 C 
HETATM   25  C34 UNL     1       2.651  55.227  -8.394  1.00  0.00    -0.030 C 
HETATM   26  C35 UNL     1       2.403  54.153  -7.291  1.00  0.00     0.016 C 
HETATM   27  O9  UNL     1       5.669  55.151  -6.975  1.00  0.00    -0.356 OA
ENDROOT
BRANCH  17  28
HETATM   28  O4  UNL     1      -1.650  50.402 -10.908  1.00  0.00    -0.353 OA
BRANCH  28  29
HETATM   29  C22 UNL     1      -2.763  49.520 -10.725  1.00  0.00     0.291 C 
HETATM   30  O5  UNL     1      -3.519  49.416 -11.937  1.00  0.00    -0.356 OA
HETATM   31  C23 UNL     1      -4.514  48.382 -11.859  1.00  0.00     0.205 C 
HETATM   32  C24 UNL     1      -5.199  48.304 -10.483  1.00  0.00     0.173 C 
HETATM   33  C25 UNL     1      -5.121  49.665  -9.768  1.00  0.00     0.182 C 
HETATM   34  C26 UNL     1      -3.664  50.153  -9.636  1.00  0.00     0.204 C 
BRANCH  32  35
HETATM   35  O6  UNL     1      -4.552  47.281  -9.719  1.00  0.00    -0.391 OA
HETATM   36  H39 UNL     1      -4.819  47.380  -8.786  1.00  0.00     0.210 HD
ENDBRANCH  32  35
BRANCH  33  37
HETATM   37  O7  UNL     1      -5.911  50.637 -10.467  1.00  0.00    -0.390 OA
HETATM   38  H41 UNL     1      -5.493  50.793 -11.339  1.00  0.00     0.210 HD
ENDBRANCH  33  37
BRANCH  34  39
HETATM   39  O8  UNL     1      -3.160  49.847  -8.325  1.00  0.00    -0.388 OA
HETATM   40  H43 UNL     1      -3.348  50.632  -7.779  1.00  0.00     0.210 HD
ENDBRANCH  34  39
ENDBRANCH  28  29
ENDBRANCH  17  28
BRANCH  12  41
HETATM   41  O2  UNL     1       3.185  51.036 -13.063  1.00  0.00    -0.316 OA
BRANCH  41  42
HETATM   42  C15 UNL     1       4.101  50.047 -12.856  1.00  0.00     0.255 C 
HETATM   43  C16 UNL     1       4.067  49.617 -11.421  1.00  0.00     0.126 C 
HETATM   44  O3  UNL     1       4.828  49.552 -13.706  1.00  0.00    -0.266 OA
ENDBRANCH  41  42
ENDBRANCH  12  41
BRANCH   1  45
HETATM   45  O1  UNL     1       7.284  56.783  -6.403  1.00  0.00    -0.362 OA
BRANCH  45  46
HETATM   46  C2  UNL     1       8.195  56.852  -5.312  1.00  0.00     0.166 C 
HETATM   47  C1  UNL     1       8.818  55.507  -4.972  1.00  0.00     0.033 C 
ENDBRANCH  45  46
ENDBRANCH   1  45
TORSDOF 9
ENDMDL
MODEL 2
REMARK minimizedAffinity -7.79077578
REMARK CNNscore 0.54946059
REMARK CNNaffinity 6.89197874
REMARK  9 active torsions:
REMARK  status: ('A' for Active; 'I' for Inactive)
REMARK    1  A    between atoms: C2_2  and  O1_3 
REMARK    2  A    between atoms: O1_3  and  C3_4 
REMARK    3  A    between atoms: C14_15  and  O2_16 
REMARK    4  A    between atoms: O2_16  and  C15_17 
REMARK    5  A    between atoms: C21_24  and  O4_25 
REMARK    6  A    between atoms: O4_25  and  C22_26 
REMARK    7  A    between atoms: C24_29  and  O6_30 
REMARK    8  A    between atoms: C25_31  and  O7_32 
REMARK    9  A    between atoms: C26_33  and  O8_34 
ROOT
HETATM    1  C3  UNL     1      -3.549  50.347 -10.857  1.00  0.00     0.260 C 
HETATM    2  C4  UNL     1      -2.836  50.568 -12.202  1.00  0.00     0.065 C 
HETATM    3  C5  UNL     1      -1.414  51.094 -11.975  1.00  0.00    -0.007 C 
HETATM    4  C6  UNL     1      -0.645  51.175 -13.291  1.00  0.00     0.010 C 
HETATM    5  C7  UNL     1      -1.529  52.467 -11.278  1.00  0.00     0.027 C 
HETATM    6  C8  UNL     1      -2.708  52.490 -10.262  1.00  0.00     0.130 C 
HETATM    7  C9  UNL     1      -2.244  53.333  -9.058  1.00  0.00     0.042 C 
HETATM    8  C10 UNL     1      -1.018  54.114  -9.572  1.00  0.00    -0.029 C 
HETATM    9  C11 UNL     1      -1.561  55.342 -10.371  1.00  0.00     0.016 C 
HETATM   10  C12 UNL     1      -0.047  54.581  -8.458  1.00  0.00     0.006 C 
HETATM   11  C13 UNL     1      -0.562  55.770  -7.640  1.00  0.00     0.039 C 
HETATM   12  C14 UNL     1       0.394  56.076  -6.483  1.00  0.00     0.138 C 
HETATM   13  C17 UNL     1       1.732  56.630  -7.033  1.00  0.00     0.035 C 
HETATM   14  C18 UNL     1       2.850  56.930  -5.949  1.00  0.00    -0.015 C 
HETATM   15  C19 UNL     1       2.615  58.345  -5.353  1.00  0.00     0.018 C 
HETATM   16  C20 UNL     1       2.824  55.937  -4.766  1.00  0.00     0.018 C 
HETATM   17  C21 UNL     1       4.286  56.930  -6.603  1.00  0.00     0.133 C 
HETATM   18  C27 UNL     1       4.228  57.470  -8.034  1.00  0.00     0.034 C 
HETATM   19  C28 UNL     1       3.385  56.588  -8.957  1.00  0.00     0.013 C 
HETATM   20  C29 UNL     1       2.294  55.826  -8.213  1.00  0.00    -0.025 A 
HETATM   21  C30 UNL     1       2.491  54.336  -8.090  1.00  0.00     0.021 A 
HETATM   22  C31 UNL     1       1.380  54.841  -8.991  1.00  0.00    -0.027 A 
HETATM   23  C32 UNL     1       1.599  54.742 -10.504  1.00  0.00     0.011 C 
HETATM   24  C33 UNL     1       0.784  53.692 -11.279  1.00  0.00     0.011 C 
HETATM   25  C34 UNL     1      -0.323  53.019 -10.459  1.00  0.00    -0.030 C 
HETATM   26  C35 UNL     1       0.330  51.856  -9.652  1.00  0.00     0.016 C 
HETATM   27  O9  UNL     1      -3.027  51.176  -9.819  1.00  0.00    -0.356 OA
ENDROOT
BRANCH  17  28
HETATM   28  O4  UNL     1       4.817  55.602  -6.584  1.00  0.00    -0.353 OA
BRANCH  28  29
HETATM   29  C22 UNL     1       6.045  55.454  -5.864  1.00  0.00     0.291 C 
HETATM   30  O5  UNL     1       5.902  55.957  -4.530  1.00  0.00    -0.356 OA
HETATM   31  C23 UNL     1       7.040  55.635  -3.713  1.00  0.00     0.205 C 
HETATM   32  C24 UNL     1       8.377  55.744  -4.466  1.00  0.00     0.173 C 
HETATM   33  C25 UNL     1       8.247  56.720  -5.649  1.00  0.00     0.182 C 
HETATM   34  C26 UNL     1       7.104  56.310  -6.601  1.00  0.00     0.204 C 
BRANCH  32  35
HETATM   35  O6  UNL     1       8.745  54.435  -4.916  1.00  0.00    -0.391 OA
HETATM   36  H39 UNL     1       9.454  54.527  -5.578  1.00  0.00     0.210 HD
ENDBRANCH  32  35
BRANCH  33  37
HETATM   37  O7  UNL     1       8.038  58.056  -5.168  1.00  0.00    -0.390 OA
HETATM   38  H41 UNL     1       7.163  58.084  -4.729  1.00  0.00     0.210 HD
ENDBRANCH  33  37
BRANCH  34  39
HETATM   39  O8  UNL     1       7.637  55.591  -7.726  1.00  0.00    -0.388 OA
HETATM   40  H43 UNL     1       7.807  56.262  -8.412  1.00  0.00     0.210 HD
ENDBRANCH  34  39
ENDBRANCH  28  29
ENDBRANCH  17  28
BRANCH  12  41
HETATM   41  O2  UNL     1      -0.219  57.085  -5.653  1.00  0.00    -0.316 OA
BRANCH  41  42
HETATM   42  C15 UNL     1      -0.733  56.655  -4.466  1.00  0.00     0.255 C 
HETATM   43  C16 UNL     1      -0.525  57.703  -3.414  1.00  0.00     0.126 C 
HETATM   44  O3  UNL     1      -1.307  55.592  -4.274  1.00  0.00    -0.266 OA
ENDBRANCH  41  42
ENDBRANCH  12  41
BRANCH   1  45
HETATM   45  O1  UNL     1      -4.951  50.553 -11.049  1.00  0.00    -0.362 OA
BRANCH  45  46
HETATM   46  C2  UNL     1      -5.764  49.980 -10.032  1.00  0.00     0.166 C 
HETATM   47  C1  UNL     1      -7.149  49.594 -10.526  1.00  0.00     0.033 C 
ENDBRANCH  45  46
ENDBRANCH   1  45
TORSDOF 9
ENDMDL
MODEL 3
REMARK minimizedAffinity -9.66084576
REMARK CNNscore 0.393363118
REMARK CNNaffinity 6.75618696
REMARK  9 active torsions:
REMARK  status: ('A' for Active; 'I' for Inactive)
REMARK    1  A    between atoms: C2_2  and  O1_3 
REMARK    2  A    between atoms: O1_3  and  C3_4 
REMARK    3  A    between atoms: C14_15  and  O2_16 
REMARK    4  A    between atoms: O2_16  and  C15_17 
REMARK    5  A    between atoms: C21_24  and  O4_25 
REMARK    6  A    between atoms: O4_25  and  C22_26 
REMARK    7  A    between atoms: C24_29  and  O6_30 
REMARK    8  A    between atoms: C25_31  and  O7_32 
REMARK    9  A    between atoms: C26_33  and  O8_34 
ROOT
HETATM    1  C3  UNL     1       0.131  52.860 -22.256  1.00  0.00     0.260 C 
HETATM    2  C4  UNL     1       0.502  52.374 -23.667  1.00  0.00     0.065 C 
HETATM    3  C5  UNL     1      -0.736  51.832 -24.392  1.00  0.00    -0.007 C 
HETATM    4  C6  UNL     1      -0.412  51.486 -25.842  1.00  0.00     0.010 C 
HETATM    5  C7  UNL     1      -1.245  50.611 -23.598  1.00  0.00     0.027 C 
HETATM    6  C8  UNL     1      -1.076  50.820 -22.064  1.00  0.00     0.130 C 
HETATM    7  C9  UNL     1      -2.305  50.183 -21.387  1.00  0.00     0.042 C 
HETATM    8  C10 UNL     1      -2.920  49.268 -22.466  1.00  0.00    -0.029 C 
HETATM    9  C11 UNL     1      -2.091  47.945 -22.471  1.00  0.00     0.016 C 
HETATM   10  C12 UNL     1      -4.425  48.963 -22.259  1.00  0.00     0.006 C 
HETATM   11  C13 UNL     1      -4.709  47.960 -21.134  1.00  0.00     0.039 C 
HETATM   12  C14 UNL     1      -6.218  47.821 -20.913  1.00  0.00     0.138 C 
HETATM   13  C17 UNL     1      -6.870  47.119 -22.129  1.00  0.00     0.035 C 
HETATM   14  C18 UNL     1      -8.448  46.966 -22.070  1.00  0.00    -0.015 C 
HETATM   15  C19 UNL     1      -8.805  45.689 -21.260  1.00  0.00     0.018 C 
HETATM   16  C20 UNL     1      -9.143  48.152 -21.367  1.00  0.00     0.018 C 
HETATM   17  C21 UNL     1      -9.053  46.786 -23.517  1.00  0.00     0.133 C 
HETATM   18  C27 UNL     1      -8.087  46.005 -24.413  1.00  0.00     0.034 C 
HETATM   19  C28 UNL     1      -6.769  46.747 -24.637  1.00  0.00     0.013 C 
HETATM   20  C29 UNL     1      -6.410  47.676 -23.483  1.00  0.00    -0.025 A 
HETATM   21  C30 UNL     1      -6.506  49.154 -23.767  1.00  0.00     0.021 A 
HETATM   22  C31 UNL     1      -5.128  48.549 -23.571  1.00  0.00    -0.027 A 
HETATM   23  C32 UNL     1      -4.254  48.369 -24.817  1.00  0.00     0.011 C 
HETATM   24  C33 UNL     1      -3.041  49.302 -24.980  1.00  0.00     0.011 C 
HETATM   25  C34 UNL     1      -2.730  50.158 -23.748  1.00  0.00    -0.030 C 
HETATM   26  C35 UNL     1      -3.650  51.414 -23.802  1.00  0.00     0.016 C 
HETATM   27  O9  UNL     1      -1.027  52.204 -21.739  1.00  0.00    -0.356 OA
ENDROOT
BRANCH  17  28
HETATM   28  O4  UNL     1      -9.336  48.071 -24.077  1.00  0.00    -0.353 OA
BRANCH  28  29
HETATM   29  C22 UNL     1     -10.250  48.060 -25.178  1.00  0.00     0.291 C 
HETATM   30  O5  UNL     1     -10.671  46.721 -25.461  1.00  0.00    -0.356 OA
HETATM   31  C23 UNL     1     -11.747  46.689 -26.414  1.00  0.00     0.205 C 
HETATM   32  C24 UNL     1     -11.592  47.729 -27.537  1.00  0.00     0.173 C 
HETATM   33  C25 UNL     1     -10.109  48.100 -27.723  1.00  0.00     0.182 C 
HETATM   34  C26 UNL     1      -9.481  48.604 -26.407  1.00  0.00     0.204 C 
BRANCH  32  35
HETATM   35  O6  UNL     1     -12.371  48.880 -27.192  1.00  0.00    -0.391 OA
HETATM   36  H39 UNL     1     -12.102  49.617 -27.769  1.00  0.00     0.210 HD
ENDBRANCH  32  35
BRANCH  33  37
HETATM   37  O7  UNL     1      -9.377  46.972 -28.224  1.00  0.00    -0.390 OA
HETATM   38  H41 UNL     1      -9.373  46.283 -27.528  1.00  0.00     0.210 HD
ENDBRANCH  33  37
BRANCH  34  39
HETATM   39  O8  UNL     1      -9.461  50.042 -26.392  1.00  0.00    -0.388 OA
HETATM   40  H43 UNL     1      -8.597  50.297 -26.764  1.00  0.00     0.210 HD
ENDBRANCH  34  39
ENDBRANCH  28  29
ENDBRANCH  17  28
BRANCH  12  41
HETATM   41  O2  UNL     1      -6.423  47.002 -19.741  1.00  0.00    -0.316 OA
BRANCH  41  42
HETATM   42  C15 UNL     1      -6.271  47.626 -18.539  1.00  0.00     0.255 C 
HETATM   43  C16 UNL     1      -7.573  48.239 -18.119  1.00  0.00     0.126 C 
HETATM   44  O3  UNL     1      -5.245  47.667 -17.874  1.00  0.00    -0.266 OA
ENDBRANCH  41  42
ENDBRANCH  12  41
BRANCH   1  45
HETATM   45  O1  UNL     1       1.266  52.686 -21.404  1.00  0.00    -0.362 OA
BRANCH  45  46
HETATM   46  C2  UNL     1       1.273  53.545 -20.269  1.00  0.00     0.166 C 
HETATM   47  C1  UNL     1       0.788  52.858 -19.003  1.00  0.00     0.033 C 
ENDBRANCH  45  46
ENDBRANCH   1  45
TORSDOF 9
ENDMDL
MODEL 4
REMARK minimizedAffinity -8.17860889
REMARK CNNscore 0.370534271
REMARK CNNaffinity 6.85382223
REMARK  9 active torsions:
REMARK  status: ('A' for Active; 'I' for Inactive)
REMARK    1  A    between atoms: C2_2  and  O1_3 
REMARK    2  A    between atoms: O1_3  and  C3_4 
REMARK    3  A    between atoms: C14_15  and  O2_16 
REMARK    4  A    between atoms: O2_16  and  C15_17 
REMARK    5  A    between atoms: C21_24  and  O4_25 
REMARK    6  A    between atoms: O4_25  and  C22_26 
REMARK    7  A    between atoms: C24_29  and  O6_30 
REMARK    8  A    between atoms: C25_31  and  O7_32 
REMARK    9  A    between atoms: C26_33  and  O8_34 
ROOT
HETATM    1  C3  UNL     1      -7.381  43.392 -18.972  1.00  0.00     0.260 C 
HETATM    2  C4  UNL     1      -8.628  44.012 -19.625  1.00  0.00     0.065 C 
HETATM    3  C5  UNL     1      -8.223  45.016 -20.710  1.00  0.00    -0.007 C 
HETATM    4  C6  UNL     1      -9.447  45.525 -21.466  1.00  0.00     0.010 C 
HETATM    5  C7  UNL     1      -7.442  46.157 -20.024  1.00  0.00     0.027 C 
HETATM    6  C8  UNL     1      -6.549  45.617 -18.869  1.00  0.00     0.130 C 
HETATM    7  C9  UNL     1      -5.246  46.440 -18.890  1.00  0.00     0.042 C 
HETATM    8  C10 UNL     1      -5.577  47.682 -19.741  1.00  0.00    -0.029 C 
HETATM    9  C11 UNL     1      -6.333  48.685 -18.813  1.00  0.00     0.016 C 
HETATM   10  C12 UNL     1      -4.341  48.364 -20.381  1.00  0.00     0.006 C 
HETATM   11  C13 UNL     1      -3.492  49.171 -19.391  1.00  0.00     0.039 C 
HETATM   12  C14 UNL     1      -2.227  49.695 -20.077  1.00  0.00     0.138 C 
HETATM   13  C17 UNL     1      -2.599  50.775 -21.123  1.00  0.00     0.035 C 
HETATM   14  C18 UNL     1      -1.390  51.363 -21.964  1.00  0.00    -0.015 C 
HETATM   15  C19 UNL     1      -0.718  52.508 -21.158  1.00  0.00     0.018 C 
HETATM   16  C20 UNL     1      -0.293  50.317 -22.255  1.00  0.00     0.018 C 
HETATM   17  C21 UNL     1      -1.897  51.984 -23.324  1.00  0.00     0.133 C 
HETATM   18  C27 UNL     1      -3.284  52.609 -23.148  1.00  0.00     0.034 C 
HETATM   19  C28 UNL     1      -4.348  51.575 -22.778  1.00  0.00     0.013 C 
HETATM   20  C29 UNL     1      -3.773  50.379 -22.027  1.00  0.00    -0.025 A 
HETATM   21  C30 UNL     1      -3.742  49.075 -22.784  1.00  0.00     0.021 A 
HETATM   22  C31 UNL     1      -4.709  49.207 -21.622  1.00  0.00    -0.027 A 
HETATM   23  C32 UNL     1      -6.196  49.362 -21.957  1.00  0.00     0.011 C 
HETATM   24  C33 UNL     1      -7.123  48.168 -21.668  1.00  0.00     0.011 C 
HETATM   25  C34 UNL     1      -6.469  47.039 -20.864  1.00  0.00    -0.030 C 
HETATM   26  C35 UNL     1      -5.689  46.137 -21.867  1.00  0.00     0.016 C 
HETATM   27  O9  UNL     1      -6.237  44.243 -19.062  1.00  0.00    -0.356 OA
ENDROOT
BRANCH  17  28
HETATM   28  O4  UNL     1      -1.924  50.967 -24.330  1.00  0.00    -0.353 OA
BRANCH  28  29
HETATM   29  C22 UNL     1      -1.196  51.281 -25.521  1.00  0.00     0.291 C 
HETATM   30  O5  UNL     1       0.207  51.084 -25.314  1.00  0.00    -0.356 OA
HETATM   31  C23 UNL     1       0.948  51.181 -26.542  1.00  0.00     0.205 C 
HETATM   32  C24 UNL     1       0.429  52.288 -27.476  1.00  0.00     0.173 C 
HETATM   33  C25 UNL     1      -0.299  53.375 -26.665  1.00  0.00     0.182 C 
HETATM   34  C26 UNL     1      -1.443  52.781 -25.818  1.00  0.00     0.204 C 
BRANCH  32  35
HETATM   35  O6  UNL     1      -0.447  51.688 -28.437  1.00  0.00    -0.391 OA
HETATM   36  H39 UNL     1      -0.951  52.397 -28.877  1.00  0.00     0.210 HD
ENDBRANCH  32  35
BRANCH  33  37
HETATM   37  O7  UNL     1       0.631  54.072 -25.824  1.00  0.00    -0.390 OA
HETATM   38  H41 UNL     1       0.959  53.441 -25.151  1.00  0.00     0.210 HD
ENDBRANCH  33  37
BRANCH  34  39
HETATM   39  O8  UNL     1      -2.700  52.959 -26.495  1.00  0.00    -0.388 OA
HETATM   40  H43 UNL     1      -3.057  53.805 -26.169  1.00  0.00     0.210 HD
ENDBRANCH  34  39
ENDBRANCH  28  29
ENDBRANCH  17  28
BRANCH  12  41
HETATM   41  O2  UNL     1      -1.389  50.297 -19.067  1.00  0.00    -0.316 OA
BRANCH  41  42
HETATM   42  C15 UNL     1      -2.037  50.942 -18.056  1.00  0.00     0.255 C 
HETATM   43  C16 UNL     1      -1.556  50.423 -16.735  1.00  0.00     0.126 C 
HETATM   44  O3  UNL     1      -2.866  51.832 -18.185  1.00  0.00    -0.266 OA
ENDBRANCH  41  42
ENDBRANCH  12  41
BRANCH   1  45
HETATM   45  O1  UNL     1      -7.695  43.064 -17.616  1.00  0.00    -0.362 OA
BRANCH  45  46
HETATM   46  C2  UNL     1      -7.977  41.685 -17.406  1.00  0.00     0.166 C 
HETATM   47  C1  UNL     1      -9.000  41.449 -16.307  1.00  0.00     0.033 C 
ENDBRANCH  45  46
ENDBRANCH   1  45
TORSDOF 9
ENDMDL
MODEL 5
REMARK minimizedAffinity -7.34232855
REMARK CNNscore 0.334855437
REMARK CNNaffinity 6.98053885
REMARK  9 active torsions:
REMARK  status: ('A' for Active; 'I' for Inactive)
REMARK    1  A    between atoms: C2_2  and  O1_3 
REMARK    2  A    between atoms: O1_3  and  C3_4 
REMARK    3  A    between atoms: C14_15  and  O2_16 
REMARK    4  A    between atoms: O2_16  and  C15_17 
REMARK    5  A    between atoms: C21_24  and  O4_25 
REMARK    6  A    between atoms: O4_25  and  C22_26 
REMARK    7  A    between atoms: C24_29  and  O6_30 
REMARK    8  A    between atoms: C25_31  and  O7_32 
REMARK    9  A    between atoms: C26_33  and  O8_34 
ROOT
HETATM    1  C3  UNL     1       3.739  49.413 -12.520  1.00  0.00     0.260 C 
HETATM    2  C4  UNL     1       2.547  49.019 -11.630  1.00  0.00     0.065 C 
HETATM    3  C5  UNL     1       1.393  48.481 -12.485  1.00  0.00    -0.007 C 
HETATM    4  C6  UNL     1       0.265  47.949 -11.607  1.00  0.00     0.010 C 
HETATM    5  C7  UNL     1       0.925  49.624 -13.411  1.00  0.00     0.027 C 
HETATM    6  C8  UNL     1       2.126  50.488 -13.897  1.00  0.00     0.130 C 
HETATM    7  C9  UNL     1       1.830  50.883 -15.357  1.00  0.00     0.042 C 
HETATM    8  C10 UNL     1       0.322  50.619 -15.540  1.00  0.00    -0.029 C 
HETATM    9  C11 UNL     1      -0.433  51.844 -14.933  1.00  0.00     0.016 C 
HETATM   10  C12 UNL     1      -0.111  50.391 -17.011  1.00  0.00     0.006 C 
HETATM   11  C13 UNL     1      -0.152  51.670 -17.855  1.00  0.00     0.039 C 
HETATM   12  C14 UNL     1      -0.457  51.335 -19.318  1.00  0.00     0.138 C 
HETATM   13  C17 UNL     1      -1.913  50.825 -19.452  1.00  0.00     0.035 C 
HETATM   14  C18 UNL     1      -2.352  50.373 -20.908  1.00  0.00    -0.015 C 
HETATM   15  C19 UNL     1      -2.813  51.621 -21.710  1.00  0.00     0.018 C 
HETATM   16  C20 UNL     1      -1.203  49.724 -21.709  1.00  0.00     0.018 C 
HETATM   17  C21 UNL     1      -3.575  49.379 -20.846  1.00  0.00     0.133 C 
HETATM   18  C27 UNL     1      -4.499  49.730 -19.677  1.00  0.00     0.034 C 
HETATM   19  C28 UNL     1      -3.809  49.575 -18.321  1.00  0.00     0.013 C 
HETATM   20  C29 UNL     1      -2.300  49.779 -18.399  1.00  0.00    -0.025 A 
HETATM   21  C30 UNL     1      -1.454  48.546 -18.207  1.00  0.00     0.021 A 
HETATM   22  C31 UNL     1      -1.436  49.604 -17.120  1.00  0.00    -0.027 A 
HETATM   23  C32 UNL     1      -2.182  49.290 -15.819  1.00  0.00     0.011 C 
HETATM   24  C33 UNL     1      -1.341  49.001 -14.563  1.00  0.00     0.011 C 
HETATM   25  C34 UNL     1       0.156  49.285 -14.725  1.00  0.00    -0.030 C 
HETATM   26  C35 UNL     1       0.804  48.036 -15.395  1.00  0.00     0.016 C 
HETATM   27  O9  UNL     1       3.341  49.749 -13.849  1.00  0.00    -0.356 OA
ENDROOT
BRANCH  17  28
HETATM   28  O4  UNL     1      -3.092  48.038 -20.724  1.00  0.00    -0.353 OA
BRANCH  28  29
HETATM   29  C22 UNL     1      -4.049  47.022 -21.042  1.00  0.00     0.291 C 
HETATM   30  O5  UNL     1      -5.198  47.600 -21.672  1.00  0.00    -0.356 OA
HETATM   31  C23 UNL     1      -6.082  46.596 -22.196  1.00  0.00     0.205 C 
HETATM   32  C24 UNL     1      -6.210  45.365 -21.282  1.00  0.00     0.173 C 
HETATM   33  C25 UNL     1      -5.889  45.744 -19.825  1.00  0.00     0.182 C 
HETATM   34  C26 UNL     1      -4.491  46.385 -19.701  1.00  0.00     0.204 C 
BRANCH  32  35
HETATM   35  O6  UNL     1      -5.314  44.356 -21.763  1.00  0.00    -0.391 OA
HETATM   36  H39 UNL     1      -5.219  43.676 -21.071  1.00  0.00     0.210 HD
ENDBRANCH  32  35
BRANCH  33  37
HETATM   37  O7  UNL     1      -6.891  46.632 -19.313  1.00  0.00    -0.390 OA
HETATM   38  H41 UNL     1      -6.827  47.476 -19.806  1.00  0.00     0.210 HD
ENDBRANCH  33  37
BRANCH  34  39
HETATM   39  O8  UNL     1      -3.535  45.401 -19.272  1.00  0.00    -0.388 OA
HETATM   40  H43 UNL     1      -3.517  45.457 -18.299  1.00  0.00     0.210 HD
ENDBRANCH  34  39
ENDBRANCH  28  29
ENDBRANCH  17  28
BRANCH  12  41
HETATM   41  O2  UNL     1      -0.317  52.546 -20.091  1.00  0.00    -0.316 OA
BRANCH  41  42
HETATM   42  C15 UNL     1       0.839  52.674 -20.802  1.00  0.00     0.255 C 
HETATM   43  C16 UNL     1       1.321  54.091 -20.734  1.00  0.00     0.126 C 
HETATM   44  O3  UNL     1       1.425  51.775 -21.389  1.00  0.00    -0.266 OA
ENDBRANCH  41  42
ENDBRANCH  12  41
BRANCH   1  45
HETATM   45  O1  UNL     1       4.441  50.485 -11.887  1.00  0.00    -0.362 OA
BRANCH  45  46
HETATM   46  C2  UNL     1       4.020  50.743 -10.551  1.00  0.00     0.166 C 
HETATM   47  C1  UNL     1       3.988  52.225 -10.215  1.00  0.00     0.033 C 
ENDBRANCH  45  46
ENDBRANCH   1  45
TORSDOF 9
ENDMDL
MODEL 6
REMARK minimizedAffinity -7.29098415
REMARK CNNscore 0.319531471
REMARK CNNaffinity 6.29423571
REMARK  9 active torsions:
REMARK  status: ('A' for Active; 'I' for Inactive)
REMARK    1  A    between atoms: C2_2  and  O1_3 
REMARK    2  A    between atoms: O1_3  and  C3_4 
REMARK    3  A    between atoms: C14_15  and  O2_16 
REMARK    4  A    between atoms: O2_16  and  C15_17 
REMARK    5  A    between atoms: C21_24  and  O4_25 
REMARK    6  A    between atoms: O4_25  and  C22_26 
REMARK    7  A    between atoms: C24_29  and  O6_30 
REMARK    8  A    between atoms: C25_31  and  O7_32 
REMARK    9  A    between atoms: C26_33  and  O8_34 
ROOT
HETATM    1  C3  UNL     1      -1.938  51.838 -22.356  1.00  0.00     0.260 C 
HETATM    2  C4  UNL     1      -1.638  51.034 -23.633  1.00  0.00     0.065 C 
HETATM    3  C5  UNL     1      -2.911  50.353 -24.150  1.00  0.00    -0.007 C 
HETATM    4  C6  UNL     1      -2.661  49.677 -25.495  1.00  0.00     0.010 C 
HETATM    5  C7  UNL     1      -3.378  49.354 -23.070  1.00  0.00     0.027 C 
HETATM    6  C8  UNL     1      -3.130  49.910 -21.637  1.00  0.00     0.130 C 
HETATM    7  C9  UNL     1      -4.323  49.460 -20.771  1.00  0.00     0.042 C 
HETATM    8  C10 UNL     1      -4.991  48.328 -21.576  1.00  0.00    -0.029 C 
HETATM    9  C11 UNL     1      -4.161  47.030 -21.316  1.00  0.00     0.016 C 
HETATM   10  C12 UNL     1      -6.484  48.094 -21.229  1.00  0.00     0.006 C 
HETATM   11  C13 UNL     1      -6.709  47.383 -19.891  1.00  0.00     0.039 C 
HETATM   12  C14 UNL     1      -8.204  47.314 -19.567  1.00  0.00     0.138 C 
HETATM   13  C17 UNL     1      -8.917  46.357 -20.554  1.00  0.00     0.035 C 
HETATM   14  C18 UNL     1     -10.489  46.238 -20.383  1.00  0.00    -0.015 C 
HETATM   15  C19 UNL     1     -10.803  45.188 -19.283  1.00  0.00     0.018 C 
HETATM   16  C20 UNL     1     -11.149  47.562 -19.940  1.00  0.00     0.018 C 
HETATM   17  C21 UNL     1     -11.166  45.735 -21.717  1.00  0.00     0.133 C 
HETATM   18  C27 UNL     1     -10.247  44.758 -22.454  1.00  0.00     0.034 C 
HETATM   19  C28 UNL     1      -8.943  45.414 -22.910  1.00  0.00     0.013 C 
HETATM   20  C29 UNL     1      -8.527  46.581 -22.021  1.00  0.00    -0.025 A 
HETATM   21  C30 UNL     1      -8.638  47.954 -22.635  1.00  0.00     0.021 A 
HETATM   22  C31 UNL     1      -7.252  47.395 -22.373  1.00  0.00    -0.027 A 
HETATM   23  C32 UNL     1      -6.442  46.923 -23.585  1.00  0.00     0.011 C 
HETATM   24  C33 UNL     1      -5.240  47.780 -24.021  1.00  0.00     0.011 C 
HETATM   25  C34 UNL     1      -4.867  48.894 -23.037  1.00  0.00    -0.030 C 
HETATM   26  C35 UNL     1      -5.791  50.114 -23.335  1.00  0.00     0.016 C 
HETATM   27  O9  UNL     1      -3.067  51.332 -21.644  1.00  0.00    -0.356 OA
ENDROOT
BRANCH  17  28
HETATM   28  O4  UNL     1     -11.479  46.858 -22.544  1.00  0.00    -0.353 OA
BRANCH  28  29
HETATM   29  C22 UNL     1     -12.803  46.855 -23.089  1.00  0.00     0.291 C 
HETATM   30  O5  UNL     1     -13.610  45.876 -22.426  1.00  0.00    -0.356 OA
HETATM   31  C23 UNL     1     -14.995  45.988 -22.794  1.00  0.00     0.205 C 
HETATM   32  C24 UNL     1     -15.202  46.315 -24.284  1.00  0.00     0.173 C 
HETATM   33  C25 UNL     1     -13.989  45.847 -25.108  1.00  0.00     0.182 C 
HETATM   34  C26 UNL     1     -12.674  46.459 -24.581  1.00  0.00     0.204 C 
BRANCH  32  35
HETATM   35  O6  UNL     1     -15.396  47.728 -24.409  1.00  0.00    -0.391 OA
HETATM   36  H39 UNL     1     -15.298  47.969 -25.348  1.00  0.00     0.210 HD
ENDBRANCH  32  35
BRANCH  33  37
HETATM   37  O7  UNL     1     -13.908  44.415 -25.100  1.00  0.00    -0.390 OA
HETATM   38  H41 UNL     1     -13.708  44.129 -24.184  1.00  0.00     0.210 HD
ENDBRANCH  33  37
BRANCH  34  39
HETATM   39  O8  UNL     1     -12.312  47.602 -25.375  1.00  0.00    -0.388 OA
HETATM   40  H43 UNL     1     -11.731  47.260 -26.079  1.00  0.00     0.210 HD
ENDBRANCH  34  39
ENDBRANCH  28  29
ENDBRANCH  17  28
BRANCH  12  41
HETATM   41  O2  UNL     1      -8.348  46.791 -18.230  1.00  0.00    -0.316 OA
BRANCH  41  42
HETATM   42  C15 UNL     1      -8.931  47.622 -17.320  1.00  0.00     0.255 C 
HETATM   43  C16 UNL     1      -8.672  49.049 -17.698  1.00  0.00     0.126 C 
HETATM   44  O3  UNL     1      -9.594  47.276 -16.351  1.00  0.00    -0.266 OA
ENDBRANCH  41  42
ENDBRANCH  12  41
BRANCH   1  45
HETATM   45  O1  UNL     1      -0.761  51.854 -21.545  1.00  0.00    -0.362 OA
BRANCH  45  46
HETATM   46  C2  UNL     1       0.254  52.733 -22.017  1.00  0.00     0.166 C 
HETATM   47  C1  UNL     1       0.941  53.501 -20.899  1.00  0.00     0.033 C 
ENDBRANCH  45  46
ENDBRANCH   1  45
TORSDOF 9
ENDMDL
MODEL 7
REMARK minimizedAffinity -7.89325762
REMARK CNNscore 0.29488793
REMARK CNNaffinity 6.36286211
REMARK  9 active torsions:
REMARK  status: ('A' for Active; 'I' for Inactive)
REMARK    1  A    between atoms: C2_2  and  O1_3 
REMARK    2  A    between atoms: O1_3  and  C3_4 
REMARK    3  A    between atoms: C14_15  and  O2_16 
REMARK    4  A    between atoms: O2_16  and  C15_17 
REMARK    5  A    between atoms: C21_24  and  O4_25 
REMARK    6  A    between atoms: O4_25  and  C22_26 
REMARK    7  A    between atoms: C24_29  and  O6_30 
REMARK    8  A    between atoms: C25_31  and  O7_32 
REMARK    9  A    between atoms: C26_33  and  O8_34 
ROOT
HETATM    1  C3  UNL     1      -0.261  51.687 -24.150  1.00  0.00     0.260 C 
HETATM    2  C4  UNL     1      -0.084  52.063 -22.669  1.00  0.00     0.065 C 
HETATM    3  C5  UNL     1      -0.619  50.948 -21.764  1.00  0.00    -0.007 C 
HETATM    4  C6  UNL     1      -0.314  51.241 -20.298  1.00  0.00     0.010 C 
HETATM    5  C7  UNL     1      -2.133  50.814 -22.032  1.00  0.00     0.027 C 
HETATM    6  C8  UNL     1      -2.465  51.038 -23.536  1.00  0.00     0.130 C 
HETATM    7  C9  UNL     1      -3.597  50.056 -23.895  1.00  0.00     0.042 C 
HETATM    8  C10 UNL     1      -4.177  49.609 -22.538  1.00  0.00    -0.029 C 
HETATM    9  C11 UNL     1      -5.147  50.736 -22.061  1.00  0.00     0.016 C 
HETATM   10  C12 UNL     1      -4.911  48.244 -22.577  1.00  0.00     0.006 C 
HETATM   11  C13 UNL     1      -6.293  48.299 -23.239  1.00  0.00     0.039 C 
HETATM   12  C14 UNL     1      -6.885  46.891 -23.355  1.00  0.00     0.138 C 
HETATM   13  C17 UNL     1      -7.233  46.346 -21.948  1.00  0.00     0.035 C 
HETATM   14  C18 UNL     1      -7.795  44.863 -21.905  1.00  0.00    -0.015 C 
HETATM   15  C19 UNL     1      -9.326  44.891 -22.171  1.00  0.00     0.018 C 
HETATM   16  C20 UNL     1      -7.170  43.950 -22.982  1.00  0.00     0.018 C 
HETATM   17  C21 UNL     1      -7.580  44.218 -20.481  1.00  0.00     0.133 C 
HETATM   18  C27 UNL     1      -7.703  45.278 -19.384  1.00  0.00     0.034 C 
HETATM   19  C28 UNL     1      -6.620  46.353 -19.486  1.00  0.00     0.013 C 
HETATM   20  C29 UNL     1      -6.120  46.554 -20.913  1.00  0.00    -0.025 A 
HETATM   21  C30 UNL     1      -4.719  46.077 -21.198  1.00  0.00     0.021 A 
HETATM   22  C31 UNL     1      -4.980  47.572 -21.188  1.00  0.00    -0.027 A 
HETATM   23  C32 UNL     1      -4.460  48.370 -19.988  1.00  0.00     0.011 C 
HETATM   24  C33 UNL     1      -3.255  49.301 -20.215  1.00  0.00     0.011 C 
HETATM   25  C34 UNL     1      -2.862  49.480 -21.686  1.00  0.00    -0.030 C 
HETATM   26  C35 UNL     1      -1.954  48.277 -22.081  1.00  0.00     0.016 C 
HETATM   27  O9  UNL     1      -1.334  50.768 -24.356  1.00  0.00    -0.356 OA
ENDROOT
BRANCH  17  28
HETATM   28  O4  UNL     1      -6.297  43.587 -20.434  1.00  0.00    -0.353 OA
BRANCH  28  29
HETATM   29  C22 UNL     1      -6.245  42.385 -19.658  1.00  0.00     0.291 C 
HETATM   30  O5  UNL     1      -5.071  42.374 -18.838  1.00  0.00    -0.356 OA
HETATM   31  C23 UNL     1      -5.091  41.292 -17.892  1.00  0.00     0.205 C 
HETATM   32  C24 UNL     1      -5.669  39.989 -18.474  1.00  0.00     0.173 C 
HETATM   33  C25 UNL     1      -5.510  39.969 -20.004  1.00  0.00     0.182 C 
HETATM   34  C26 UNL     1      -6.158  41.206 -20.659  1.00  0.00     0.204 C 
BRANCH  32  35
HETATM   35  O6  UNL     1      -7.048  39.906 -18.097  1.00  0.00    -0.391 OA
HETATM   36  H39 UNL     1      -7.474  39.218 -18.642  1.00  0.00     0.210 HD
ENDBRANCH  32  35
BRANCH  33  37
HETATM   37  O7  UNL     1      -4.121  39.891 -20.356  1.00  0.00    -0.390 OA
HETATM   38  H41 UNL     1      -3.692  40.725 -20.075  1.00  0.00     0.210 HD
ENDBRANCH  33  37
BRANCH  34  39
HETATM   39  O8  UNL     1      -7.465  40.871 -21.156  1.00  0.00    -0.388 OA
HETATM   40  H43 UNL     1      -7.333  40.598 -22.082  1.00  0.00     0.210 HD
ENDBRANCH  34  39
ENDBRANCH  28  29
ENDBRANCH  17  28
BRANCH  12  41
HETATM   41  O2  UNL     1      -8.099  46.981 -24.131  1.00  0.00    -0.316 OA
BRANCH  41  42
HETATM   42  C15 UNL     1      -8.048  46.455 -25.387  1.00  0.00     0.255 C 
HETATM   43  C16 UNL     1      -7.177  47.308 -26.258  1.00  0.00     0.126 C 
HETATM   44  O3  UNL     1      -8.599  45.428 -25.760  1.00  0.00    -0.266 OA
ENDBRANCH  41  42
ENDBRANCH  12  41
BRANCH   1  45
HETATM   45  O1  UNL     1      -0.439  52.889 -24.904  1.00  0.00    -0.362 OA
BRANCH  45  46
HETATM   46  C2  UNL     1       0.266  52.905 -26.140  1.00  0.00     0.166 C 
HETATM   47  C1  UNL     1       1.383  51.876 -26.200  1.00  0.00     0.033 C 
ENDBRANCH  45  46
ENDBRANCH   1  45
TORSDOF 9
ENDMDL
MODEL 8
REMARK minimizedAffinity -8.56902504
REMARK CNNscore 0.288457453
REMARK CNNaffinity 6.56543303
REMARK  9 active torsions:
REMARK  status: ('A' for Active; 'I' for Inactive)
REMARK    1  A    between atoms: C2_2  and  O1_3 
REMARK    2  A    between atoms: O1_3  and  C3_4 
REMARK    3  A    between atoms: C14_15  and  O2_16 
REMARK    4  A    between atoms: O2_16  and  C15_17 
REMARK    5  A    between atoms: C21_24  and  O4_25 
REMARK    6  A    between atoms: O4_25  and  C22_26 
REMARK    7  A    between atoms: C24_29  and  O6_30 
REMARK    8  A    between atoms: C25_31  and  O7_32 
REMARK    9  A    between atoms: C26_33  and  O8_34 
ROOT
HETATM    1  C3  UNL     1      -1.212  52.192 -19.292  1.00  0.00     0.260 C 
HETATM    2  C4  UNL     1      -0.555  52.145 -20.683  1.00  0.00     0.065 C 
HETATM    3  C5  UNL     1      -1.584  51.752 -21.749  1.00  0.00    -0.007 C 
HETATM    4  C6  UNL     1      -0.984  51.846 -23.149  1.00  0.00     0.010 C 
HETATM    5  C7  UNL     1      -2.079  50.328 -21.420  1.00  0.00     0.027 C 
HETATM    6  C8  UNL     1      -2.196  50.109 -19.882  1.00  0.00     0.130 C 
HETATM    7  C9  UNL     1      -3.442  49.233 -19.648  1.00  0.00     0.042 C 
HETATM    8  C10 UNL     1      -3.759  48.621 -21.028  1.00  0.00    -0.029 C 
HETATM    9  C11 UNL     1      -2.797  47.406 -21.221  1.00  0.00     0.016 C 
HETATM   10  C12 UNL     1      -5.234  48.177 -21.203  1.00  0.00     0.006 C 
HETATM   11  C13 UNL     1      -5.588  46.884 -20.460  1.00  0.00     0.039 C 
HETATM   12  C14 UNL     1      -7.088  46.594 -20.579  1.00  0.00     0.138 C 
HETATM   13  C17 UNL     1      -7.442  46.223 -22.039  1.00  0.00     0.035 C 
HETATM   14  C18 UNL     1      -8.979  45.961 -22.329  1.00  0.00    -0.015 C 
HETATM   15  C19 UNL     1      -9.322  44.489 -21.969  1.00  0.00     0.018 C 
HETATM   16  C20 UNL     1      -9.912  46.857 -21.486  1.00  0.00     0.018 C 
HETATM   17  C21 UNL     1      -9.307  46.157 -23.860  1.00  0.00     0.133 C 
HETATM   18  C27 UNL     1      -8.123  45.720 -24.726  1.00  0.00     0.034 C 
HETATM   19  C28 UNL     1      -6.878  46.575 -24.488  1.00  0.00     0.013 C 
HETATM   20  C29 UNL     1      -6.826  47.164 -23.082  1.00  0.00    -0.025 A 
HETATM   21  C30 UNL     1      -7.038  48.653 -22.980  1.00  0.00     0.021 A 
HETATM   22  C31 UNL     1      -5.654  48.104 -22.688  1.00  0.00    -0.027 A 
HETATM   23  C32 UNL     1      -4.568  48.335 -23.744  1.00  0.00     0.011 C 
HETATM   24  C33 UNL     1      -3.457  49.350 -23.418  1.00  0.00     0.011 C 
HETATM   25  C34 UNL     1      -3.457  49.844 -21.968  1.00  0.00    -0.030 C 
HETATM   26  C35 UNL     1      -4.491  51.005 -21.865  1.00  0.00     0.016 C 
HETATM   27  O9  UNL     1      -2.359  51.347 -19.201  1.00  0.00    -0.356 OA
ENDROOT
BRANCH  17  28
HETATM   28  O4  UNL     1      -9.635  47.527 -24.105  1.00  0.00    -0.353 OA
BRANCH  28  29
HETATM   29  C22 UNL     1     -10.467  47.753 -25.247  1.00  0.00     0.291 C 
HETATM   30  O5  UNL     1     -10.861  46.505 -25.829  1.00  0.00    -0.356 OA
HETATM   31  C23 UNL     1     -11.865  46.681 -26.843  1.00  0.00     0.205 C 
HETATM   32  C24 UNL     1     -11.632  47.928 -27.715  1.00  0.00     0.173 C 
HETATM   33  C25 UNL     1     -10.141  48.311 -27.713  1.00  0.00     0.182 C 
HETATM   34  C26 UNL     1      -9.612  48.528 -26.280  1.00  0.00     0.204 C 
BRANCH  32  35
HETATM   35  O6  UNL     1     -12.439  48.992 -27.198  1.00  0.00    -0.391 OA
HETATM   36  H39 UNL     1     -12.130  49.829 -27.590  1.00  0.00     0.210 HD
ENDBRANCH  32  35
BRANCH  33  37
HETATM   37  O7  UNL     1      -9.370  47.302 -28.381  1.00  0.00    -0.390 OA
HETATM   38  H41 UNL     1      -9.414  46.485 -27.843  1.00  0.00     0.210 HD
ENDBRANCH  33  37
BRANCH  34  39
HETATM   39  O8  UNL     1      -9.598  49.932 -25.969  1.00  0.00    -0.388 OA
HETATM   40  H43 UNL     1      -8.711  50.248 -26.217  1.00  0.00     0.210 HD
ENDBRANCH  34  39
ENDBRANCH  28  29
ENDBRANCH  17  28
BRANCH  12  41
HETATM   41  O2  UNL     1      -7.393  45.470 -19.727  1.00  0.00    -0.316 OA
BRANCH  41  42
HETATM   42  C15 UNL     1      -6.502  44.439 -19.751  1.00  0.00     0.255 C 
HETATM   43  C16 UNL     1      -6.861  43.434 -18.699  1.00  0.00     0.126 C 
HETATM   44  O3  UNL     1      -5.563  44.318 -20.526  1.00  0.00    -0.266 OA
ENDBRANCH  41  42
ENDBRANCH  12  41
BRANCH   1  45
HETATM   45  O1  UNL     1      -0.224  51.858 -18.314  1.00  0.00    -0.362 OA
BRANCH  45  46
HETATM   46  C2  UNL     1       0.950  52.658 -18.382  1.00  0.00     0.166 C 
HETATM   47  C1  UNL     1       1.798  52.576 -17.123  1.00  0.00     0.033 C 
ENDBRANCH  45  46
ENDBRANCH   1  45
TORSDOF 9
ENDMDL
MODEL 9
REMARK minimizedAffinity -8.62603951
REMARK CNNscore 0.257362306
REMARK CNNaffinity 6.44859838
REMARK  9 active torsions:
REMARK  status: ('A' for Active; 'I' for Inactive)
REMARK    1  A    between atoms: C2_2  and  O1_3 
REMARK    2  A    between atoms: O1_3  and  C3_4 
REMARK    3  A    between atoms: C14_15  and  O2_16 
REMARK    4  A    between atoms: O2_16  and  C15_17 
REMARK    5  A    between atoms: C21_24  and  O4_25 
REMARK    6  A    between atoms: O4_25  and  C22_26 
REMARK    7  A    between atoms: C24_29  and  O6_30 
REMARK    8  A    between atoms: C25_31  and  O7_32 
REMARK    9  A    between atoms: C26_33  and  O8_34 
ROOT
HETATM    1  C3  UNL     1       0.481  52.782 -24.595  1.00  0.00     0.260 C 
HETATM    2  C4  UNL     1       0.716  53.459 -23.234  1.00  0.00     0.065 C 
HETATM    3  C5  UNL     1       0.364  52.501 -22.090  1.00  0.00    -0.007 C 
HETATM    4  C6  UNL     1       0.733  53.105 -20.739  1.00  0.00     0.010 C 
HETATM    5  C7  UNL     1      -1.142  52.181 -22.196  1.00  0.00     0.027 C 
HETATM    6  C8  UNL     1      -1.596  52.071 -23.681  1.00  0.00     0.130 C 
HETATM    7  C9  UNL     1      -2.640  50.939 -23.747  1.00  0.00     0.042 C 
HETATM    8  C10 UNL     1      -3.077  50.719 -22.285  1.00  0.00    -0.029 C 
HETATM    9  C11 UNL     1      -4.126  51.826 -21.950  1.00  0.00     0.016 C 
HETATM   10  C12 UNL     1      -3.664  49.313 -22.000  1.00  0.00     0.006 C 
HETATM   11  C13 UNL     1      -5.084  49.110 -22.539  1.00  0.00     0.039 C 
HETATM   12  C14 UNL     1      -5.531  47.659 -22.332  1.00  0.00     0.138 C 
HETATM   13  C17 UNL     1      -5.724  47.374 -20.823  1.00  0.00     0.035 C 
HETATM   14  C18 UNL     1      -6.123  45.885 -20.450  1.00  0.00    -0.015 C 
HETATM   15  C19 UNL     1      -7.662  45.721 -20.583  1.00  0.00     0.018 C 
HETATM   16  C20 UNL     1      -5.478  44.837 -21.383  1.00  0.00     0.018 C 
HETATM   17  C21 UNL     1      -5.746  45.557 -18.953  1.00  0.00     0.133 C 
HETATM   18  C27 UNL     1      -5.906  46.798 -18.071  1.00  0.00     0.034 C 
HETATM   19  C28 UNL     1      -4.953  47.925 -18.469  1.00  0.00     0.013 C 
HETATM   20  C29 UNL     1      -4.574  47.884 -19.946  1.00  0.00    -0.025 A 
HETATM   21  C30 UNL     1      -3.151  47.489 -20.254  1.00  0.00     0.021 A 
HETATM   22  C31 UNL     1      -3.568  48.926 -20.508  1.00  0.00    -0.027 A 
HETATM   23  C32 UNL     1      -3.056  49.990 -19.531  1.00  0.00     0.011 C 
HETATM   24  C33 UNL     1      -1.975  50.962 -20.034  1.00  0.00     0.011 C 
HETATM   25  C34 UNL     1      -1.702  50.882 -21.540  1.00  0.00    -0.030 C 
HETATM   26  C35 UNL     1      -0.700  49.711 -21.776  1.00  0.00     0.016 C 
HETATM   27  O9  UNL     1      -0.500  51.747 -24.528  1.00  0.00    -0.356 OA
ENDROOT
BRANCH  17  28
HETATM   28  O4  UNL     1      -4.404  45.066 -18.897  1.00  0.00    -0.353 OA
BRANCH  28  29
HETATM   29  C22 UNL     1      -4.195  43.986 -17.982  1.00  0.00     0.291 C 
HETATM   30  O5  UNL     1      -2.895  44.081 -17.389  1.00  0.00    -0.356 OA
HETATM   31  C23 UNL     1      -2.729  43.143 -16.313  1.00  0.00     0.205 C 
HETATM   32  C24 UNL     1      -3.377  41.776 -16.595  1.00  0.00     0.173 C 
HETATM   33  C25 UNL     1      -3.488  41.540 -18.112  1.00  0.00     0.182 C 
HETATM   34  C26 UNL     1      -4.263  42.677 -18.808  1.00  0.00     0.204 C 
BRANCH  32  35
HETATM   35  O6  UNL     1      -4.667  41.756 -15.974  1.00  0.00    -0.391 OA
HETATM   36  H39 UNL     1      -5.169  41.002 -16.334  1.00  0.00     0.210 HD
ENDBRANCH  32  35
BRANCH  33  37
HETATM   37  O7  UNL     1      -2.182  41.402 -18.689  1.00  0.00    -0.390 OA
HETATM   38  H41 UNL     1      -1.725  42.265 -18.607  1.00  0.00     0.210 HD
ENDBRANCH  33  37
BRANCH  34  39
HETATM   39  O8  UNL     1      -5.631  42.285 -19.016  1.00  0.00    -0.388 OA
HETATM   40  H43 UNL     1      -5.659  41.883 -19.903  1.00  0.00     0.210 HD
ENDBRANCH  34  39
ENDBRANCH  28  29
ENDBRANCH  17  28
BRANCH  12  41
HETATM   41  O2  UNL     1      -6.797  47.483 -23.003  1.00  0.00    -0.316 OA
BRANCH  41  42
HETATM   42  C15 UNL     1      -7.670  48.526 -22.922  1.00  0.00     0.255 C 
HETATM   43  C16 UNL     1      -8.171  48.874 -24.291  1.00  0.00     0.126 C 
HETATM   44  O3  UNL     1      -8.027  49.087 -21.896  1.00  0.00    -0.266 OA
ENDBRANCH  41  42
ENDBRANCH  12  41
BRANCH   1  45
HETATM   45  O1  UNL     1       0.127  53.790 -25.546  1.00  0.00    -0.362 OA
BRANCH  45  46
HETATM   46  C2  UNL     1       0.112  53.333 -26.894  1.00  0.00     0.166 C 
HETATM   47  C1  UNL     1       1.240  52.361 -27.204  1.00  0.00     0.033 C 
ENDBRANCH  45  46
ENDBRANCH   1  45
TORSDOF 9
ENDMDL
