MODEL 1
REMARK minimizedAffinity -7.86994743
REMARK CNNscore 0.462591588
REMARK CNNaffinity 5.87043333
REMARK  9 active torsions:
REMARK  status: ('A' for Active; 'I' for Inactive)
REMARK    1  A    between atoms: C6_6  and  C8_8 
REMARK    2  A    between atoms: C8_8  and  O2_10 
REMARK    3  A    between atoms: O2_10  and  C9_11 
REMARK    4  A    between atoms: C9_11  and  C10_12 
REMARK    5  A    between atoms: C10_12  and  O3_13 
REMARK    6  A    between atoms: C27_33  and  O7_34 
REMARK    7  A    between atoms: C38_45  and  O8_46 
REMARK    8  A    between atoms: C38_45  and  C39_47 
REMARK    9  A    between atoms: C39_47  and  O9_48 
ROOT
HETATM    1  O2  UNL     1     -17.005   1.398  15.190  1.00  0.00    -0.317 OA
ENDROOT
BRANCH   1   2
HETATM    2  C8  UNL     1     -18.034   2.237  14.903  1.00  0.00     0.267 C 
HETATM    3  O1  UNL     1     -18.928   1.968  14.109  1.00  0.00    -0.264 OA
BRANCH   2   4
HETATM    4  C6  UNL     1     -17.907   3.580  15.635  1.00  0.00     0.049 C 
HETATM    5  C5  UNL     1     -19.261   4.304  15.880  1.00  0.00     0.020 C 
HETATM    6  C4  UNL     1     -19.852   4.980  14.646  1.00  0.00     0.002 C 
HETATM    7  C3  UNL     1     -18.853   5.898  13.934  1.00  0.00     0.010 C 
HETATM    8  C2  UNL     1     -17.518   5.197  13.572  1.00  0.00    -0.035 C 
HETATM    9  C1  UNL     1     -17.829   4.129  12.485  1.00  0.00     0.016 C 
HETATM   10  C29 UNL     1     -16.956   4.585  14.904  1.00  0.00     0.012 C 
HETATM   11  C37 UNL     1     -16.440   6.163  12.904  1.00  0.00     0.010 C 
HETATM   12  C30 UNL     1     -15.496   4.159  14.728  1.00  0.00     0.008 C 
HETATM   13  C31 UNL     1     -14.590   5.382  14.545  1.00  0.00     0.018 C 
HETATM   14  C32 UNL     1     -15.240   6.560  13.807  1.00  0.00     0.028 C 
HETATM   15  C33 UNL     1     -14.177   7.276  12.937  1.00  0.00     0.026 C 
HETATM   16  C40 UNL     1     -15.619   7.743  14.714  1.00  0.00     0.172 C 
HETATM   17  C34 UNL     1     -14.835   8.629  12.654  1.00  0.00     0.031 C 
HETATM   18  C35 UNL     1     -15.997   8.392  11.673  1.00  0.00     0.009 C 
HETATM   19  C38 UNL     1     -15.238   9.079  14.074  1.00  0.00     0.143 C 
HETATM   20  C36 UNL     1     -17.044   7.390  12.178  1.00  0.00     0.007 C 
HETATM   21  O10 UNL     1     -16.128   7.657  15.826  1.00  0.00    -0.294 OA
HETATM   22  C7  UNL     1     -17.351   3.206  17.031  1.00  0.00     0.026 C 
BRANCH  19  23
HETATM   23  O8  UNL     1     -14.062   9.578  14.736  1.00  0.00    -0.379 OA
HETATM   24  H53 UNL     1     -14.273   9.617  15.690  1.00  0.00     0.211 HD
ENDBRANCH  19  23
BRANCH  19  25
HETATM   25  C39 UNL     1     -16.322  10.148  14.183  1.00  0.00     0.210 C 
BRANCH  25  26
HETATM   26  O9  UNL     1     -15.854  11.379  13.629  1.00  0.00    -0.397 OA
HETATM   27  H56 UNL     1     -14.953  11.512  13.983  1.00  0.00     0.209 HD
ENDBRANCH  25  26
ENDBRANCH  19  25
ENDBRANCH   2   4
ENDBRANCH   1   2
BRANCH   1  28
HETATM   28  C9  UNL     1     -17.200   0.005  14.889  1.00  0.00     0.227 C 
BRANCH  28  29
HETATM   29  C10 UNL     1     -16.046  -0.486  14.018  1.00  0.00     0.171 C 
HETATM   30  C11 UNL     1     -15.333  -1.714  14.587  1.00  0.00     0.175 C 
HETATM   31  O4  UNL     1     -15.006  -1.811  15.764  1.00  0.00    -0.294 OA
HETATM   32  C12 UNL     1     -15.067  -2.781  13.503  1.00  0.00     0.037 C 
HETATM   33  C13 UNL     1     -13.655  -3.385  13.603  1.00  0.00     0.019 C 
HETATM   34  C23 UNL     1     -16.222  -3.844  13.517  1.00  0.00     0.003 C 
HETATM   35  C28 UNL     1     -15.152  -1.845  12.278  1.00  0.00     0.059 C 
HETATM   36  C14 UNL     1     -13.579  -4.755  14.287  1.00  0.00     0.010 C 
HETATM   37  C15 UNL     1     -14.648  -4.914  15.362  1.00  0.00     0.040 C 
HETATM   38  C16 UNL     1     -14.749  -6.292  16.030  1.00  0.00     0.051 C 
HETATM   39  C21 UNL     1     -16.081  -4.780  14.810  1.00  0.00     0.084 C 
HETATM   40  C17 UNL     1     -13.422  -7.001  16.275  1.00  0.00     0.026 C 
HETATM   41  C18 UNL     1     -15.600  -6.220  17.316  1.00  0.00     0.020 C 
HETATM   42  C22 UNL     1     -15.595  -7.033  15.025  1.00  0.00     0.268 C 
HETATM   43  C19 UNL     1     -16.557  -5.024  17.359  1.00  0.00     0.004 C 
HETATM   44  C20 UNL     1     -17.028  -4.471  16.000  1.00  0.00     0.040 C 
HETATM   45  O5  UNL     1     -16.411  -6.135  14.403  1.00  0.00    -0.308 OA
HETATM   46  O6  UNL     1     -15.607  -8.233  14.813  1.00  0.00    -0.264 OA
HETATM   47  C24 UNL     1     -16.146  -4.716  12.216  1.00  0.00     0.019 C 
HETATM   48  C25 UNL     1     -17.611  -3.130  13.427  1.00  0.00     0.016 C 
HETATM   49  C26 UNL     1     -17.634  -1.912  12.489  1.00  0.00     0.042 C 
HETATM   50  C27 UNL     1     -16.393  -1.008  12.599  1.00  0.00     0.099 C 
BRANCH  29  51
HETATM   51  O3  UNL     1     -15.068   0.568  13.876  1.00  0.00    -0.377 OA
HETATM   52  H15 UNL     1     -14.757   0.792  14.774  1.00  0.00     0.211 HD
ENDBRANCH  29  51
BRANCH  50  53
HETATM   53  O7  UNL     1     -16.502   0.053  11.656  1.00  0.00    -0.386 OA
HETATM   54  H37 UNL     1     -15.891   0.754  11.965  1.00  0.00     0.210 HD
ENDBRANCH  50  53
ENDBRANCH  28  29
ENDBRANCH   1  28
TORSDOF 9
ENDMDL
MODEL 2
REMARK minimizedAffinity -10.2754431
REMARK CNNscore 0.447004616
REMARK CNNaffinity 7.94860506
REMARK  9 active torsions:
REMARK  status: ('A' for Active; 'I' for Inactive)
REMARK    1  A    between atoms: C6_6  and  C8_8 
REMARK    2  A    between atoms: C8_8  and  O2_10 
REMARK    3  A    between atoms: O2_10  and  C9_11 
REMARK    4  A    between atoms: C9_11  and  C10_12 
REMARK    5  A    between atoms: C10_12  and  O3_13 
REMARK    6  A    between atoms: C27_33  and  O7_34 
REMARK    7  A    between atoms: C38_45  and  O8_46 
REMARK    8  A    between atoms: C38_45  and  C39_47 
REMARK    9  A    between atoms: C39_47  and  O9_48 
ROOT
HETATM    1  O2  UNL     1      -9.179   6.942  14.158  1.00  0.00    -0.317 OA
ENDROOT
BRANCH   1   2
HETATM    2  C8  UNL     1      -8.377   5.922  13.757  1.00  0.00     0.267 C 
HETATM    3  O1  UNL     1      -8.560   5.278  12.731  1.00  0.00    -0.264 OA
BRANCH   2   4
HETATM    4  C6  UNL     1      -7.263   5.629  14.771  1.00  0.00     0.049 C 
HETATM    5  C5  UNL     1      -7.324   6.503  16.056  1.00  0.00     0.020 C 
HETATM    6  C4  UNL     1      -6.841   7.939  15.872  1.00  0.00     0.002 C 
HETATM    7  C3  UNL     1      -5.463   8.022  15.209  1.00  0.00     0.010 C 
HETATM    8  C2  UNL     1      -5.373   7.251  13.866  1.00  0.00    -0.035 C 
HETATM    9  C1  UNL     1      -6.285   7.986  12.842  1.00  0.00     0.016 C 
HETATM   10  C29 UNL     1      -5.830   5.779  14.163  1.00  0.00     0.012 C 
HETATM   11  C37 UNL     1      -3.922   7.263  13.207  1.00  0.00     0.010 C 
HETATM   12  C30 UNL     1      -5.471   4.857  12.994  1.00  0.00     0.008 C 
HETATM   13  C31 UNL     1      -3.951   4.691  12.878  1.00  0.00     0.018 C 
HETATM   14  C32 UNL     1      -3.136   5.926  13.285  1.00  0.00     0.028 C 
HETATM   15  C33 UNL     1      -1.877   6.034  12.388  1.00  0.00     0.026 C 
HETATM   16  C40 UNL     1      -2.429   5.797  14.646  1.00  0.00     0.172 C 
HETATM   17  C34 UNL     1      -0.982   6.987  13.185  1.00  0.00     0.031 C 
HETATM   18  C35 UNL     1      -1.600   8.394  13.103  1.00  0.00     0.009 C 
HETATM   19  C38 UNL     1      -0.997   6.329  14.581  1.00  0.00     0.143 C 
HETATM   20  C36 UNL     1      -3.044   8.471  13.617  1.00  0.00     0.007 C 
HETATM   21  O10 UNL     1      -2.912   5.303  15.659  1.00  0.00    -0.294 OA
HETATM   22  C7  UNL     1      -7.526   4.171  15.220  1.00  0.00     0.026 C 
BRANCH  19  23
HETATM   23  O8  UNL     1      -0.098   5.205  14.555  1.00  0.00    -0.379 OA
HETATM   24  H53 UNL     1      -0.307   4.662  15.341  1.00  0.00     0.211 HD
ENDBRANCH  19  23
BRANCH  19  25
HETATM   25  C39 UNL     1      -0.609   7.207  15.767  1.00  0.00     0.210 C 
BRANCH  25  26
HETATM   26  O9  UNL     1       0.603   6.732  16.355  1.00  0.00    -0.397 OA
HETATM   27  H56 UNL     1       0.506   5.762  16.434  1.00  0.00     0.209 HD
ENDBRANCH  25  26
ENDBRANCH  19  25
ENDBRANCH   2   4
ENDBRANCH   1   2
BRANCH   1  28
HETATM   28  C9  UNL     1     -10.300   7.257  13.313  1.00  0.00     0.227 C 
BRANCH  28  29
HETATM   29  C10 UNL     1     -11.565   7.329  14.167  1.00  0.00     0.171 C 
HETATM   30  C11 UNL     1     -11.476   8.351  15.302  1.00  0.00     0.175 C 
HETATM   31  O4  UNL     1     -10.500   8.449  16.037  1.00  0.00    -0.294 OA
HETATM   32  C12 UNL     1     -12.757   9.206  15.411  1.00  0.00     0.037 C 
HETATM   33  C13 UNL     1     -13.218   9.396  16.867  1.00  0.00     0.019 C 
HETATM   34  C23 UNL     1     -12.561  10.549  14.621  1.00  0.00     0.003 C 
HETATM   35  C28 UNL     1     -13.708   8.234  14.680  1.00  0.00     0.059 C 
HETATM   36  C14 UNL     1     -12.844  10.741  17.500  1.00  0.00     0.010 C 
HETATM   37  C15 UNL     1     -11.530  11.282  16.949  1.00  0.00     0.040 C 
HETATM   38  C16 UNL     1     -11.116  12.684  17.418  1.00  0.00     0.051 C 
HETATM   39  C21 UNL     1     -11.565  11.511  15.426  1.00  0.00     0.084 C 
HETATM   40  C17 UNL     1     -11.434  13.009  18.873  1.00  0.00     0.026 C 
HETATM   41  C18 UNL     1      -9.634  12.960  17.086  1.00  0.00     0.020 C 
HETATM   42  C22 UNL     1     -11.912  13.547  16.472  1.00  0.00     0.268 C 
HETATM   43  C19 UNL     1      -9.081  12.090  15.953  1.00  0.00     0.004 C 
HETATM   44  C20 UNL     1     -10.101  11.581  14.916  1.00  0.00     0.040 C 
HETATM   45  O5  UNL     1     -12.075  12.865  15.302  1.00  0.00    -0.308 OA
HETATM   46  O6  UNL     1     -12.315  14.680  16.669  1.00  0.00    -0.264 OA
HETATM   47  C24 UNL     1     -13.950  11.253  14.434  1.00  0.00     0.019 C 
HETATM   48  C25 UNL     1     -12.078  10.248  13.163  1.00  0.00     0.016 C 
HETATM   49  C26 UNL     1     -12.733   9.012  12.524  1.00  0.00     0.042 C 
HETATM   50  C27 UNL     1     -12.868   7.809  13.474  1.00  0.00     0.099 C 
BRANCH  29  51
HETATM   51  O3  UNL     1     -11.824   6.035  14.753  1.00  0.00    -0.377 OA
HETATM   52  H15 UNL     1     -11.048   5.808  15.300  1.00  0.00     0.211 HD
ENDBRANCH  29  51
BRANCH  50  53
HETATM   53  O7  UNL     1     -13.527   6.746  12.792  1.00  0.00    -0.386 OA
HETATM   54  H37 UNL     1     -13.310   5.930  13.289  1.00  0.00     0.210 HD
ENDBRANCH  50  53
ENDBRANCH  28  29
ENDBRANCH   1  28
TORSDOF 9
ENDMDL
MODEL 3
REMARK minimizedAffinity -9.04319
REMARK CNNscore 0.44360289
REMARK CNNaffinity 6.59386826
REMARK  9 active torsions:
REMARK  status: ('A' for Active; 'I' for Inactive)
REMARK    1  A    between atoms: C6_6  and  C8_8 
REMARK    2  A    between atoms: C8_8  and  O2_10 
REMARK    3  A    between atoms: O2_10  and  C9_11 
REMARK    4  A    between atoms: C9_11  and  C10_12 
REMARK    5  A    between atoms: C10_12  and  O3_13 
REMARK    6  A    between atoms: C27_33  and  O7_34 
REMARK    7  A    between atoms: C38_45  and  O8_46 
REMARK    8  A    between atoms: C38_45  and  C39_47 
REMARK    9  A    between atoms: C39_47  and  O9_48 
ROOT
HETATM    1  O2  UNL     1       0.669   9.640  16.295  1.00  0.00    -0.317 OA
ENDROOT
BRANCH   1   2
HETATM    2  C8  UNL     1       1.852   9.935  16.893  1.00  0.00     0.267 C 
HETATM    3  O1  UNL     1       2.462   9.156  17.615  1.00  0.00    -0.264 OA
BRANCH   2   4
HETATM    4  C6  UNL     1       2.296  11.378  16.614  1.00  0.00     0.049 C 
HETATM    5  C5  UNL     1       3.836  11.588  16.640  1.00  0.00     0.020 C 
HETATM    6  C4  UNL     1       4.450  11.621  18.038  1.00  0.00     0.002 C 
HETATM    7  C3  UNL     1       3.740  12.602  18.976  1.00  0.00     0.010 C 
HETATM    8  C2  UNL     1       2.208  12.372  19.069  1.00  0.00    -0.035 C 
HETATM    9  C1  UNL     1       1.982  11.006  19.775  1.00  0.00     0.016 C 
HETATM   10  C29 UNL     1       1.659  12.413  17.599  1.00  0.00     0.012 C 
HETATM   11  C37 UNL     1       1.448  13.437  19.979  1.00  0.00     0.010 C 
HETATM   12  C30 UNL     1       0.132  12.526  17.598  1.00  0.00     0.008 C 
HETATM   13  C31 UNL     1      -0.314  13.891  18.131  1.00  0.00     0.018 C 
HETATM   14  C32 UNL     1       0.594  14.487  19.216  1.00  0.00     0.028 C 
HETATM   15  C33 UNL     1      -0.267  15.269  20.240  1.00  0.00     0.026 C 
HETATM   16  C40 UNL     1       1.477  15.650  18.733  1.00  0.00     0.172 C 
HETATM   17  C34 UNL     1       0.771  16.144  20.947  1.00  0.00     0.031 C 
HETATM   18  C35 UNL     1       1.635  15.229  21.833  1.00  0.00     0.009 C 
HETATM   19  C38 UNL     1       1.494  16.794  19.749  1.00  0.00     0.143 C 
HETATM   20  C36 UNL     1       2.332  14.097  21.066  1.00  0.00     0.007 C 
HETATM   21  O10 UNL     1       2.072  15.700  17.662  1.00  0.00    -0.294 OA
HETATM   22  C7  UNL     1       1.842  11.645  15.158  1.00  0.00     0.026 C 
BRANCH  19  23
HETATM   23  O8  UNL     1       0.664  17.857  19.247  1.00  0.00    -0.379 OA
HETATM   24  H53 UNL     1       1.004  18.082  18.359  1.00  0.00     0.211 HD
ENDBRANCH  19  23
BRANCH  19  25
HETATM   25  C39 UNL     1       2.884  17.371  20.005  1.00  0.00     0.210 C 
BRANCH  25  26
HETATM   26  O9  UNL     1       2.812  18.408  20.986  1.00  0.00    -0.397 OA
HETATM   27  H56 UNL     1       2.053  18.969  20.733  1.00  0.00     0.209 HD
ENDBRANCH  25  26
ENDBRANCH  19  25
ENDBRANCH   2   4
ENDBRANCH   1   2
BRANCH   1  28
HETATM   28  C9  UNL     1       0.585   8.374  15.616  1.00  0.00     0.227 C 
BRANCH  28  29
HETATM   29  C10 UNL     1      -0.448   8.475  14.495  1.00  0.00     0.171 C 
HETATM   30  C11 UNL     1       0.173   8.673  13.111  1.00  0.00     0.175 C 
HETATM   31  O4  UNL     1       1.072   9.478  12.891  1.00  0.00    -0.294 OA
HETATM   32  C12 UNL     1      -0.481   7.764  12.048  1.00  0.00     0.037 C 
HETATM   33  C13 UNL     1      -0.755   8.503  10.727  1.00  0.00     0.019 C 
HETATM   34  C23 UNL     1       0.367   6.452  11.885  1.00  0.00     0.003 C 
HETATM   35  C28 UNL     1      -1.809   7.510  12.794  1.00  0.00     0.059 C 
HETATM   36  C14 UNL     1       0.270   8.252   9.614  1.00  0.00     0.010 C 
HETATM   37  C15 UNL     1       1.665   8.002  10.173  1.00  0.00     0.040 C 
HETATM   38  C16 UNL     1       2.750   7.616   9.158  1.00  0.00     0.051 C 
HETATM   39  C21 UNL     1       1.729   6.781  11.110  1.00  0.00     0.084 C 
HETATM   40  C17 UNL     1       2.670   8.321   7.810  1.00  0.00     0.026 C 
HETATM   41  C18 UNL     1       4.157   7.743   9.781  1.00  0.00     0.020 C 
HETATM   42  C22 UNL     1       2.499   6.135   9.023  1.00  0.00     0.268 C 
HETATM   43  C19 UNL     1       4.164   7.683  11.313  1.00  0.00     0.004 C 
HETATM   44  C20 UNL     1       3.012   6.904  11.975  1.00  0.00     0.040 C 
HETATM   45  O5  UNL     1       1.989   5.676  10.202  1.00  0.00    -0.308 OA
HETATM   46  O6  UNL     1       2.741   5.430   8.059  1.00  0.00    -0.264 OA
HETATM   47  C24 UNL     1      -0.463   5.390  11.083  1.00  0.00     0.019 C 
HETATM   48  C25 UNL     1       0.602   5.788  13.282  1.00  0.00     0.016 C 
HETATM   49  C26 UNL     1      -0.607   5.867  14.230  1.00  0.00     0.042 C 
HETATM   50  C27 UNL     1      -1.328   7.227  14.219  1.00  0.00     0.099 C 
BRANCH  29  51
HETATM   51  O3  UNL     1      -1.328   9.591  14.750  1.00  0.00    -0.377 OA
HETATM   52  H15 UNL     1      -0.771  10.392  14.784  1.00  0.00     0.211 HD
ENDBRANCH  29  51
BRANCH  50  53
HETATM   53  O7  UNL     1      -2.451   7.167  15.092  1.00  0.00    -0.386 OA
HETATM   54  H37 UNL     1      -2.679   8.097  15.304  1.00  0.00     0.210 HD
ENDBRANCH  50  53
ENDBRANCH  28  29
ENDBRANCH   1  28
TORSDOF 9
ENDMDL
MODEL 4
REMARK minimizedAffinity -8.32248211
REMARK CNNscore 0.440506607
REMARK CNNaffinity 6.82492685
REMARK  9 active torsions:
REMARK  status: ('A' for Active; 'I' for Inactive)
REMARK    1  A    between atoms: C6_6  and  C8_8 
REMARK    2  A    between atoms: C8_8  and  O2_10 
REMARK    3  A    between atoms: O2_10  and  C9_11 
REMARK    4  A    between atoms: C9_11  and  C10_12 
REMARK    5  A    between atoms: C10_12  and  O3_13 
REMARK    6  A    between atoms: C27_33  and  O7_34 
REMARK    7  A    between atoms: C38_45  and  O8_46 
REMARK    8  A    between atoms: C38_45  and  C39_47 
REMARK    9  A    between atoms: C39_47  and  O9_48 
ROOT
HETATM    1  O2  UNL     1     -14.270   8.607  22.641  1.00  0.00    -0.317 OA
ENDROOT
BRANCH   1   2
HETATM    2  C8  UNL     1     -13.245   9.164  23.337  1.00  0.00     0.267 C 
HETATM    3  O1  UNL     1     -12.387   8.513  23.921  1.00  0.00    -0.264 OA
BRANCH   2   4
HETATM    4  C6  UNL     1     -13.328  10.696  23.361  1.00  0.00     0.049 C 
HETATM    5  C5  UNL     1     -14.350  11.295  22.353  1.00  0.00     0.020 C 
HETATM    6  C4  UNL     1     -13.883  11.299  20.900  1.00  0.00     0.002 C 
HETATM    7  C3  UNL     1     -12.496  11.925  20.723  1.00  0.00     0.010 C 
HETATM    8  C2  UNL     1     -11.410  11.293  21.633  1.00  0.00    -0.035 C 
HETATM    9  C1  UNL     1     -11.185   9.832  21.150  1.00  0.00     0.016 C 
HETATM   10  C29 UNL     1     -11.948  11.386  23.105  1.00  0.00     0.012 C 
HETATM   11  C37 UNL     1      -9.981  11.990  21.516  1.00  0.00     0.010 C 
HETATM   12  C30 UNL     1     -10.829  11.096  24.107  1.00  0.00     0.008 C 
HETATM   13  C31 UNL     1      -9.779  12.213  24.091  1.00  0.00     0.018 C 
HETATM   14  C32 UNL     1      -9.562  12.873  22.723  1.00  0.00     0.028 C 
HETATM   15  C33 UNL     1      -8.069  13.258  22.564  1.00  0.00     0.026 C 
HETATM   16  C40 UNL     1     -10.170  14.281  22.596  1.00  0.00     0.172 C 
HETATM   17  C34 UNL     1      -8.107  14.270  21.416  1.00  0.00     0.031 C 
HETATM   18  C35 UNL     1      -8.416  13.501  20.120  1.00  0.00     0.009 C 
HETATM   19  C38 UNL     1      -9.205  15.241  21.898  1.00  0.00     0.143 C 
HETATM   20  C36 UNL     1      -9.727  12.704  20.165  1.00  0.00     0.007 C 
HETATM   21  O10 UNL     1     -11.266  14.628  23.021  1.00  0.00    -0.294 OA
HETATM   22  C7  UNL     1     -13.862  11.030  24.776  1.00  0.00     0.026 C 
BRANCH  19  23
HETATM   23  O8  UNL     1      -8.632  16.109  22.893  1.00  0.00    -0.379 OA
HETATM   24  H53 UNL     1      -9.379  16.532  23.359  1.00  0.00     0.211 HD
ENDBRANCH  19  23
BRANCH  19  25
HETATM   25  C39 UNL     1      -9.867  16.121  20.840  1.00  0.00     0.210 C 
BRANCH  25  26
HETATM   26  O9  UNL     1      -8.889  16.945  20.205  1.00  0.00    -0.397 OA
HETATM   27  H56 UNL     1      -8.338  17.317  20.922  1.00  0.00     0.209 HD
ENDBRANCH  25  26
ENDBRANCH  19  25
ENDBRANCH   2   4
ENDBRANCH   1   2
BRANCH   1  28
HETATM   28  C9  UNL     1     -14.985   7.537  23.286  1.00  0.00     0.227 C 
BRANCH  28  29
HETATM   29  C10 UNL     1     -14.504   6.202  22.721  1.00  0.00     0.171 C 
HETATM   30  C11 UNL     1     -13.761   5.341  23.744  1.00  0.00     0.175 C 
HETATM   31  O4  UNL     1     -12.896   5.787  24.490  1.00  0.00    -0.294 OA
HETATM   32  C12 UNL     1     -14.217   3.867  23.698  1.00  0.00     0.037 C 
HETATM   33  C13 UNL     1     -13.039   2.881  23.777  1.00  0.00     0.019 C 
HETATM   34  C23 UNL     1     -15.327   3.626  24.783  1.00  0.00     0.003 C 
HETATM   35  C28 UNL     1     -14.795   3.882  22.267  1.00  0.00     0.059 C 
HETATM   36  C14 UNL     1     -12.797   2.261  25.158  1.00  0.00     0.010 C 
HETATM   37  C15 UNL     1     -13.183   3.213  26.284  1.00  0.00     0.040 C 
HETATM   38  C16 UNL     1     -13.102   2.656  27.711  1.00  0.00     0.051 C 
HETATM   39  C21 UNL     1     -14.667   3.625  26.243  1.00  0.00     0.084 C 
HETATM   40  C17 UNL     1     -11.935   1.713  27.983  1.00  0.00     0.026 C 
HETATM   41  C18 UNL     1     -13.165   3.795  28.752  1.00  0.00     0.020 C 
HETATM   42  C22 UNL     1     -14.425   1.940  27.813  1.00  0.00     0.268 C 
HETATM   43  C19 UNL     1     -13.810   5.080  28.224  1.00  0.00     0.004 C 
HETATM   44  C20 UNL     1     -14.832   4.918  27.083  1.00  0.00     0.040 C 
HETATM   45  O5  UNL     1     -15.324   2.584  27.014  1.00  0.00    -0.308 OA
HETATM   46  O6  UNL     1     -14.693   0.979  28.513  1.00  0.00    -0.264 OA
HETATM   47  C24 UNL     1     -16.032   2.252  24.513  1.00  0.00     0.019 C 
HETATM   48  C25 UNL     1     -16.468   4.686  24.628  1.00  0.00     0.016 C 
HETATM   49  C26 UNL     1     -16.812   5.033  23.169  1.00  0.00     0.042 C 
HETATM   50  C27 UNL     1     -15.585   5.192  22.253  1.00  0.00     0.099 C 
BRANCH  29  51
HETATM   51  O3  UNL     1     -13.611   6.442  21.612  1.00  0.00    -0.377 OA
HETATM   52  H15 UNL     1     -12.861   6.966  21.956  1.00  0.00     0.211 HD
ENDBRANCH  29  51
BRANCH  50  53
HETATM   53  O7  UNL     1     -16.025   5.465  20.927  1.00  0.00    -0.386 OA
HETATM   54  H37 UNL     1     -15.259   5.867  20.465  1.00  0.00     0.210 HD
ENDBRANCH  50  53
ENDBRANCH  28  29
ENDBRANCH   1  28
TORSDOF 9
ENDMDL
MODEL 5
REMARK minimizedAffinity -7.93719625
REMARK CNNscore 0.408478081
REMARK CNNaffinity 6.8857398
REMARK  9 active torsions:
REMARK  status: ('A' for Active; 'I' for Inactive)
REMARK    1  A    between atoms: C6_6  and  C8_8 
REMARK    2  A    between atoms: C8_8  and  O2_10 
REMARK    3  A    between atoms: O2_10  and  C9_11 
REMARK    4  A    between atoms: C9_11  and  C10_12 
REMARK    5  A    between atoms: C10_12  and  O3_13 
REMARK    6  A    between atoms: C27_33  and  O7_34 
REMARK    7  A    between atoms: C38_45  and  O8_46 
REMARK    8  A    between atoms: C38_45  and  C39_47 
REMARK    9  A    between atoms: C39_47  and  O9_48 
ROOT
HETATM    1  O2  UNL     1       4.833   9.720  15.894  1.00  0.00    -0.317 OA
ENDROOT
BRANCH   1   2
HETATM    2  C8  UNL     1       5.290  10.812  15.229  1.00  0.00     0.267 C 
HETATM    3  O1  UNL     1       4.836  11.194  14.157  1.00  0.00    -0.264 OA
BRANCH   2   4
HETATM    4  C6  UNL     1       6.484  11.464  15.940  1.00  0.00     0.049 C 
HETATM    5  C5  UNL     1       6.493  13.018  15.876  1.00  0.00     0.020 C 
HETATM    6  C4  UNL     1       6.921  13.595  14.530  1.00  0.00     0.002 C 
HETATM    7  C3  UNL     1       8.245  13.011  14.026  1.00  0.00     0.010 C 
HETATM    8  C2  UNL     1       8.256  11.461  13.971  1.00  0.00    -0.035 C 
HETATM    9  C1  UNL     1       7.252  11.023  12.867  1.00  0.00     0.016 C 
HETATM   10  C29 UNL     1       7.863  10.958  15.405  1.00  0.00     0.012 C 
HETATM   11  C37 UNL     1       9.655  10.839  13.525  1.00  0.00     0.010 C 
HETATM   12  C30 UNL     1       8.162   9.464  15.553  1.00  0.00     0.008 C 
HETATM   13  C31 UNL     1       9.672   9.205  15.539  1.00  0.00     0.018 C 
HETATM   14  C32 UNL     1      10.481  10.163  14.653  1.00  0.00     0.028 C 
HETATM   15  C33 UNL     1      11.667   9.398  14.013  1.00  0.00     0.026 C 
HETATM   16  C40 UNL     1      11.289  11.215  15.433  1.00  0.00     0.172 C 
HETATM   17  C34 UNL     1      12.592  10.534  13.566  1.00  0.00     0.031 C 
HETATM   18  C35 UNL     1      11.931  11.235  12.366  1.00  0.00     0.009 C 
HETATM   19  C38 UNL     1      12.698  11.371  14.858  1.00  0.00     0.143 C 
HETATM   20  C36 UNL     1      10.527  11.782  12.660  1.00  0.00     0.007 C 
HETATM   21  O10 UNL     1      10.895  11.837  16.413  1.00  0.00    -0.294 OA
HETATM   22  C7  UNL     1       6.295  11.089  17.431  1.00  0.00     0.026 C 
BRANCH  19  23
HETATM   23  O8  UNL     1      13.623  10.715  15.743  1.00  0.00    -0.379 OA
HETATM   24  H53 UNL     1      13.487  11.105  16.629  1.00  0.00     0.211 HD
ENDBRANCH  19  23
BRANCH  19  25
HETATM   25  C39 UNL     1      13.147  12.823  14.710  1.00  0.00     0.210 C 
BRANCH  25  26
HETATM   26  O9  UNL     1      14.518  12.874  14.313  1.00  0.00    -0.397 OA
HETATM   27  H56 UNL     1      14.991  12.238  14.884  1.00  0.00     0.209 HD
ENDBRANCH  25  26
ENDBRANCH  19  25
ENDBRANCH   2   4
ENDBRANCH   1   2
BRANCH   1  28
HETATM   28  C9  UNL     1       3.418   9.464  15.826  1.00  0.00     0.227 C 
BRANCH  28  29
HETATM   29  C10 UNL     1       3.181   8.166  15.057  1.00  0.00     0.171 C 
HETATM   30  C11 UNL     1       1.768   7.605  15.230  1.00  0.00     0.175 C 
HETATM   31  O4  UNL     1       1.210   7.525  16.319  1.00  0.00    -0.294 OA
HETATM   32  C12 UNL     1       1.161   7.144  13.888  1.00  0.00     0.037 C 
HETATM   33  C13 UNL     1       0.433   5.793  14.001  1.00  0.00     0.019 C 
HETATM   34  C23 UNL     1       0.282   8.297  13.285  1.00  0.00     0.003 C 
HETATM   35  C28 UNL     1       2.489   6.963  13.121  1.00  0.00     0.059 C 
HETATM   36  C14 UNL     1      -1.093   5.881  14.110  1.00  0.00     0.010 C 
HETATM   37  C15 UNL     1      -1.540   7.149  14.830  1.00  0.00     0.040 C 
HETATM   38  C16 UNL     1      -3.051   7.407  14.889  1.00  0.00     0.051 C 
HETATM   39  C21 UNL     1      -1.076   8.437  14.123  1.00  0.00     0.084 C 
HETATM   40  C17 UNL     1      -3.922   6.170  15.078  1.00  0.00     0.026 C 
HETATM   41  C18 UNL     1      -3.383   8.499  15.929  1.00  0.00     0.020 C 
HETATM   42  C22 UNL     1      -3.283   8.045  13.542  1.00  0.00     0.268 C 
HETATM   43  C19 UNL     1      -2.205   9.424  16.253  1.00  0.00     0.004 C 
HETATM   44  C20 UNL     1      -1.145   9.600  15.149  1.00  0.00     0.040 C 
HETATM   45  O5  UNL     1      -2.145   8.702  13.176  1.00  0.00    -0.308 OA
HETATM   46  O6  UNL     1      -4.311   8.035  12.888  1.00  0.00    -0.264 OA
HETATM   47  C24 UNL     1      -0.047   7.975  11.786  1.00  0.00     0.019 C 
HETATM   48  C25 UNL     1       1.105   9.626  13.227  1.00  0.00     0.016 C 
HETATM   49  C26 UNL     1       2.581   9.437  12.839  1.00  0.00     0.042 C 
HETATM   50  C27 UNL     1       3.259   8.228  13.508  1.00  0.00     0.099 C 
BRANCH  29  51
HETATM   51  O3  UNL     1       4.115   7.161  15.509  1.00  0.00    -0.377 OA
HETATM   52  H15 UNL     1       3.959   7.034  16.464  1.00  0.00     0.211 HD
ENDBRANCH  29  51
BRANCH  50  53
HETATM   53  O7  UNL     1       4.600   8.125  13.041  1.00  0.00    -0.386 OA
HETATM   54  H37 UNL     1       5.075   7.577  13.701  1.00  0.00     0.210 HD
ENDBRANCH  50  53
ENDBRANCH  28  29
ENDBRANCH   1  28
TORSDOF 9
ENDMDL
MODEL 6
REMARK minimizedAffinity -10.2766886
REMARK CNNscore 0.385121286
REMARK CNNaffinity 6.49630976
REMARK  9 active torsions:
REMARK  status: ('A' for Active; 'I' for Inactive)
REMARK    1  A    between atoms: C6_6  and  C8_8 
REMARK    2  A    between atoms: C8_8  and  O2_10 
REMARK    3  A    between atoms: O2_10  and  C9_11 
REMARK    4  A    between atoms: C9_11  and  C10_12 
REMARK    5  A    between atoms: C10_12  and  O3_13 
REMARK    6  A    between atoms: C27_33  and  O7_34 
REMARK    7  A    between atoms: C38_45  and  O8_46 
REMARK    8  A    between atoms: C38_45  and  C39_47 
REMARK    9  A    between atoms: C39_47  and  O9_48 
ROOT
HETATM    1  O2  UNL     1      -1.250   9.210  15.792  1.00  0.00    -0.317 OA
ENDROOT
BRANCH   1   2
HETATM    2  C8  UNL     1      -1.205   9.270  14.436  1.00  0.00     0.267 C 
HETATM    3  O1  UNL     1      -1.399  10.295  13.794  1.00  0.00    -0.264 OA
BRANCH   2   4
HETATM    4  C6  UNL     1      -0.952   7.893  13.806  1.00  0.00     0.049 C 
HETATM    5  C5  UNL     1      -0.329   6.852  14.778  1.00  0.00     0.020 C 
HETATM    6  C4  UNL     1       1.160   7.050  15.053  1.00  0.00     0.002 C 
HETATM    7  C3  UNL     1       1.989   7.179  13.772  1.00  0.00     0.010 C 
HETATM    8  C2  UNL     1       1.472   8.279  12.807  1.00  0.00    -0.035 C 
HETATM    9  C1  UNL     1       1.701   9.653  13.498  1.00  0.00     0.016 C 
HETATM   10  C29 UNL     1      -0.042   7.962  12.536  1.00  0.00     0.012 C 
HETATM   11  C37 UNL     1       2.278   8.369  11.435  1.00  0.00     0.010 C 
HETATM   12  C30 UNL     1      -0.560   8.783  11.352  1.00  0.00     0.008 C 
HETATM   13  C31 UNL     1       0.091   8.322  10.043  1.00  0.00     0.018 C 
HETATM   14  C32 UNL     1       1.537   7.827  10.182  1.00  0.00     0.028 C 
HETATM   15  C33 UNL     1       2.342   8.220   8.918  1.00  0.00     0.026 C 
HETATM   16  C40 UNL     1       1.695   6.300  10.082  1.00  0.00     0.172 C 
HETATM   17  C34 UNL     1       3.561   7.297   9.000  1.00  0.00     0.031 C 
HETATM   18  C35 UNL     1       4.449   7.791  10.156  1.00  0.00     0.009 C 
HETATM   19  C38 UNL     1       2.893   5.922   9.209  1.00  0.00     0.143 C 
HETATM   20  C36 UNL     1       3.733   7.845  11.513  1.00  0.00     0.007 C 
HETATM   21  O10 UNL     1       0.952   5.469  10.593  1.00  0.00    -0.294 OA
HETATM   22  C7  UNL     1      -2.364   7.368  13.449  1.00  0.00     0.026 C 
BRANCH  19  23
HETATM   23  O8  UNL     1       2.399   5.465   7.937  1.00  0.00    -0.379 OA
HETATM   24  H53 UNL     1       1.772   4.739   8.124  1.00  0.00     0.211 HD
ENDBRANCH  19  23
BRANCH  19  25
HETATM   25  C39 UNL     1       3.759   4.810   9.798  1.00  0.00     0.210 C 
BRANCH  25  26
HETATM   26  O9  UNL     1       3.122   3.544   9.618  1.00  0.00    -0.397 OA
HETATM   27  H56 UNL     1       2.188   3.670   9.877  1.00  0.00     0.209 HD
ENDBRANCH  25  26
ENDBRANCH  19  25
ENDBRANCH   2   4
ENDBRANCH   1   2
BRANCH   1  28
HETATM   28  C9  UNL     1      -0.113   9.734  16.503  1.00  0.00     0.227 C 
BRANCH  28  29
HETATM   29  C10 UNL     1      -0.375  11.197  16.857  1.00  0.00     0.171 C 
HETATM   30  C11 UNL     1       0.035  11.559  18.286  1.00  0.00     0.175 C 
HETATM   31  O4  UNL     1      -0.241  10.864  19.257  1.00  0.00    -0.294 OA
HETATM   32  C12 UNL     1       0.805  12.896  18.344  1.00  0.00     0.037 C 
HETATM   33  C13 UNL     1       0.351  13.789  19.511  1.00  0.00     0.019 C 
HETATM   34  C23 UNL     1       2.350  12.615  18.316  1.00  0.00     0.003 C 
HETATM   35  C28 UNL     1       0.295  13.478  17.007  1.00  0.00     0.059 C 
HETATM   36  C14 UNL     1       1.261  13.765  20.745  1.00  0.00     0.010 C 
HETATM   37  C15 UNL     1       1.937  12.411  20.926  1.00  0.00     0.040 C 
HETATM   38  C16 UNL     1       2.968  12.306  22.057  1.00  0.00     0.051 C 
HETATM   39  C21 UNL     1       2.816  12.012  19.725  1.00  0.00     0.084 C 
HETATM   40  C17 UNL     1       2.630  13.077  23.328  1.00  0.00     0.026 C 
HETATM   41  C18 UNL     1       3.303  10.830  22.362  1.00  0.00     0.020 C 
HETATM   42  C22 UNL     1       4.192  12.868  21.379  1.00  0.00     0.268 C 
HETATM   43  C19 UNL     1       3.001   9.875  21.202  1.00  0.00     0.004 C 
HETATM   44  C20 UNL     1       3.045  10.478  19.785  1.00  0.00     0.040 C 
HETATM   45  O5  UNL     1       4.105  12.601  20.044  1.00  0.00    -0.308 OA
HETATM   46  O6  UNL     1       5.137  13.428  21.907  1.00  0.00    -0.264 OA
HETATM   47  C24 UNL     1       3.120  13.950  18.025  1.00  0.00     0.019 C 
HETATM   48  C25 UNL     1       2.705  11.689  17.106  1.00  0.00     0.016 C 
HETATM   49  C26 UNL     1       1.907  11.989  15.826  1.00  0.00     0.042 C 
HETATM   50  C27 UNL     1       0.414  12.275  16.068  1.00  0.00     0.099 C 
BRANCH  29  51
HETATM   51  O3  UNL     1      -1.783  11.483  16.714  1.00  0.00    -0.377 OA
HETATM   52  H15 UNL     1      -2.260  10.886  17.322  1.00  0.00     0.211 HD
ENDBRANCH  29  51
BRANCH  50  53
HETATM   53  O7  UNL     1      -0.210  12.584  14.826  1.00  0.00    -0.386 OA
HETATM   54  H37 UNL     1      -1.170  12.442  14.963  1.00  0.00     0.210 HD
ENDBRANCH  50  53
ENDBRANCH  28  29
ENDBRANCH   1  28
TORSDOF 9
ENDMDL
MODEL 7
REMARK minimizedAffinity -9.0259819
REMARK CNNscore 0.378949076
REMARK CNNaffinity 6.17415619
REMARK  9 active torsions:
REMARK  status: ('A' for Active; 'I' for Inactive)
REMARK    1  A    between atoms: C6_6  and  C8_8 
REMARK    2  A    between atoms: C8_8  and  O2_10 
REMARK    3  A    between atoms: O2_10  and  C9_11 
REMARK    4  A    between atoms: C9_11  and  C10_12 
REMARK    5  A    between atoms: C10_12  and  O3_13 
REMARK    6  A    between atoms: C27_33  and  O7_34 
REMARK    7  A    between atoms: C38_45  and  O8_46 
REMARK    8  A    between atoms: C38_45  and  C39_47 
REMARK    9  A    between atoms: C39_47  and  O9_48 
ROOT
HETATM    1  O2  UNL     1       0.371   9.692  16.810  1.00  0.00    -0.317 OA
ENDROOT
BRANCH   1   2
HETATM    2  C8  UNL     1       1.409  10.478  17.195  1.00  0.00     0.267 C 
HETATM    3  O1  UNL     1       2.427  10.633  16.531  1.00  0.00    -0.264 OA
BRANCH   2   4
HETATM    4  C6  UNL     1       1.186  11.091  18.584  1.00  0.00     0.049 C 
HETATM    5  C5  UNL     1      -0.159  10.685  19.252  1.00  0.00     0.020 C 
HETATM    6  C4  UNL     1      -1.387  11.397  18.690  1.00  0.00     0.002 C 
HETATM    7  C3  UNL     1      -1.225  12.919  18.649  1.00  0.00     0.010 C 
HETATM    8  C2  UNL     1       0.052  13.387  17.902  1.00  0.00    -0.035 C 
HETATM    9  C1  UNL     1      -0.125  13.025  16.400  1.00  0.00     0.016 C 
HETATM   10  C29 UNL     1       1.262  12.653  18.581  1.00  0.00     0.012 C 
HETATM   11  C37 UNL     1       0.273  14.965  17.922  1.00  0.00     0.010 C 
HETATM   12  C30 UNL     1       2.587  13.284  18.146  1.00  0.00     0.008 C 
HETATM   13  C31 UNL     1       2.728  14.701  18.712  1.00  0.00     0.018 C 
HETATM   14  C32 UNL     1       1.409  15.474  18.850  1.00  0.00     0.028 C 
HETATM   15  C33 UNL     1       1.656  16.976  18.559  1.00  0.00     0.026 C 
HETATM   16  C40 UNL     1       0.903  15.608  20.297  1.00  0.00     0.172 C 
HETATM   17  C34 UNL     1       0.417  17.640  19.165  1.00  0.00     0.031 C 
HETATM   18  C35 UNL     1      -0.787  17.297  18.271  1.00  0.00     0.009 C 
HETATM   19  C38 UNL     1       0.398  17.024  20.580  1.00  0.00     0.143 C 
HETATM   20  C36 UNL     1      -1.026  15.790  18.098  1.00  0.00     0.007 C 
HETATM   21  O10 UNL     1       0.922  14.724  21.146  1.00  0.00    -0.294 OA
HETATM   22  C7  UNL     1       2.310  10.482  19.459  1.00  0.00     0.026 C 
BRANCH  19  23
HETATM   23  O8  UNL     1       1.384  17.704  21.378  1.00  0.00    -0.379 OA
HETATM   24  H53 UNL     1       1.536  17.148  22.168  1.00  0.00     0.211 HD
ENDBRANCH  19  23
BRANCH  19  25
HETATM   25  C39 UNL     1      -0.925  17.067  21.340  1.00  0.00     0.210 C 
BRANCH  25  26
HETATM   26  O9  UNL     1      -1.511  15.765  21.380  1.00  0.00    -0.397 OA
HETATM   27  H56 UNL     1      -1.442  15.407  20.473  1.00  0.00     0.209 HD
ENDBRANCH  25  26
ENDBRANCH  19  25
ENDBRANCH   2   4
ENDBRANCH   1   2
BRANCH   1  28
HETATM   28  C9  UNL     1       0.659   8.665  15.844  1.00  0.00     0.227 C 
BRANCH  28  29
HETATM   29  C10 UNL     1      -0.377   8.728  14.723  1.00  0.00     0.171 C 
HETATM   30  C11 UNL     1       0.241   8.869  13.331  1.00  0.00     0.175 C 
HETATM   31  O4  UNL     1       1.143   9.659  13.077  1.00  0.00    -0.294 OA
HETATM   32  C12 UNL     1      -0.422   7.923  12.306  1.00  0.00     0.037 C 
HETATM   33  C13 UNL     1      -0.696   8.611  10.958  1.00  0.00     0.019 C 
HETATM   34  C23 UNL     1       0.417   6.601  12.192  1.00  0.00     0.003 C 
HETATM   35  C28 UNL     1      -1.749   7.706  13.066  1.00  0.00     0.059 C 
HETATM   36  C14 UNL     1       0.323   8.311   9.852  1.00  0.00     0.010 C 
HETATM   37  C15 UNL     1       1.719   8.075  10.416  1.00  0.00     0.040 C 
HETATM   38  C16 UNL     1       2.798   7.643   9.414  1.00  0.00     0.051 C 
HETATM   39  C21 UNL     1       1.779   6.891  11.400  1.00  0.00     0.084 C 
HETATM   40  C17 UNL     1       2.717   8.296   8.039  1.00  0.00     0.026 C 
HETATM   41  C18 UNL     1       4.208   7.786  10.027  1.00  0.00     0.020 C 
HETATM   42  C22 UNL     1       2.538   6.160   9.338  1.00  0.00     0.268 C 
HETATM   43  C19 UNL     1       4.219   7.786  11.560  1.00  0.00     0.004 C 
HETATM   44  C20 UNL     1       3.065   7.041  12.256  1.00  0.00     0.040 C 
HETATM   45  O5  UNL     1       2.029   5.751  10.535  1.00  0.00    -0.308 OA
HETATM   46  O6  UNL     1       2.773   5.417   8.401  1.00  0.00    -0.264 OA
HETATM   47  C24 UNL     1      -0.421   5.513  11.434  1.00  0.00     0.019 C 
HETATM   48  C25 UNL     1       0.654   5.991  13.613  1.00  0.00     0.016 C 
HETATM   49  C26 UNL     1      -0.551   6.113  14.561  1.00  0.00     0.042 C 
HETATM   50  C27 UNL     1      -1.265   7.476  14.499  1.00  0.00     0.099 C 
BRANCH  29  51
HETATM   51  O3  UNL     1      -1.250   9.859  14.937  1.00  0.00    -0.377 OA
HETATM   52  H15 UNL     1      -0.688  10.658  14.939  1.00  0.00     0.211 HD
ENDBRANCH  29  51
BRANCH  50  53
HETATM   53  O7  UNL     1      -2.385   7.457  15.377  1.00  0.00    -0.386 OA
HETATM   54  H37 UNL     1      -2.607   8.396  15.553  1.00  0.00     0.210 HD
ENDBRANCH  50  53
ENDBRANCH  28  29
ENDBRANCH   1  28
TORSDOF 9
ENDMDL
MODEL 8
REMARK minimizedAffinity -7.81373644
REMARK CNNscore 0.363861263
REMARK CNNaffinity 6.52194929
REMARK  9 active torsions:
REMARK  status: ('A' for Active; 'I' for Inactive)
REMARK    1  A    between atoms: C6_6  and  C8_8 
REMARK    2  A    between atoms: C8_8  and  O2_10 
REMARK    3  A    between atoms: O2_10  and  C9_11 
REMARK    4  A    between atoms: C9_11  and  C10_12 
REMARK    5  A    between atoms: C10_12  and  O3_13 
REMARK    6  A    between atoms: C27_33  and  O7_34 
REMARK    7  A    between atoms: C38_45  and  O8_46 
REMARK    8  A    between atoms: C38_45  and  C39_47 
REMARK    9  A    between atoms: C39_47  and  O9_48 
ROOT
HETATM    1  O2  UNL     1       3.316  15.904   1.228  1.00  0.00    -0.317 OA
ENDROOT
BRANCH   1   2
HETATM    2  C8  UNL     1       4.481  16.421   0.760  1.00  0.00     0.267 C 
HETATM    3  O1  UNL     1       4.772  17.610   0.829  1.00  0.00    -0.264 OA
BRANCH   2   4
HETATM    4  C6  UNL     1       5.352  15.359   0.076  1.00  0.00     0.049 C 
HETATM    5  C5  UNL     1       6.773  15.854  -0.314  1.00  0.00     0.020 C 
HETATM    6  C4  UNL     1       6.817  16.751  -1.549  1.00  0.00     0.002 C 
HETATM    7  C3  UNL     1       6.092  16.142  -2.753  1.00  0.00     0.010 C 
HETATM    8  C2  UNL     1       4.630  15.722  -2.448  1.00  0.00    -0.035 C 
HETATM    9  C1  UNL     1       3.815  17.020  -2.185  1.00  0.00     0.016 C 
HETATM   10  C29 UNL     1       4.688  14.761  -1.208  1.00  0.00     0.012 C 
HETATM   11  C37 UNL     1       3.891  15.013  -3.670  1.00  0.00     0.010 C 
HETATM   12  C30 UNL     1       3.353  14.034  -1.027  1.00  0.00     0.008 C 
HETATM   13  C31 UNL     1       3.111  13.045  -2.172  1.00  0.00     0.018 C 
HETATM   14  C32 UNL     1       3.679  13.481  -3.530  1.00  0.00     0.028 C 
HETATM   15  C33 UNL     1       2.735  13.003  -4.663  1.00  0.00     0.026 C 
HETATM   16  C40 UNL     1       4.946  12.721  -3.960  1.00  0.00     0.172 C 
HETATM   17  C34 UNL     1       3.630  13.098  -5.902  1.00  0.00     0.031 C 
HETATM   18  C35 UNL     1       3.840  14.589  -6.219  1.00  0.00     0.009 C 
HETATM   19  C38 UNL     1       4.884  12.328  -5.437  1.00  0.00     0.143 C 
HETATM   20  C36 UNL     1       4.453  15.391  -5.063  1.00  0.00     0.007 C 
HETATM   21  O10 UNL     1       5.883  12.422  -3.229  1.00  0.00    -0.294 OA
HETATM   22  C7  UNL     1       5.550  14.269   1.158  1.00  0.00     0.026 C 
BRANCH  19  23
HETATM   23  O8  UNL     1       4.600  10.919  -5.518  1.00  0.00    -0.379 OA
HETATM   24  H53 UNL     1       5.288  10.465  -4.993  1.00  0.00     0.211 HD
ENDBRANCH  19  23
BRANCH  19  25
HETATM   25  C39 UNL     1       6.180  12.585  -6.199  1.00  0.00     0.210 C 
BRANCH  25  26
HETATM   26  O9  UNL     1       7.137  11.567  -5.901  1.00  0.00    -0.397 OA
HETATM   27  H56 UNL     1       7.116  11.450  -4.931  1.00  0.00     0.209 HD
ENDBRANCH  25  26
ENDBRANCH  19  25
ENDBRANCH   2   4
ENDBRANCH   1   2
BRANCH   1  28
HETATM   28  C9  UNL     1       2.731  16.552   2.372  1.00  0.00     0.227 C 
BRANCH  28  29
HETATM   29  C10 UNL     1       2.135  15.493   3.298  1.00  0.00     0.171 C 
HETATM   30  C11 UNL     1       0.922  15.989   4.088  1.00  0.00     0.175 C 
HETATM   31  O4  UNL     1       0.896  17.072   4.662  1.00  0.00    -0.294 OA
HETATM   32  C12 UNL     1      -0.228  14.960   4.087  1.00  0.00     0.037 C 
HETATM   33  C13 UNL     1      -0.880  14.800   5.471  1.00  0.00     0.019 C 
HETATM   34  C23 UNL     1      -1.241  15.305   2.938  1.00  0.00     0.003 C 
HETATM   35  C28 UNL     1       0.621  13.713   3.758  1.00  0.00     0.059 C 
HETATM   36  C14 UNL     1      -2.200  15.556   5.663  1.00  0.00     0.010 C 
HETATM   37  C15 UNL     1      -2.240  16.844   4.849  1.00  0.00     0.040 C 
HETATM   38  C16 UNL     1      -3.562  17.623   4.864  1.00  0.00     0.051 C 
HETATM   39  C21 UNL     1      -2.088  16.606   3.335  1.00  0.00     0.084 C 
HETATM   40  C17 UNL     1      -4.305  17.631   6.196  1.00  0.00     0.026 C 
HETATM   41  C18 UNL     1      -3.365  19.053   4.317  1.00  0.00     0.020 C 
HETATM   42  C22 UNL     1      -4.338  16.886   3.803  1.00  0.00     0.268 C 
HETATM   43  C19 UNL     1      -2.132  19.208   3.420  1.00  0.00     0.004 C 
HETATM   44  C20 UNL     1      -1.659  17.944   2.677  1.00  0.00     0.040 C 
HETATM   45  O5  UNL     1      -3.454  16.386   2.892  1.00  0.00    -0.308 OA
HETATM   46  O6  UNL     1      -5.549  16.775   3.717  1.00  0.00    -0.264 OA
HETATM   47  C24 UNL     1      -2.205  14.090   2.707  1.00  0.00     0.019 C 
HETATM   48  C25 UNL     1      -0.480  15.461   1.580  1.00  0.00     0.016 C 
HETATM   49  C26 UNL     1       0.668  14.458   1.381  1.00  0.00     0.042 C 
HETATM   50  C27 UNL     1       1.527  14.227   2.637  1.00  0.00     0.099 C 
BRANCH  29  51
HETATM   51  O3  UNL     1       3.136  15.063   4.245  1.00  0.00    -0.377 OA
HETATM   52  H15 UNL     1       3.410  15.853   4.750  1.00  0.00     0.211 HD
ENDBRANCH  29  51
BRANCH  50  53
HETATM   53  O7  UNL     1       2.523  13.251   2.350  1.00  0.00    -0.386 OA
HETATM   54  H37 UNL     1       3.219  13.366   3.031  1.00  0.00     0.210 HD
ENDBRANCH  50  53
ENDBRANCH  28  29
ENDBRANCH   1  28
TORSDOF 9
ENDMDL
MODEL 9
REMARK minimizedAffinity -10.162303
REMARK CNNscore 0.339874148
REMARK CNNaffinity 6.77221823
REMARK  9 active torsions:
REMARK  status: ('A' for Active; 'I' for Inactive)
REMARK    1  A    between atoms: C6_6  and  C8_8 
REMARK    2  A    between atoms: C8_8  and  O2_10 
REMARK    3  A    between atoms: O2_10  and  C9_11 
REMARK    4  A    between atoms: C9_11  and  C10_12 
REMARK    5  A    between atoms: C10_12  and  O3_13 
REMARK    6  A    between atoms: C27_33  and  O7_34 
REMARK    7  A    between atoms: C38_45  and  O8_46 
REMARK    8  A    between atoms: C38_45  and  C39_47 
REMARK    9  A    between atoms: C39_47  and  O9_48 
ROOT
HETATM    1  O2  UNL     1       0.355   9.408  16.292  1.00  0.00    -0.317 OA
ENDROOT
BRANCH   1   2
HETATM    2  C8  UNL     1       1.436   9.758  17.036  1.00  0.00     0.267 C 
HETATM    3  O1  UNL     1       2.303   8.967  17.388  1.00  0.00    -0.264 OA
BRANCH   2   4
HETATM    4  C6  UNL     1       1.406  11.239  17.438  1.00  0.00     0.049 C 
HETATM    5  C5  UNL     1       1.771  11.503  18.926  1.00  0.00     0.020 C 
HETATM    6  C4  UNL     1       0.666  11.162  19.922  1.00  0.00     0.002 C 
HETATM    7  C3  UNL     1      -0.679  11.800  19.560  1.00  0.00     0.010 C 
HETATM    8  C2  UNL     1      -1.145  11.483  18.114  1.00  0.00    -0.035 C 
HETATM    9  C1  UNL     1      -1.463   9.963  18.047  1.00  0.00     0.016 C 
HETATM   10  C29 UNL     1       0.024  11.918  17.161  1.00  0.00     0.012 C 
HETATM   11  C37 UNL     1      -2.503  12.207  17.698  1.00  0.00     0.010 C 
HETATM   12  C30 UNL     1      -0.453  11.956  15.706  1.00  0.00     0.008 C 
HETATM   13  C31 UNL     1      -1.462  13.090  15.493  1.00  0.00     0.018 C 
HETATM   14  C32 UNL     1      -2.357  13.391  16.703  1.00  0.00     0.028 C 
HETATM   15  C33 UNL     1      -3.767  13.806  16.212  1.00  0.00     0.026 C 
HETATM   16  C40 UNL     1      -1.993  14.683  17.454  1.00  0.00     0.172 C 
HETATM   17  C34 UNL     1      -4.361  14.489  17.448  1.00  0.00     0.031 C 
HETATM   18  C35 UNL     1      -4.654  13.399  18.494  1.00  0.00     0.009 C 
HETATM   19  C38 UNL     1      -3.243  15.487  17.815  1.00  0.00     0.143 C 
HETATM   20  C36 UNL     1      -3.426  12.567  18.888  1.00  0.00     0.007 C 
HETATM   21  O10 UNL     1      -0.857  15.064  17.711  1.00  0.00    -0.294 OA
HETATM   22  C7  UNL     1       2.525  11.891  16.590  1.00  0.00     0.026 C 
BRANCH  19  23
HETATM   23  O8  UNL     1      -3.333  16.610  16.920  1.00  0.00    -0.379 OA
HETATM   24  H53 UNL     1      -2.487  17.095  16.994  1.00  0.00     0.211 HD
ENDBRANCH  19  23
BRANCH  19  25
HETATM   25  C39 UNL     1      -3.237  16.030  19.242  1.00  0.00     0.210 C 
BRANCH  25  26
HETATM   26  O9  UNL     1      -2.228  15.375  20.012  1.00  0.00    -0.397 OA
HETATM   27  H56 UNL     1      -2.312  14.421  19.817  1.00  0.00     0.209 HD
ENDBRANCH  25  26
ENDBRANCH  19  25
ENDBRANCH   2   4
ENDBRANCH   1   2
BRANCH   1  28
HETATM   28  C9  UNL     1       0.431   8.156  15.587  1.00  0.00     0.227 C 
BRANCH  28  29
HETATM   29  C10 UNL     1      -0.581   8.164  14.442  1.00  0.00     0.171 C 
HETATM   30  C11 UNL     1       0.050   8.435  13.075  1.00  0.00     0.175 C 
HETATM   31  O4  UNL     1       0.870   9.325  12.881  1.00  0.00    -0.294 OA
HETATM   32  C12 UNL     1      -0.486   7.475  11.991  1.00  0.00     0.037 C 
HETATM   33  C13 UNL     1      -0.801   8.194  10.668  1.00  0.00     0.019 C 
HETATM   34  C23 UNL     1       0.489   6.254  11.841  1.00  0.00     0.003 C 
HETATM   35  C28 UNL     1      -1.800   7.085  12.703  1.00  0.00     0.059 C 
HETATM   36  C14 UNL     1       0.269   8.054   9.579  1.00  0.00     0.010 C 
HETATM   37  C15 UNL     1       1.669   7.938  10.169  1.00  0.00     0.040 C 
HETATM   38  C16 UNL     1       2.810   7.668   9.179  1.00  0.00     0.051 C 
HETATM   39  C21 UNL     1       1.831   6.721  11.100  1.00  0.00     0.084 C 
HETATM   40  C17 UNL     1       2.691   8.374   7.833  1.00  0.00     0.026 C 
HETATM   41  C18 UNL     1       4.183   7.928   9.836  1.00  0.00     0.020 C 
HETATM   42  C22 UNL     1       2.708   6.171   9.029  1.00  0.00     0.268 C 
HETATM   43  C19 UNL     1       4.159   7.856  11.367  1.00  0.00     0.004 C 
HETATM   44  C20 UNL     1       3.074   6.962  11.997  1.00  0.00     0.040 C 
HETATM   45  O5  UNL     1       2.219   5.655  10.192  1.00  0.00    -0.308 OA
HETATM   46  O6  UNL     1       3.041   5.502   8.067  1.00  0.00    -0.264 OA
HETATM   47  C24 UNL     1      -0.212   5.122  11.012  1.00  0.00     0.019 C 
HETATM   48  C25 UNL     1       0.757   5.604  13.239  1.00  0.00     0.016 C 
HETATM   49  C26 UNL     1      -0.476   5.556  14.158  1.00  0.00     0.042 C 
HETATM   50  C27 UNL     1      -1.327   6.839  14.138  1.00  0.00     0.099 C 
BRANCH  29  51
HETATM   51  O3  UNL     1      -1.572   9.187  14.683  1.00  0.00    -0.377 OA
HETATM   52  H15 UNL     1      -1.097  10.039  14.735  1.00  0.00     0.211 HD
ENDBRANCH  29  51
BRANCH  50  53
HETATM   53  O7  UNL     1      -2.459   6.662  14.984  1.00  0.00    -0.386 OA
HETATM   54  H37 UNL     1      -2.782   7.563  15.195  1.00  0.00     0.210 HD
ENDBRANCH  50  53
ENDBRANCH  28  29
ENDBRANCH   1  28
TORSDOF 9
ENDMDL
