MODEL 1
REMARK minimizedAffinity -9.41866398
REMARK  8 active torsions:
REMARK  status: ('A' for Active; 'I' for Inactive)
REMARK    1  A    between atoms: C2_2  and  O1_3 
REMARK    2  A    between atoms: O1_3  and  C3_4 
REMARK    3  A    between atoms: C3_4  and  C4_6 
REMARK    4  A    between atoms: C4_6  and  O3_7 
REMARK    5  A    between atoms: C6_11  and  C7_12 
REMARK    6  A    between atoms: C7_12  and  C8_13 
REMARK    7  A    between atoms: C19_25  and  C20_26 
REMARK    8  A    between atoms: C23_29  and  O7_30 
ROOT
HETATM    1  C4  UNL     1      -2.374  52.170 -26.142  1.00  0.00     0.291 A 
HETATM    2  O4  UNL     1      -2.723  52.068 -27.520  1.00  0.00    -0.265 OA
HETATM    3  C5  UNL     1      -3.017  50.779 -27.820  1.00  0.00     0.293 A 
HETATM    4  O5  UNL     1      -3.343  50.373 -28.920  1.00  0.00    -0.259 OA
HETATM    5  C6  UNL     1      -2.889  49.944 -26.621  1.00  0.00     0.034 A 
HETATM    6  C19 UNL     1      -2.480  50.763 -25.648  1.00  0.00     0.037 A 
ENDROOT
BRANCH   5   7
HETATM    7  C7  UNL     1      -3.158  48.482 -26.656  1.00  0.00     0.084 C 
BRANCH   7   8
HETATM    8  C8  UNL     1      -4.637  48.179 -26.644  1.00  0.00    -0.053 A 
HETATM    9  C9  UNL     1      -5.313  47.876 -27.833  1.00  0.00     0.010 A 
HETATM   10  C10 UNL     1      -6.670  47.553 -27.808  1.00  0.00     0.038 A 
HETATM   11  C11 UNL     1      -7.365  47.523 -26.600  1.00  0.00     0.076 A 
HETATM   12  O6  UNL     1      -8.689  47.186 -26.687  1.00  0.00    -0.340 OA
HETATM   13  C17 UNL     1      -6.714  47.840 -25.406  1.00  0.00    -0.024 A 
HETATM   14  C12 UNL     1      -9.376  46.914 -25.451  1.00  0.00     0.061 C 
HETATM   15  C13 UNL     1     -10.868  47.131 -25.746  1.00  0.00     0.046 C 
HETATM   16  C14 UNL     1      -9.163  45.439 -25.077  1.00  0.00     0.046 C 
HETATM   17  C15 UNL     1      -8.949  47.879 -24.335  1.00  0.00     0.042 C 
HETATM   18  C16 UNL     1      -7.447  47.816 -24.098  1.00  0.00     0.044 C 
HETATM   19  C18 UNL     1      -5.347  48.153 -25.433  1.00  0.00     0.017 A 
ENDBRANCH   7   8
ENDBRANCH   5   7
BRANCH   6  20
HETATM   20  C20 UNL     1      -2.129  50.360 -24.287  1.00  0.00    -0.023 A 
HETATM   21  C21 UNL     1      -2.684  49.188 -23.746  1.00  0.00     0.015 A 
HETATM   22  C22 UNL     1      -2.363  48.780 -22.449  1.00  0.00     0.037 A 
HETATM   23  C23 UNL     1      -1.483  49.543 -21.691  1.00  0.00     0.065 A 
HETATM   24  C24 UNL     1      -0.921  50.703 -22.211  1.00  0.00     0.037 A 
HETATM   25  C25 UNL     1      -1.242  51.112 -23.507  1.00  0.00     0.015 A 
BRANCH  23  26
HETATM   26  O7  UNL     1      -1.141  49.186 -20.422  1.00  0.00    -0.361 OA
HETATM   27  H24 UNL     1      -1.602  48.363 -20.191  1.00  0.00     0.217 HD
ENDBRANCH  23  26
ENDBRANCH   6  20
BRANCH   1  28
HETATM   28  C3  UNL     1      -0.879  52.614 -26.011  1.00  0.00     0.328 C 
HETATM   29  O2  UNL     1      -0.505  53.694 -25.562  1.00  0.00    -0.259 OA
BRANCH  28  30
HETATM   30  O1  UNL     1      -0.043  51.664 -26.527  1.00  0.00    -0.317 OA
BRANCH  30  31
HETATM   31  C2  UNL     1       1.082  52.185 -27.241  1.00  0.00     0.174 C 
HETATM   32  C1  UNL     1       2.335  51.544 -26.679  1.00  0.00     0.034 C 
ENDBRANCH  30  31
ENDBRANCH  28  30
ENDBRANCH   1  28
BRANCH   1  33
HETATM   33  O3  UNL     1      -3.319  53.019 -25.516  1.00  0.00    -0.353 OA
HETATM   34  H6  UNL     1      -4.071  52.471 -25.246  1.00  0.00     0.214 HD
ENDBRANCH   1  33
TORSDOF 8
ENDMDL
MODEL 2
REMARK minimizedAffinity -9.34415054
REMARK  8 active torsions:
REMARK  status: ('A' for Active; 'I' for Inactive)
REMARK    1  A    between atoms: C2_2  and  O1_3 
REMARK    2  A    between atoms: O1_3  and  C3_4 
REMARK    3  A    between atoms: C3_4  and  C4_6 
REMARK    4  A    between atoms: C4_6  and  O3_7 
REMARK    5  A    between atoms: C6_11  and  C7_12 
REMARK    6  A    between atoms: C7_12  and  C8_13 
REMARK    7  A    between atoms: C19_25  and  C20_26 
REMARK    8  A    between atoms: C23_29  and  O7_30 
ROOT
HETATM    1  C4  UNL     1      -2.273  52.134 -26.720  1.00  0.00     0.291 A 
HETATM    2  O4  UNL     1      -2.896  51.494 -27.831  1.00  0.00    -0.265 OA
HETATM    3  C5  UNL     1      -3.107  50.187 -27.542  1.00  0.00     0.293 A 
HETATM    4  O5  UNL     1      -3.616  49.377 -28.294  1.00  0.00    -0.259 OA
HETATM    5  C6  UNL     1      -2.636  49.891 -26.184  1.00  0.00     0.034 A 
HETATM    6  C19 UNL     1      -2.119  51.033 -25.722  1.00  0.00     0.037 A 
ENDROOT
BRANCH   5   7
HETATM    7  C7  UNL     1      -2.748  48.529 -25.599  1.00  0.00     0.084 C 
BRANCH   7   8
HETATM    8  C8  UNL     1      -4.041  48.345 -24.840  1.00  0.00    -0.053 A 
HETATM    9  C9  UNL     1      -5.262  48.259 -25.523  1.00  0.00     0.010 A 
HETATM   10  C10 UNL     1      -6.447  48.043 -24.819  1.00  0.00     0.038 A 
HETATM   11  C11 UNL     1      -6.428  47.905 -23.432  1.00  0.00     0.076 A 
HETATM   12  O6  UNL     1      -7.643  47.688 -22.841  1.00  0.00    -0.340 OA
HETATM   13  C17 UNL     1      -5.224  48.006 -22.732  1.00  0.00    -0.024 A 
HETATM   14  C12 UNL     1      -7.637  47.307 -21.453  1.00  0.00     0.061 C 
HETATM   15  C13 UNL     1      -9.025  47.678 -20.911  1.00  0.00     0.046 C 
HETATM   16  C14 UNL     1      -7.468  45.783 -21.357  1.00  0.00     0.046 C 
HETATM   17  C15 UNL     1      -6.574  48.076 -20.654  1.00  0.00     0.042 C 
HETATM   18  C16 UNL     1      -5.185  47.863 -21.240  1.00  0.00     0.044 C 
HETATM   19  C18 UNL     1      -4.032  48.211 -23.443  1.00  0.00     0.017 A 
ENDBRANCH   7   8
ENDBRANCH   5   7
BRANCH   6  20
HETATM   20  C20 UNL     1      -1.442  51.202 -24.436  1.00  0.00    -0.023 A 
HETATM   21  C21 UNL     1      -0.491  52.225 -24.283  1.00  0.00     0.015 A 
HETATM   22  C22 UNL     1       0.168  52.409 -23.065  1.00  0.00     0.037 A 
HETATM   23  C23 UNL     1      -0.125  51.570 -21.997  1.00  0.00     0.065 A 
HETATM   24  C24 UNL     1      -1.065  50.555 -22.129  1.00  0.00     0.037 A 
HETATM   25  C25 UNL     1      -1.723  50.370 -23.346  1.00  0.00     0.015 A 
BRANCH  23  26
HETATM   26  O7  UNL     1       0.493  51.710 -20.790  1.00  0.00    -0.361 OA
HETATM   27  H24 UNL     1       1.118  52.452 -20.841  1.00  0.00     0.217 HD
ENDBRANCH  23  26
ENDBRANCH   6  20
BRANCH   1  28
HETATM   28  C3  UNL     1      -0.841  52.616 -27.129  1.00  0.00     0.328 C 
HETATM   29  O2  UNL     1      -0.467  53.786 -27.128  1.00  0.00    -0.259 OA
BRANCH  28  30
HETATM   30  O1  UNL     1      -0.077  51.565 -27.555  1.00  0.00    -0.317 OA
BRANCH  30  31
HETATM   31  C2  UNL     1       1.285  51.895 -27.840  1.00  0.00     0.174 C 
HETATM   32  C1  UNL     1       2.138  51.417 -26.682  1.00  0.00     0.034 C 
ENDBRANCH  30  31
ENDBRANCH  28  30
ENDBRANCH   1  28
BRANCH   1  33
HETATM   33  O3  UNL     1      -3.146  53.147 -26.255  1.00  0.00    -0.353 OA
HETATM   34  H6  UNL     1      -3.760  52.738 -25.627  1.00  0.00     0.214 HD
ENDBRANCH   1  33
TORSDOF 8
ENDMDL
MODEL 3
REMARK minimizedAffinity -9.28610516
REMARK  8 active torsions:
REMARK  status: ('A' for Active; 'I' for Inactive)
REMARK    1  A    between atoms: C2_2  and  O1_3 
REMARK    2  A    between atoms: O1_3  and  C3_4 
REMARK    3  A    between atoms: C3_4  and  C4_6 
REMARK    4  A    between atoms: C4_6  and  O3_7 
REMARK    5  A    between atoms: C6_11  and  C7_12 
REMARK    6  A    between atoms: C7_12  and  C8_13 
REMARK    7  A    between atoms: C19_25  and  C20_26 
REMARK    8  A    between atoms: C23_29  and  O7_30 
ROOT
HETATM    1  C4  UNL     1      -2.861  51.757 -26.429  1.00  0.00     0.291 A 
HETATM    2  O4  UNL     1      -3.920  51.866 -25.481  1.00  0.00    -0.265 OA
HETATM    3  C5  UNL     1      -3.406  52.129 -24.254  1.00  0.00     0.293 A 
HETATM    4  O5  UNL     1      -4.059  52.269 -23.237  1.00  0.00    -0.259 OA
HETATM    5  C6  UNL     1      -1.945  52.225 -24.333  1.00  0.00     0.034 A 
HETATM    6  C19 UNL     1      -1.631  51.974 -25.607  1.00  0.00     0.037 A 
ENDROOT
BRANCH   5   7
HETATM    7  C7  UNL     1      -1.115  52.513 -23.133  1.00  0.00     0.084 C 
BRANCH   7   8
HETATM    8  C8  UNL     1      -1.305  51.474 -22.054  1.00  0.00    -0.053 A 
HETATM    9  C9  UNL     1      -1.074  50.119 -22.321  1.00  0.00     0.010 A 
HETATM   10  C10 UNL     1      -1.207  49.170 -21.307  1.00  0.00     0.038 A 
HETATM   11  C11 UNL     1      -1.564  49.561 -20.017  1.00  0.00     0.076 A 
HETATM   12  O6  UNL     1      -1.658  48.553 -19.096  1.00  0.00    -0.340 OA
HETATM   13  C17 UNL     1      -1.816  50.905 -19.735  1.00  0.00    -0.024 A 
HETATM   14  C12 UNL     1      -1.789  48.939 -17.715  1.00  0.00     0.061 C 
HETATM   15  C13 UNL     1      -2.428  47.737 -17.004  1.00  0.00     0.046 C 
HETATM   16  C14 UNL     1      -0.388  49.166 -17.127  1.00  0.00     0.046 C 
HETATM   17  C15 UNL     1      -2.710  50.157 -17.548  1.00  0.00     0.042 C 
HETATM   18  C16 UNL     1      -2.204  51.344 -18.355  1.00  0.00     0.044 C 
HETATM   19  C18 UNL     1      -1.670  51.859 -20.754  1.00  0.00     0.017 A 
ENDBRANCH   7   8
ENDBRANCH   5   7
BRANCH   6  20
HETATM   20  C20 UNL     1      -0.275  51.869 -26.147  1.00  0.00    -0.023 A 
HETATM   21  C21 UNL     1       0.796  51.597 -25.279  1.00  0.00     0.015 A 
HETATM   22  C22 UNL     1       2.100  51.491 -25.769  1.00  0.00     0.037 A 
HETATM   23  C23 UNL     1       2.334  51.653 -27.129  1.00  0.00     0.065 A 
HETATM   24  C24 UNL     1       1.286  51.919 -28.002  1.00  0.00     0.037 A 
HETATM   25  C25 UNL     1      -0.018  52.027 -27.513  1.00  0.00     0.015 A 
BRANCH  23  26
HETATM   26  O7  UNL     1       3.588  51.560 -27.653  1.00  0.00    -0.361 OA
HETATM   27  H24 UNL     1       4.215  51.371 -26.936  1.00  0.00     0.217 HD
ENDBRANCH  23  26
ENDBRANCH   6  20
BRANCH   1  28
HETATM   28  C3  UNL     1      -2.811  50.298 -26.993  1.00  0.00     0.328 C 
HETATM   29  O2  UNL     1      -3.210  49.962 -28.106  1.00  0.00    -0.259 OA
BRANCH  28  30
HETATM   30  O1  UNL     1      -2.325  49.430 -26.055  1.00  0.00    -0.317 OA
BRANCH  30  31
HETATM   31  C2  UNL     1      -3.328  48.698 -25.345  1.00  0.00     0.174 C 
HETATM   32  C1  UNL     1      -4.425  48.330 -26.325  1.00  0.00     0.034 C 
ENDBRANCH  30  31
ENDBRANCH  28  30
ENDBRANCH   1  28
BRANCH   1  33
HETATM   33  O3  UNL     1      -3.035  52.778 -27.394  1.00  0.00    -0.353 OA
HETATM   34  H6  UNL     1      -2.601  53.576 -27.057  1.00  0.00     0.214 HD
ENDBRANCH   1  33
TORSDOF 8
ENDMDL
MODEL 4
REMARK minimizedAffinity -9.24103737
REMARK  8 active torsions:
REMARK  status: ('A' for Active; 'I' for Inactive)
REMARK    1  A    between atoms: C2_2  and  O1_3 
REMARK    2  A    between atoms: O1_3  and  C3_4 
REMARK    3  A    between atoms: C3_4  and  C4_6 
REMARK    4  A    between atoms: C4_6  and  O3_7 
REMARK    5  A    between atoms: C6_11  and  C7_12 
REMARK    6  A    between atoms: C7_12  and  C8_13 
REMARK    7  A    between atoms: C19_25  and  C20_26 
REMARK    8  A    between atoms: C23_29  and  O7_30 
ROOT
HETATM    1  C4  UNL     1      -2.436  52.119 -26.091  1.00  0.00     0.291 A 
HETATM    2  O4  UNL     1      -2.734  52.053 -27.484  1.00  0.00    -0.265 OA
HETATM    3  C5  UNL     1      -2.979  50.767 -27.835  1.00  0.00     0.293 A 
HETATM    4  O5  UNL     1      -3.255  50.390 -28.959  1.00  0.00    -0.259 OA
HETATM    5  C6  UNL     1      -2.868  49.896 -26.661  1.00  0.00     0.034 A 
HETATM    6  C19 UNL     1      -2.517  50.694 -25.648  1.00  0.00     0.037 A 
ENDROOT
BRANCH   5   7
HETATM    7  C7  UNL     1      -3.093  48.430 -26.753  1.00  0.00     0.084 C 
BRANCH   7   8
HETATM    8  C8  UNL     1      -4.535  48.097 -27.055  1.00  0.00    -0.053 A 
HETATM    9  C9  UNL     1      -5.511  48.183 -26.054  1.00  0.00     0.010 A 
HETATM   10  C10 UNL     1      -6.848  47.919 -26.352  1.00  0.00     0.038 A 
HETATM   11  C11 UNL     1      -7.227  47.573 -27.648  1.00  0.00     0.076 A 
HETATM   12  O6  UNL     1      -8.563  47.343 -27.834  1.00  0.00    -0.340 OA
HETATM   13  C17 UNL     1      -6.266  47.465 -28.656  1.00  0.00    -0.024 A 
HETATM   14  C12 UNL     1      -9.022  47.219 -29.193  1.00  0.00     0.061 C 
HETATM   15  C13 UNL     1     -10.339  46.432 -29.119  1.00  0.00     0.046 C 
HETATM   16  C14 UNL     1      -9.323  48.620 -29.747  1.00  0.00     0.046 C 
HETATM   17  C15 UNL     1      -8.028  46.435 -30.063  1.00  0.00     0.042 C 
HETATM   18  C16 UNL     1      -6.655  47.091 -30.055  1.00  0.00     0.044 C 
HETATM   19  C18 UNL     1      -4.924  47.743 -28.356  1.00  0.00     0.017 A 
ENDBRANCH   7   8
ENDBRANCH   5   7
BRANCH   6  20
HETATM   20  C20 UNL     1      -2.201  50.255 -24.288  1.00  0.00    -0.023 A 
HETATM   21  C21 UNL     1      -1.355  51.040 -23.487  1.00  0.00     0.015 A 
HETATM   22  C22 UNL     1      -1.038  50.645 -22.185  1.00  0.00     0.037 A 
HETATM   23  C23 UNL     1      -1.571  49.464 -21.682  1.00  0.00     0.065 A 
HETATM   24  C24 UNL     1      -2.411  48.677 -22.459  1.00  0.00     0.037 A 
HETATM   25  C25 UNL     1      -2.727  49.071 -23.761  1.00  0.00     0.015 A 
BRANCH  23  26
HETATM   26  O7  UNL     1      -1.290  49.037 -20.419  1.00  0.00    -0.361 OA
HETATM   27  H24 UNL     1      -0.697  49.679 -19.994  1.00  0.00     0.217 HD
ENDBRANCH  23  26
ENDBRANCH   6  20
BRANCH   1  28
HETATM   28  C3  UNL     1      -0.959  52.600 -25.894  1.00  0.00     0.328 C 
HETATM   29  O2  UNL     1      -0.633  53.692 -25.436  1.00  0.00    -0.259 OA
BRANCH  28  30
HETATM   30  O1  UNL     1      -0.077  51.667 -26.363  1.00  0.00    -0.317 OA
BRANCH  30  31
HETATM   31  C2  UNL     1       1.280  51.874 -25.959  1.00  0.00     0.174 C 
HETATM   32  C1  UNL     1       2.162  51.746 -27.185  1.00  0.00     0.034 C 
ENDBRANCH  30  31
ENDBRANCH  28  30
ENDBRANCH   1  28
BRANCH   1  33
HETATM   33  O3  UNL     1      -3.425  52.919 -25.472  1.00  0.00    -0.353 OA
HETATM   34  H6  UNL     1      -4.170  52.342 -25.247  1.00  0.00     0.214 HD
ENDBRANCH   1  33
TORSDOF 8
ENDMDL
MODEL 5
REMARK minimizedAffinity -8.82908249
REMARK  8 active torsions:
REMARK  status: ('A' for Active; 'I' for Inactive)
REMARK    1  A    between atoms: C2_2  and  O1_3 
REMARK    2  A    between atoms: O1_3  and  C3_4 
REMARK    3  A    between atoms: C3_4  and  C4_6 
REMARK    4  A    between atoms: C4_6  and  O3_7 
REMARK    5  A    between atoms: C6_11  and  C7_12 
REMARK    6  A    between atoms: C7_12  and  C8_13 
REMARK    7  A    between atoms: C19_25  and  C20_26 
REMARK    8  A    between atoms: C23_29  and  O7_30 
ROOT
HETATM    1  C4  UNL     1      -1.848  52.088 -24.171  1.00  0.00     0.291 A 
HETATM    2  O4  UNL     1      -1.926  52.450 -25.547  1.00  0.00    -0.265 OA
HETATM    3  C5  UNL     1      -2.063  51.333 -26.303  1.00  0.00     0.293 A 
HETATM    4  O5  UNL     1      -2.148  51.316 -27.517  1.00  0.00    -0.259 OA
HETATM    5  C6  UNL     1      -2.100  50.146 -25.442  1.00  0.00     0.034 A 
HETATM    6  C19 UNL     1      -1.941  50.597 -24.194  1.00  0.00     0.037 A 
ENDROOT
BRANCH   5   7
HETATM    7  C7  UNL     1      -2.250  48.778 -26.004  1.00  0.00     0.084 C 
BRANCH   7   8
HETATM    8  C8  UNL     1      -3.675  48.490 -26.414  1.00  0.00    -0.053 A 
HETATM    9  C9  UNL     1      -4.011  48.333 -27.765  1.00  0.00     0.010 A 
HETATM   10  C10 UNL     1      -5.320  48.021 -28.133  1.00  0.00     0.038 A 
HETATM   11  C11 UNL     1      -6.305  47.857 -27.160  1.00  0.00     0.076 A 
HETATM   12  O6  UNL     1      -7.553  47.544 -27.627  1.00  0.00    -0.340 OA
HETATM   13  C17 UNL     1      -5.995  48.027 -25.809  1.00  0.00    -0.024 A 
HETATM   14  C12 UNL     1      -8.532  47.136 -26.654  1.00  0.00     0.061 C 
HETATM   15  C13 UNL     1      -9.900  47.399 -27.302  1.00  0.00     0.046 C 
HETATM   16  C14 UNL     1      -8.391  45.625 -26.410  1.00  0.00     0.046 C 
HETATM   17  C15 UNL     1      -8.431  47.960 -25.362  1.00  0.00     0.042 C 
HETATM   18  C16 UNL     1      -7.043  47.857 -24.750  1.00  0.00     0.044 C 
HETATM   19  C18 UNL     1      -4.675  48.328 -25.442  1.00  0.00     0.017 A 
ENDBRANCH   7   8
ENDBRANCH   5   7
BRANCH   6  20
HETATM   20  C20 UNL     1      -1.820  49.764 -22.997  1.00  0.00    -0.023 A 
HETATM   21  C21 UNL     1      -2.721  48.706 -22.796  1.00  0.00     0.015 A 
HETATM   22  C22 UNL     1      -2.627  47.895 -21.662  1.00  0.00     0.037 A 
HETATM   23  C23 UNL     1      -1.627  48.141 -20.728  1.00  0.00     0.065 A 
HETATM   24  C24 UNL     1      -0.725  49.181 -20.913  1.00  0.00     0.037 A 
HETATM   25  C25 UNL     1      -0.819  49.993 -22.045  1.00  0.00     0.015 A 
BRANCH  23  26
HETATM   26  O7  UNL     1      -1.496  47.378 -19.607  1.00  0.00    -0.361 OA
HETATM   27  H24 UNL     1      -2.186  46.695 -19.609  1.00  0.00     0.217 HD
ENDBRANCH  23  26
ENDBRANCH   6  20
BRANCH   1  28
HETATM   28  C3  UNL     1      -0.439  52.473 -23.606  1.00  0.00     0.328 C 
HETATM   29  O2  UNL     1       0.626  52.288 -24.190  1.00  0.00    -0.259 OA
BRANCH  28  30
HETATM   30  O1  UNL     1      -0.545  52.984 -22.342  1.00  0.00    -0.317 OA
BRANCH  30  31
HETATM   31  C2  UNL     1       0.703  53.175 -21.671  1.00  0.00     0.174 C 
HETATM   32  C1  UNL     1       0.412  53.627 -20.254  1.00  0.00     0.034 C 
ENDBRANCH  30  31
ENDBRANCH  28  30
ENDBRANCH   1  28
BRANCH   1  33
HETATM   33  O3  UNL     1      -2.951  52.673 -23.504  1.00  0.00    -0.353 OA
HETATM   34  H6  UNL     1      -3.699  52.061 -23.584  1.00  0.00     0.214 HD
ENDBRANCH   1  33
TORSDOF 8
ENDMDL
MODEL 6
REMARK minimizedAffinity -8.81389809
REMARK  8 active torsions:
REMARK  status: ('A' for Active; 'I' for Inactive)
REMARK    1  A    between atoms: C2_2  and  O1_3 
REMARK    2  A    between atoms: O1_3  and  C3_4 
REMARK    3  A    between atoms: C3_4  and  C4_6 
REMARK    4  A    between atoms: C4_6  and  O3_7 
REMARK    5  A    between atoms: C6_11  and  C7_12 
REMARK    6  A    between atoms: C7_12  and  C8_13 
REMARK    7  A    between atoms: C19_25  and  C20_26 
REMARK    8  A    between atoms: C23_29  and  O7_30 
ROOT
HETATM    1  C4  UNL     1      -1.147  52.262 -24.828  1.00  0.00     0.291 A 
HETATM    2  O4  UNL     1      -1.776  51.336 -25.711  1.00  0.00    -0.265 OA
HETATM    3  C5  UNL     1      -2.063  50.194 -25.040  1.00  0.00     0.293 A 
HETATM    4  O5  UNL     1      -2.596  49.213 -25.526  1.00  0.00    -0.259 OA
HETATM    5  C6  UNL     1      -1.644  50.315 -23.640  1.00  0.00     0.034 A 
HETATM    6  C19 UNL     1      -1.078  51.520 -23.533  1.00  0.00     0.037 A 
ENDROOT
BRANCH   5   7
HETATM    7  C7  UNL     1      -1.844  49.209 -22.667  1.00  0.00     0.084 C 
BRANCH   7   8
HETATM    8  C8  UNL     1      -3.288  49.083 -22.244  1.00  0.00    -0.053 A 
HETATM    9  C9  UNL     1      -4.022  50.217 -21.871  1.00  0.00     0.010 A 
HETATM   10  C10 UNL     1      -5.369  50.099 -21.525  1.00  0.00     0.038 A 
HETATM   11  C11 UNL     1      -5.998  48.855 -21.552  1.00  0.00     0.076 A 
HETATM   12  O6  UNL     1      -7.321  48.853 -21.203  1.00  0.00    -0.340 OA
HETATM   13  C17 UNL     1      -5.279  47.711 -21.902  1.00  0.00    -0.024 A 
HETATM   14  C12 UNL     1      -8.059  47.640 -21.446  1.00  0.00     0.061 C 
HETATM   15  C13 UNL     1      -9.264  47.687 -20.495  1.00  0.00     0.046 C 
HETATM   16  C14 UNL     1      -8.578  47.655 -22.892  1.00  0.00     0.046 C 
HETATM   17  C15 UNL     1      -7.226  46.390 -21.124  1.00  0.00     0.042 C 
HETATM   18  C16 UNL     1      -5.938  46.365 -21.934  1.00  0.00     0.044 C 
HETATM   19  C18 UNL     1      -3.928  47.834 -22.262  1.00  0.00     0.017 A 
ENDBRANCH   7   8
ENDBRANCH   5   7
BRANCH   6  20
HETATM   20  C20 UNL     1      -0.426  52.052 -22.335  1.00  0.00    -0.023 A 
HETATM   21  C21 UNL     1       0.852  52.624 -22.439  1.00  0.00     0.015 A 
HETATM   22  C22 UNL     1       1.496  53.140 -21.311  1.00  0.00     0.037 A 
HETATM   23  C23 UNL     1       0.859  53.086 -20.078  1.00  0.00     0.065 A 
HETATM   24  C24 UNL     1      -0.407  52.527 -19.957  1.00  0.00     0.037 A 
HETATM   25  C25 UNL     1      -1.051  52.010 -21.083  1.00  0.00     0.015 A 
BRANCH  23  26
HETATM   26  O7  UNL     1       1.447  53.575 -18.950  1.00  0.00    -0.361 OA
HETATM   27  H24 UNL     1       2.320  53.934 -19.180  1.00  0.00     0.217 HD
ENDBRANCH  23  26
ENDBRANCH   6  20
BRANCH   1  28
HETATM   28  C3  UNL     1       0.319  52.531 -25.307  1.00  0.00     0.328 C 
HETATM   29  O2  UNL     1       0.850  53.638 -25.354  1.00  0.00    -0.259 OA
BRANCH  28  30
HETATM   30  O1  UNL     1       0.911  51.375 -25.732  1.00  0.00    -0.317 OA
BRANCH  30  31
HETATM   31  C2  UNL     1       2.275  51.519 -26.138  1.00  0.00     0.174 C 
HETATM   32  C1  UNL     1       2.304  51.670 -27.646  1.00  0.00     0.034 C 
ENDBRANCH  30  31
ENDBRANCH  28  30
ENDBRANCH   1  28
BRANCH   1  33
HETATM   33  O3  UNL     1      -1.977  53.406 -24.735  1.00  0.00    -0.353 OA
HETATM   34  H6  UNL     1      -2.628  53.239 -24.037  1.00  0.00     0.214 HD
ENDBRANCH   1  33
TORSDOF 8
ENDMDL
MODEL 7
REMARK minimizedAffinity -8.72717094
REMARK  8 active torsions:
REMARK  status: ('A' for Active; 'I' for Inactive)
REMARK    1  A    between atoms: C2_2  and  O1_3 
REMARK    2  A    between atoms: O1_3  and  C3_4 
REMARK    3  A    between atoms: C3_4  and  C4_6 
REMARK    4  A    between atoms: C4_6  and  O3_7 
REMARK    5  A    between atoms: C6_11  and  C7_12 
REMARK    6  A    between atoms: C7_12  and  C8_13 
REMARK    7  A    between atoms: C19_25  and  C20_26 
REMARK    8  A    between atoms: C23_29  and  O7_30 
ROOT
HETATM    1  C4  UNL     1      -3.595  51.419 -24.127  1.00  0.00     0.291 A 
HETATM    2  O4  UNL     1      -3.421  52.035 -25.400  1.00  0.00    -0.265 OA
HETATM    3  C5  UNL     1      -3.292  51.080 -26.353  1.00  0.00     0.293 A 
HETATM    4  O5  UNL     1      -3.123  51.293 -27.540  1.00  0.00    -0.259 OA
HETATM    5  C6  UNL     1      -3.393  49.749 -25.745  1.00  0.00     0.034 A 
HETATM    6  C19 UNL     1      -3.539  49.958 -24.434  1.00  0.00     0.037 A 
ENDROOT
BRANCH   5   7
HETATM    7  C7  UNL     1      -3.293  48.509 -26.560  1.00  0.00     0.084 C 
BRANCH   7   8
HETATM    8  C8  UNL     1      -4.573  48.219 -27.307  1.00  0.00    -0.053 A 
HETATM    9  C9  UNL     1      -5.734  47.853 -26.615  1.00  0.00     0.010 A 
HETATM   10  C10 UNL     1      -6.925  47.631 -27.307  1.00  0.00     0.038 A 
HETATM   11  C11 UNL     1      -6.972  47.777 -28.693  1.00  0.00     0.076 A 
HETATM   12  O6  UNL     1      -8.190  47.545 -29.272  1.00  0.00    -0.340 OA
HETATM   13  C17 UNL     1      -5.821  48.124 -29.403  1.00  0.00    -0.024 A 
HETATM   14  C12 UNL     1      -8.337  47.913 -30.656  1.00  0.00     0.061 C 
HETATM   15  C13 UNL     1      -9.503  47.070 -31.192  1.00  0.00     0.046 C 
HETATM   16  C14 UNL     1      -8.731  49.396 -30.737  1.00  0.00     0.046 C 
HETATM   17  C15 UNL     1      -7.076  47.586 -31.471  1.00  0.00     0.042 C 
HETATM   18  C16 UNL     1      -5.852  48.282 -30.894  1.00  0.00     0.044 C 
HETATM   19  C18 UNL     1      -4.628  48.358 -28.702  1.00  0.00     0.017 A 
ENDBRANCH   7   8
ENDBRANCH   5   7
BRANCH   6  20
HETATM   20  C20 UNL     1      -3.589  48.918 -23.406  1.00  0.00    -0.023 A 
HETATM   21  C21 UNL     1      -4.832  48.397 -23.008  1.00  0.00     0.015 A 
HETATM   22  C22 UNL     1      -4.907  47.402 -22.030  1.00  0.00     0.037 A 
HETATM   23  C23 UNL     1      -3.738  46.924 -21.450  1.00  0.00     0.065 A 
HETATM   24  C24 UNL     1      -2.500  47.425 -21.834  1.00  0.00     0.037 A 
HETATM   25  C25 UNL     1      -2.424  48.420 -22.811  1.00  0.00     0.015 A 
BRANCH  23  26
HETATM   26  O7  UNL     1      -3.762  45.956 -20.492  1.00  0.00    -0.361 OA
HETATM   27  H24 UNL     1      -4.684  45.701 -20.325  1.00  0.00     0.217 HD
ENDBRANCH  23  26
ENDBRANCH   6  20
BRANCH   1  28
HETATM   28  C3  UNL     1      -2.377  51.765 -23.206  1.00  0.00     0.328 C 
HETATM   29  O2  UNL     1      -2.426  51.853 -21.982  1.00  0.00    -0.259 OA
BRANCH  28  30
HETATM   30  O1  UNL     1      -1.262  52.024 -23.953  1.00  0.00    -0.317 OA
BRANCH  30  31
HETATM   31  C2  UNL     1      -0.144  52.509 -23.204  1.00  0.00     0.174 C 
HETATM   32  C1  UNL     1       0.665  53.424 -24.103  1.00  0.00     0.034 C 
ENDBRANCH  30  31
ENDBRANCH  28  30
ENDBRANCH   1  28
BRANCH   1  33
HETATM   33  O3  UNL     1      -4.864  51.802 -23.628  1.00  0.00    -0.353 OA
HETATM   34  H6  UNL     1      -5.517  51.178 -23.978  1.00  0.00     0.214 HD
ENDBRANCH   1  33
TORSDOF 8
ENDMDL
MODEL 8
REMARK minimizedAffinity -8.67998219
REMARK  8 active torsions:
REMARK  status: ('A' for Active; 'I' for Inactive)
REMARK    1  A    between atoms: C2_2  and  O1_3 
REMARK    2  A    between atoms: O1_3  and  C3_4 
REMARK    3  A    between atoms: C3_4  and  C4_6 
REMARK    4  A    between atoms: C4_6  and  O3_7 
REMARK    5  A    between atoms: C6_11  and  C7_12 
REMARK    6  A    between atoms: C7_12  and  C8_13 
REMARK    7  A    between atoms: C19_25  and  C20_26 
REMARK    8  A    between atoms: C23_29  and  O7_30 
ROOT
HETATM    1  C4  UNL     1       0.289  51.572 -25.996  1.00  0.00     0.291 A 
HETATM    2  O4  UNL     1       0.830  52.392 -24.963  1.00  0.00    -0.265 OA
HETATM    3  C5  UNL     1      -0.054  52.475 -23.939  1.00  0.00     0.293 A 
HETATM    4  O5  UNL     1       0.118  53.111 -22.916  1.00  0.00    -0.259 OA
HETATM    5  C6  UNL     1      -1.249  51.681 -24.243  1.00  0.00     0.034 A 
HETATM    6  C19 UNL     1      -1.053  51.181 -25.466  1.00  0.00     0.037 A 
ENDROOT
BRANCH   5   7
HETATM    7  C7  UNL     1      -2.386  51.586 -23.290  1.00  0.00     0.084 C 
BRANCH   7   8
HETATM    8  C8  UNL     1      -1.995  50.879 -22.014  1.00  0.00    -0.053 A 
HETATM    9  C9  UNL     1      -1.281  49.674 -22.056  1.00  0.00     0.010 A 
HETATM   10  C10 UNL     1      -0.883  49.051 -20.874  1.00  0.00     0.038 A 
HETATM   11  C11 UNL     1      -1.186  49.622 -19.639  1.00  0.00     0.076 A 
HETATM   12  O6  UNL     1      -0.743  48.934 -18.542  1.00  0.00    -0.340 OA
HETATM   13  C17 UNL     1      -1.913  50.813 -19.574  1.00  0.00    -0.024 A 
HETATM   14  C12 UNL     1      -0.827  49.606 -17.271  1.00  0.00     0.061 C 
HETATM   15  C13 UNL     1      -0.827  48.495 -16.211  1.00  0.00     0.046 C 
HETATM   16  C14 UNL     1       0.434  50.462 -17.077  1.00  0.00     0.046 C 
HETATM   17  C15 UNL     1      -2.124  50.417 -17.137  1.00  0.00     0.042 C 
HETATM   18  C16 UNL     1      -2.250  51.441 -18.255  1.00  0.00     0.044 C 
HETATM   19  C18 UNL     1      -2.301  51.444 -20.766  1.00  0.00     0.017 A 
ENDBRANCH   7   8
ENDBRANCH   5   7
BRANCH   6  20
HETATM   20  C20 UNL     1      -2.021  50.394 -26.231  1.00  0.00    -0.023 A 
HETATM   21  C21 UNL     1      -2.587  50.935 -27.396  1.00  0.00     0.015 A 
HETATM   22  C22 UNL     1      -3.513  50.204 -28.145  1.00  0.00     0.037 A 
HETATM   23  C23 UNL     1      -3.871  48.927 -27.729  1.00  0.00     0.065 A 
HETATM   24  C24 UNL     1      -3.318  48.374 -26.581  1.00  0.00     0.037 A 
HETATM   25  C25 UNL     1      -2.394  49.105 -25.831  1.00  0.00     0.015 A 
BRANCH  23  26
HETATM   26  O7  UNL     1      -4.769  48.176 -28.426  1.00  0.00    -0.361 OA
HETATM   27  H24 UNL     1      -5.070  48.682 -29.198  1.00  0.00     0.217 HD
ENDBRANCH  23  26
ENDBRANCH   6  20
BRANCH   1  28
HETATM   28  C3  UNL     1       0.065  52.432 -27.285  1.00  0.00     0.328 C 
HETATM   29  O2  UNL     1       0.536  52.176 -28.390  1.00  0.00    -0.259 OA
BRANCH  28  30
HETATM   30  O1  UNL     1      -0.673  53.549 -27.003  1.00  0.00    -0.317 OA
BRANCH  30  31
HETATM   31  C2  UNL     1      -0.065  54.780 -27.402  1.00  0.00     0.174 C 
HETATM   32  C1  UNL     1       0.161  55.619 -26.160  1.00  0.00     0.034 C 
ENDBRANCH  30  31
ENDBRANCH  28  30
ENDBRANCH   1  28
BRANCH   1  33
HETATM   33  O3  UNL     1       1.139  50.451 -26.152  1.00  0.00    -0.353 OA
HETATM   34  H6  UNL     1       0.854  49.777 -25.518  1.00  0.00     0.214 HD
ENDBRANCH   1  33
TORSDOF 8
ENDMDL
MODEL 9
REMARK minimizedAffinity -8.65151882
REMARK  8 active torsions:
REMARK  status: ('A' for Active; 'I' for Inactive)
REMARK    1  A    between atoms: C2_2  and  O1_3 
REMARK    2  A    between atoms: O1_3  and  C3_4 
REMARK    3  A    between atoms: C3_4  and  C4_6 
REMARK    4  A    between atoms: C4_6  and  O3_7 
REMARK    5  A    between atoms: C6_11  and  C7_12 
REMARK    6  A    between atoms: C7_12  and  C8_13 
REMARK    7  A    between atoms: C19_25  and  C20_26 
REMARK    8  A    between atoms: C23_29  and  O7_30 
ROOT
HETATM    1  C4  UNL     1      -3.530  51.384 -23.148  1.00  0.00     0.291 A 
HETATM    2  O4  UNL     1      -3.351  52.175 -24.320  1.00  0.00    -0.265 OA
HETATM    3  C5  UNL     1      -3.122  51.365 -25.383  1.00  0.00     0.293 A 
HETATM    4  O5  UNL     1      -2.923  51.746 -26.522  1.00  0.00    -0.259 OA
HETATM    5  C6  UNL     1      -3.155  49.961 -24.960  1.00  0.00     0.034 A 
HETATM    6  C19 UNL     1      -3.362  49.983 -23.641  1.00  0.00     0.037 A 
ENDROOT
BRANCH   5   7
HETATM    7  C7  UNL     1      -2.940  48.851 -25.925  1.00  0.00     0.084 C 
BRANCH   7   8
HETATM    8  C8  UNL     1      -4.235  48.389 -26.552  1.00  0.00    -0.053 A 
HETATM    9  C9  UNL     1      -5.354  48.117 -25.755  1.00  0.00     0.010 A 
HETATM   10  C10 UNL     1      -6.560  47.735 -26.344  1.00  0.00     0.038 A 
HETATM   11  C11 UNL     1      -6.664  47.626 -27.730  1.00  0.00     0.076 A 
HETATM   12  O6  UNL     1      -7.892  47.254 -28.205  1.00  0.00    -0.340 OA
HETATM   13  C17 UNL     1      -5.555  47.876 -28.540  1.00  0.00    -0.024 A 
HETATM   14  C12 UNL     1      -8.105  47.361 -29.625  1.00  0.00     0.061 C 
HETATM   15  C13 UNL     1      -9.255  46.397 -29.949  1.00  0.00     0.046 C 
HETATM   16  C14 UNL     1      -8.561  48.791 -29.953  1.00  0.00     0.046 C 
HETATM   17  C15 UNL     1      -6.863  46.934 -30.422  1.00  0.00     0.042 C 
HETATM   18  C16 UNL     1      -5.648  47.761 -30.032  1.00  0.00     0.044 C 
HETATM   19  C18 UNL     1      -4.347  48.272 -27.946  1.00  0.00     0.017 A 
ENDBRANCH   7   8
ENDBRANCH   5   7
BRANCH   6  20
HETATM   20  C20 UNL     1      -3.380  48.814 -22.762  1.00  0.00    -0.023 A 
HETATM   21  C21 UNL     1      -4.611  48.283 -22.340  1.00  0.00     0.015 A 
HETATM   22  C22 UNL     1      -4.655  47.166 -21.502  1.00  0.00     0.037 A 
HETATM   23  C23 UNL     1      -3.467  46.576 -21.087  1.00  0.00     0.065 A 
HETATM   24  C24 UNL     1      -2.242  47.085 -21.497  1.00  0.00     0.037 A 
HETATM   25  C25 UNL     1      -2.196  48.203 -22.334  1.00  0.00     0.015 A 
BRANCH  23  26
HETATM   26  O7  UNL     1      -3.460  45.486 -20.269  1.00  0.00    -0.361 OA
HETATM   27  H24 UNL     1      -4.378  45.240 -20.065  1.00  0.00     0.217 HD
ENDBRANCH  23  26
ENDBRANCH   6  20
BRANCH   1  28
HETATM   28  C3  UNL     1      -2.373  51.679 -22.135  1.00  0.00     0.328 C 
HETATM   29  O2  UNL     1      -2.450  51.528 -20.918  1.00  0.00    -0.259 OA
BRANCH  28  30
HETATM   30  O1  UNL     1      -1.282  52.193 -22.779  1.00  0.00    -0.317 OA
BRANCH  30  31
HETATM   31  C2  UNL     1      -0.024  51.822 -22.208  1.00  0.00     0.174 C 
HETATM   32  C1  UNL     1       0.601  53.062 -21.601  1.00  0.00     0.034 C 
ENDBRANCH  30  31
ENDBRANCH  28  30
ENDBRANCH   1  28
BRANCH   1  33
HETATM   33  O3  UNL     1      -4.839  51.617 -22.661  1.00  0.00    -0.353 OA
HETATM   34  H6  UNL     1      -5.434  51.006 -23.120  1.00  0.00     0.214 HD
ENDBRANCH   1  33
TORSDOF 8
ENDMDL
