MODEL 1
REMARK minimizedAffinity -8.01467514
REMARK CNNscore 0.745570779
REMARK CNNaffinity 6.78385162
REMARK  10 active torsions:
REMARK  status: ('A' for Active; 'I' for Inactive)
REMARK    1  A    between atoms: O1_2  and  C2_3 
REMARK    2  A    between atoms: C2_3  and  C3_4 
REMARK    3  A    between atoms: C2_3  and  C26_35 
REMARK    4  A    between atoms: C3_4  and  C4_5 
REMARK    5  A    between atoms: C4_5  and  C5_6 
REMARK    6  A    between atoms: C5_6  and  C7_8 
REMARK    7  A    between atoms: C13_17  and  C14_18 
REMARK    8  A    between atoms: C14_18  and  O5_19 
REMARK    9  A    between atoms: C17_24  and  O8_25 
REMARK   10  A    between atoms: C30_39  and  O10_40 
ROOT
HETATM    1  C7  UNL     1      -3.746   9.433  14.939  1.00  0.00     0.135 C 
HETATM    2  O2  UNL     1      -2.522   8.672  14.978  1.00  0.00    -0.348 OA
HETATM    3  C8  UNL     1      -1.401   9.115  14.175  1.00  0.00     0.177 C 
HETATM    4  C9  UNL     1      -1.562  10.609  13.876  1.00  0.00     0.102 C 
HETATM    5  C10 UNL     1      -2.058  11.291  15.154  1.00  0.00     0.143 C 
HETATM    6  O3  UNL     1      -1.804  12.696  14.998  1.00  0.00    -0.315 OA
HETATM    7  C11 UNL     1      -1.238  13.280  16.095  1.00  0.00     0.261 C 
HETATM    8  O4  UNL     1      -1.465  12.974  17.258  1.00  0.00    -0.265 OA
HETATM    9  C12 UNL     1      -0.164  14.242  15.682  1.00  0.00     0.145 C 
HETATM   10  C13 UNL     1       1.183  13.565  15.950  1.00  0.00     0.164 C 
HETATM   11  O6  UNL     1       1.357  12.476  15.005  1.00  0.00    -0.313 OA
HETATM   12  C15 UNL     1       1.595  11.232  15.509  1.00  0.00     0.264 C 
HETATM   13  O7  UNL     1       1.698  10.950  16.696  1.00  0.00    -0.265 OA
HETATM   14  C16 UNL     1       1.770  10.242  14.385  1.00  0.00     0.179 C 
HETATM   15  C17 UNL     1       1.064   8.901  14.654  1.00  0.00     0.177 C 
HETATM   16  O9  UNL     1      -0.283   9.011  15.078  1.00  0.00    -0.318 OA
HETATM   17  C18 UNL     1       1.237   7.979  13.417  1.00  0.00     0.045 C 
HETATM   18  C19 UNL     1       2.437   7.027  13.493  1.00  0.00     0.015 C 
HETATM   19  C20 UNL     1      -0.047   7.200  13.148  1.00  0.00     0.024 C 
HETATM   20  C21 UNL     1      -1.245   8.158  12.924  1.00  0.00     0.010 C 
HETATM   21  C22 UNL     1      -1.039   8.935  11.599  1.00  0.00     0.020 C 
HETATM   22  C23 UNL     1      -2.474   7.249  12.689  1.00  0.00     0.020 C 
HETATM   23  C24 UNL     1      -3.540  10.939  15.309  1.00  0.00     0.041 C 
HETATM   24  C25 UNL     1      -4.084  11.433  16.647  1.00  0.00     0.015 C 
ENDROOT
BRANCH   1  25
HETATM   25  C5  UNL     1      -4.847   8.656  15.731  1.00  0.00     0.011 C 
HETATM   26  C6  UNL     1      -6.239   9.145  15.292  1.00  0.00     0.012 C 
BRANCH  25  27
HETATM   27  C4  UNL     1      -4.749   7.126  15.526  1.00  0.00     0.009 C 
BRANCH  27  28
HETATM   28  C3  UNL     1      -6.058   6.315  15.572  1.00  0.00     0.037 C 
BRANCH  28  29
HETATM   29  C2  UNL     1      -6.832   6.123  14.250  1.00  0.00     0.153 C 
BRANCH  29  30
HETATM   30  O1  UNL     1      -8.241   6.226  14.508  1.00  0.00    -0.386 OA
HETATM   31  C1  UNL     1      -8.539   6.345  15.893  1.00  0.00     0.202 C 
ENDBRANCH  29  30
BRANCH  29  32
HETATM   32  C26 UNL     1      -6.525   4.844  13.481  1.00  0.00    -0.027 A 
HETATM   33  C27 UNL     1      -5.308   4.689  12.795  1.00  0.00     0.010 A 
HETATM   34  C28 UNL     1      -5.032   3.523  12.074  1.00  0.00     0.003 A 
HETATM   35  C29 UNL     1      -5.974   2.501  12.010  1.00  0.00     0.036 A 
HETATM   36  C30 UNL     1      -7.190   2.653  12.660  1.00  0.00     0.066 A 
HETATM   37  C31 UNL     1      -7.476   3.811  13.383  1.00  0.00     0.046 A 
BRANCH  36  38
HETATM   38  O10 UNL     1      -8.091   1.634  12.575  1.00  0.00    -0.361 OA
HETATM   39  H45 UNL     1      -8.864   1.868  13.115  1.00  0.00     0.217 HD
ENDBRANCH  36  38
ENDBRANCH  29  32
ENDBRANCH  28  29
ENDBRANCH  27  28
ENDBRANCH  25  27
ENDBRANCH   1  25
BRANCH  15  40
HETATM   40  O8  UNL     1       1.733   8.276  15.752  1.00  0.00    -0.364 OA
HETATM   41  H25 UNL     1       1.566   8.855  16.521  1.00  0.00     0.213 HD
ENDBRANCH  15  40
BRANCH  10  42
HETATM   42  C14 UNL     1       2.350  14.533  15.745  1.00  0.00     0.197 C 
BRANCH  42  43
HETATM   43  O5  UNL     1       2.691  14.642  14.370  1.00  0.00    -0.398 OA
HETATM   44  H22 UNL     1       3.310  15.388  14.284  1.00  0.00     0.209 HD
ENDBRANCH  42  43
ENDBRANCH  10  42
TORSDOF 10
ENDMDL
MODEL 2
REMARK minimizedAffinity -8.65595436
REMARK CNNscore 0.612856984
REMARK CNNaffinity 6.79703665
REMARK  10 active torsions:
REMARK  status: ('A' for Active; 'I' for Inactive)
REMARK    1  A    between atoms: O1_2  and  C2_3 
REMARK    2  A    between atoms: C2_3  and  C3_4 
REMARK    3  A    between atoms: C2_3  and  C26_35 
REMARK    4  A    between atoms: C3_4  and  C4_5 
REMARK    5  A    between atoms: C4_5  and  C5_6 
REMARK    6  A    between atoms: C5_6  and  C7_8 
REMARK    7  A    between atoms: C13_17  and  C14_18 
REMARK    8  A    between atoms: C14_18  and  O5_19 
REMARK    9  A    between atoms: C17_24  and  O8_25 
REMARK   10  A    between atoms: C30_39  and  O10_40 
ROOT
HETATM    1  C7  UNL     1      -3.054   8.930  15.305  1.00  0.00     0.135 C 
HETATM    2  O2  UNL     1      -2.197   7.885  14.802  1.00  0.00    -0.348 OA
HETATM    3  C8  UNL     1      -1.054   8.252  13.992  1.00  0.00     0.177 C 
HETATM    4  C9  UNL     1      -0.676   9.706  14.294  1.00  0.00     0.102 C 
HETATM    5  C10 UNL     1      -0.790   9.913  15.807  1.00  0.00     0.143 C 
HETATM    6  O3  UNL     1      -0.049  11.104  16.118  1.00  0.00    -0.315 OA
HETATM    7  C11 UNL     1       0.771  10.976  17.203  1.00  0.00     0.261 C 
HETATM    8  O4  UNL     1       0.533  10.303  18.196  1.00  0.00    -0.265 OA
HETATM    9  C12 UNL     1       2.091  11.641  16.944  1.00  0.00     0.145 C 
HETATM   10  C13 UNL     1       3.109  10.535  16.653  1.00  0.00     0.164 C 
HETATM   11  O6  UNL     1       2.801   9.940  15.365  1.00  0.00    -0.313 OA
HETATM   12  C15 UNL     1       2.599   8.592  15.322  1.00  0.00     0.264 C 
HETATM   13  O7  UNL     1       2.678   7.828  16.275  1.00  0.00    -0.265 OA
HETATM   14  C16 UNL     1       2.315   8.155  13.907  1.00  0.00     0.179 C 
HETATM   15  C17 UNL     1       1.187   7.111  13.819  1.00  0.00     0.177 C 
HETATM   16  O9  UNL     1       0.010   7.446  14.533  1.00  0.00    -0.318 OA
HETATM   17  C18 UNL     1       0.917   6.781  12.326  1.00  0.00     0.045 C 
HETATM   18  C19 UNL     1       1.684   5.564  11.794  1.00  0.00     0.015 C 
HETATM   19  C20 UNL     1      -0.580   6.620  12.078  1.00  0.00     0.024 C 
HETATM   20  C21 UNL     1      -1.353   7.901  12.478  1.00  0.00     0.010 C 
HETATM   21  C22 UNL     1      -0.974   9.052  11.511  1.00  0.00     0.020 C 
HETATM   22  C23 UNL     1      -2.845   7.598  12.201  1.00  0.00     0.020 C 
HETATM   23  C24 UNL     1      -2.282  10.005  16.140  1.00  0.00     0.041 C 
HETATM   24  C25 UNL     1      -2.506  10.041  17.649  1.00  0.00     0.015 C 
ENDROOT
BRANCH   1  25
HETATM   25  C5  UNL     1      -4.303   8.276  15.979  1.00  0.00     0.011 C 
HETATM   26  C6  UNL     1      -5.578   9.007  15.523  1.00  0.00     0.012 C 
BRANCH  25  27
HETATM   27  C4  UNL     1      -4.427   6.770  15.652  1.00  0.00     0.009 C 
BRANCH  27  28
HETATM   28  C3  UNL     1      -5.840   6.157  15.637  1.00  0.00     0.037 C 
BRANCH  28  29
HETATM   29  C2  UNL     1      -6.581   6.093  14.283  1.00  0.00     0.153 C 
BRANCH  29  30
HETATM   30  O1  UNL     1      -7.981   6.334  14.500  1.00  0.00    -0.386 OA
HETATM   31  C1  UNL     1      -8.334   6.326  15.877  1.00  0.00     0.202 C 
ENDBRANCH  29  30
BRANCH  29  32
HETATM   32  C26 UNL     1      -6.382   4.817  13.476  1.00  0.00    -0.027 A 
HETATM   33  C27 UNL     1      -5.206   4.610  12.733  1.00  0.00     0.010 A 
HETATM   34  C28 UNL     1      -5.028   3.447  11.977  1.00  0.00     0.003 A 
HETATM   35  C29 UNL     1      -6.028   2.481  11.935  1.00  0.00     0.036 A 
HETATM   36  C30 UNL     1      -7.204   2.685  12.642  1.00  0.00     0.066 A 
HETATM   37  C31 UNL     1      -7.392   3.841  13.400  1.00  0.00     0.046 A 
BRANCH  36  38
HETATM   38  O10 UNL     1      -8.164   1.720  12.577  1.00  0.00    -0.361 OA
HETATM   39  H45 UNL     1      -8.898   1.984  13.156  1.00  0.00     0.217 HD
ENDBRANCH  36  38
ENDBRANCH  29  32
ENDBRANCH  28  29
ENDBRANCH  27  28
ENDBRANCH  25  27
ENDBRANCH   1  25
BRANCH  15  40
HETATM   40  O8  UNL     1       1.657   5.916  14.446  1.00  0.00    -0.364 OA
HETATM   41  H25 UNL     1       1.771   6.146  15.389  1.00  0.00     0.213 HD
ENDBRANCH  15  40
BRANCH  10  42
HETATM   42  C14 UNL     1       4.533  11.090  16.565  1.00  0.00     0.197 C 
BRANCH  42  43
HETATM   43  O5  UNL     1       4.658  12.299  17.301  1.00  0.00    -0.398 OA
HETATM   44  H22 UNL     1       5.607  12.509  17.354  1.00  0.00     0.209 HD
ENDBRANCH  42  43
ENDBRANCH  10  42
TORSDOF 10
ENDMDL
MODEL 3
REMARK minimizedAffinity -8.49573898
REMARK CNNscore 0.40512529
REMARK CNNaffinity 6.39539766
REMARK  10 active torsions:
REMARK  status: ('A' for Active; 'I' for Inactive)
REMARK    1  A    between atoms: O1_2  and  C2_3 
REMARK    2  A    between atoms: C2_3  and  C3_4 
REMARK    3  A    between atoms: C2_3  and  C26_35 
REMARK    4  A    between atoms: C3_4  and  C4_5 
REMARK    5  A    between atoms: C4_5  and  C5_6 
REMARK    6  A    between atoms: C5_6  and  C7_8 
REMARK    7  A    between atoms: C13_17  and  C14_18 
REMARK    8  A    between atoms: C14_18  and  O5_19 
REMARK    9  A    between atoms: C17_24  and  O8_25 
REMARK   10  A    between atoms: C30_39  and  O10_40 
ROOT
HETATM    1  C7  UNL     1      -2.127   7.151  13.403  1.00  0.00     0.135 C 
HETATM    2  O2  UNL     1      -0.749   6.735  13.306  1.00  0.00    -0.348 OA
HETATM    3  C8  UNL     1       0.203   7.623  12.670  1.00  0.00     0.177 C 
HETATM    4  C9  UNL     1      -0.339   9.055  12.724  1.00  0.00     0.102 C 
HETATM    5  C10 UNL     1      -0.959   9.269  14.107  1.00  0.00     0.143 C 
HETATM    6  O3  UNL     1      -1.073  10.689  14.294  1.00  0.00    -0.315 OA
HETATM    7  C11 UNL     1      -0.646  11.120  15.517  1.00  0.00     0.261 C 
HETATM    8  O4  UNL     1      -0.759  10.502  16.567  1.00  0.00    -0.265 OA
HETATM    9  C12 UNL     1       0.140  12.392  15.380  1.00  0.00     0.145 C 
HETATM   10  C13 UNL     1       1.620  12.031  15.531  1.00  0.00     0.164 C 
HETATM   11  O6  UNL     1       2.040  11.276  14.364  1.00  0.00    -0.313 OA
HETATM   12  C15 UNL     1       2.598  10.049  14.570  1.00  0.00     0.264 C 
HETATM   13  O7  UNL     1       2.798   9.530  15.661  1.00  0.00    -0.265 OA
HETATM   14  C16 UNL     1       2.989   9.429  13.253  1.00  0.00     0.179 C 
HETATM   15  C17 UNL     1       2.653   7.929  13.174  1.00  0.00     0.177 C 
HETATM   16  O9  UNL     1       1.332   7.594  13.563  1.00  0.00    -0.318 OA
HETATM   17  C18 UNL     1       3.022   7.399  11.762  1.00  0.00     0.045 C 
HETATM   18  C19 UNL     1       4.426   6.789  11.657  1.00  0.00     0.015 C 
HETATM   19  C20 UNL     1       1.970   6.408  11.273  1.00  0.00     0.024 C 
HETATM   20  C21 UNL     1       0.564   7.058  11.236  1.00  0.00     0.010 C 
HETATM   21  C22 UNL     1       0.533   8.151  10.138  1.00  0.00     0.020 C 
HETATM   22  C23 UNL     1      -0.401   5.951  10.751  1.00  0.00     0.020 C 
HETATM   23  C24 UNL     1      -2.300   8.529  14.122  1.00  0.00     0.041 C 
HETATM   24  C25 UNL     1      -2.917   8.540  15.518  1.00  0.00     0.015 C 
ENDROOT
BRANCH   1  25
HETATM   25  C5  UNL     1      -2.976   5.958  13.949  1.00  0.00     0.011 C 
HETATM   26  C6  UNL     1      -2.244   5.305  15.135  1.00  0.00     0.012 C 
BRANCH  25  27
HETATM   27  C4  UNL     1      -4.390   6.398  14.394  1.00  0.00     0.009 C 
BRANCH  27  28
HETATM   28  C3  UNL     1      -5.393   6.793  13.294  1.00  0.00     0.037 C 
BRANCH  28  29
HETATM   29  C2  UNL     1      -6.760   6.074  13.275  1.00  0.00     0.153 C 
BRANCH  29  30
HETATM   30  O1  UNL     1      -7.385   6.216  14.561  1.00  0.00    -0.386 OA
HETATM   31  C1  UNL     1      -6.977   5.215  15.484  1.00  0.00     0.202 C 
ENDBRANCH  29  30
BRANCH  29  32
HETATM   32  C26 UNL     1      -6.735   4.611  12.855  1.00  0.00    -0.027 A 
HETATM   33  C27 UNL     1      -7.815   3.758  13.146  1.00  0.00     0.010 A 
HETATM   34  C28 UNL     1      -7.787   2.410  12.777  1.00  0.00     0.003 A 
HETATM   35  C29 UNL     1      -6.674   1.886  12.126  1.00  0.00     0.036 A 
HETATM   36  C30 UNL     1      -5.591   2.711  11.856  1.00  0.00     0.066 A 
HETATM   37  C31 UNL     1      -5.608   4.057  12.220  1.00  0.00     0.046 A 
BRANCH  36  38
HETATM   38  O10 UNL     1      -4.516   2.165  11.220  1.00  0.00    -0.361 OA
HETATM   39  H45 UNL     1      -3.868   2.871  11.062  1.00  0.00     0.217 HD
ENDBRANCH  36  38
ENDBRANCH  29  32
ENDBRANCH  28  29
ENDBRANCH  27  28
ENDBRANCH  25  27
ENDBRANCH   1  25
BRANCH  15  40
HETATM   40  O8  UNL     1       3.485   7.252  14.119  1.00  0.00    -0.364 OA
HETATM   41  H25 UNL     1       3.196   7.572  14.995  1.00  0.00     0.213 HD
ENDBRANCH  15  40
BRANCH  10  42
HETATM   42  C14 UNL     1       2.499  13.282  15.600  1.00  0.00     0.197 C 
BRANCH  42  43
HETATM   43  O5  UNL     1       3.719  13.015  16.276  1.00  0.00    -0.398 OA
HETATM   44  H22 UNL     1       4.301  13.783  16.139  1.00  0.00     0.209 HD
ENDBRANCH  42  43
ENDBRANCH  10  42
TORSDOF 10
ENDMDL
MODEL 4
REMARK minimizedAffinity -9.95486259
REMARK CNNscore 0.405087441
REMARK CNNaffinity 6.61769819
REMARK  10 active torsions:
REMARK  status: ('A' for Active; 'I' for Inactive)
REMARK    1  A    between atoms: O1_2  and  C2_3 
REMARK    2  A    between atoms: C2_3  and  C3_4 
REMARK    3  A    between atoms: C2_3  and  C26_35 
REMARK    4  A    between atoms: C3_4  and  C4_5 
REMARK    5  A    between atoms: C4_5  and  C5_6 
REMARK    6  A    between atoms: C5_6  and  C7_8 
REMARK    7  A    between atoms: C13_17  and  C14_18 
REMARK    8  A    between atoms: C14_18  and  O5_19 
REMARK    9  A    between atoms: C17_24  and  O8_25 
REMARK   10  A    between atoms: C30_39  and  O10_40 
ROOT
HETATM    1  C7  UNL     1      -5.287   5.008  13.420  1.00  0.00     0.135 C 
HETATM    2  O2  UNL     1      -4.835   6.369  13.264  1.00  0.00    -0.348 OA
HETATM    3  C8  UNL     1      -3.533   6.733  13.787  1.00  0.00     0.177 C 
HETATM    4  C9  UNL     1      -2.674   5.470  13.907  1.00  0.00     0.102 C 
HETATM    5  C10 UNL     1      -2.918   4.618  12.660  1.00  0.00     0.143 C 
HETATM    6  O3  UNL     1      -1.830   3.683  12.578  1.00  0.00    -0.315 OA
HETATM    7  C11 UNL     1      -1.289   3.574  11.329  1.00  0.00     0.261 C 
HETATM    8  O4  UNL     1      -1.909   3.660  10.278  1.00  0.00    -0.265 OA
HETATM    9  C12 UNL     1       0.208   3.501  11.410  1.00  0.00     0.145 C 
HETATM   10  C13 UNL     1       0.753   4.871  10.997  1.00  0.00     0.164 C 
HETATM   11  O6  UNL     1       0.430   5.836  12.033  1.00  0.00    -0.313 OA
HETATM   12  C15 UNL     1      -0.265   6.951  11.665  1.00  0.00     0.264 C 
HETATM   13  O7  UNL     1      -0.625   7.225  10.528  1.00  0.00    -0.265 OA
HETATM   14  C16 UNL     1      -0.487   7.841  12.862  1.00  0.00     0.179 C 
HETATM   15  C17 UNL     1      -1.904   8.441  12.906  1.00  0.00     0.177 C 
HETATM   16  O9  UNL     1      -2.952   7.507  12.720  1.00  0.00    -0.318 OA
HETATM   17  C18 UNL     1      -2.060   9.278  14.204  1.00  0.00     0.045 C 
HETATM   18  C19 UNL     1      -1.751  10.772  14.041  1.00  0.00     0.015 C 
HETATM   19  C20 UNL     1      -3.451   9.082  14.800  1.00  0.00     0.024 C 
HETATM   20  C21 UNL     1      -3.722   7.588  15.106  1.00  0.00     0.010 C 
HETATM   21  C22 UNL     1      -2.794   7.123  16.256  1.00  0.00     0.020 C 
HETATM   22  C23 UNL     1      -5.158   7.526  15.677  1.00  0.00     0.020 C 
HETATM   23  C24 UNL     1      -4.292   3.961  12.822  1.00  0.00     0.041 C 
HETATM   24  C25 UNL     1      -4.701   3.224  11.549  1.00  0.00     0.015 C 
ENDROOT
BRANCH   1  25
HETATM   25  C5  UNL     1      -6.775   4.916  12.951  1.00  0.00     0.011 C 
HETATM   26  C6  UNL     1      -7.180   3.439  12.807  1.00  0.00     0.012 C 
BRANCH  25  27
HETATM   27  C4  UNL     1      -7.744   5.624  13.927  1.00  0.00     0.009 C 
BRANCH  27  28
HETATM   28  C3  UNL     1      -9.099   6.098  13.367  1.00  0.00     0.037 C 
BRANCH  28  29
HETATM   29  C2  UNL     1      -9.827   7.237  14.115  1.00  0.00     0.153 C 
BRANCH  29  30
HETATM   30  O1  UNL     1      -9.628   7.075  15.529  1.00  0.00    -0.386 OA
HETATM   31  C1  UNL     1      -9.612   8.314  16.227  1.00  0.00     0.202 C 
ENDBRANCH  29  30
BRANCH  29  32
HETATM   32  C26 UNL     1     -11.309   7.397  13.802  1.00  0.00    -0.027 A 
HETATM   33  C27 UNL     1     -12.242   6.428  14.212  1.00  0.00     0.010 A 
HETATM   34  C28 UNL     1     -13.600   6.565  13.910  1.00  0.00     0.003 A 
HETATM   35  C29 UNL     1     -14.047   7.662  13.180  1.00  0.00     0.036 A 
HETATM   36  C30 UNL     1     -13.133   8.612  12.748  1.00  0.00     0.066 A 
HETATM   37  C31 UNL     1     -11.776   8.486  13.042  1.00  0.00     0.046 A 
BRANCH  36  38
HETATM   38  O10 UNL     1     -13.605   9.672  12.032  1.00  0.00    -0.361 OA
HETATM   39  H45 UNL     1     -12.859  10.266  11.845  1.00  0.00     0.217 HD
ENDBRANCH  36  38
ENDBRANCH  29  32
ENDBRANCH  28  29
ENDBRANCH  27  28
ENDBRANCH  25  27
ENDBRANCH   1  25
BRANCH  15  40
HETATM   40  O8  UNL     1      -2.025   9.338  11.799  1.00  0.00    -0.364 OA
HETATM   41  H25 UNL     1      -1.969   8.775  11.002  1.00  0.00     0.213 HD
ENDBRANCH  15  40
BRANCH  10  42
HETATM   42  C14 UNL     1       2.278   4.850  10.858  1.00  0.00     0.197 C 
BRANCH  42  43
HETATM   43  O5  UNL     1       2.724   3.630  10.284  1.00  0.00    -0.398 OA
HETATM   44  H22 UNL     1       3.665   3.742  10.061  1.00  0.00     0.209 HD
ENDBRANCH  42  43
ENDBRANCH  10  42
TORSDOF 10
ENDMDL
MODEL 5
REMARK minimizedAffinity -9.41789818
REMARK CNNscore 0.379235327
REMARK CNNaffinity 6.38834715
REMARK  10 active torsions:
REMARK  status: ('A' for Active; 'I' for Inactive)
REMARK    1  A    between atoms: O1_2  and  C2_3 
REMARK    2  A    between atoms: C2_3  and  C3_4 
REMARK    3  A    between atoms: C2_3  and  C26_35 
REMARK    4  A    between atoms: C3_4  and  C4_5 
REMARK    5  A    between atoms: C4_5  and  C5_6 
REMARK    6  A    between atoms: C5_6  and  C7_8 
REMARK    7  A    between atoms: C13_17  and  C14_18 
REMARK    8  A    between atoms: C14_18  and  O5_19 
REMARK    9  A    between atoms: C17_24  and  O8_25 
REMARK   10  A    between atoms: C30_39  and  O10_40 
ROOT
HETATM    1  C7  UNL     1       0.525   7.847  14.107  1.00  0.00     0.135 C 
HETATM    2  O2  UNL     1       1.134   6.956  13.150  1.00  0.00    -0.348 OA
HETATM    3  C8  UNL     1       1.681   7.514  11.930  1.00  0.00     0.177 C 
HETATM    4  C9  UNL     1       1.995   8.996  12.157  1.00  0.00     0.102 C 
HETATM    5  C10 UNL     1       2.617   9.134  13.549  1.00  0.00     0.143 C 
HETATM    6  O3  UNL     1       3.277  10.410  13.582  1.00  0.00    -0.315 OA
HETATM    7  C11 UNL     1       4.533  10.368  14.117  1.00  0.00     0.261 C 
HETATM    8  O4  UNL     1       4.891   9.634  15.028  1.00  0.00    -0.265 OA
HETATM    9  C12 UNL     1       5.471  11.228  13.321  1.00  0.00     0.145 C 
HETATM   10  C13 UNL     1       6.330  10.294  12.465  1.00  0.00     0.164 C 
HETATM   11  O6  UNL     1       5.496   9.703  11.434  1.00  0.00    -0.313 OA
HETATM   12  C15 UNL     1       5.452   8.342  11.357  1.00  0.00     0.264 C 
HETATM   13  O7  UNL     1       6.074   7.566  12.071  1.00  0.00    -0.265 OA
HETATM   14  C16 UNL     1       4.559   7.915  10.220  1.00  0.00     0.179 C 
HETATM   15  C17 UNL     1       3.658   6.721  10.583  1.00  0.00     0.177 C 
HETATM   16  O9  UNL     1       2.956   6.855  11.806  1.00  0.00    -0.318 OA
HETATM   17  C18 UNL     1       2.727   6.404   9.381  1.00  0.00     0.045 C 
HETATM   18  C19 UNL     1       3.264   5.331   8.425  1.00  0.00     0.015 C 
HETATM   19  C20 UNL     1       1.331   6.033   9.872  1.00  0.00     0.024 C 
HETATM   20  C21 UNL     1       0.717   7.173  10.722  1.00  0.00     0.010 C 
HETATM   21  C22 UNL     1       0.440   8.398   9.815  1.00  0.00     0.020 C 
HETATM   22  C23 UNL     1      -0.673   6.664  11.172  1.00  0.00     0.020 C 
HETATM   23  C24 UNL     1       1.483   8.995  14.568  1.00  0.00     0.041 C 
HETATM   24  C25 UNL     1       2.028   8.947  15.993  1.00  0.00     0.015 C 
ENDROOT
BRANCH   1  25
HETATM   25  C5  UNL     1      -0.148   6.994  15.230  1.00  0.00     0.011 C 
HETATM   26  C6  UNL     1      -1.151   7.865  16.007  1.00  0.00     0.012 C 
BRANCH  25  27
HETATM   27  C4  UNL     1      -0.873   5.749  14.669  1.00  0.00     0.009 C 
BRANCH  27  28
HETATM   28  C3  UNL     1      -2.407   5.699  14.796  1.00  0.00     0.037 C 
BRANCH  28  29
HETATM   29  C2  UNL     1      -3.244   6.106  13.563  1.00  0.00     0.153 C 
BRANCH  29  30
HETATM   30  O1  UNL     1      -3.907   7.351  13.834  1.00  0.00    -0.386 OA
HETATM   31  C1  UNL     1      -3.447   8.411  13.005  1.00  0.00     0.202 C 
ENDBRANCH  29  30
BRANCH  29  32
HETATM   32  C26 UNL     1      -4.243   5.070  13.066  1.00  0.00    -0.027 A 
HETATM   33  C27 UNL     1      -5.603   5.153  13.414  1.00  0.00     0.010 A 
HETATM   34  C28 UNL     1      -6.519   4.193  12.972  1.00  0.00     0.003 A 
HETATM   35  C29 UNL     1      -6.089   3.124  12.192  1.00  0.00     0.036 A 
HETATM   36  C30 UNL     1      -4.745   3.016  11.865  1.00  0.00     0.066 A 
HETATM   37  C31 UNL     1      -3.823   3.967  12.299  1.00  0.00     0.046 A 
BRANCH  36  38
HETATM   38  O10 UNL     1      -4.359   1.954  11.101  1.00  0.00    -0.361 OA
HETATM   39  H45 UNL     1      -3.409   2.043  10.919  1.00  0.00     0.217 HD
ENDBRANCH  36  38
ENDBRANCH  29  32
ENDBRANCH  28  29
ENDBRANCH  27  28
ENDBRANCH  25  27
ENDBRANCH   1  25
BRANCH  15  40
HETATM   40  O8  UNL     1       4.506   5.588  10.780  1.00  0.00    -0.364 OA
HETATM   41  H25 UNL     1       5.043   5.800  11.568  1.00  0.00     0.213 HD
ENDBRANCH  15  40
BRANCH  10  42
HETATM   42  C14 UNL     1       7.454  11.055  11.757  1.00  0.00     0.197 C 
BRANCH  42  43
HETATM   43  O5  UNL     1       7.876  10.373  10.585  1.00  0.00    -0.398 OA
HETATM   44  H22 UNL     1       8.457  10.977  10.091  1.00  0.00     0.209 HD
ENDBRANCH  42  43
ENDBRANCH  10  42
TORSDOF 10
ENDMDL
MODEL 6
REMARK minimizedAffinity -8.64326191
REMARK CNNscore 0.359526992
REMARK CNNaffinity 6.36066818
REMARK  10 active torsions:
REMARK  status: ('A' for Active; 'I' for Inactive)
REMARK    1  A    between atoms: O1_2  and  C2_3 
REMARK    2  A    between atoms: C2_3  and  C3_4 
REMARK    3  A    between atoms: C2_3  and  C26_35 
REMARK    4  A    between atoms: C3_4  and  C4_5 
REMARK    5  A    between atoms: C4_5  and  C5_6 
REMARK    6  A    between atoms: C5_6  and  C7_8 
REMARK    7  A    between atoms: C13_17  and  C14_18 
REMARK    8  A    between atoms: C14_18  and  O5_19 
REMARK    9  A    between atoms: C17_24  and  O8_25 
REMARK   10  A    between atoms: C30_39  and  O10_40 
ROOT
HETATM    1  C7  UNL     1      -2.601   7.659  13.931  1.00  0.00     0.135 C 
HETATM    2  O2  UNL     1      -1.290   7.303  14.414  1.00  0.00    -0.348 OA
HETATM    3  C8  UNL     1      -0.203   8.245  14.235  1.00  0.00     0.177 C 
HETATM    4  C9  UNL     1      -0.787   9.652  14.066  1.00  0.00     0.102 C 
HETATM    5  C10 UNL     1      -1.934   9.805  15.068  1.00  0.00     0.143 C 
HETATM    6  O3  UNL     1      -2.183  11.214  15.198  1.00  0.00    -0.315 OA
HETATM    7  C11 UNL     1      -2.323  11.633  16.490  1.00  0.00     0.261 C 
HETATM    8  O4  UNL     1      -2.832  10.985  17.394  1.00  0.00    -0.265 OA
HETATM    9  C12 UNL     1      -1.614  12.939  16.698  1.00  0.00     0.145 C 
HETATM   10  C13 UNL     1      -0.314  12.637  17.448  1.00  0.00     0.164 C 
HETATM   11  O6  UNL     1       0.588  11.929  16.558  1.00  0.00    -0.313 OA
HETATM   12  C15 UNL     1       1.068  10.721  16.971  1.00  0.00     0.264 C 
HETATM   13  O7  UNL     1       0.822  10.185  18.044  1.00  0.00    -0.265 OA
HETATM   14  C16 UNL     1       2.000  10.151  15.933  1.00  0.00     0.179 C 
HETATM   15  C17 UNL     1       1.799   8.640  15.714  1.00  0.00     0.177 C 
HETATM   16  O9  UNL     1       0.454   8.241  15.517  1.00  0.00    -0.318 OA
HETATM   17  C18 UNL     1       2.746   8.161  14.581  1.00  0.00     0.045 C 
HETATM   18  C19 UNL     1       4.094   7.613  15.066  1.00  0.00     0.015 C 
HETATM   19  C20 UNL     1       2.041   7.139  13.694  1.00  0.00     0.024 C 
HETATM   20  C21 UNL     1       0.748   7.731  13.079  1.00  0.00     0.010 C 
HETATM   21  C22 UNL     1       1.123   8.849  12.073  1.00  0.00     0.020 C 
HETATM   22  C23 UNL     1       0.125   6.597  12.231  1.00  0.00     0.020 C 
HETATM   23  C24 UNL     1      -3.123   9.011  14.520  1.00  0.00     0.041 C 
HETATM   24  C25 UNL     1      -4.263   8.962  15.533  1.00  0.00     0.015 C 
ENDROOT
BRANCH   1  25
HETATM   25  C5  UNL     1      -3.542   6.419  14.069  1.00  0.00     0.011 C 
HETATM   26  C6  UNL     1      -2.948   5.433  15.091  1.00  0.00     0.012 C 
BRANCH  25  27
HETATM   27  C4  UNL     1      -4.974   6.812  14.503  1.00  0.00     0.009 C 
BRANCH  27  28
HETATM   28  C3  UNL     1      -6.110   6.603  13.484  1.00  0.00     0.037 C 
BRANCH  28  29
HETATM   29  C2  UNL     1      -7.104   5.450  13.743  1.00  0.00     0.153 C 
BRANCH  29  30
HETATM   30  O1  UNL     1      -7.200   5.218  15.157  1.00  0.00    -0.386 OA
HETATM   31  C1  UNL     1      -8.199   6.016  15.779  1.00  0.00     0.202 C 
ENDBRANCH  29  30
BRANCH  29  32
HETATM   32  C26 UNL     1      -6.816   4.146  13.010  1.00  0.00    -0.027 A 
HETATM   33  C27 UNL     1      -7.606   3.005  13.229  1.00  0.00     0.010 A 
HETATM   34  C28 UNL     1      -7.333   1.802  12.570  1.00  0.00     0.003 A 
HETATM   35  C29 UNL     1      -6.254   1.714  11.695  1.00  0.00     0.036 A 
HETATM   36  C30 UNL     1      -5.450   2.826  11.490  1.00  0.00     0.066 A 
HETATM   37  C31 UNL     1      -5.714   4.031  12.142  1.00  0.00     0.046 A 
BRANCH  36  38
HETATM   38  O10 UNL     1      -4.400   2.704  10.628  1.00  0.00    -0.361 OA
HETATM   39  H45 UNL     1      -3.967   3.571  10.556  1.00  0.00     0.217 HD
ENDBRANCH  36  38
ENDBRANCH  29  32
ENDBRANCH  28  29
ENDBRANCH  27  28
ENDBRANCH  25  27
ENDBRANCH   1  25
BRANCH  15  40
HETATM   40  O8  UNL     1       2.196   7.976  16.916  1.00  0.00    -0.364 OA
HETATM   41  H25 UNL     1       1.554   8.262  17.594  1.00  0.00     0.213 HD
ENDBRANCH  15  40
BRANCH  10  42
HETATM   42  C14 UNL     1       0.395  13.922  17.883  1.00  0.00     0.197 C 
BRANCH  42  43
HETATM   43  O5  UNL     1      -0.009  15.026  17.087  1.00  0.00    -0.398 OA
HETATM   44  H22 UNL     1       0.333  15.831  17.513  1.00  0.00     0.209 HD
ENDBRANCH  42  43
ENDBRANCH  10  42
TORSDOF 10
ENDMDL
MODEL 7
REMARK minimizedAffinity -7.87700796
REMARK CNNscore 0.338630378
REMARK CNNaffinity 5.84777689
REMARK  10 active torsions:
REMARK  status: ('A' for Active; 'I' for Inactive)
REMARK    1  A    between atoms: O1_2  and  C2_3 
REMARK    2  A    between atoms: C2_3  and  C3_4 
REMARK    3  A    between atoms: C2_3  and  C26_35 
REMARK    4  A    between atoms: C3_4  and  C4_5 
REMARK    5  A    between atoms: C4_5  and  C5_6 
REMARK    6  A    between atoms: C5_6  and  C7_8 
REMARK    7  A    between atoms: C13_17  and  C14_18 
REMARK    8  A    between atoms: C14_18  and  O5_19 
REMARK    9  A    between atoms: C17_24  and  O8_25 
REMARK   10  A    between atoms: C30_39  and  O10_40 
ROOT
HETATM    1  C7  UNL     1       6.743  12.739  19.478  1.00  0.00     0.135 C 
HETATM    2  O2  UNL     1       6.110  11.644  20.172  1.00  0.00    -0.348 OA
HETATM    3  C8  UNL     1       4.827  11.872  20.807  1.00  0.00     0.177 C 
HETATM    4  C9  UNL     1       4.149  13.074  20.142  1.00  0.00     0.102 C 
HETATM    5  C10 UNL     1       4.381  12.965  18.633  1.00  0.00     0.143 C 
HETATM    6  O3  UNL     1       3.416  13.824  18.004  1.00  0.00    -0.315 OA
HETATM    7  C11 UNL     1       2.778  13.252  16.940  1.00  0.00     0.261 C 
HETATM    8  O4  UNL     1       3.281  12.462  16.153  1.00  0.00    -0.265 OA
HETATM    9  C12 UNL     1       1.317  13.593  16.959  1.00  0.00     0.145 C 
HETATM   10  C13 UNL     1       0.567  12.353  17.454  1.00  0.00     0.164 C 
HETATM   11  O6  UNL     1       0.862  12.157  18.862  1.00  0.00    -0.313 OA
HETATM   12  C15 UNL     1       1.373  10.951  19.241  1.00  0.00     0.264 C 
HETATM   13  O7  UNL     1       1.588  10.002  18.498  1.00  0.00    -0.265 OA
HETATM   14  C16 UNL     1       1.592  10.926  20.732  1.00  0.00     0.179 C 
HETATM   15  C17 UNL     1       2.920  10.257  21.131  1.00  0.00     0.177 C 
HETATM   16  O9  UNL     1       4.056  10.718  20.420  1.00  0.00    -0.318 OA
HETATM   17  C18 UNL     1       3.091  10.345  22.671  1.00  0.00     0.045 C 
HETATM   18  C19 UNL     1       2.582   9.118  23.440  1.00  0.00     0.015 C 
HETATM   19  C20 UNL     1       4.545  10.636  23.031  1.00  0.00     0.024 C 
HETATM   20  C21 UNL     1       5.029  11.953  22.375  1.00  0.00     0.010 C 
HETATM   21  C22 UNL     1       4.279  13.150  23.012  1.00  0.00     0.020 C 
HETATM   22  C23 UNL     1       6.509  12.116  22.795  1.00  0.00     0.020 C 
HETATM   23  C24 UNL     1       5.835  13.365  18.368  1.00  0.00     0.041 C 
HETATM   24  C25 UNL     1       6.213  13.124  16.909  1.00  0.00     0.015 C 
ENDROOT
BRANCH   1  25
HETATM   25  C5  UNL     1       8.180  12.298  19.049  1.00  0.00     0.011 C 
HETATM   26  C6  UNL     1       9.143  12.456  20.238  1.00  0.00     0.012 C 
BRANCH  25  27
HETATM   27  C4  UNL     1       8.221  10.838  18.541  1.00  0.00     0.009 C 
BRANCH  27  28
HETATM   28  C3  UNL     1       9.559  10.313  17.987  1.00  0.00     0.037 C 
BRANCH  28  29
HETATM   29  C2  UNL     1       9.759  10.332  16.456  1.00  0.00     0.153 C 
BRANCH  29  30
HETATM   30  O1  UNL     1       9.517  11.660  15.964  1.00  0.00    -0.386 OA
HETATM   31  C1  UNL     1      10.564  12.137  15.129  1.00  0.00     0.202 C 
ENDBRANCH  29  30
BRANCH  29  32
HETATM   32  C26 UNL     1       8.943   9.317  15.666  1.00  0.00    -0.027 A 
HETATM   33  C27 UNL     1       9.445   8.755  14.479  1.00  0.00     0.010 A 
HETATM   34  C28 UNL     1       8.690   7.836  13.743  1.00  0.00     0.003 A 
HETATM   35  C29 UNL     1       7.416   7.477  14.170  1.00  0.00     0.036 A 
HETATM   36  C30 UNL     1       6.899   8.044  15.327  1.00  0.00     0.066 A 
HETATM   37  C31 UNL     1       7.643   8.961  16.068  1.00  0.00     0.046 A 
BRANCH  36  38
HETATM   38  O10 UNL     1       5.647   7.671  15.715  1.00  0.00    -0.361 OA
HETATM   39  H45 UNL     1       5.448   8.112  16.557  1.00  0.00     0.217 HD
ENDBRANCH  36  38
ENDBRANCH  29  32
ENDBRANCH  28  29
ENDBRANCH  27  28
ENDBRANCH  25  27
ENDBRANCH   1  25
BRANCH  15  40
HETATM   40  O8  UNL     1       2.823   8.873  20.787  1.00  0.00    -0.364 OA
HETATM   41  H25 UNL     1       2.765   8.851  19.812  1.00  0.00     0.213 HD
ENDBRANCH  15  40
BRANCH  10  42
HETATM   42  C14 UNL     1      -0.949  12.526  17.329  1.00  0.00     0.197 C 
BRANCH  42  43
HETATM   43  O5  UNL     1      -1.538  11.419  16.661  1.00  0.00    -0.398 OA
HETATM   44  H22 UNL     1      -2.502  11.498  16.764  1.00  0.00     0.209 HD
ENDBRANCH  42  43
ENDBRANCH  10  42
TORSDOF 10
ENDMDL
MODEL 8
REMARK minimizedAffinity -8.85052395
REMARK CNNscore 0.328251421
REMARK CNNaffinity 6.15807343
REMARK  10 active torsions:
REMARK  status: ('A' for Active; 'I' for Inactive)
REMARK    1  A    between atoms: O1_2  and  C2_3 
REMARK    2  A    between atoms: C2_3  and  C3_4 
REMARK    3  A    between atoms: C2_3  and  C26_35 
REMARK    4  A    between atoms: C3_4  and  C4_5 
REMARK    5  A    between atoms: C4_5  and  C5_6 
REMARK    6  A    between atoms: C5_6  and  C7_8 
REMARK    7  A    between atoms: C13_17  and  C14_18 
REMARK    8  A    between atoms: C14_18  and  O5_19 
REMARK    9  A    between atoms: C17_24  and  O8_25 
REMARK   10  A    between atoms: C30_39  and  O10_40 
ROOT
HETATM    1  C7  UNL     1      -2.824   8.813  15.997  1.00  0.00     0.135 C 
HETATM    2  O2  UNL     1      -2.389  10.161  15.726  1.00  0.00    -0.348 OA
HETATM    3  C8  UNL     1      -1.265  10.691  16.472  1.00  0.00     0.177 C 
HETATM    4  C9  UNL     1      -0.424   9.526  17.001  1.00  0.00     0.102 C 
HETATM    5  C10 UNL     1      -0.331   8.475  15.892  1.00  0.00     0.143 C 
HETATM    6  O3  UNL     1       0.772   7.617  16.226  1.00  0.00    -0.315 OA
HETATM    7  C11 UNL     1       1.604   7.353  15.176  1.00  0.00     0.261 C 
HETATM    8  O4  UNL     1       1.257   7.232  14.009  1.00  0.00    -0.265 OA
HETATM    9  C12 UNL     1       3.037   7.398  15.618  1.00  0.00     0.145 C 
HETATM   10  C13 UNL     1       3.626   8.721  15.122  1.00  0.00     0.164 C 
HETATM   11  O6  UNL     1       3.031   9.811  15.875  1.00  0.00    -0.313 OA
HETATM   12  C15 UNL     1       2.414  10.804  15.174  1.00  0.00     0.264 C 
HETATM   13  O7  UNL     1       2.334  10.872  13.955  1.00  0.00    -0.265 OA
HETATM   14  C16 UNL     1       1.881  11.851  16.118  1.00  0.00     0.179 C 
HETATM   15  C17 UNL     1       0.478  12.351  15.726  1.00  0.00     0.177 C 
HETATM   16  O9  UNL     1      -0.465  11.329  15.458  1.00  0.00    -0.318 OA
HETATM   17  C18 UNL     1      -0.015  13.366  16.792  1.00  0.00     0.045 C 
HETATM   18  C19 UNL     1       0.281  14.835  16.459  1.00  0.00     0.015 C 
HETATM   19  C20 UNL     1      -1.502  13.169  17.069  1.00  0.00     0.024 C 
HETATM   20  C21 UNL     1      -1.795  11.725  17.547  1.00  0.00     0.010 C 
HETATM   21  C22 UNL     1      -1.161  11.510  18.945  1.00  0.00     0.020 C 
HETATM   22  C23 UNL     1      -3.324  11.654  17.766  1.00  0.00     0.020 C 
HETATM   23  C24 UNL     1      -1.682   7.757  15.833  1.00  0.00     0.041 C 
HETATM   24  C25 UNL     1      -1.747   6.805  14.642  1.00  0.00     0.015 C 
ENDROOT
BRANCH   1  25
HETATM   25  C5  UNL     1      -4.150   8.546  15.213  1.00  0.00     0.011 C 
HETATM   26  C6  UNL     1      -4.044   9.149  13.801  1.00  0.00     0.012 C 
BRANCH  25  27
HETATM   27  C4  UNL     1      -4.478   7.039  15.107  1.00  0.00     0.009 C 
BRANCH  27  28
HETATM   28  C3  UNL     1      -5.252   6.562  13.864  1.00  0.00     0.037 C 
BRANCH  28  29
HETATM   29  C2  UNL     1      -6.479   5.652  14.086  1.00  0.00     0.153 C 
BRANCH  29  30
HETATM   30  O1  UNL     1      -6.626   5.392  15.491  1.00  0.00    -0.386 OA
HETATM   31  C1  UNL     1      -7.788   5.995  16.045  1.00  0.00     0.202 C 
ENDBRANCH  29  30
BRANCH  29  32
HETATM   32  C26 UNL     1      -6.490   4.347  13.301  1.00  0.00    -0.027 A 
HETATM   33  C27 UNL     1      -7.560   3.442  13.420  1.00  0.00     0.010 A 
HETATM   34  C28 UNL     1      -7.563   2.236  12.713  1.00  0.00     0.003 A 
HETATM   35  C29 UNL     1      -6.492   1.905  11.889  1.00  0.00     0.036 A 
HETATM   36  C30 UNL     1      -5.419   2.778  11.783  1.00  0.00     0.066 A 
HETATM   37  C31 UNL     1      -5.404   3.983  12.483  1.00  0.00     0.046 A 
BRANCH  36  38
HETATM   38  O10 UNL     1      -4.385   2.421  10.969  1.00  0.00    -0.361 OA
HETATM   39  H45 UNL     1      -3.740   3.148  10.964  1.00  0.00     0.217 HD
ENDBRANCH  36  38
ENDBRANCH  29  32
ENDBRANCH  28  29
ENDBRANCH  27  28
ENDBRANCH  25  27
ENDBRANCH   1  25
BRANCH  15  40
HETATM   40  O8  UNL     1       0.604  13.054  14.488  1.00  0.00    -0.364 OA
HETATM   41  H25 UNL     1       0.869  12.380  13.833  1.00  0.00     0.213 HD
ENDBRANCH  15  40
BRANCH  10  42
HETATM   42  C14 UNL     1       5.138   8.785  15.351  1.00  0.00     0.197 C 
BRANCH  42  43
HETATM   43  O5  UNL     1       5.658   7.510  15.701  1.00  0.00    -0.398 OA
HETATM   44  H22 UNL     1       6.628   7.573  15.663  1.00  0.00     0.209 HD
ENDBRANCH  42  43
ENDBRANCH  10  42
TORSDOF 10
ENDMDL
MODEL 9
REMARK minimizedAffinity -8.75804901
REMARK CNNscore 0.292008489
REMARK CNNaffinity 6.30098391
REMARK  10 active torsions:
REMARK  status: ('A' for Active; 'I' for Inactive)
REMARK    1  A    between atoms: O1_2  and  C2_3 
REMARK    2  A    between atoms: C2_3  and  C3_4 
REMARK    3  A    between atoms: C2_3  and  C26_35 
REMARK    4  A    between atoms: C3_4  and  C4_5 
REMARK    5  A    between atoms: C4_5  and  C5_6 
REMARK    6  A    between atoms: C5_6  and  C7_8 
REMARK    7  A    between atoms: C13_17  and  C14_18 
REMARK    8  A    between atoms: C14_18  and  O5_19 
REMARK    9  A    between atoms: C17_24  and  O8_25 
REMARK   10  A    between atoms: C30_39  and  O10_40 
ROOT
HETATM    1  C7  UNL     1      -2.378   7.393  14.692  1.00  0.00     0.135 C 
HETATM    2  O2  UNL     1      -2.596   8.788  14.398  1.00  0.00    -0.348 OA
HETATM    3  C8  UNL     1      -2.275   9.771  15.413  1.00  0.00     0.177 C 
HETATM    4  C9  UNL     1      -1.256   9.169  16.385  1.00  0.00     0.102 C 
HETATM    5  C10 UNL     1      -0.232   8.384  15.561  1.00  0.00     0.143 C 
HETATM    6  O3  UNL     1       0.916   8.191  16.404  1.00  0.00    -0.315 OA
HETATM    7  C11 UNL     1       2.105   8.454  15.785  1.00  0.00     0.261 C 
HETATM    8  O4  UNL     1       2.352   8.244  14.606  1.00  0.00    -0.265 OA
HETATM    9  C12 UNL     1       3.024   9.198  16.710  1.00  0.00     0.145 C 
HETATM   10  C13 UNL     1       3.025  10.664  16.268  1.00  0.00     0.164 C 
HETATM   11  O6  UNL     1       1.732  11.248  16.575  1.00  0.00    -0.313 OA
HETATM   12  C15 UNL     1       1.039  11.827  15.553  1.00  0.00     0.264 C 
HETATM   13  O7  UNL     1       1.422  11.919  14.394  1.00  0.00    -0.265 OA
HETATM   14  C16 UNL     1      -0.261  12.395  16.064  1.00  0.00     0.179 C 
HETATM   15  C17 UNL     1      -1.443  12.131  15.114  1.00  0.00     0.177 C 
HETATM   16  O9  UNL     1      -1.568  10.789  14.678  1.00  0.00    -0.318 OA
HETATM   17  C18 UNL     1      -2.744  12.684  15.756  1.00  0.00     0.045 C 
HETATM   18  C19 UNL     1      -3.105  14.114  15.334  1.00  0.00     0.015 C 
HETATM   19  C20 UNL     1      -3.911  11.738  15.494  1.00  0.00     0.024 C 
HETATM   20  C21 UNL     1      -3.617  10.321  16.048  1.00  0.00     0.010 C 
HETATM   21  C22 UNL     1      -3.567  10.375  17.595  1.00  0.00     0.020 C 
HETATM   22  C23 UNL     1      -4.857   9.465  15.699  1.00  0.00     0.020 C 
HETATM   23  C24 UNL     1      -0.907   7.081  15.123  1.00  0.00     0.041 C 
HETATM   24  C25 UNL     1      -0.022   6.305  14.151  1.00  0.00     0.015 C 
ENDROOT
BRANCH   1  25
HETATM   25  C5  UNL     1      -2.970   6.535  13.527  1.00  0.00     0.011 C 
HETATM   26  C6  UNL     1      -2.797   5.040  13.849  1.00  0.00     0.012 C 
BRANCH  25  27
HETATM   27  C4  UNL     1      -4.465   6.839  13.274  1.00  0.00     0.009 C 
BRANCH  27  28
HETATM   28  C3  UNL     1      -5.499   6.128  14.168  1.00  0.00     0.037 C 
BRANCH  28  29
HETATM   29  C2  UNL     1      -6.779   5.586  13.495  1.00  0.00     0.153 C 
BRANCH  29  30
HETATM   30  O1  UNL     1      -7.864   5.637  14.435  1.00  0.00    -0.386 OA
HETATM   31  C1  UNL     1      -8.671   6.798  14.282  1.00  0.00     0.202 C 
ENDBRANCH  29  30
BRANCH  29  32
HETATM   32  C26 UNL     1      -6.671   4.195  12.884  1.00  0.00    -0.027 A 
HETATM   33  C27 UNL     1      -7.626   3.204  13.172  1.00  0.00     0.010 A 
HETATM   34  C28 UNL     1      -7.518   1.921  12.626  1.00  0.00     0.003 A 
HETATM   35  C29 UNL     1      -6.447   1.601  11.798  1.00  0.00     0.036 A 
HETATM   36  C30 UNL     1      -5.484   2.562  11.527  1.00  0.00     0.066 A 
HETATM   37  C31 UNL     1      -5.581   3.845  12.066  1.00  0.00     0.046 A 
BRANCH  36  38
HETATM   38  O10 UNL     1      -4.446   2.214  10.714  1.00  0.00    -0.361 OA
HETATM   39  H45 UNL     1      -3.889   2.999  10.583  1.00  0.00     0.217 HD
ENDBRANCH  36  38
ENDBRANCH  29  32
ENDBRANCH  28  29
ENDBRANCH  27  28
ENDBRANCH  25  27
ENDBRANCH   1  25
BRANCH  15  40
HETATM   40  O8  UNL     1      -1.205  12.874  13.916  1.00  0.00    -0.364 OA
HETATM   41  H25 UNL     1      -0.411  12.471  13.514  1.00  0.00     0.213 HD
ENDBRANCH  15  40
BRANCH  10  42
HETATM   42  C14 UNL     1       4.080  11.477  17.022  1.00  0.00     0.197 C 
BRANCH  42  43
HETATM   43  O5  UNL     1       4.128  11.108  18.393  1.00  0.00    -0.398 OA
HETATM   44  H22 UNL     1       4.920  11.524  18.777  1.00  0.00     0.209 HD
ENDBRANCH  42  43
ENDBRANCH  10  42
TORSDOF 10
ENDMDL
