MODEL 1
REMARK minimizedAffinity -7.108953
REMARK CNNscore 0.791222095
REMARK CNNaffinity 6.71231794
REMARK  8 active torsions:
REMARK  status: ('A' for Active; 'I' for Inactive)
REMARK    1  A    between atoms: O1_2  and  C2_3 
REMARK    2  A    between atoms: C2_3  and  C5_6 
REMARK    3  A    between atoms: C6_7  and  C7_8 
REMARK    4  A    between atoms: C7_8  and  C8_9 
REMARK    5  A    between atoms: C8_9  and  C10_11 
REMARK    6  A    between atoms: C16_17  and  O2_18 
REMARK    7  A    between atoms: C19_21  and  C21_23 
REMARK    8  A    between atoms: C21_23  and  O3_24 
ROOT
HETATM    1  C10 UNL     1       5.206  56.266  -7.935  1.00  0.00    -0.002 C 
HETATM    2  C11 UNL     1       3.996  57.182  -7.915  1.00  0.00     0.006 C 
HETATM    3  C12 UNL     1       3.425  57.047  -9.320  1.00  0.00     0.011 C 
HETATM    4  C13 UNL     1       3.809  55.622  -9.872  1.00  0.00    -0.030 C 
HETATM    5  C14 UNL     1       4.542  55.873 -11.213  1.00  0.00     0.016 C 
HETATM    6  C15 UNL     1       2.492  54.812 -10.149  1.00  0.00     0.032 C 
HETATM    7  C16 UNL     1       2.562  53.565 -11.074  1.00  0.00     0.124 C 
HETATM    8  C17 UNL     1       1.332  52.638 -10.992  1.00  0.00     0.038 C 
HETATM    9  C18 UNL     1       0.051  53.316 -10.464  1.00  0.00     0.015 C 
HETATM   10  C19 UNL     1      -1.211  52.393 -10.591  1.00  0.00     0.042 C 
HETATM   11  C20 UNL     1      -0.943  50.884 -10.388  1.00  0.00     0.026 C 
HETATM   12  C22 UNL     1      -2.263  52.790  -9.555  1.00  0.00     0.137 C 
HETATM   13  O4  UNL     1      -3.463  52.872  -9.846  1.00  0.00    -0.297 OA
HETATM   14  C23 UNL     1      -1.830  52.999  -8.121  1.00  0.00     0.080 C 
HETATM   15  C24 UNL     1      -0.319  52.996  -7.940  1.00  0.00     0.018 C 
HETATM   16  C25 UNL     1       0.331  53.807  -9.033  1.00  0.00    -0.026 A 
HETATM   17  C26 UNL     1       0.403  55.281  -8.729  1.00  0.00     0.021 A 
HETATM   18  C27 UNL     1       1.699  54.503  -8.870  1.00  0.00    -0.025 A 
HETATM   19  C28 UNL     1       2.517  54.205  -7.633  1.00  0.00     0.011 C 
HETATM   20  C29 UNL     1       3.989  53.933  -7.918  1.00  0.00     0.011 C 
HETATM   21  C30 UNL     1       4.744  55.004  -8.748  1.00  0.00    -0.032 C 
HETATM   22  C31 UNL     1       6.031  54.322  -9.285  1.00  0.00     0.016 C 
ENDROOT
BRANCH   1  23
HETATM   23  C8  UNL     1       5.906  56.023  -6.565  1.00  0.00    -0.010 C 
HETATM   24  C9  UNL     1       5.272  54.928  -5.696  1.00  0.00     0.010 C 
BRANCH  23  25
HETATM   25  C7  UNL     1       5.968  57.316  -5.711  1.00  0.00     0.031 C 
BRANCH  25  26
HETATM   26  C6  UNL     1       7.354  57.642  -5.228  1.00  0.00    -0.027 C 
HETATM   27  C5  UNL     1       7.843  58.893  -5.136  1.00  0.00     0.006 C 
BRANCH  27  28
HETATM   28  C2  UNL     1       9.238  59.295  -4.692  1.00  0.00     0.070 C 
HETATM   29  C3  UNL     1       9.428  60.780  -5.035  1.00  0.00     0.050 C 
HETATM   30  C4  UNL     1       9.332  59.070  -3.176  1.00  0.00     0.050 C 
BRANCH  28  31
HETATM   31  O1  UNL     1      10.182  58.480  -5.399  1.00  0.00    -0.382 OA
HETATM   32  C1  UNL     1      11.120  57.752  -4.625  1.00  0.00     0.202 C 
ENDBRANCH  28  31
ENDBRANCH  27  28
ENDBRANCH  25  26
ENDBRANCH  23  25
ENDBRANCH   1  23
BRANCH   7  33
HETATM   33  O2  UNL     1       3.717  52.765 -10.839  1.00  0.00    -0.395 OA
HETATM   34  H28 UNL     1       3.754  52.087 -11.535  1.00  0.00     0.210 HD
ENDBRANCH   7  33
BRANCH  10  35
HETATM   35  C21 UNL     1      -1.828  52.531 -12.005  1.00  0.00     0.181 C 
BRANCH  35  36
HETATM   36  O3  UNL     1      -0.840  52.519 -13.026  1.00  0.00    -0.400 OA
HETATM   37  H37 UNL     1      -0.651  53.454 -13.246  1.00  0.00     0.209 HD
ENDBRANCH  35  36
ENDBRANCH  10  35
TORSDOF 8
ENDMDL
MODEL 2
REMARK minimizedAffinity -7.03498125
REMARK CNNscore 0.706859946
REMARK CNNaffinity 6.90068102
REMARK  8 active torsions:
REMARK  status: ('A' for Active; 'I' for Inactive)
REMARK    1  A    between atoms: O1_2  and  C2_3 
REMARK    2  A    between atoms: C2_3  and  C5_6 
REMARK    3  A    between atoms: C6_7  and  C7_8 
REMARK    4  A    between atoms: C7_8  and  C8_9 
REMARK    5  A    between atoms: C8_9  and  C10_11 
REMARK    6  A    between atoms: C16_17  and  O2_18 
REMARK    7  A    between atoms: C19_21  and  C21_23 
REMARK    8  A    between atoms: C21_23  and  O3_24 
ROOT
HETATM    1  C10 UNL     1      -1.901  53.343 -10.429  1.00  0.00    -0.002 C 
HETATM    2  C11 UNL     1      -3.372  53.634 -10.193  1.00  0.00     0.006 C 
HETATM    3  C12 UNL     1      -4.051  53.043 -11.421  1.00  0.00     0.011 C 
HETATM    4  C13 UNL     1      -3.160  51.859 -11.954  1.00  0.00    -0.030 C 
HETATM    5  C14 UNL     1      -2.869  52.186 -13.440  1.00  0.00     0.016 C 
HETATM    6  C15 UNL     1      -3.987  50.525 -11.874  1.00  0.00     0.032 C 
HETATM    7  C16 UNL     1      -3.516  49.303 -12.711  1.00  0.00     0.124 C 
HETATM    8  C17 UNL     1      -4.150  47.960 -12.294  1.00  0.00     0.038 C 
HETATM    9  C18 UNL     1      -5.485  48.089 -11.534  1.00  0.00     0.015 C 
HETATM   10  C19 UNL     1      -6.186  46.703 -11.313  1.00  0.00     0.042 C 
HETATM   11  C20 UNL     1      -5.226  45.513 -11.081  1.00  0.00     0.026 C 
HETATM   12  C22 UNL     1      -7.105  46.763 -10.093  1.00  0.00     0.137 C 
HETATM   13  O4  UNL     1      -8.240  46.270 -10.109  1.00  0.00    -0.297 OA
HETATM   14  C23 UNL     1      -6.574  47.364  -8.810  1.00  0.00     0.080 C 
HETATM   15  C24 UNL     1      -5.224  48.045  -8.976  1.00  0.00     0.018 C 
HETATM   16  C25 UNL     1      -5.218  48.873 -10.237  1.00  0.00    -0.026 A 
HETATM   17  C26 UNL     1      -5.777  50.260 -10.051  1.00  0.00     0.021 A 
HETATM   18  C27 UNL     1      -4.315  50.109 -10.433  1.00  0.00    -0.025 A 
HETATM   19  C28 UNL     1      -3.250  50.396  -9.397  1.00  0.00     0.011 C 
HETATM   20  C29 UNL     1      -1.892  50.749  -9.989  1.00  0.00     0.011 C 
HETATM   21  C30 UNL     1      -1.868  51.894 -11.034  1.00  0.00    -0.032 C 
HETATM   22  C31 UNL     1      -0.526  51.763 -11.805  1.00  0.00     0.016 C 
ENDROOT
BRANCH   1  23
HETATM   23  C8  UNL     1      -0.941  53.648  -9.240  1.00  0.00    -0.010 C 
HETATM   24  C9  UNL     1      -1.498  53.308  -7.851  1.00  0.00     0.010 C 
BRANCH  23  25
HETATM   25  C7  UNL     1      -0.509  55.138  -9.214  1.00  0.00     0.031 C 
BRANCH  25  26
HETATM   26  C6  UNL     1       0.902  55.353  -9.684  1.00  0.00    -0.027 C 
HETATM   27  C5  UNL     1       1.915  55.723  -8.877  1.00  0.00     0.006 C 
BRANCH  27  28
HETATM   28  C2  UNL     1       3.352  55.992  -9.285  1.00  0.00     0.070 C 
HETATM   29  C3  UNL     1       3.361  56.297 -10.791  1.00  0.00     0.050 C 
HETATM   30  C4  UNL     1       3.850  57.203  -8.483  1.00  0.00     0.050 C 
BRANCH  28  31
HETATM   31  O1  UNL     1       4.125  54.821  -8.994  1.00  0.00    -0.382 OA
HETATM   32  C1  UNL     1       4.021  53.732  -9.896  1.00  0.00     0.202 C 
ENDBRANCH  28  31
ENDBRANCH  27  28
ENDBRANCH  25  26
ENDBRANCH  23  25
ENDBRANCH   1  23
BRANCH   7  33
HETATM   33  O2  UNL     1      -2.102  49.132 -12.693  1.00  0.00    -0.395 OA
HETATM   34  H28 UNL     1      -1.879  48.436 -13.336  1.00  0.00     0.210 HD
ENDBRANCH   7  33
BRANCH  10  35
HETATM   35  C21 UNL     1      -7.032  46.334 -12.557  1.00  0.00     0.181 C 
BRANCH  35  36
HETATM   36  O3  UNL     1      -8.048  47.292 -12.819  1.00  0.00    -0.400 OA
HETATM   37  H37 UNL     1      -8.872  46.946 -12.417  1.00  0.00     0.209 HD
ENDBRANCH  35  36
ENDBRANCH  10  35
TORSDOF 8
ENDMDL
MODEL 3
REMARK minimizedAffinity -7.05668306
REMARK CNNscore 0.693480253
REMARK CNNaffinity 7.22347212
REMARK  8 active torsions:
REMARK  status: ('A' for Active; 'I' for Inactive)
REMARK    1  A    between atoms: O1_2  and  C2_3 
REMARK    2  A    between atoms: C2_3  and  C5_6 
REMARK    3  A    between atoms: C6_7  and  C7_8 
REMARK    4  A    between atoms: C7_8  and  C8_9 
REMARK    5  A    between atoms: C8_9  and  C10_11 
REMARK    6  A    between atoms: C16_17  and  O2_18 
REMARK    7  A    between atoms: C19_21  and  C21_23 
REMARK    8  A    between atoms: C21_23  and  O3_24 
ROOT
HETATM    1  C10 UNL     1      -1.611  53.349  -8.584  1.00  0.00    -0.002 C 
HETATM    2  C11 UNL     1      -1.186  51.939  -8.220  1.00  0.00     0.006 C 
HETATM    3  C12 UNL     1      -2.111  51.063  -9.053  1.00  0.00     0.011 C 
HETATM    4  C13 UNL     1      -2.520  51.869 -10.344  1.00  0.00    -0.030 C 
HETATM    5  C14 UNL     1      -4.068  51.883 -10.359  1.00  0.00     0.016 C 
HETATM    6  C15 UNL     1      -2.001  51.097 -11.610  1.00  0.00     0.032 C 
HETATM    7  C16 UNL     1      -2.616  51.436 -12.997  1.00  0.00     0.124 C 
HETATM    8  C17 UNL     1      -1.807  50.914 -14.201  1.00  0.00     0.038 C 
HETATM    9  C18 UNL     1      -0.867  49.734 -13.880  1.00  0.00     0.015 C 
HETATM   10  C19 UNL     1      -0.224  49.113 -15.169  1.00  0.00     0.042 C 
HETATM   11  C20 UNL     1       0.090  50.123 -16.297  1.00  0.00     0.026 C 
HETATM   12  C22 UNL     1       1.097  48.425 -14.823  1.00  0.00     0.137 C 
HETATM   13  O4  UNL     1       1.393  47.316 -15.285  1.00  0.00    -0.297 OA
HETATM   14  C23 UNL     1       2.099  49.164 -13.964  1.00  0.00     0.080 C 
HETATM   15  C24 UNL     1       1.547  50.449 -13.363  1.00  0.00     0.018 C 
HETATM   16  C25 UNL     1       0.155  50.213 -12.835  1.00  0.00    -0.026 A 
HETATM   17  C26 UNL     1       0.126  49.668 -11.430  1.00  0.00     0.021 A 
HETATM   18  C27 UNL     1      -0.468  51.041 -11.690  1.00  0.00    -0.025 A 
HETATM   19  C28 UNL     1       0.272  52.267 -11.203  1.00  0.00     0.011 C 
HETATM   20  C29 UNL     1      -0.617  53.490 -11.017  1.00  0.00     0.011 C 
HETATM   21  C30 UNL     1      -1.877  53.304 -10.132  1.00  0.00    -0.032 C 
HETATM   22  C31 UNL     1      -2.826  54.489 -10.457  1.00  0.00     0.016 C 
ENDROOT
BRANCH   1  23
HETATM   23  C8  UNL     1      -0.710  54.500  -8.043  1.00  0.00    -0.010 C 
HETATM   24  C9  UNL     1      -0.821  55.827  -8.805  1.00  0.00     0.010 C 
BRANCH  23  25
HETATM   25  C7  UNL     1       0.789  54.099  -8.025  1.00  0.00     0.031 C 
BRANCH  25  26
HETATM   26  C6  UNL     1       1.690  55.150  -8.610  1.00  0.00    -0.027 C 
HETATM   27  C5  UNL     1       2.974  54.932  -8.954  1.00  0.00     0.006 C 
BRANCH  27  28
HETATM   28  C2  UNL     1       3.951  55.949  -9.515  1.00  0.00     0.070 C 
HETATM   29  C3  UNL     1       3.453  56.353 -10.912  1.00  0.00     0.050 C 
HETATM   30  C4  UNL     1       3.962  57.160  -8.572  1.00  0.00     0.050 C 
BRANCH  28  31
HETATM   31  O1  UNL     1       5.243  55.334  -9.589  1.00  0.00    -0.382 OA
HETATM   32  C1  UNL     1       6.071  55.421  -8.443  1.00  0.00     0.202 C 
ENDBRANCH  28  31
ENDBRANCH  27  28
ENDBRANCH  25  26
ENDBRANCH  23  25
ENDBRANCH   1  23
BRANCH   7  33
HETATM   33  O2  UNL     1      -2.814  52.834 -13.188  1.00  0.00    -0.395 OA
HETATM   34  H28 UNL     1      -3.317  52.952 -14.013  1.00  0.00     0.210 HD
ENDBRANCH   7  33
BRANCH  10  35
HETATM   35  C21 UNL     1      -1.184  48.065 -15.788  1.00  0.00     0.181 C 
BRANCH  35  36
HETATM   36  O3  UNL     1      -1.114  48.044 -17.206  1.00  0.00    -0.400 OA
HETATM   37  H37 UNL     1      -1.850  48.601 -17.533  1.00  0.00     0.209 HD
ENDBRANCH  35  36
ENDBRANCH  10  35
TORSDOF 8
ENDMDL
MODEL 4
REMARK minimizedAffinity -7.48666334
REMARK CNNscore 0.579201043
REMARK CNNaffinity 6.3493228
REMARK  8 active torsions:
REMARK  status: ('A' for Active; 'I' for Inactive)
REMARK    1  A    between atoms: O1_2  and  C2_3 
REMARK    2  A    between atoms: C2_3  and  C5_6 
REMARK    3  A    between atoms: C6_7  and  C7_8 
REMARK    4  A    between atoms: C7_8  and  C8_9 
REMARK    5  A    between atoms: C8_9  and  C10_11 
REMARK    6  A    between atoms: C16_17  and  O2_18 
REMARK    7  A    between atoms: C19_21  and  C21_23 
REMARK    8  A    between atoms: C21_23  and  O3_24 
ROOT
HETATM    1  C10 UNL     1      -6.627  48.067 -28.597  1.00  0.00    -0.002 C 
HETATM    2  C11 UNL     1      -7.915  47.514 -28.015  1.00  0.00     0.006 C 
HETATM    3  C12 UNL     1      -8.921  47.695 -29.142  1.00  0.00     0.011 C 
HETATM    4  C13 UNL     1      -8.139  47.655 -30.509  1.00  0.00    -0.030 C 
HETATM    5  C14 UNL     1      -8.505  48.970 -31.243  1.00  0.00     0.016 C 
HETATM    6  C15 UNL     1      -8.655  46.435 -31.354  1.00  0.00     0.032 C 
HETATM    7  C16 UNL     1      -8.368  46.409 -32.881  1.00  0.00     0.124 C 
HETATM    8  C17 UNL     1      -8.576  45.033 -33.548  1.00  0.00     0.038 C 
HETATM    9  C18 UNL     1      -9.511  44.081 -32.776  1.00  0.00     0.015 C 
HETATM   10  C19 UNL     1      -9.849  42.783 -33.589  1.00  0.00     0.042 C 
HETATM   11  C20 UNL     1      -8.705  42.255 -34.487  1.00  0.00     0.026 C 
HETATM   12  C22 UNL     1     -10.217  41.643 -32.640  1.00  0.00     0.137 C 
HETATM   13  O4  UNL     1     -11.178  40.896 -32.861  1.00  0.00    -0.297 OA
HETATM   14  C23 UNL     1      -9.325  41.373 -31.447  1.00  0.00     0.080 C 
HETATM   15  C24 UNL     1      -8.269  42.446 -31.229  1.00  0.00     0.018 C 
HETATM   16  C25 UNL     1      -8.881  43.813 -31.397  1.00  0.00    -0.026 A 
HETATM   17  C26 UNL     1      -9.528  44.344 -30.144  1.00  0.00     0.021 A 
HETATM   18  C27 UNL     1      -8.327  45.080 -30.711  1.00  0.00    -0.025 A 
HETATM   19  C28 UNL     1      -6.999  44.987 -29.991  1.00  0.00     0.011 C 
HETATM   20  C29 UNL     1      -6.052  46.140 -30.293  1.00  0.00     0.011 C 
HETATM   21  C30 UNL     1      -6.612  47.571 -30.087  1.00  0.00    -0.032 C 
HETATM   22  C31 UNL     1      -5.675  48.532 -30.868  1.00  0.00     0.016 C 
ENDROOT
BRANCH   1  23
HETATM   23  C8  UNL     1      -5.338  47.843 -27.751  1.00  0.00    -0.010 C 
HETATM   24  C9  UNL     1      -5.490  48.120 -26.249  1.00  0.00     0.010 C 
BRANCH  23  25
HETATM   25  C7  UNL     1      -4.154  48.701 -28.264  1.00  0.00     0.031 C 
BRANCH  25  26
HETATM   26  C6  UNL     1      -3.642  49.677 -27.242  1.00  0.00    -0.027 C 
HETATM   27  C5  UNL     1      -3.032  50.838 -27.550  1.00  0.00     0.006 C 
BRANCH  27  28
HETATM   28  C2  UNL     1      -2.460  51.852 -26.575  1.00  0.00     0.070 C 
HETATM   29  C3  UNL     1      -3.503  52.075 -25.469  1.00  0.00     0.050 C 
HETATM   30  C4  UNL     1      -1.166  51.266 -25.992  1.00  0.00     0.050 C 
BRANCH  28  31
HETATM   31  O1  UNL     1      -2.205  53.066 -27.293  1.00  0.00    -0.382 OA
HETATM   32  C1  UNL     1      -0.874  53.302 -27.719  1.00  0.00     0.202 C 
ENDBRANCH  28  31
ENDBRANCH  27  28
ENDBRANCH  25  26
ENDBRANCH  23  25
ENDBRANCH   1  23
BRANCH   7  33
HETATM   33  O2  UNL     1      -7.051  46.846 -33.205  1.00  0.00    -0.395 OA
HETATM   34  H28 UNL     1      -6.994  46.924 -34.173  1.00  0.00     0.210 HD
ENDBRANCH   7  33
BRANCH  10  35
HETATM   35  C21 UNL     1     -11.047  43.049 -34.536  1.00  0.00     0.181 C 
BRANCH  35  36
HETATM   36  O3  UNL     1     -11.146  42.074 -35.564  1.00  0.00    -0.400 OA
HETATM   37  H37 UNL     1     -10.709  42.453 -36.355  1.00  0.00     0.209 HD
ENDBRANCH  35  36
ENDBRANCH  10  35
TORSDOF 8
ENDMDL
MODEL 5
REMARK minimizedAffinity -6.93135166
REMARK CNNscore 0.496299177
REMARK CNNaffinity 6.13348341
REMARK  8 active torsions:
REMARK  status: ('A' for Active; 'I' for Inactive)
REMARK    1  A    between atoms: O1_2  and  C2_3 
REMARK    2  A    between atoms: C2_3  and  C5_6 
REMARK    3  A    between atoms: C6_7  and  C7_8 
REMARK    4  A    between atoms: C7_8  and  C8_9 
REMARK    5  A    between atoms: C8_9  and  C10_11 
REMARK    6  A    between atoms: C16_17  and  O2_18 
REMARK    7  A    between atoms: C19_21  and  C21_23 
REMARK    8  A    between atoms: C21_23  and  O3_24 
ROOT
HETATM    1  C10 UNL     1      -6.449  46.389 -31.803  1.00  0.00    -0.002 C 
HETATM    2  C11 UNL     1      -6.670  44.985 -31.271  1.00  0.00     0.006 C 
HETATM    3  C12 UNL     1      -6.705  45.178 -29.762  1.00  0.00     0.011 C 
HETATM    4  C13 UNL     1      -7.214  46.639 -29.465  1.00  0.00    -0.030 C 
HETATM    5  C14 UNL     1      -6.128  47.292 -28.575  1.00  0.00     0.016 C 
HETATM    6  C15 UNL     1      -8.559  46.554 -28.656  1.00  0.00     0.032 C 
HETATM    7  C16 UNL     1      -9.046  47.811 -27.882  1.00  0.00     0.124 C 
HETATM    8  C17 UNL     1     -10.522  47.755 -27.437  1.00  0.00     0.038 C 
HETATM    9  C18 UNL     1     -11.109  46.333 -27.337  1.00  0.00     0.015 C 
HETATM   10  C19 UNL     1     -12.538  46.319 -26.690  1.00  0.00     0.042 C 
HETATM   11  C20 UNL     1     -13.420  47.545 -27.023  1.00  0.00     0.026 C 
HETATM   12  C22 UNL     1     -13.317  45.087 -27.152  1.00  0.00     0.137 C 
HETATM   13  O4  UNL     1     -13.985  44.407 -26.363  1.00  0.00    -0.297 OA
HETATM   14  C23 UNL     1     -13.335  44.748 -28.626  1.00  0.00     0.080 C 
HETATM   15  C24 UNL     1     -12.368  45.585 -29.450  1.00  0.00     0.018 C 
HETATM   16  C25 UNL     1     -11.045  45.694 -28.735  1.00  0.00    -0.026 A 
HETATM   17  C26 UNL     1     -10.114  44.540 -29.008  1.00  0.00     0.021 A 
HETATM   18  C27 UNL     1      -9.705  45.929 -29.465  1.00  0.00    -0.025 A 
HETATM   19  C28 UNL     1      -9.737  46.257 -30.942  1.00  0.00     0.011 C 
HETATM   20  C29 UNL     1      -8.827  47.413 -31.336  1.00  0.00     0.011 C 
HETATM   21  C30 UNL     1      -7.343  47.309 -30.897  1.00  0.00    -0.032 C 
HETATM   22  C31 UNL     1      -6.752  48.742 -30.993  1.00  0.00     0.016 C 
ENDROOT
BRANCH   1  23
HETATM   23  C8  UNL     1      -6.566  46.566 -33.347  1.00  0.00    -0.010 C 
HETATM   24  C9  UNL     1      -5.767  47.738 -33.930  1.00  0.00     0.010 C 
BRANCH  23  25
HETATM   25  C7  UNL     1      -8.040  46.739 -33.797  1.00  0.00     0.031 C 
BRANCH  25  26
HETATM   26  C6  UNL     1      -8.176  47.409 -35.136  1.00  0.00    -0.027 C 
HETATM   27  C5  UNL     1      -8.854  46.883 -36.174  1.00  0.00     0.006 C 
BRANCH  27  28
HETATM   28  C2  UNL     1      -9.003  47.484 -37.560  1.00  0.00     0.070 C 
HETATM   29  C3  UNL     1      -7.638  48.054 -37.972  1.00  0.00     0.050 C 
HETATM   30  C4  UNL     1      -9.434  46.361 -38.515  1.00  0.00     0.050 C 
BRANCH  28  31
HETATM   31  O1  UNL     1      -9.993  48.519 -37.493  1.00  0.00    -0.382 OA
HETATM   32  C1  UNL     1     -10.988  48.533 -38.502  1.00  0.00     0.202 C 
ENDBRANCH  28  31
ENDBRANCH  27  28
ENDBRANCH  25  26
ENDBRANCH  23  25
ENDBRANCH   1  23
BRANCH   7  33
HETATM   33  O2  UNL     1      -8.866  49.018 -28.617  1.00  0.00    -0.395 OA
HETATM   34  H28 UNL     1      -9.070  49.760 -28.022  1.00  0.00     0.210 HD
ENDBRANCH   7  33
BRANCH  10  35
HETATM   35  C21 UNL     1     -12.420  46.284 -25.145  1.00  0.00     0.181 C 
BRANCH  35  36
HETATM   36  O3  UNL     1     -11.507  47.254 -24.654  1.00  0.00    -0.400 OA
HETATM   37  H37 UNL     1     -10.652  46.794 -24.520  1.00  0.00     0.209 HD
ENDBRANCH  35  36
ENDBRANCH  10  35
TORSDOF 8
ENDMDL
MODEL 6
REMARK minimizedAffinity -7.55872965
REMARK CNNscore 0.389772445
REMARK CNNaffinity 6.14054155
REMARK  8 active torsions:
REMARK  status: ('A' for Active; 'I' for Inactive)
REMARK    1  A    between atoms: O1_2  and  C2_3 
REMARK    2  A    between atoms: C2_3  and  C5_6 
REMARK    3  A    between atoms: C6_7  and  C7_8 
REMARK    4  A    between atoms: C7_8  and  C8_9 
REMARK    5  A    between atoms: C8_9  and  C10_11 
REMARK    6  A    between atoms: C16_17  and  O2_18 
REMARK    7  A    between atoms: C19_21  and  C21_23 
REMARK    8  A    between atoms: C21_23  and  O3_24 
ROOT
HETATM    1  C10 UNL     1      -7.457  48.006 -28.437  1.00  0.00    -0.002 C 
HETATM    2  C11 UNL     1      -8.902  47.653 -28.136  1.00  0.00     0.006 C 
HETATM    3  C12 UNL     1      -9.663  48.240 -29.316  1.00  0.00     0.011 C 
HETATM    4  C13 UNL     1      -8.697  48.268 -30.560  1.00  0.00    -0.030 C 
HETATM    5  C14 UNL     1      -8.684  49.737 -31.051  1.00  0.00     0.016 C 
HETATM    6  C15 UNL     1      -9.295  47.354 -31.689  1.00  0.00     0.032 C 
HETATM    7  C16 UNL     1      -8.779  47.530 -33.145  1.00  0.00     0.124 C 
HETATM    8  C17 UNL     1      -9.137  46.369 -34.095  1.00  0.00     0.038 C 
HETATM    9  C18 UNL     1     -10.347  45.524 -33.648  1.00  0.00     0.015 C 
HETATM   10  C19 UNL     1     -10.793  44.491 -34.741  1.00  0.00     0.042 C 
HETATM   11  C20 UNL     1      -9.644  43.890 -35.583  1.00  0.00     0.026 C 
HETATM   12  C22 UNL     1     -11.517  43.311 -34.092  1.00  0.00     0.137 C 
HETATM   13  O4  UNL     1     -12.556  42.841 -34.573  1.00  0.00    -0.297 OA
HETATM   14  C23 UNL     1     -10.894  42.653 -32.880  1.00  0.00     0.080 C 
HETATM   15  C24 UNL     1      -9.701  43.416 -32.325  1.00  0.00     0.018 C 
HETATM   16  C25 UNL     1     -10.007  44.892 -32.287  1.00  0.00    -0.026 A 
HETATM   17  C26 UNL     1     -10.731  45.326 -31.038  1.00  0.00     0.021 A 
HETATM   18  C27 UNL     1      -9.337  45.869 -31.298  1.00  0.00    -0.025 A 
HETATM   19  C28 UNL     1      -8.183  45.368 -30.458  1.00  0.00     0.011 C 
HETATM   20  C29 UNL     1      -6.997  46.322 -30.406  1.00  0.00     0.011 C 
HETATM   21  C30 UNL     1      -7.300  47.783 -29.984  1.00  0.00    -0.032 C 
HETATM   22  C31 UNL     1      -6.085  48.637 -30.438  1.00  0.00     0.016 C 
ENDROOT
BRANCH   1  23
HETATM   23  C8  UNL     1      -6.385  47.363 -27.506  1.00  0.00    -0.010 C 
HETATM   24  C9  UNL     1      -6.758  47.321 -26.018  1.00  0.00     0.010 C 
BRANCH  23  25
HETATM   25  C7  UNL     1      -5.016  48.082 -27.620  1.00  0.00     0.031 C 
BRANCH  25  26
HETATM   26  C6  UNL     1      -4.444  48.485 -26.290  1.00  0.00    -0.027 C 
HETATM   27  C5  UNL     1      -3.550  49.479 -26.126  1.00  0.00     0.006 C 
BRANCH  27  28
HETATM   28  C2  UNL     1      -2.907  49.918 -24.823  1.00  0.00     0.070 C 
HETATM   29  C3  UNL     1      -1.553  50.560 -25.164  1.00  0.00     0.050 C 
HETATM   30  C4  UNL     1      -3.840  50.939 -24.158  1.00  0.00     0.050 C 
BRANCH  28  31
HETATM   31  O1  UNL     1      -2.731  48.758 -23.999  1.00  0.00    -0.382 OA
HETATM   32  C1  UNL     1      -2.469  48.972 -22.623  1.00  0.00     0.202 C 
ENDBRANCH  28  31
ENDBRANCH  27  28
ENDBRANCH  25  26
ENDBRANCH  23  25
ENDBRANCH   1  23
BRANCH   7  33
HETATM   33  O2  UNL     1      -7.369  47.719 -33.213  1.00  0.00    -0.395 OA
HETATM   34  H28 UNL     1      -7.145  47.949 -34.132  1.00  0.00     0.210 HD
ENDBRANCH   7  33
BRANCH  10  35
HETATM   35  C21 UNL     1     -11.753  45.170 -35.750  1.00  0.00     0.181 C 
BRANCH  35  36
HETATM   36  O3  UNL     1     -12.831  45.832 -35.105  1.00  0.00    -0.400 OA
HETATM   37  H37 UNL     1     -13.591  45.214 -35.119  1.00  0.00     0.209 HD
ENDBRANCH  35  36
ENDBRANCH  10  35
TORSDOF 8
ENDMDL
MODEL 7
REMARK minimizedAffinity -7.13866425
REMARK CNNscore 0.375715554
REMARK CNNaffinity 5.9233799
REMARK  8 active torsions:
REMARK  status: ('A' for Active; 'I' for Inactive)
REMARK    1  A    between atoms: O1_2  and  C2_3 
REMARK    2  A    between atoms: C2_3  and  C5_6 
REMARK    3  A    between atoms: C6_7  and  C7_8 
REMARK    4  A    between atoms: C7_8  and  C8_9 
REMARK    5  A    between atoms: C8_9  and  C10_11 
REMARK    6  A    between atoms: C16_17  and  O2_18 
REMARK    7  A    between atoms: C19_21  and  C21_23 
REMARK    8  A    between atoms: C21_23  and  O3_24 
ROOT
HETATM    1  C10 UNL     1      -8.029  47.492 -29.739  1.00  0.00    -0.002 C 
HETATM    2  C11 UNL     1      -9.185  48.425 -30.049  1.00  0.00     0.006 C 
HETATM    3  C12 UNL     1     -10.199  47.519 -30.733  1.00  0.00     0.011 C 
HETATM    4  C13 UNL     1      -9.986  46.052 -30.201  1.00  0.00    -0.030 C 
HETATM    5  C14 UNL     1      -9.766  45.175 -31.458  1.00  0.00     0.016 C 
HETATM    6  C15 UNL     1     -11.294  45.582 -29.469  1.00  0.00     0.032 C 
HETATM    7  C16 UNL     1     -11.510  44.062 -29.225  1.00  0.00     0.124 C 
HETATM    8  C17 UNL     1     -12.609  43.729 -28.196  1.00  0.00     0.038 C 
HETATM    9  C18 UNL     1     -13.650  44.847 -27.984  1.00  0.00     0.015 C 
HETATM   10  C19 UNL     1     -14.851  44.384 -27.087  1.00  0.00     0.042 C 
HETATM   11  C20 UNL     1     -14.486  43.385 -25.965  1.00  0.00     0.026 C 
HETATM   12  C22 UNL     1     -15.496  45.589 -26.402  1.00  0.00     0.137 C 
HETATM   13  O4  UNL     1     -16.724  45.720 -26.336  1.00  0.00    -0.297 OA
HETATM   14  C23 UNL     1     -14.603  46.598 -25.713  1.00  0.00     0.080 C 
HETATM   15  C24 UNL     1     -13.123  46.382 -25.991  1.00  0.00     0.018 C 
HETATM   16  C25 UNL     1     -12.911  46.088 -27.454  1.00  0.00    -0.026 A 
HETATM   17  C26 UNL     1     -12.782  47.324 -28.306  1.00  0.00     0.021 A 
HETATM   18  C27 UNL     1     -11.591  46.389 -28.196  1.00  0.00    -0.025 A 
HETATM   19  C28 UNL     1     -10.390  46.820 -27.384  1.00  0.00     0.011 C 
HETATM   20  C29 UNL     1      -9.098  46.112 -27.770  1.00  0.00     0.011 C 
HETATM   21  C30 UNL     1      -8.705  46.154 -29.270  1.00  0.00    -0.032 C 
HETATM   22  C31 UNL     1      -7.661  45.026 -29.487  1.00  0.00     0.016 C 
ENDROOT
BRANCH   1  23
HETATM   23  C8  UNL     1      -6.895  48.077 -28.845  1.00  0.00    -0.010 C 
HETATM   24  C9  UNL     1      -5.486  47.999 -29.449  1.00  0.00     0.010 C 
BRANCH  23  25
HETATM   25  C7  UNL     1      -6.843  47.390 -27.456  1.00  0.00     0.031 C 
BRANCH  25  26
HETATM   26  C6  UNL     1      -5.736  47.908 -26.580  1.00  0.00    -0.027 C 
HETATM   27  C5  UNL     1      -5.891  48.222 -25.280  1.00  0.00     0.006 C 
BRANCH  27  28
HETATM   28  C2  UNL     1      -4.832  48.780 -24.346  1.00  0.00     0.070 C 
HETATM   29  C3  UNL     1      -4.896  47.980 -23.036  1.00  0.00     0.050 C 
HETATM   30  C4  UNL     1      -3.466  48.603 -25.025  1.00  0.00     0.050 C 
BRANCH  28  31
HETATM   31  O1  UNL     1      -5.124  50.164 -24.117  1.00  0.00    -0.382 OA
HETATM   32  C1  UNL     1      -5.792  50.497 -22.912  1.00  0.00     0.202 C 
ENDBRANCH  28  31
ENDBRANCH  27  28
ENDBRANCH  25  26
ENDBRANCH  23  25
ENDBRANCH   1  23
BRANCH   7  33
HETATM   33  O2  UNL     1     -10.321  43.394 -28.813  1.00  0.00    -0.395 OA
HETATM   34  H28 UNL     1     -10.505  42.438 -28.809  1.00  0.00     0.210 HD
ENDBRANCH   7  33
BRANCH  10  35
HETATM   35  C21 UNL     1     -15.920  43.677 -27.958  1.00  0.00     0.181 C 
BRANCH  35  36
HETATM   36  O3  UNL     1     -16.406  44.514 -28.998  1.00  0.00    -0.400 OA
HETATM   37  H37 UNL     1     -17.239  44.913 -28.672  1.00  0.00     0.209 HD
ENDBRANCH  35  36
ENDBRANCH  10  35
TORSDOF 8
ENDMDL
MODEL 8
REMARK minimizedAffinity -7.95871878
REMARK CNNscore 0.353820413
REMARK CNNaffinity 6.59984159
REMARK  8 active torsions:
REMARK  status: ('A' for Active; 'I' for Inactive)
REMARK    1  A    between atoms: O1_2  and  C2_3 
REMARK    2  A    between atoms: C2_3  and  C5_6 
REMARK    3  A    between atoms: C6_7  and  C7_8 
REMARK    4  A    between atoms: C7_8  and  C8_9 
REMARK    5  A    between atoms: C8_9  and  C10_11 
REMARK    6  A    between atoms: C16_17  and  O2_18 
REMARK    7  A    between atoms: C19_21  and  C21_23 
REMARK    8  A    between atoms: C21_23  and  O3_24 
ROOT
HETATM    1  C10 UNL     1      -2.140  50.471 -21.744  1.00  0.00    -0.002 C 
HETATM    2  C11 UNL     1      -3.310  51.425 -21.895  1.00  0.00     0.006 C 
HETATM    3  C12 UNL     1      -4.315  50.629 -22.716  1.00  0.00     0.011 C 
HETATM    4  C13 UNL     1      -4.079  49.098 -22.430  1.00  0.00    -0.030 C 
HETATM    5  C14 UNL     1      -3.853  48.441 -23.815  1.00  0.00     0.016 C 
HETATM    6  C15 UNL     1      -5.378  48.497 -21.782  1.00  0.00     0.032 C 
HETATM    7  C16 UNL     1      -5.571  46.954 -21.789  1.00  0.00     0.124 C 
HETATM    8  C17 UNL     1      -6.661  46.442 -20.826  1.00  0.00     0.038 C 
HETATM    9  C18 UNL     1      -7.716  47.495 -20.432  1.00  0.00     0.015 C 
HETATM   10  C19 UNL     1      -8.907  46.875 -19.620  1.00  0.00     0.042 C 
HETATM   11  C20 UNL     1      -8.522  45.712 -18.677  1.00  0.00     0.026 C 
HETATM   12  C22 UNL     1      -9.565  47.943 -18.746  1.00  0.00     0.137 C 
HETATM   13  O4  UNL     1     -10.795  48.044 -18.657  1.00  0.00    -0.297 OA
HETATM   14  C23 UNL     1      -8.682  48.838 -17.904  1.00  0.00     0.080 C 
HETATM   15  C24 UNL     1      -7.201  48.692 -18.216  1.00  0.00     0.018 C 
HETATM   16  C25 UNL     1      -6.992  48.643 -19.709  1.00  0.00    -0.026 A 
HETATM   17  C26 UNL     1      -6.884  50.004 -20.347  1.00  0.00     0.021 A 
HETATM   18  C27 UNL     1      -5.680  49.080 -20.394  1.00  0.00    -0.025 A 
HETATM   19  C28 UNL     1      -4.480  49.390 -19.525  1.00  0.00     0.011 C 
HETATM   20  C29 UNL     1      -3.181  48.773 -20.024  1.00  0.00     0.011 C 
HETATM   21  C30 UNL     1      -2.796  49.065 -21.498  1.00  0.00    -0.032 C 
HETATM   22  C31 UNL     1      -1.737  48.002 -21.899  1.00  0.00     0.016 C 
ENDROOT
BRANCH   1  23
HETATM   23  C8  UNL     1      -1.010  50.918 -20.770  1.00  0.00    -0.010 C 
HETATM   24  C9  UNL     1      -1.467  51.815 -19.612  1.00  0.00     0.010 C 
BRANCH  23  25
HETATM   25  C7  UNL     1       0.131  51.663 -21.512  1.00  0.00     0.031 C 
BRANCH  25  26
HETATM   26  C6  UNL     1      -0.009  51.621 -23.008  1.00  0.00    -0.027 C 
HETATM   27  C5  UNL     1       0.695  52.401 -23.850  1.00  0.00     0.006 C 
BRANCH  27  28
HETATM   28  C2  UNL     1       0.582  52.438 -25.364  1.00  0.00     0.070 C 
HETATM   29  C3  UNL     1      -0.154  51.165 -25.809  1.00  0.00     0.050 C 
HETATM   30  C4  UNL     1      -0.220  53.691 -25.745  1.00  0.00     0.050 C 
BRANCH  28  31
HETATM   31  O1  UNL     1       1.907  52.482 -25.909  1.00  0.00    -0.382 OA
HETATM   32  C1  UNL     1       2.466  51.258 -26.356  1.00  0.00     0.202 C 
ENDBRANCH  28  31
ENDBRANCH  27  28
ENDBRANCH  25  26
ENDBRANCH  23  25
ENDBRANCH   1  23
BRANCH   7  33
HETATM   33  O2  UNL     1      -4.372  46.244 -21.495  1.00  0.00    -0.395 OA
HETATM   34  H28 UNL     1      -4.542  45.298 -21.646  1.00  0.00     0.210 HD
ENDBRANCH   7  33
BRANCH  10  35
HETATM   35  C21 UNL     1      -9.970  46.304 -20.593  1.00  0.00     0.181 C 
BRANCH  35  36
HETATM   36  O3  UNL     1      -9.937  46.944 -21.861  1.00  0.00    -0.400 OA
HETATM   37  H37 UNL     1     -10.630  47.637 -21.844  1.00  0.00     0.209 HD
ENDBRANCH  35  36
ENDBRANCH  10  35
TORSDOF 8
ENDMDL
MODEL 9
REMARK minimizedAffinity -7.16442919
REMARK CNNscore 0.321688563
REMARK CNNaffinity 5.78555107
REMARK  8 active torsions:
REMARK  status: ('A' for Active; 'I' for Inactive)
REMARK    1  A    between atoms: O1_2  and  C2_3 
REMARK    2  A    between atoms: C2_3  and  C5_6 
REMARK    3  A    between atoms: C6_7  and  C7_8 
REMARK    4  A    between atoms: C7_8  and  C8_9 
REMARK    5  A    between atoms: C8_9  and  C10_11 
REMARK    6  A    between atoms: C16_17  and  O2_18 
REMARK    7  A    between atoms: C19_21  and  C21_23 
REMARK    8  A    between atoms: C21_23  and  O3_24 
ROOT
HETATM    1  C10 UNL     1     -12.276  46.432 -26.624  1.00  0.00    -0.002 C 
HETATM    2  C11 UNL     1     -12.068  47.815 -27.213  1.00  0.00     0.006 C 
HETATM    3  C12 UNL     1     -10.577  48.060 -27.026  1.00  0.00     0.011 C 
HETATM    4  C13 UNL     1      -9.846  46.664 -27.023  1.00  0.00    -0.030 C 
HETATM    5  C14 UNL     1      -9.042  46.612 -25.700  1.00  0.00     0.016 C 
HETATM    6  C15 UNL     1      -8.847  46.611 -28.234  1.00  0.00     0.032 C 
HETATM    7  C16 UNL     1      -7.716  45.545 -28.223  1.00  0.00     0.124 C 
HETATM    8  C17 UNL     1      -7.031  45.325 -29.587  1.00  0.00     0.038 C 
HETATM    9  C18 UNL     1      -7.170  46.502 -30.573  1.00  0.00     0.015 C 
HETATM   10  C19 UNL     1      -6.292  46.314 -31.859  1.00  0.00     0.042 C 
HETATM   11  C20 UNL     1      -6.149  44.854 -32.347  1.00  0.00     0.026 C 
HETATM   12  C22 UNL     1      -6.885  47.105 -33.025  1.00  0.00     0.137 C 
HETATM   13  O4  UNL     1      -6.174  47.775 -33.785  1.00  0.00    -0.297 OA
HETATM   14  C23 UNL     1      -8.367  46.989 -33.304  1.00  0.00     0.080 C 
HETATM   15  C24 UNL     1      -9.130  46.246 -32.217  1.00  0.00     0.018 C 
HETATM   16  C25 UNL     1      -8.668  46.708 -30.858  1.00  0.00    -0.026 A 
HETATM   17  C26 UNL     1      -9.379  47.942 -30.366  1.00  0.00     0.021 A 
HETATM   18  C27 UNL     1      -9.555  46.644 -29.596  1.00  0.00    -0.025 A 
HETATM   19  C28 UNL     1     -10.877  45.912 -29.680  1.00  0.00     0.011 C 
HETATM   20  C29 UNL     1     -11.142  44.982 -28.504  1.00  0.00     0.011 C 
HETATM   21  C30 UNL     1     -11.025  45.604 -27.088  1.00  0.00    -0.032 C 
HETATM   22  C31 UNL     1     -10.880  44.419 -26.094  1.00  0.00     0.016 C 
ENDROOT
BRANCH   1  23
HETATM   23  C8  UNL     1     -13.681  45.797 -26.843  1.00  0.00    -0.010 C 
HETATM   24  C9  UNL     1     -14.370  46.180 -28.159  1.00  0.00     0.010 C 
BRANCH  23  25
HETATM   25  C7  UNL     1     -14.658  46.144 -25.689  1.00  0.00     0.031 C 
BRANCH  25  26
HETATM   26  C6  UNL     1     -16.038  45.583 -25.891  1.00  0.00    -0.027 C 
HETATM   27  C5  UNL     1     -17.136  46.041 -25.260  1.00  0.00     0.006 C 
BRANCH  27  28
HETATM   28  C2  UNL     1     -18.549  45.502 -25.387  1.00  0.00     0.070 C 
HETATM   29  C3  UNL     1     -18.564  44.085 -24.795  1.00  0.00     0.050 C 
HETATM   30  C4  UNL     1     -19.480  46.432 -24.595  1.00  0.00     0.050 C 
BRANCH  28  31
HETATM   31  O1  UNL     1     -18.895  45.481 -26.778  1.00  0.00    -0.382 OA
HETATM   32  C1  UNL     1     -19.169  44.218 -27.361  1.00  0.00     0.202 C 
ENDBRANCH  28  31
ENDBRANCH  27  28
ENDBRANCH  25  26
ENDBRANCH  23  25
ENDBRANCH   1  23
BRANCH   7  33
HETATM   33  O2  UNL     1      -8.157  44.274 -27.755  1.00  0.00    -0.395 OA
HETATM   34  H28 UNL     1      -7.373  43.707 -27.655  1.00  0.00     0.210 HD
ENDBRANCH   7  33
BRANCH  10  35
HETATM   35  C21 UNL     1      -4.851  46.820 -31.595  1.00  0.00     0.181 C 
BRANCH  35  36
HETATM   36  O3  UNL     1      -4.833  48.142 -31.076  1.00  0.00    -0.400 OA
HETATM   37  H37 UNL     1      -4.679  48.742 -31.836  1.00  0.00     0.209 HD
ENDBRANCH  35  36
ENDBRANCH  10  35
TORSDOF 8
ENDMDL
