MODEL 1
REMARK minimizedAffinity -7.1627717
REMARK CNNscore 0.774654984
REMARK CNNaffinity 7.17280817
REMARK  8 active torsions:
REMARK  status: ('A' for Active; 'I' for Inactive)
REMARK    1  A    between atoms: C4_4  and  C5_5 
REMARK    2  A    between atoms: C5_5  and  C6_7 
REMARK    3  A    between atoms: C6_7  and  C7_8 
REMARK    4  A    between atoms: C7_8  and  C9_10 
REMARK    5  A    between atoms: C18_19  and  C20_21 
REMARK    6  A    between atoms: C20_21  and  O2_22 
REMARK    7  A    between atoms: C21_23  and  O3_24 
REMARK    8  A    between atoms: O3_24  and  S1_25 
ROOT
HETATM    1  C9  UNL     1       3.428  55.443  -8.238  1.00  0.00    -0.001 C 
HETATM    2  C10 UNL     1       2.502  56.481  -7.562  1.00  0.00     0.006 C 
HETATM    3  C11 UNL     1       1.051  55.969  -7.735  1.00  0.00     0.012 C 
HETATM    4  C12 UNL     1       1.171  54.556  -8.349  1.00  0.00    -0.016 C 
HETATM    5  C13 UNL     1       1.313  53.566  -7.152  1.00  0.00     0.018 C 
HETATM    6  C14 UNL     1      -0.013  54.127  -9.260  1.00  0.00     0.089 A 
HETATM    7  C15 UNL     1      -1.309  53.791  -8.505  1.00  0.00     0.121 A 
HETATM    8  C16 UNL     1      -2.434  53.474  -9.494  1.00  0.00     0.026 C 
HETATM    9  C17 UNL     1      -2.155  52.151 -10.230  1.00  0.00     0.009 C 
HETATM   10  C18 UNL     1      -3.248  51.749 -11.302  1.00  0.00     0.009 C 
HETATM   11  C19 UNL     1      -3.743  52.967 -12.124  1.00  0.00     0.020 C 
HETATM   12  C21 UNL     1      -2.691  50.634 -12.261  1.00  0.00     0.155 C 
HETATM   13  C22 UNL     1      -1.583  49.802 -11.610  1.00  0.00     0.035 C 
HETATM   14  C23 UNL     1      -0.368  50.643 -11.230  1.00  0.00     0.013 C 
HETATM   15  C24 UNL     1      -0.734  52.063 -10.799  1.00  0.00    -0.025 A 
HETATM   16  C25 UNL     1      -0.179  53.172 -11.652  1.00  0.00     0.023 A 
HETATM   17  C26 UNL     1       0.377  53.001 -10.248  1.00  0.00    -0.011 A 
HETATM   18  C27 UNL     1       1.783  52.403 -10.122  1.00  0.00     0.013 C 
HETATM   19  C28 UNL     1       2.926  53.337  -9.690  1.00  0.00     0.011 C 
HETATM   20  C29 UNL     1       2.462  54.720  -9.228  1.00  0.00    -0.031 C 
HETATM   21  C30 UNL     1       2.261  55.597 -10.498  1.00  0.00     0.016 C 
HETATM   22 NA1  UNL     1       0.869  54.577  -9.798  1.00  0.00    -0.415 Na
ATOM     23  HA1 UNL     1       1.688  54.932 -10.291  1.00  0.00     0.153 HD
ENDROOT
BRANCH   1  24
HETATM   24  C7  UNL     1       4.801  55.929  -8.786  1.00  0.00    -0.007 C 
HETATM   25  C8  UNL     1       5.106  55.263 -10.137  1.00  0.00     0.011 C 
BRANCH  24  26
HETATM   26  C6  UNL     1       6.018  55.883  -7.841  1.00  0.00     0.087 C 
BRANCH  26  27
HETATM   27  C5  UNL     1       5.796  56.065  -6.342  1.00  0.00     0.149 C 
HETATM   28  O1  UNL     1       5.454  55.157  -5.593  1.00  0.00    -0.293 OA
BRANCH  27  29
HETATM   29  C4  UNL     1       6.093  57.446  -5.825  1.00  0.00     0.052 C 
HETATM   30  C2  UNL     1       7.278  57.888  -5.360  1.00  0.00    -0.084 C 
HETATM   31  C1  UNL     1       8.512  57.036  -5.250  1.00  0.00     0.043 C 
HETATM   32  C3  UNL     1       7.435  59.310  -4.895  1.00  0.00     0.043 C 
ENDBRANCH  27  29
ENDBRANCH  26  27
ENDBRANCH  24  26
ENDBRANCH   1  24
BRANCH  10  33
HETATM   33  C20 UNL     1      -4.508  51.197 -10.570  1.00  0.00     0.176 C 
BRANCH  33  34
HETATM   34  O2  UNL     1      -4.202  50.453  -9.396  1.00  0.00    -0.400 OA
HETATM   35  H33 UNL     1      -3.996  49.545  -9.684  1.00  0.00     0.209 HD
ENDBRANCH  33  34
ENDBRANCH  10  33
BRANCH  12  36
HETATM   36  O3  UNL     1      -2.153  51.221 -13.442  1.00  0.00    -0.251 OA
BRANCH  36  37
HETATM   37  S1  UNL     1      -2.476  50.549 -14.892  1.00  0.00     0.252 S 
HETATM   38  O4  UNL     1      -3.018  49.239 -14.540  1.00  0.00    -0.572 OA
HETATM   39  O5  UNL     1      -3.439  51.470 -15.493  1.00  0.00    -0.572 OA
HETATM   40  O6  UNL     1      -1.180  50.499 -15.571  1.00  0.00    -0.572 OA
ENDBRANCH  36  37
ENDBRANCH  12  36
TORSDOF 8
ENDMDL
MODEL 2
REMARK minimizedAffinity -7.3029995
REMARK CNNscore 0.768450975
REMARK CNNaffinity 6.413486
REMARK  8 active torsions:
REMARK  status: ('A' for Active; 'I' for Inactive)
REMARK    1  A    between atoms: C4_4  and  C5_5 
REMARK    2  A    between atoms: C5_5  and  C6_7 
REMARK    3  A    between atoms: C6_7  and  C7_8 
REMARK    4  A    between atoms: C7_8  and  C9_10 
REMARK    5  A    between atoms: C18_19  and  C20_21 
REMARK    6  A    between atoms: C20_21  and  O2_22 
REMARK    7  A    between atoms: C21_23  and  O3_24 
REMARK    8  A    between atoms: O3_24  and  S1_25 
ROOT
HETATM    1  C9  UNL     1      -9.746  46.855 -30.133  1.00  0.00    -0.001 C 
HETATM    2  C10 UNL     1      -8.861  47.717 -29.203  1.00  0.00     0.006 C 
HETATM    3  C11 UNL     1      -9.442  47.578 -27.774  1.00  0.00     0.012 C 
HETATM    4  C12 UNL     1     -10.541  46.497 -27.867  1.00  0.00    -0.016 C 
HETATM    5  C13 UNL     1      -9.830  45.126 -27.647  1.00  0.00     0.018 C 
HETATM    6  C14 UNL     1     -11.715  46.658 -26.862  1.00  0.00     0.089 A 
HETATM    7  C15 UNL     1     -11.362  46.307 -25.408  1.00  0.00     0.121 A 
HETATM    8  C16 UNL     1     -12.554  46.588 -24.488  1.00  0.00     0.026 C 
HETATM    9  C17 UNL     1     -13.704  45.605 -24.771  1.00  0.00     0.009 C 
HETATM   10  C18 UNL     1     -15.000  45.833 -23.891  1.00  0.00     0.009 C 
HETATM   11  C19 UNL     1     -15.333  47.337 -23.714  1.00  0.00     0.020 C 
HETATM   12  C21 UNL     1     -16.227  45.072 -24.514  1.00  0.00     0.155 C 
HETATM   13  C22 UNL     1     -15.801  43.872 -25.363  1.00  0.00     0.035 C 
HETATM   14  C23 UNL     1     -14.939  44.277 -26.556  1.00  0.00     0.013 C 
HETATM   15  C24 UNL     1     -14.039  45.477 -26.263  1.00  0.00    -0.025 A 
HETATM   16  C25 UNL     1     -14.286  46.703 -27.100  1.00  0.00     0.023 A 
HETATM   17  C26 UNL     1     -12.999  45.927 -27.327  1.00  0.00    -0.011 A 
HETATM   18  C27 UNL     1     -12.910  45.080 -28.603  1.00  0.00     0.013 C 
HETATM   19  C28 UNL     1     -11.974  45.564 -29.723  1.00  0.00     0.011 C 
HETATM   20  C29 UNL     1     -11.076  46.737 -29.324  1.00  0.00    -0.031 C 
HETATM   21  C30 UNL     1     -11.907  48.043 -29.491  1.00  0.00     0.016 C 
HETATM   22 NA1  UNL     1     -11.890  47.107 -27.881  1.00  0.00    -0.415 Na
ATOM     23  HA1 UNL     1     -12.070  47.465 -28.819  1.00  0.00     0.153 HD
ENDROOT
BRANCH   1  24
HETATM   24  C7  UNL     1      -9.840  47.252 -31.635  1.00  0.00    -0.007 C 
HETATM   25  C8  UNL     1     -10.203  46.029 -32.491  1.00  0.00     0.011 C 
BRANCH  24  26
HETATM   26  C6  UNL     1      -8.675  48.052 -32.250  1.00  0.00     0.087 C 
BRANCH  26  27
HETATM   27  C5  UNL     1      -7.751  47.361 -33.249  1.00  0.00     0.149 C 
HETATM   28  O1  UNL     1      -7.879  47.451 -34.464  1.00  0.00    -0.293 OA
BRANCH  27  29
HETATM   29  C4  UNL     1      -6.612  46.600 -32.629  1.00  0.00     0.052 C 
HETATM   30  C2  UNL     1      -5.298  46.841 -32.808  1.00  0.00    -0.084 C 
HETATM   31  C1  UNL     1      -4.752  47.913 -33.709  1.00  0.00     0.043 C 
HETATM   32  C3  UNL     1      -4.264  46.008 -32.101  1.00  0.00     0.043 C 
ENDBRANCH  27  29
ENDBRANCH  26  27
ENDBRANCH  24  26
ENDBRANCH   1  24
BRANCH  10  33
HETATM   33  C20 UNL     1     -14.748  45.288 -22.453  1.00  0.00     0.176 C 
BRANCH  33  34
HETATM   34  O2  UNL     1     -13.946  44.113 -22.425  1.00  0.00    -0.400 OA
HETATM   35  H33 UNL     1     -14.544  43.360 -22.584  1.00  0.00     0.209 HD
ENDBRANCH  33  34
ENDBRANCH  10  33
BRANCH  12  36
HETATM   36  O3  UNL     1     -16.980  45.946 -25.348  1.00  0.00    -0.251 OA
BRANCH  36  37
HETATM   37  S1  UNL     1     -18.602  46.007 -25.191  1.00  0.00     0.252 S 
HETATM   38  O4  UNL     1     -19.081  45.524 -26.484  1.00  0.00    -0.572 OA
HETATM   39  O5  UNL     1     -18.874  45.115 -24.065  1.00  0.00    -0.572 OA
HETATM   40  O6  UNL     1     -18.894  47.417 -24.932  1.00  0.00    -0.572 OA
ENDBRANCH  36  37
ENDBRANCH  12  36
TORSDOF 8
ENDMDL
MODEL 3
REMARK minimizedAffinity -7.3398509
REMARK CNNscore 0.689959049
REMARK CNNaffinity 7.37680387
REMARK  8 active torsions:
REMARK  status: ('A' for Active; 'I' for Inactive)
REMARK    1  A    between atoms: C4_4  and  C5_5 
REMARK    2  A    between atoms: C5_5  and  C6_7 
REMARK    3  A    between atoms: C6_7  and  C7_8 
REMARK    4  A    between atoms: C7_8  and  C9_10 
REMARK    5  A    between atoms: C18_19  and  C20_21 
REMARK    6  A    between atoms: C20_21  and  O2_22 
REMARK    7  A    between atoms: C21_23  and  O3_24 
REMARK    8  A    between atoms: O3_24  and  S1_25 
ROOT
HETATM    1  C9  UNL     1      -1.260  52.662 -11.453  1.00  0.00    -0.001 C 
HETATM    2  C10 UNL     1      -2.337  52.381 -10.380  1.00  0.00     0.006 C 
HETATM    3  C11 UNL     1      -1.976  53.241  -9.144  1.00  0.00     0.012 C 
HETATM    4  C12 UNL     1      -0.800  54.141  -9.583  1.00  0.00    -0.016 C 
HETATM    5  C13 UNL     1      -1.436  55.420 -10.212  1.00  0.00     0.018 C 
HETATM    6  C14 UNL     1       0.190  54.537  -8.452  1.00  0.00     0.089 A 
HETATM    7  C15 UNL     1      -0.357  55.575  -7.460  1.00  0.00     0.121 A 
HETATM    8  C16 UNL     1       0.656  55.824  -6.338  1.00  0.00     0.026 C 
HETATM    9  C17 UNL     1       1.903  56.544  -6.880  1.00  0.00     0.009 C 
HETATM   10  C18 UNL     1       3.027  56.819  -5.801  1.00  0.00     0.009 C 
HETATM   11  C19 UNL     1       3.220  55.623  -4.833  1.00  0.00     0.020 C 
HETATM   12  C21 UNL     1       4.387  57.176  -6.505  1.00  0.00     0.155 C 
HETATM   13  C22 UNL     1       4.186  57.766  -7.903  1.00  0.00     0.035 C 
HETATM   14  C23 UNL     1       3.491  56.794  -8.852  1.00  0.00     0.013 C 
HETATM   15  C24 UNL     1       2.472  55.897  -8.149  1.00  0.00    -0.025 A 
HETATM   16  C25 UNL     1       2.756  54.420  -8.196  1.00  0.00     0.023 A 
HETATM   17  C26 UNL     1       1.579  54.949  -8.998  1.00  0.00    -0.011 A 
HETATM   18  C27 UNL     1       1.749  55.023 -10.520  1.00  0.00     0.013 C 
HETATM   19  C28 UNL     1       0.966  54.019 -11.382  1.00  0.00     0.011 C 
HETATM   20  C29 UNL     1      -0.065  53.199 -10.603  1.00  0.00    -0.031 C 
HETATM   21  C30 UNL     1       0.684  52.006  -9.942  1.00  0.00     0.016 C 
HETATM   22 NA1  UNL     1       0.487  53.633  -9.057  1.00  0.00    -0.415 Na
ATOM     23  HA1 UNL     1       0.784  52.849  -9.639  1.00  0.00     0.153 HD
ENDROOT
BRANCH   1  24
HETATM   24  C7  UNL     1      -0.963  51.555 -12.506  1.00  0.00    -0.007 C 
HETATM   25  C8  UNL     1      -0.317  50.334 -11.834  1.00  0.00     0.011 C 
BRANCH  24  26
HETATM   26  C6  UNL     1      -0.217  51.958 -13.793  1.00  0.00     0.087 C 
BRANCH  26  27
HETATM   27  C5  UNL     1       0.617  50.908 -14.523  1.00  0.00     0.149 C 
HETATM   28  O1  UNL     1       0.155  49.860 -14.958  1.00  0.00    -0.293 OA
BRANCH  27  29
HETATM   29  C4  UNL     1       2.058  51.284 -14.731  1.00  0.00     0.052 C 
HETATM   30  C2  UNL     1       2.559  51.987 -15.767  1.00  0.00    -0.084 C 
HETATM   31  C1  UNL     1       1.739  52.487 -16.922  1.00  0.00     0.043 C 
HETATM   32  C3  UNL     1       4.027  52.311 -15.832  1.00  0.00     0.043 C 
ENDBRANCH  27  29
ENDBRANCH  26  27
ENDBRANCH  24  26
ENDBRANCH   1  24
BRANCH  10  33
HETATM   33  C20 UNL     1       2.596  58.018  -4.904  1.00  0.00     0.176 C 
BRANCH  33  34
HETATM   34  O2  UNL     1       3.595  59.025  -4.784  1.00  0.00    -0.400 OA
HETATM   35  H33 UNL     1       4.200  58.738  -4.076  1.00  0.00     0.209 HD
ENDBRANCH  33  34
ENDBRANCH  10  33
BRANCH  12  36
HETATM   36  O3  UNL     1       5.196  56.012  -6.640  1.00  0.00    -0.251 OA
BRANCH  36  37
HETATM   37  S1  UNL     1       6.757  56.059  -6.173  1.00  0.00     0.252 S 
HETATM   38  O4  UNL     1       6.815  55.070  -5.100  1.00  0.00    -0.572 OA
HETATM   39  O5  UNL     1       7.491  55.694  -7.384  1.00  0.00    -0.572 OA
HETATM   40  O6  UNL     1       6.967  57.438  -5.730  1.00  0.00    -0.572 OA
ENDBRANCH  36  37
ENDBRANCH  12  36
TORSDOF 8
ENDMDL
MODEL 4
REMARK minimizedAffinity -7.46789694
REMARK CNNscore 0.682450652
REMARK CNNaffinity 7.07393122
REMARK  8 active torsions:
REMARK  status: ('A' for Active; 'I' for Inactive)
REMARK    1  A    between atoms: C4_4  and  C5_5 
REMARK    2  A    between atoms: C5_5  and  C6_7 
REMARK    3  A    between atoms: C6_7  and  C7_8 
REMARK    4  A    between atoms: C7_8  and  C9_10 
REMARK    5  A    between atoms: C18_19  and  C20_21 
REMARK    6  A    between atoms: C20_21  and  O2_22 
REMARK    7  A    between atoms: C21_23  and  O3_24 
REMARK    8  A    between atoms: O3_24  and  S1_25 
ROOT
HETATM    1  C9  UNL     1      -3.363  49.017 -23.621  1.00  0.00    -0.001 C 
HETATM    2  C10 UNL     1      -2.545  49.711 -22.508  1.00  0.00     0.006 C 
HETATM    3  C11 UNL     1      -3.249  49.391 -21.166  1.00  0.00     0.012 C 
HETATM    4  C12 UNL     1      -4.357  48.369 -21.504  1.00  0.00    -0.016 C 
HETATM    5  C13 UNL     1      -3.696  46.959 -21.424  1.00  0.00     0.018 C 
HETATM    6  C14 UNL     1      -5.611  48.424 -20.586  1.00  0.00     0.089 A 
HETATM    7  C15 UNL     1      -5.392  47.861 -19.173  1.00  0.00     0.121 A 
HETATM    8  C16 UNL     1      -6.653  48.048 -18.325  1.00  0.00     0.026 C 
HETATM    9  C17 UNL     1      -7.793  47.151 -18.839  1.00  0.00     0.009 C 
HETATM   10  C18 UNL     1      -9.155  47.294 -18.046  1.00  0.00     0.009 C 
HETATM   11  C19 UNL     1      -9.474  48.768 -17.684  1.00  0.00     0.020 C 
HETATM   12  C21 UNL     1     -10.339  46.667 -18.871  1.00  0.00     0.155 C 
HETATM   13  C22 UNL     1      -9.865  45.586 -19.845  1.00  0.00     0.035 C 
HETATM   14  C23 UNL     1      -8.895  46.127 -20.891  1.00  0.00     0.013 C 
HETATM   15  C24 UNL     1      -8.000  47.245 -20.356  1.00  0.00    -0.025 A 
HETATM   16  C25 UNL     1      -8.150  48.584 -21.028  1.00  0.00     0.023 A 
HETATM   17  C26 UNL     1      -6.864  47.807 -21.256  1.00  0.00    -0.011 A 
HETATM   18  C27 UNL     1      -6.681  47.146 -22.627  1.00  0.00     0.013 C 
HETATM   19  C28 UNL     1      -5.643  47.753 -23.586  1.00  0.00     0.011 C 
HETATM   20  C29 UNL     1      -4.760  48.829 -22.950  1.00  0.00    -0.031 C 
HETATM   21  C30 UNL     1      -5.547  50.171 -22.997  1.00  0.00     0.016 C 
HETATM   22 NA1  UNL     1      -5.688  49.018 -21.541  1.00  0.00    -0.415 Na
ATOM     23  HA1 UNL     1      -5.780  49.509 -22.430  1.00  0.00     0.153 HD
ENDROOT
BRANCH   1  24
HETATM   24  C7  UNL     1      -3.319  49.624 -25.053  1.00  0.00    -0.007 C 
HETATM   25  C8  UNL     1      -2.801  48.586 -26.061  1.00  0.00     0.011 C 
BRANCH  24  26
HETATM   26  C6  UNL     1      -2.634  50.992 -25.242  1.00  0.00     0.087 C 
BRANCH  26  27
HETATM   27  C5  UNL     1      -1.111  51.069 -25.184  1.00  0.00     0.149 C 
HETATM   28  O1  UNL     1      -0.476  51.141 -24.139  1.00  0.00    -0.293 OA
BRANCH  27  29
HETATM   29  C4  UNL     1      -0.427  50.984 -26.521  1.00  0.00     0.052 C 
HETATM   30  C2  UNL     1       0.149  52.002 -27.191  1.00  0.00    -0.084 C 
HETATM   31  C1  UNL     1       0.166  53.426 -26.710  1.00  0.00     0.043 C 
HETATM   32  C3  UNL     1       0.821  51.763 -28.516  1.00  0.00     0.043 C 
ENDBRANCH  27  29
ENDBRANCH  26  27
ENDBRANCH  24  26
ENDBRANCH   1  24
BRANCH  10  33
HETATM   33  C20 UNL     1      -9.039  46.544 -16.685  1.00  0.00     0.176 C 
BRANCH  33  34
HETATM   34  O2  UNL     1      -8.610  47.376 -15.614  1.00  0.00    -0.400 OA
HETATM   35  H33 UNL     1      -7.637  47.410 -15.656  1.00  0.00     0.209 HD
ENDBRANCH  33  34
ENDBRANCH  10  33
BRANCH  12  36
HETATM   36  O3  UNL     1     -11.000  47.674 -19.631  1.00  0.00    -0.251 OA
BRANCH  36  37
HETATM   37  S1  UNL     1     -12.627  47.775 -19.587  1.00  0.00     0.252 S 
HETATM   38  O4  UNL     1     -12.936  47.575 -18.173  1.00  0.00    -0.572 OA
HETATM   39  O5  UNL     1     -12.904  49.118 -20.091  1.00  0.00    -0.572 OA
HETATM   40  O6  UNL     1     -13.086  46.693 -20.460  1.00  0.00    -0.572 OA
ENDBRANCH  36  37
ENDBRANCH  12  36
TORSDOF 8
ENDMDL
MODEL 5
REMARK minimizedAffinity -8.1310091
REMARK CNNscore 0.520726323
REMARK CNNaffinity 6.45978975
REMARK  8 active torsions:
REMARK  status: ('A' for Active; 'I' for Inactive)
REMARK    1  A    between atoms: C4_4  and  C5_5 
REMARK    2  A    between atoms: C5_5  and  C6_7 
REMARK    3  A    between atoms: C6_7  and  C7_8 
REMARK    4  A    between atoms: C7_8  and  C9_10 
REMARK    5  A    between atoms: C18_19  and  C20_21 
REMARK    6  A    between atoms: C20_21  and  O2_22 
REMARK    7  A    between atoms: C21_23  and  O3_24 
REMARK    8  A    between atoms: O3_24  and  S1_25 
ROOT
HETATM    1  C9  UNL     1      -6.449  46.100 -29.882  1.00  0.00    -0.001 C 
HETATM    2  C10 UNL     1      -7.003  44.733 -29.419  1.00  0.00     0.006 C 
HETATM    3  C11 UNL     1      -7.705  44.094 -30.642  1.00  0.00     0.012 C 
HETATM    4  C12 UNL     1      -7.391  45.017 -31.840  1.00  0.00    -0.016 C 
HETATM    5  C13 UNL     1      -6.036  44.522 -32.434  1.00  0.00     0.018 C 
HETATM    6  C14 UNL     1      -8.479  45.056 -32.950  1.00  0.00     0.089 A 
HETATM    7  C15 UNL     1      -8.547  43.792 -33.821  1.00  0.00     0.121 A 
HETATM    8  C16 UNL     1      -9.706  43.893 -34.816  1.00  0.00     0.026 C 
HETATM    9  C17 UNL     1      -9.427  44.979 -35.870  1.00  0.00     0.009 C 
HETATM   10  C18 UNL     1     -10.584  45.184 -36.930  1.00  0.00     0.009 C 
HETATM   11  C19 UNL     1     -11.992  45.121 -36.283  1.00  0.00     0.020 C 
HETATM   12  C21 UNL     1     -10.395  46.547 -37.691  1.00  0.00     0.155 C 
HETATM   13  C22 UNL     1      -8.936  47.008 -37.712  1.00  0.00     0.035 C 
HETATM   14  C23 UNL     1      -8.382  47.256 -36.311  1.00  0.00     0.013 C 
HETATM   15  C24 UNL     1      -8.963  46.308 -35.262  1.00  0.00    -0.025 A 
HETATM   16  C25 UNL     1      -9.745  46.958 -34.152  1.00  0.00     0.023 A 
HETATM   17  C26 UNL     1      -8.399  46.339 -33.814  1.00  0.00    -0.011 A 
HETATM   18  C27 UNL     1      -7.235  47.300 -33.548  1.00  0.00     0.013 C 
HETATM   19  C28 UNL     1      -6.731  47.438 -32.102  1.00  0.00     0.011 C 
HETATM   20  C29 UNL     1      -7.329  46.417 -31.132  1.00  0.00    -0.031 C 
HETATM   21  C30 UNL     1      -8.714  46.961 -30.672  1.00  0.00     0.016 C 
HETATM   22 NA1  UNL     1      -8.553  45.871 -32.174  1.00  0.00    -0.415 Na
ATOM     23  HA1 UNL     1      -8.588  46.641 -31.506  1.00  0.00     0.153 HD
ENDROOT
BRANCH   1  24
HETATM   24  C7  UNL     1      -6.268  47.220 -28.817  1.00  0.00    -0.007 C 
HETATM   25  C8  UNL     1      -7.619  47.877 -28.494  1.00  0.00     0.011 C 
BRANCH  24  26
HETATM   26  C6  UNL     1      -5.164  48.271 -29.048  1.00  0.00     0.087 C 
BRANCH  26  27
HETATM   27  C5  UNL     1      -4.318  48.726 -27.862  1.00  0.00     0.149 C 
HETATM   28  O1  UNL     1      -3.266  49.342 -27.977  1.00  0.00    -0.293 OA
BRANCH  27  29
HETATM   29  C4  UNL     1      -4.909  48.416 -26.514  1.00  0.00     0.052 C 
HETATM   30  C2  UNL     1      -4.274  48.490 -25.327  1.00  0.00    -0.084 C 
HETATM   31  C1  UNL     1      -2.829  48.871 -25.164  1.00  0.00     0.043 C 
HETATM   32  C3  UNL     1      -5.002  48.171 -24.049  1.00  0.00     0.043 C 
ENDBRANCH  27  29
ENDBRANCH  26  27
ENDBRANCH  24  26
ENDBRANCH   1  24
BRANCH  10  33
HETATM   33  C20 UNL     1     -10.546  44.021 -37.966  1.00  0.00     0.176 C 
BRANCH  33  34
HETATM   34  O2  UNL     1      -9.259  43.811 -38.536  1.00  0.00    -0.400 OA
HETATM   35  H33 UNL     1      -9.171  44.443 -39.272  1.00  0.00     0.209 HD
ENDBRANCH  33  34
ENDBRANCH  10  33
BRANCH  12  36
HETATM   36  O3  UNL     1     -11.163  47.572 -37.070  1.00  0.00    -0.251 OA
BRANCH  36  37
HETATM   37  S1  UNL     1     -12.078  48.560 -37.990  1.00  0.00     0.252 S 
HETATM   38  O4  UNL     1     -12.072  47.903 -39.295  1.00  0.00    -0.572 OA
HETATM   39  O5  UNL     1     -13.373  48.563 -37.311  1.00  0.00    -0.572 OA
HETATM   40  O6  UNL     1     -11.376  49.844 -37.961  1.00  0.00    -0.572 OA
ENDBRANCH  36  37
ENDBRANCH  12  36
TORSDOF 8
ENDMDL
MODEL 6
REMARK minimizedAffinity -8.30480766
REMARK CNNscore 0.476091504
REMARK CNNaffinity 6.92410135
REMARK  8 active torsions:
REMARK  status: ('A' for Active; 'I' for Inactive)
REMARK    1  A    between atoms: C4_4  and  C5_5 
REMARK    2  A    between atoms: C5_5  and  C6_7 
REMARK    3  A    between atoms: C6_7  and  C7_8 
REMARK    4  A    between atoms: C7_8  and  C9_10 
REMARK    5  A    between atoms: C18_19  and  C20_21 
REMARK    6  A    between atoms: C20_21  and  O2_22 
REMARK    7  A    between atoms: C21_23  and  O3_24 
REMARK    8  A    between atoms: O3_24  and  S1_25 
ROOT
HETATM    1  C9  UNL     1      -2.202  50.590 -23.978  1.00  0.00    -0.001 C 
HETATM    2  C10 UNL     1      -1.585  51.447 -22.849  1.00  0.00     0.006 C 
HETATM    3  C11 UNL     1      -2.196  50.945 -21.517  1.00  0.00     0.012 C 
HETATM    4  C12 UNL     1      -3.018  49.688 -21.876  1.00  0.00    -0.016 C 
HETATM    5  C13 UNL     1      -2.032  48.482 -21.809  1.00  0.00     0.018 C 
HETATM    6  C14 UNL     1      -4.252  49.422 -20.968  1.00  0.00     0.089 A 
HETATM    7  C15 UNL     1      -3.909  48.910 -19.560  1.00  0.00     0.121 A 
HETATM    8  C16 UNL     1      -5.181  48.771 -18.720  1.00  0.00     0.026 C 
HETATM    9  C17 UNL     1      -6.065  47.630 -19.255  1.00  0.00     0.009 C 
HETATM   10  C18 UNL     1      -7.425  47.425 -18.472  1.00  0.00     0.009 C 
HETATM   11  C19 UNL     1      -8.095  48.771 -18.094  1.00  0.00     0.020 C 
HETATM   12  C21 UNL     1      -8.415  46.540 -19.313  1.00  0.00     0.155 C 
HETATM   13  C22 UNL     1      -7.686  45.621 -20.297  1.00  0.00     0.035 C 
HETATM   14  C23 UNL     1      -6.873  46.397 -21.329  1.00  0.00     0.013 C 
HETATM   15  C24 UNL     1      -6.281  47.692 -20.773  1.00  0.00    -0.025 A 
HETATM   16  C25 UNL     1      -6.750  48.963 -21.429  1.00  0.00     0.023 A 
HETATM   17  C26 UNL     1      -5.312  48.527 -21.656  1.00  0.00    -0.011 A 
HETATM   18  C27 UNL     1      -4.967  47.950 -23.034  1.00  0.00     0.013 C 
HETATM   19  C28 UNL     1      -4.104  48.806 -23.977  1.00  0.00     0.011 C 
HETATM   20  C29 UNL     1      -3.514  50.056 -23.321  1.00  0.00    -0.031 C 
HETATM   21  C30 UNL     1      -4.605  51.166 -23.357  1.00  0.00     0.016 C 
HETATM   22 NA1  UNL     1      -4.467  49.993 -21.917  1.00  0.00    -0.415 Na
ATOM     23  HA1 UNL     1      -4.672  50.459 -22.800  1.00  0.00     0.153 HD
ENDROOT
BRANCH   1  24
HETATM   24  C7  UNL     1      -2.302  51.209 -25.402  1.00  0.00    -0.007 C 
HETATM   25  C8  UNL     1      -2.001  50.147 -26.471  1.00  0.00     0.011 C 
BRANCH  24  26
HETATM   26  C6  UNL     1      -1.545  52.524 -25.677  1.00  0.00     0.087 C 
BRANCH  26  27
HETATM   27  C5  UNL     1      -1.169  52.873 -27.114  1.00  0.00     0.149 C 
HETATM   28  O1  UNL     1      -1.881  53.537 -27.858  1.00  0.00    -0.293 OA
BRANCH  27  29
HETATM   29  C4  UNL     1       0.190  52.392 -27.543  1.00  0.00     0.052 C 
HETATM   30  C2  UNL     1       1.234  52.124 -26.734  1.00  0.00    -0.084 C 
HETATM   31  C1  UNL     1       1.214  52.303 -25.242  1.00  0.00     0.043 C 
HETATM   32  C3  UNL     1       2.534  51.624 -27.304  1.00  0.00     0.043 C 
ENDBRANCH  27  29
ENDBRANCH  26  27
ENDBRANCH  24  26
ENDBRANCH   1  24
BRANCH  10  33
HETATM   33  C20 UNL     1      -7.135  46.707 -17.119  1.00  0.00     0.176 C 
BRANCH  33  34
HETATM   34  O2  UNL     1      -7.832  47.274 -16.016  1.00  0.00    -0.400 OA
HETATM   35  H33 UNL     1      -7.301  48.030 -15.705  1.00  0.00     0.209 HD
ENDBRANCH  33  34
ENDBRANCH  10  33
BRANCH  12  36
HETATM   36  O3  UNL     1      -9.298  47.364 -20.066  1.00  0.00    -0.251 OA
BRANCH  36  37
HETATM   37  S1  UNL     1     -10.901  47.067 -20.031  1.00  0.00     0.252 S 
HETATM   38  O4  UNL     1     -11.014  45.955 -19.089  1.00  0.00    -0.572 OA
HETATM   39  O5  UNL     1     -11.476  48.327 -19.564  1.00  0.00    -0.572 OA
HETATM   40  O6  UNL     1     -11.241  46.720 -21.411  1.00  0.00    -0.572 OA
ENDBRANCH  36  37
ENDBRANCH  12  36
TORSDOF 8
ENDMDL
MODEL 7
REMARK minimizedAffinity -8.24796581
REMARK CNNscore 0.356681287
REMARK CNNaffinity 7.0864892
REMARK  8 active torsions:
REMARK  status: ('A' for Active; 'I' for Inactive)
REMARK    1  A    between atoms: C4_4  and  C5_5 
REMARK    2  A    between atoms: C5_5  and  C6_7 
REMARK    3  A    between atoms: C6_7  and  C7_8 
REMARK    4  A    between atoms: C7_8  and  C9_10 
REMARK    5  A    between atoms: C18_19  and  C20_21 
REMARK    6  A    between atoms: C20_21  and  O2_22 
REMARK    7  A    between atoms: C21_23  and  O3_24 
REMARK    8  A    between atoms: O3_24  and  S1_25 
ROOT
HETATM    1  C9  UNL     1      -2.987  49.743 -22.886  1.00  0.00    -0.001 C 
HETATM    2  C10 UNL     1      -2.934  48.215 -23.111  1.00  0.00     0.006 C 
HETATM    3  C11 UNL     1      -2.965  47.552 -21.712  1.00  0.00     0.012 C 
HETATM    4  C12 UNL     1      -3.218  48.697 -20.707  1.00  0.00    -0.016 C 
HETATM    5  C13 UNL     1      -4.766  48.856 -20.600  1.00  0.00     0.018 C 
HETATM    6  C14 UNL     1      -2.603  48.487 -19.295  1.00  0.00     0.089 A 
HETATM    7  C15 UNL     1      -3.329  47.443 -18.432  1.00  0.00     0.121 A 
HETATM    8  C16 UNL     1      -2.592  47.244 -17.105  1.00  0.00     0.026 C 
HETATM    9  C17 UNL     1      -2.704  48.502 -16.225  1.00  0.00     0.009 C 
HETATM   10  C18 UNL     1      -1.946  48.409 -14.840  1.00  0.00     0.009 C 
HETATM   11  C19 UNL     1      -0.567  47.713 -14.969  1.00  0.00     0.020 C 
HETATM   12  C21 UNL     1      -1.777  49.840 -14.209  1.00  0.00     0.155 C 
HETATM   13  C22 UNL     1      -2.847  50.822 -14.692  1.00  0.00     0.035 C 
HETATM   14  C23 UNL     1      -2.797  51.044 -16.202  1.00  0.00     0.013 C 
HETATM   15  C24 UNL     1      -2.371  49.798 -16.976  1.00  0.00    -0.025 A 
HETATM   16  C25 UNL     1      -1.095  49.919 -17.765  1.00  0.00     0.023 A 
HETATM   17  C26 UNL     1      -2.405  49.819 -18.530  1.00  0.00    -0.011 A 
HETATM   18  C27 UNL     1      -2.928  51.100 -19.190  1.00  0.00     0.013 C 
HETATM   19  C28 UNL     1      -2.866  51.196 -20.724  1.00  0.00     0.011 C 
HETATM   20  C29 UNL     1      -2.479  49.888 -21.417  1.00  0.00    -0.031 C 
HETATM   21  C30 UNL     1      -0.926  49.782 -21.388  1.00  0.00     0.016 C 
HETATM   22 NA1  UNL     1      -1.968  49.082 -20.012  1.00  0.00    -0.415 Na
ATOM     23  HA1 UNL     1      -1.419  49.667 -20.641  1.00  0.00     0.153 HD
ENDROOT
BRANCH   1  24
HETATM   24  C7  UNL     1      -2.359  50.669 -23.967  1.00  0.00    -0.007 C 
HETATM   25  C8  UNL     1      -2.210  49.916 -25.298  1.00  0.00     0.011 C 
BRANCH  24  26
HETATM   26  C6  UNL     1      -1.075  51.443 -23.604  1.00  0.00     0.087 C 
BRANCH  26  27
HETATM   27  C5  UNL     1      -0.514  52.452 -24.603  1.00  0.00     0.149 C 
HETATM   28  O1  UNL     1      -1.099  53.478 -24.930  1.00  0.00    -0.293 OA
BRANCH  27  29
HETATM   29  C4  UNL     1       0.860  52.126 -25.119  1.00  0.00     0.052 C 
HETATM   30  C2  UNL     1       1.176  51.758 -26.376  1.00  0.00    -0.084 C 
HETATM   31  C1  UNL     1       0.171  51.575 -27.479  1.00  0.00     0.043 C 
HETATM   32  C3  UNL     1       2.605  51.484 -26.757  1.00  0.00     0.043 C 
ENDBRANCH  27  29
ENDBRANCH  26  27
ENDBRANCH  24  26
ENDBRANCH   1  24
BRANCH  10  33
HETATM   33  C20 UNL     1      -2.772  47.523 -13.859  1.00  0.00     0.176 C 
BRANCH  33  34
HETATM   34  O2  UNL     1      -4.179  47.646 -14.033  1.00  0.00    -0.400 OA
HETATM   35  H33 UNL     1      -4.458  48.430 -13.527  1.00  0.00     0.209 HD
ENDBRANCH  33  34
ENDBRANCH  10  33
BRANCH  12  36
HETATM   36  O3  UNL     1      -0.506  50.385 -14.549  1.00  0.00    -0.251 OA
BRANCH  36  37
HETATM   37  S1  UNL     1       0.324  51.241 -13.438  1.00  0.00     0.252 S 
HETATM   38  O4  UNL     1       0.133  52.624 -13.870  1.00  0.00    -0.572 OA
HETATM   39  O5  UNL     1      -0.329  50.897 -12.177  1.00  0.00    -0.572 OA
HETATM   40  O6  UNL     1       1.701  50.761 -13.558  1.00  0.00    -0.572 OA
ENDBRANCH  36  37
ENDBRANCH  12  36
TORSDOF 8
ENDMDL
MODEL 8
REMARK minimizedAffinity -7.0598278
REMARK CNNscore 0.312472373
REMARK CNNaffinity 6.40456152
REMARK  8 active torsions:
REMARK  status: ('A' for Active; 'I' for Inactive)
REMARK    1  A    between atoms: C4_4  and  C5_5 
REMARK    2  A    between atoms: C5_5  and  C6_7 
REMARK    3  A    between atoms: C6_7  and  C7_8 
REMARK    4  A    between atoms: C7_8  and  C9_10 
REMARK    5  A    between atoms: C18_19  and  C20_21 
REMARK    6  A    between atoms: C20_21  and  O2_22 
REMARK    7  A    between atoms: C21_23  and  O3_24 
REMARK    8  A    between atoms: O3_24  and  S1_25 
ROOT
HETATM    1  C9  UNL     1      -3.670  48.222 -22.660  1.00  0.00    -0.001 C 
HETATM    2  C10 UNL     1      -2.914  48.267 -21.313  1.00  0.00     0.006 C 
HETATM    3  C11 UNL     1      -3.881  47.720 -20.235  1.00  0.00     0.012 C 
HETATM    4  C12 UNL     1      -5.117  47.198 -21.001  1.00  0.00    -0.016 C 
HETATM    5  C13 UNL     1      -4.805  45.719 -21.386  1.00  0.00     0.018 C 
HETATM    6  C14 UNL     1      -6.461  47.276 -20.223  1.00  0.00     0.089 A 
HETATM    7  C15 UNL     1      -6.606  46.242 -19.096  1.00  0.00     0.121 A 
HETATM    8  C16 UNL     1      -7.916  46.464 -18.336  1.00  0.00     0.026 C 
HETATM    9  C17 UNL     1      -9.126  46.123 -19.224  1.00  0.00     0.009 C 
HETATM   10  C18 UNL     1     -10.534  46.350 -18.538  1.00  0.00     0.009 C 
HETATM   11  C19 UNL     1     -10.574  47.650 -17.694  1.00  0.00     0.020 C 
HETATM   12  C21 UNL     1     -11.675  46.368 -19.620  1.00  0.00     0.155 C 
HETATM   13  C22 UNL     1     -11.298  45.584 -20.880  1.00  0.00     0.035 C 
HETATM   14  C23 UNL     1     -10.074  46.164 -21.584  1.00  0.00     0.013 C 
HETATM   15  C24 UNL     1      -9.056  46.763 -20.616  1.00  0.00    -0.025 A 
HETATM   16  C25 UNL     1      -8.794  48.238 -20.768  1.00  0.00     0.023 A 
HETATM   17  C26 UNL     1      -7.691  47.269 -21.163  1.00  0.00    -0.011 A 
HETATM   18  C27 UNL     1      -7.437  47.075 -22.663  1.00  0.00     0.013 C 
HETATM   19  C28 UNL     1      -6.148  47.667 -23.256  1.00  0.00     0.011 C 
HETATM   20  C29 UNL     1      -5.165  48.199 -22.210  1.00  0.00    -0.031 C 
HETATM   21  C30 UNL     1      -5.618  49.639 -21.829  1.00  0.00     0.016 C 
HETATM   22 NA1  UNL     1      -6.247  48.150 -20.903  1.00  0.00    -0.415 Na
ATOM     23  HA1 UNL     1      -6.081  48.913 -21.559  1.00  0.00     0.153 HD
ENDROOT
BRANCH   1  24
HETATM   24  C7  UNL     1      -3.260  49.233 -23.769  1.00  0.00    -0.007 C 
HETATM   25  C8  UNL     1      -3.290  48.558 -25.149  1.00  0.00     0.011 C 
BRANCH  24  26
HETATM   26  C6  UNL     1      -1.970  50.053 -23.564  1.00  0.00     0.087 C 
BRANCH  26  27
HETATM   27  C5  UNL     1      -2.079  51.479 -23.031  1.00  0.00     0.149 C 
HETATM   28  O1  UNL     1      -3.144  52.062 -22.870  1.00  0.00    -0.293 OA
BRANCH  27  29
HETATM   29  C4  UNL     1      -0.768  52.108 -22.649  1.00  0.00     0.052 C 
HETATM   30  C2  UNL     1      -0.152  52.010 -21.453  1.00  0.00    -0.084 C 
HETATM   31  C1  UNL     1      -0.713  51.267 -20.274  1.00  0.00     0.043 C 
HETATM   32  C3  UNL     1       1.176  52.678 -21.220  1.00  0.00     0.043 C 
ENDBRANCH  27  29
ENDBRANCH  26  27
ENDBRANCH  24  26
ENDBRANCH   1  24
BRANCH  10  33
HETATM   33  C20 UNL     1     -10.811  45.191 -17.535  1.00  0.00     0.176 C 
BRANCH  33  34
HETATM   34  O2  UNL     1     -12.193  44.882 -17.392  1.00  0.00    -0.400 OA
HETATM   35  H33 UNL     1     -12.554  45.508 -16.738  1.00  0.00     0.209 HD
ENDBRANCH  33  34
ENDBRANCH  10  33
BRANCH  12  36
HETATM   36  O3  UNL     1     -11.964  47.705 -20.014  1.00  0.00    -0.251 OA
BRANCH  36  37
HETATM   37  S1  UNL     1     -13.516  48.177 -20.175  1.00  0.00     0.252 S 
HETATM   38  O4  UNL     1     -13.454  49.617 -19.938  1.00  0.00    -0.572 OA
HETATM   39  O5  UNL     1     -13.853  47.795 -21.545  1.00  0.00    -0.572 OA
HETATM   40  O6  UNL     1     -14.237  47.430 -19.143  1.00  0.00    -0.572 OA
ENDBRANCH  36  37
ENDBRANCH  12  36
TORSDOF 8
ENDMDL
MODEL 9
REMARK minimizedAffinity -8.07838535
REMARK CNNscore 0.307414144
REMARK CNNaffinity 6.74011374
REMARK  8 active torsions:
REMARK  status: ('A' for Active; 'I' for Inactive)
REMARK    1  A    between atoms: C4_4  and  C5_5 
REMARK    2  A    between atoms: C5_5  and  C6_7 
REMARK    3  A    between atoms: C6_7  and  C7_8 
REMARK    4  A    between atoms: C7_8  and  C9_10 
REMARK    5  A    between atoms: C18_19  and  C20_21 
REMARK    6  A    between atoms: C20_21  and  O2_22 
REMARK    7  A    between atoms: C21_23  and  O3_24 
REMARK    8  A    between atoms: O3_24  and  S1_25 
ROOT
HETATM    1  C9  UNL     1      -3.529  50.558 -24.713  1.00  0.00    -0.001 C 
HETATM    2  C10 UNL     1      -4.637  51.615 -24.497  1.00  0.00     0.006 C 
HETATM    3  C11 UNL     1      -5.314  51.288 -23.144  1.00  0.00     0.012 C 
HETATM    4  C12 UNL     1      -4.471  50.158 -22.511  1.00  0.00    -0.016 C 
HETATM    5  C13 UNL     1      -3.332  50.856 -21.705  1.00  0.00     0.018 C 
HETATM    6  C14 UNL     1      -5.256  49.181 -21.591  1.00  0.00     0.089 A 
HETATM    7  C15 UNL     1      -5.657  49.771 -20.230  1.00  0.00     0.121 A 
HETATM    8  C16 UNL     1      -6.503  48.765 -19.444  1.00  0.00     0.026 C 
HETATM    9  C17 UNL     1      -5.653  47.556 -19.016  1.00  0.00     0.009 C 
HETATM   10  C18 UNL     1      -6.445  46.440 -18.221  1.00  0.00     0.009 C 
HETATM   11  C19 UNL     1      -7.856  46.186 -18.812  1.00  0.00     0.020 C 
HETATM   12  C21 UNL     1      -5.620  45.102 -18.185  1.00  0.00     0.155 C 
HETATM   13  C22 UNL     1      -4.115  45.338 -18.331  1.00  0.00     0.035 C 
HETATM   14  C23 UNL     1      -3.753  45.992 -19.662  1.00  0.00     0.013 C 
HETATM   15  C24 UNL     1      -4.822  46.964 -20.161  1.00  0.00    -0.025 A 
HETATM   16  C25 UNL     1      -5.468  46.611 -21.474  1.00  0.00     0.023 A 
HETATM   17  C26 UNL     1      -4.543  47.816 -21.431  1.00  0.00    -0.011 A 
HETATM   18  C27 UNL     1      -3.161  47.658 -22.076  1.00  0.00     0.013 C 
HETATM   19  C28 UNL     1      -2.894  48.398 -23.397  1.00  0.00     0.011 C 
HETATM   20  C29 UNL     1      -3.995  49.385 -23.793  1.00  0.00    -0.031 C 
HETATM   21  C30 UNL     1      -5.119  48.577 -24.504  1.00  0.00     0.016 C 
HETATM   22 NA1  UNL     1      -5.139  48.846 -22.662  1.00  0.00    -0.415 Na
ATOM     23  HA1 UNL     1      -4.987  48.515 -23.614  1.00  0.00     0.153 HD
ENDROOT
BRANCH   1  24
HETATM   24  C7  UNL     1      -3.113  50.215 -26.173  1.00  0.00    -0.007 C 
HETATM   25  C8  UNL     1      -2.533  48.794 -26.246  1.00  0.00     0.011 C 
BRANCH  24  26
HETATM   26  C6  UNL     1      -2.236  51.229 -26.935  1.00  0.00     0.087 C 
BRANCH  26  27
HETATM   27  C5  UNL     1      -1.324  52.160 -26.140  1.00  0.00     0.149 C 
HETATM   28  O1  UNL     1      -1.689  53.238 -25.685  1.00  0.00    -0.293 OA
BRANCH  27  29
HETATM   29  C4  UNL     1       0.059  51.625 -25.893  1.00  0.00     0.052 C 
HETATM   30  C2  UNL     1       1.087  51.634 -26.765  1.00  0.00    -0.084 C 
HETATM   31  C1  UNL     1       0.998  52.161 -28.170  1.00  0.00     0.043 C 
HETATM   32  C3  UNL     1       2.430  51.081 -26.370  1.00  0.00     0.043 C 
ENDBRANCH  27  29
ENDBRANCH  26  27
ENDBRANCH  24  26
ENDBRANCH   1  24
BRANCH  10  33
HETATM   33  C20 UNL     1      -6.684  46.922 -16.758  1.00  0.00     0.176 C 
BRANCH  33  34
HETATM   34  O2  UNL     1      -7.936  47.571 -16.573  1.00  0.00    -0.400 OA
HETATM   35  H33 UNL     1      -7.813  48.501 -16.838  1.00  0.00     0.209 HD
ENDBRANCH  33  34
ENDBRANCH  10  33
BRANCH  12  36
HETATM   36  O3  UNL     1      -6.026  44.241 -19.243  1.00  0.00    -0.251 OA
BRANCH  36  37
HETATM   37  S1  UNL     1      -6.456  42.704 -18.909  1.00  0.00     0.252 S 
HETATM   38  O4  UNL     1      -6.205  42.591 -17.474  1.00  0.00    -0.572 OA
HETATM   39  O5  UNL     1      -7.866  42.649 -19.290  1.00  0.00    -0.572 OA
HETATM   40  O6  UNL     1      -5.572  41.886 -19.739  1.00  0.00    -0.572 OA
ENDBRANCH  36  37
ENDBRANCH  12  36
TORSDOF 8
ENDMDL
