MODEL 1
REMARK minimizedAffinity -9.39871693
REMARK  12 active torsions:
REMARK  status: ('A' for Active; 'I' for Inactive)
REMARK    1  A    between atoms: C2_2  and  C3_3 
REMARK    2  A    between atoms: C2_2  and  C5_6 
REMARK    3  A    between atoms: C3_3  and  C4_4 
REMARK    4  A    between atoms: C4_4  and  O1_5 
REMARK    5  A    between atoms: C5_6  and  C6_7 
REMARK    6  A    between atoms: C6_7  and  C7_8 
REMARK    7  A    between atoms: C7_8  and  C9_10 
REMARK    8  A    between atoms: C10_11  and  O2_12 
REMARK    9  A    between atoms: C11_13  and  O3_14 
REMARK   10  A    between atoms: C22_25  and  O4_26 
REMARK   11  A    between atoms: C25_29  and  O5_30 
REMARK   12  A    between atoms: C27_32  and  O6_33 
ROOT
HETATM    1  C9  UNL     1      -3.535   4.527  13.211  1.00  0.00     0.029 C 
HETATM    2  C10 UNL     1      -4.244   5.899  13.415  1.00  0.00     0.152 C 
HETATM    3  C11 UNL     1      -3.156   6.996  13.315  1.00  0.00     0.155 C 
HETATM    4  C12 UNL     1      -2.097   6.333  12.442  1.00  0.00     0.060 C 
HETATM    5  C13 UNL     1      -2.019   4.903  13.051  1.00  0.00    -0.029 C 
HETATM    6  C14 UNL     1      -1.417   4.838  14.492  1.00  0.00     0.016 C 
HETATM    7  C15 UNL     1      -1.140   4.019  12.152  1.00  0.00     0.011 C 
HETATM    8  C16 UNL     1       0.241   4.652  11.895  1.00  0.00     0.009 C 
HETATM    9  C17 UNL     1       0.138   6.091  11.323  1.00  0.00     0.029 C 
HETATM   10  C18 UNL     1       1.527   6.681  10.862  1.00  0.00    -0.031 C 
HETATM   11  C19 UNL     1       2.593   6.623  11.983  1.00  0.00     0.016 C 
HETATM   12  C20 UNL     1       2.066   5.791   9.682  1.00  0.00     0.012 C 
HETATM   13  C21 UNL     1       2.861   6.583   8.654  1.00  0.00     0.032 C 
HETATM   14  C22 UNL     1       1.977   7.623   7.966  1.00  0.00     0.118 C 
HETATM   15  C23 UNL     1       0.914   8.217   8.897  1.00  0.00     0.039 C 
HETATM   16  C24 UNL     1       1.375   8.171  10.369  1.00  0.00     0.025 C 
HETATM   17  C25 UNL     1       0.465   9.046  11.249  1.00  0.00     0.126 C 
HETATM   18  C26 UNL     1      -0.883   8.400  11.564  1.00  0.00     0.071 C 
HETATM   19  C27 UNL     1      -0.726   7.023  12.239  1.00  0.00     0.071 C 
ENDROOT
BRANCH   1  20
HETATM   20  C7  UNL     1      -4.195   3.639  12.110  1.00  0.00    -0.011 C 
HETATM   21  C8  UNL     1      -3.526   3.692  10.726  1.00  0.00     0.010 C 
BRANCH  20  22
HETATM   22  C6  UNL     1      -5.701   3.970  11.912  1.00  0.00     0.005 C 
BRANCH  22  23
HETATM   23  C5  UNL     1      -6.656   2.931  12.516  1.00  0.00     0.005 C 
BRANCH  23  24
HETATM   24  C2  UNL     1      -7.876   3.553  13.236  1.00  0.00    -0.017 C 
HETATM   25  C1  UNL     1      -7.513   3.797  14.704  1.00  0.00     0.010 C 
BRANCH  24  26
HETATM   26  C3  UNL     1      -8.363   4.834  12.520  1.00  0.00     0.030 C 
BRANCH  26  27
HETATM   27  C4  UNL     1      -8.613   6.027  13.441  1.00  0.00     0.164 C 
BRANCH  27  28
HETATM   28  O1  UNL     1      -9.993   6.121  13.765  1.00  0.00    -0.401 OA
HETATM   29  H9  UNL     1     -10.096   6.884  14.360  1.00  0.00     0.209 HD
ENDBRANCH  27  28
ENDBRANCH  26  27
ENDBRANCH  24  26
ENDBRANCH  23  24
ENDBRANCH  22  23
ENDBRANCH  20  22
ENDBRANCH   1  20
BRANCH   2  30
HETATM   30  O2  UNL     1      -4.881   5.948  14.691  1.00  0.00    -0.393 OA
HETATM   31  H20 UNL     1      -5.312   6.819  14.748  1.00  0.00     0.210 HD
ENDBRANCH   2  30
BRANCH   3  32
HETATM   32  O3  UNL     1      -3.717   8.152  12.699  1.00  0.00    -0.392 OA
HETATM   33  H22 UNL     1      -3.497   8.907  13.276  1.00  0.00     0.210 HD
ENDBRANCH   3  32
BRANCH  19  34
HETATM   34  O6  UNL     1      -0.122   7.209  13.514  1.00  0.00    -0.389 OA
HETATM   35  H48 UNL     1       0.461   7.995  13.456  1.00  0.00     0.210 HD
ENDBRANCH  19  34
BRANCH  17  36
HETATM   36  O5  UNL     1       1.119   9.334  12.490  1.00  0.00    -0.395 OA
HETATM   37  H45 UNL     1       1.939   9.820  12.278  1.00  0.00     0.210 HD
ENDBRANCH  17  36
BRANCH  14  38
HETATM   38  O4  UNL     1       2.823   8.663   7.480  1.00  0.00    -0.396 OA
HETATM   39  H40 UNL     1       2.280   9.249   6.924  1.00  0.00     0.210 HD
ENDBRANCH  14  38
TORSDOF 12
ENDMDL
MODEL 2
REMARK minimizedAffinity -9.38784313
REMARK  12 active torsions:
REMARK  status: ('A' for Active; 'I' for Inactive)
REMARK    1  A    between atoms: C2_2  and  C3_3 
REMARK    2  A    between atoms: C2_2  and  C5_6 
REMARK    3  A    between atoms: C3_3  and  C4_4 
REMARK    4  A    between atoms: C4_4  and  O1_5 
REMARK    5  A    between atoms: C5_6  and  C6_7 
REMARK    6  A    between atoms: C6_7  and  C7_8 
REMARK    7  A    between atoms: C7_8  and  C9_10 
REMARK    8  A    between atoms: C10_11  and  O2_12 
REMARK    9  A    between atoms: C11_13  and  O3_14 
REMARK   10  A    between atoms: C22_25  and  O4_26 
REMARK   11  A    between atoms: C25_29  and  O5_30 
REMARK   12  A    between atoms: C27_32  and  O6_33 
ROOT
HETATM    1  C9  UNL     1      -5.742   6.180  14.641  1.00  0.00     0.029 C 
HETATM    2  C10 UNL     1      -5.990   7.678  14.990  1.00  0.00     0.152 C 
HETATM    3  C11 UNL     1      -4.619   8.394  14.937  1.00  0.00     0.155 C 
HETATM    4  C12 UNL     1      -3.828   7.523  13.966  1.00  0.00     0.060 C 
HETATM    5  C13 UNL     1      -4.185   6.088  14.449  1.00  0.00    -0.029 C 
HETATM    6  C14 UNL     1      -3.612   5.708  15.853  1.00  0.00     0.016 C 
HETATM    7  C15 UNL     1      -3.635   5.066  13.442  1.00  0.00     0.011 C 
HETATM    8  C16 UNL     1      -2.131   5.267  13.181  1.00  0.00     0.009 C 
HETATM    9  C17 UNL     1      -1.794   6.715  12.737  1.00  0.00     0.029 C 
HETATM   10  C18 UNL     1      -0.297   6.893  12.268  1.00  0.00    -0.031 C 
HETATM   11  C19 UNL     1       0.715   6.408  13.334  1.00  0.00     0.016 C 
HETATM   12  C20 UNL     1      -0.077   5.995  10.996  1.00  0.00     0.012 C 
HETATM   13  C21 UNL     1       0.909   6.598  10.004  1.00  0.00     0.032 C 
HETATM   14  C22 UNL     1       0.378   7.918   9.445  1.00  0.00     0.118 C 
HETATM   15  C23 UNL     1      -0.436   8.719  10.467  1.00  0.00     0.039 C 
HETATM   16  C24 UNL     1       0.011   8.398  11.909  1.00  0.00     0.025 C 
HETATM   17  C25 UNL     1      -0.573   9.422  12.897  1.00  0.00     0.126 C 
HETATM   18  C26 UNL     1      -2.049   9.193  13.214  1.00  0.00     0.071 C 
HETATM   19  C27 UNL     1      -2.315   7.777  13.763  1.00  0.00     0.071 C 
ENDROOT
BRANCH   1  20
HETATM   20  C7  UNL     1      -6.659   5.643  13.498  1.00  0.00    -0.011 C 
HETATM   21  C8  UNL     1      -8.138   6.055  13.585  1.00  0.00     0.010 C 
BRANCH  20  22
HETATM   22  C6  UNL     1      -6.613   4.092  13.387  1.00  0.00     0.005 C 
BRANCH  22  23
HETATM   23  C5  UNL     1      -6.435   3.571  11.955  1.00  0.00     0.005 C 
BRANCH  23  24
HETATM   24  C2  UNL     1      -5.476   2.362  11.848  1.00  0.00    -0.017 C 
HETATM   25  C1  UNL     1      -6.246   1.168  11.275  1.00  0.00     0.010 C 
BRANCH  24  26
HETATM   26  C3  UNL     1      -4.215   2.711  11.024  1.00  0.00     0.030 C 
BRANCH  26  27
HETATM   27  C4  UNL     1      -2.910   2.143  11.578  1.00  0.00     0.164 C 
BRANCH  27  28
HETATM   28  O1  UNL     1      -2.729   0.803  11.145  1.00  0.00    -0.401 OA
HETATM   29  H9  UNL     1      -1.884   0.494  11.512  1.00  0.00     0.209 HD
ENDBRANCH  27  28
ENDBRANCH  26  27
ENDBRANCH  24  26
ENDBRANCH  23  24
ENDBRANCH  22  23
ENDBRANCH  20  22
ENDBRANCH   1  20
BRANCH   2  30
HETATM   30  O2  UNL     1      -6.562   7.800  16.291  1.00  0.00    -0.393 OA
HETATM   31  H20 UNL     1      -6.703   8.752  16.440  1.00  0.00     0.210 HD
ENDBRANCH   2  30
BRANCH   3  32
HETATM   32  O3  UNL     1      -4.805   9.719  14.444  1.00  0.00    -0.392 OA
HETATM   33  H22 UNL     1      -4.355  10.314  15.073  1.00  0.00     0.210 HD
ENDBRANCH   3  32
BRANCH  19  34
HETATM   34  O6  UNL     1      -1.664   7.651  15.023  1.00  0.00    -0.389 OA
HETATM   35  H48 UNL     1      -0.868   8.223  15.006  1.00  0.00     0.210 HD
ENDBRANCH  19  34
BRANCH  17  36
HETATM   36  O5  UNL     1       0.157   9.380  14.129  1.00  0.00    -0.395 OA
HETATM   37  H45 UNL     1       1.083   9.610  13.924  1.00  0.00     0.210 HD
ENDBRANCH  17  36
BRANCH  14  38
HETATM   38  O4  UNL     1       1.497   8.690   9.012  1.00  0.00    -0.396 OA
HETATM   39  H40 UNL     1       1.152   9.463   8.531  1.00  0.00     0.210 HD
ENDBRANCH  14  38
TORSDOF 12
ENDMDL
MODEL 3
REMARK minimizedAffinity -8.74953842
REMARK  12 active torsions:
REMARK  status: ('A' for Active; 'I' for Inactive)
REMARK    1  A    between atoms: C2_2  and  C3_3 
REMARK    2  A    between atoms: C2_2  and  C5_6 
REMARK    3  A    between atoms: C3_3  and  C4_4 
REMARK    4  A    between atoms: C4_4  and  O1_5 
REMARK    5  A    between atoms: C5_6  and  C6_7 
REMARK    6  A    between atoms: C6_7  and  C7_8 
REMARK    7  A    between atoms: C7_8  and  C9_10 
REMARK    8  A    between atoms: C10_11  and  O2_12 
REMARK    9  A    between atoms: C11_13  and  O3_14 
REMARK   10  A    between atoms: C22_25  and  O4_26 
REMARK   11  A    between atoms: C25_29  and  O5_30 
REMARK   12  A    between atoms: C27_32  and  O6_33 
ROOT
HETATM    1  C9  UNL     1       1.203   8.253  12.073  1.00  0.00     0.029 C 
HETATM    2  C10 UNL     1       1.798   6.986  12.755  1.00  0.00     0.152 C 
HETATM    3  C11 UNL     1       0.819   6.566  13.878  1.00  0.00     0.155 C 
HETATM    4  C12 UNL     1      -0.510   7.126  13.383  1.00  0.00     0.060 C 
HETATM    5  C13 UNL     1      -0.105   8.545  12.893  1.00  0.00    -0.029 C 
HETATM    6  C14 UNL     1       0.323   9.532  14.026  1.00  0.00     0.016 C 
HETATM    7  C15 UNL     1      -1.296   9.185  12.160  1.00  0.00     0.011 C 
HETATM    8  C16 UNL     1      -2.573   9.175  13.021  1.00  0.00     0.009 C 
HETATM    9  C17 UNL     1      -2.936   7.755  13.529  1.00  0.00     0.029 C 
HETATM   10  C18 UNL     1      -4.345   7.686  14.239  1.00  0.00    -0.031 C 
HETATM   11  C19 UNL     1      -4.478   8.718  15.384  1.00  0.00     0.016 C 
HETATM   12  C20 UNL     1      -5.443   8.051  13.173  1.00  0.00     0.012 C 
HETATM   13  C21 UNL     1      -6.752   7.303  13.387  1.00  0.00     0.032 C 
HETATM   14  C22 UNL     1      -6.552   5.797  13.219  1.00  0.00     0.118 C 
HETATM   15  C23 UNL     1      -5.180   5.317  13.705  1.00  0.00     0.039 C 
HETATM   16  C24 UNL     1      -4.624   6.242  14.807  1.00  0.00     0.025 C 
HETATM   17  C25 UNL     1      -3.420   5.587  15.507  1.00  0.00     0.126 C 
HETATM   18  C26 UNL     1      -2.131   5.648  14.690  1.00  0.00     0.071 C 
HETATM   19  C27 UNL     1      -1.750   7.093  14.309  1.00  0.00     0.071 C 
ENDROOT
BRANCH   1  20
HETATM   20  C7  UNL     1       1.089   8.134  10.521  1.00  0.00    -0.011 C 
HETATM   21  C8  UNL     1       0.215   6.979  10.006  1.00  0.00     0.010 C 
BRANCH  20  22
HETATM   22  C6  UNL     1       2.481   8.007   9.838  1.00  0.00     0.005 C 
BRANCH  22  23
HETATM   23  C5  UNL     1       2.424   7.505   8.388  1.00  0.00     0.005 C 
BRANCH  23  24
HETATM   24  C2  UNL     1       2.555   5.969   8.258  1.00  0.00    -0.017 C 
HETATM   25  C1  UNL     1       2.779   5.615   6.784  1.00  0.00     0.010 C 
BRANCH  24  26
HETATM   26  C3  UNL     1       3.665   5.415   9.181  1.00  0.00     0.030 C 
BRANCH  26  27
HETATM   27  C4  UNL     1       3.891   3.908   9.078  1.00  0.00     0.164 C 
BRANCH  27  28
HETATM   28  O1  UNL     1       3.044   3.216   9.984  1.00  0.00    -0.401 OA
HETATM   29  H9  UNL     1       3.217   2.266   9.870  1.00  0.00     0.209 HD
ENDBRANCH  27  28
ENDBRANCH  26  27
ENDBRANCH  24  26
ENDBRANCH  23  24
ENDBRANCH  22  23
ENDBRANCH  20  22
ENDBRANCH   1  20
BRANCH   2  30
HETATM   30  O2  UNL     1       3.085   7.270  13.302  1.00  0.00    -0.393 OA
HETATM   31  H20 UNL     1       3.404   6.440  13.698  1.00  0.00     0.210 HD
ENDBRANCH   2  30
BRANCH   3  32
HETATM   32  O3  UNL     1       0.804   5.144  13.973  1.00  0.00    -0.392 OA
HETATM   33  H22 UNL     1       0.943   4.928  14.915  1.00  0.00     0.210 HD
ENDBRANCH   3  32
BRANCH  19  34
HETATM   34  O6  UNL     1      -1.443   7.809  15.500  1.00  0.00    -0.389 OA
HETATM   35  H48 UNL     1      -1.983   7.429  16.225  1.00  0.00     0.210 HD
ENDBRANCH  19  34
BRANCH  17  36
HETATM   36  O5  UNL     1      -3.179   6.231  16.764  1.00  0.00    -0.395 OA
HETATM   37  H45 UNL     1      -3.981   6.113  17.307  1.00  0.00     0.210 HD
ENDBRANCH  17  36
BRANCH  14  38
HETATM   38  O4  UNL     1      -7.580   5.136  13.954  1.00  0.00    -0.396 OA
HETATM   39  H40 UNL     1      -7.536   4.189  13.733  1.00  0.00     0.210 HD
ENDBRANCH  14  38
TORSDOF 12
ENDMDL
MODEL 4
REMARK minimizedAffinity -8.68299484
REMARK  12 active torsions:
REMARK  status: ('A' for Active; 'I' for Inactive)
REMARK    1  A    between atoms: C2_2  and  C3_3 
REMARK    2  A    between atoms: C2_2  and  C5_6 
REMARK    3  A    between atoms: C3_3  and  C4_4 
REMARK    4  A    between atoms: C4_4  and  O1_5 
REMARK    5  A    between atoms: C5_6  and  C6_7 
REMARK    6  A    between atoms: C6_7  and  C7_8 
REMARK    7  A    between atoms: C7_8  and  C9_10 
REMARK    8  A    between atoms: C10_11  and  O2_12 
REMARK    9  A    between atoms: C11_13  and  O3_14 
REMARK   10  A    between atoms: C22_25  and  O4_26 
REMARK   11  A    between atoms: C25_29  and  O5_30 
REMARK   12  A    between atoms: C27_32  and  O6_33 
ROOT
HETATM    1  C9  UNL     1      -5.617   5.899  14.897  1.00  0.00     0.029 C 
HETATM    2  C10 UNL     1      -5.979   7.383  15.200  1.00  0.00     0.152 C 
HETATM    3  C11 UNL     1      -4.678   8.209  15.060  1.00  0.00     0.155 C 
HETATM    4  C12 UNL     1      -3.856   7.370  14.089  1.00  0.00     0.060 C 
HETATM    5  C13 UNL     1      -4.068   5.931  14.640  1.00  0.00    -0.029 C 
HETATM    6  C14 UNL     1      -3.408   5.658  16.030  1.00  0.00     0.016 C 
HETATM    7  C15 UNL     1      -3.473   4.918  13.648  1.00  0.00     0.011 C 
HETATM    8  C16 UNL     1      -2.004   5.235  13.314  1.00  0.00     0.009 C 
HETATM    9  C17 UNL     1      -1.811   6.687  12.801  1.00  0.00     0.029 C 
HETATM   10  C18 UNL     1      -0.355   6.972  12.261  1.00  0.00    -0.031 C 
HETATM   11  C19 UNL     1       0.737   6.618  13.299  1.00  0.00     0.016 C 
HETATM   12  C20 UNL     1      -0.111   6.044  11.014  1.00  0.00     0.012 C 
HETATM   13  C21 UNL     1       0.778   6.688   9.959  1.00  0.00     0.032 C 
HETATM   14  C22 UNL     1       0.113   7.934   9.374  1.00  0.00     0.118 C 
HETATM   15  C23 UNL     1      -0.725   8.704  10.401  1.00  0.00     0.039 C 
HETATM   16  C24 UNL     1      -0.194   8.481  11.832  1.00  0.00     0.025 C 
HETATM   17  C25 UNL     1      -0.823   9.492  12.807  1.00  0.00     0.126 C 
HETATM   18  C26 UNL     1      -2.260   9.152  13.197  1.00  0.00     0.071 C 
HETATM   19  C27 UNL     1      -2.380   7.743  13.810  1.00  0.00     0.071 C 
ENDROOT
BRANCH   1  20
HETATM   20  C7  UNL     1      -6.530   5.239  13.816  1.00  0.00    -0.011 C 
HETATM   21  C8  UNL     1      -5.794   4.527  12.670  1.00  0.00     0.010 C 
BRANCH  20  22
HETATM   22  C6  UNL     1      -7.515   6.259  13.176  1.00  0.00     0.005 C 
BRANCH  22  23
HETATM   23  C5  UNL     1      -8.904   5.683  12.870  1.00  0.00     0.005 C 
BRANCH  23  24
HETATM   24  C2  UNL     1     -10.066   6.517  13.461  1.00  0.00    -0.017 C 
HETATM   25  C1  UNL     1      -9.507   7.449  14.542  1.00  0.00     0.010 C 
BRANCH  24  26
HETATM   26  C3  UNL     1     -10.835   7.278  12.356  1.00  0.00     0.030 C 
BRANCH  26  27
HETATM   27  C4  UNL     1     -11.875   8.272  12.868  1.00  0.00     0.164 C 
BRANCH  27  28
HETATM   28  O1  UNL     1     -11.558   9.588  12.438  1.00  0.00    -0.401 OA
HETATM   29  H9  UNL     1     -12.253  10.177  12.778  1.00  0.00     0.209 HD
ENDBRANCH  27  28
ENDBRANCH  26  27
ENDBRANCH  24  26
ENDBRANCH  23  24
ENDBRANCH  22  23
ENDBRANCH  20  22
ENDBRANCH   1  20
BRANCH   2  30
HETATM   30  O2  UNL     1      -6.506   7.509  16.520  1.00  0.00    -0.393 OA
HETATM   31  H20 UNL     1      -6.722   8.451  16.639  1.00  0.00     0.210 HD
ENDBRANCH   2  30
BRANCH   3  32
HETATM   32  O3  UNL     1      -4.998   9.492  14.527  1.00  0.00    -0.392 OA
HETATM   33  H22 UNL     1      -4.575  10.149  15.112  1.00  0.00     0.210 HD
ENDBRANCH   3  32
BRANCH  19  34
HETATM   34  O6  UNL     1      -1.669   7.723  15.043  1.00  0.00    -0.389 OA
HETATM   35  H48 UNL     1      -0.927   8.360  14.970  1.00  0.00     0.210 HD
ENDBRANCH  19  34
BRANCH  17  36
HETATM   36  O5  UNL     1      -0.043   9.562  14.006  1.00  0.00    -0.395 OA
HETATM   37  H45 UNL     1       0.851   9.861  13.752  1.00  0.00     0.210 HD
ENDBRANCH  17  36
BRANCH  14  38
HETATM   38  O4  UNL     1       1.142   8.779   8.864  1.00  0.00    -0.396 OA
HETATM   39  H40 UNL     1       0.713   9.500   8.370  1.00  0.00     0.210 HD
ENDBRANCH  14  38
TORSDOF 12
ENDMDL
MODEL 5
REMARK minimizedAffinity -8.43371773
REMARK  12 active torsions:
REMARK  status: ('A' for Active; 'I' for Inactive)
REMARK    1  A    between atoms: C2_2  and  C3_3 
REMARK    2  A    between atoms: C2_2  and  C5_6 
REMARK    3  A    between atoms: C3_3  and  C4_4 
REMARK    4  A    between atoms: C4_4  and  O1_5 
REMARK    5  A    between atoms: C5_6  and  C6_7 
REMARK    6  A    between atoms: C6_7  and  C7_8 
REMARK    7  A    between atoms: C7_8  and  C9_10 
REMARK    8  A    between atoms: C10_11  and  O2_12 
REMARK    9  A    between atoms: C11_13  and  O3_14 
REMARK   10  A    between atoms: C22_25  and  O4_26 
REMARK   11  A    between atoms: C25_29  and  O5_30 
REMARK   12  A    between atoms: C27_32  and  O6_33 
ROOT
HETATM    1  C9  UNL     1      -0.330   5.967  12.021  1.00  0.00     0.029 C 
HETATM    2  C10 UNL     1       0.999   5.701  12.789  1.00  0.00     0.152 C 
HETATM    3  C11 UNL     1       1.312   6.970  13.618  1.00  0.00     0.155 C 
HETATM    4  C12 UNL     1      -0.071   7.578  13.827  1.00  0.00     0.060 C 
HETATM    5  C13 UNL     1      -0.705   7.442  12.413  1.00  0.00    -0.029 C 
HETATM    6  C14 UNL     1      -0.056   8.345  11.315  1.00  0.00     0.016 C 
HETATM    7  C15 UNL     1      -2.193   7.818  12.490  1.00  0.00     0.011 C 
HETATM    8  C16 UNL     1      -2.404   9.205  13.125  1.00  0.00     0.009 C 
HETATM    9  C17 UNL     1      -1.732   9.329  14.518  1.00  0.00     0.029 C 
HETATM   10  C18 UNL     1      -2.103  10.664  15.275  1.00  0.00    -0.031 C 
HETATM   11  C19 UNL     1      -1.815  11.923  14.423  1.00  0.00     0.016 C 
HETATM   12  C20 UNL     1      -3.652  10.650  15.550  1.00  0.00     0.012 C 
HETATM   13  C21 UNL     1      -4.032  11.339  16.854  1.00  0.00     0.032 C 
HETATM   14  C22 UNL     1      -3.432  10.603  18.052  1.00  0.00     0.118 C 
HETATM   15  C23 UNL     1      -2.059   9.989  17.753  1.00  0.00     0.039 C 
HETATM   16  C24 UNL     1      -1.328  10.774  16.644  1.00  0.00     0.025 C 
HETATM   17  C25 UNL     1       0.152  10.361  16.574  1.00  0.00     0.126 C 
HETATM   18  C26 UNL     1       0.380   9.016  15.888  1.00  0.00     0.071 C 
HETATM   19  C27 UNL     1      -0.205   8.983  14.462  1.00  0.00     0.071 C 
ENDROOT
BRANCH   1  20
HETATM   20  C7  UNL     1      -1.404   4.854  12.223  1.00  0.00    -0.011 C 
HETATM   21  C8  UNL     1      -1.663   3.953  11.005  1.00  0.00     0.010 C 
BRANCH  20  22
HETATM   22  C6  UNL     1      -2.775   5.435  12.674  1.00  0.00     0.005 C 
BRANCH  22  23
HETATM   23  C5  UNL     1      -3.987   4.619  12.202  1.00  0.00     0.005 C 
BRANCH  23  24
HETATM   24  C2  UNL     1      -5.175   4.644  13.193  1.00  0.00    -0.017 C 
HETATM   25  C1  UNL     1      -5.534   6.102  13.499  1.00  0.00     0.010 C 
BRANCH  24  26
HETATM   26  C3  UNL     1      -6.377   3.833  12.656  1.00  0.00     0.030 C 
BRANCH  26  27
HETATM   27  C4  UNL     1      -7.393   3.414  13.717  1.00  0.00     0.164 C 
BRANCH  27  28
HETATM   28  O1  UNL     1      -8.710   3.462  13.189  1.00  0.00    -0.401 OA
HETATM   29  H9  UNL     1      -9.313   3.177  13.896  1.00  0.00     0.209 HD
ENDBRANCH  27  28
ENDBRANCH  26  27
ENDBRANCH  24  26
ENDBRANCH  23  24
ENDBRANCH  22  23
ENDBRANCH  20  22
ENDBRANCH   1  20
BRANCH   2  30
HETATM   30  O2  UNL     1       2.060   5.434  11.874  1.00  0.00    -0.393 OA
HETATM   31  H20 UNL     1       2.852   5.264  12.415  1.00  0.00     0.210 HD
ENDBRANCH   2  30
BRANCH   3  32
HETATM   32  O3  UNL     1       1.923   6.583  14.846  1.00  0.00    -0.392 OA
HETATM   33  H22 UNL     1       2.731   7.123  14.935  1.00  0.00     0.210 HD
ENDBRANCH   3  32
BRANCH  19  34
HETATM   34  O6  UNL     1       0.513   9.911  13.657  1.00  0.00    -0.389 OA
HETATM   35  H48 UNL     1       0.815  10.641  14.239  1.00  0.00     0.210 HD
ENDBRANCH  19  34
BRANCH  17  36
HETATM   36  O5  UNL     1       0.902  11.354  15.864  1.00  0.00    -0.395 OA
HETATM   37  H45 UNL     1       0.815  12.190  16.359  1.00  0.00     0.210 HD
ENDBRANCH  17  36
BRANCH  14  38
HETATM   38  O4  UNL     1      -3.317  11.536  19.124  1.00  0.00    -0.396 OA
HETATM   39  H40 UNL     1      -3.069  11.037  19.922  1.00  0.00     0.210 HD
ENDBRANCH  14  38
TORSDOF 12
ENDMDL
MODEL 6
REMARK minimizedAffinity -8.16433907
REMARK  12 active torsions:
REMARK  status: ('A' for Active; 'I' for Inactive)
REMARK    1  A    between atoms: C2_2  and  C3_3 
REMARK    2  A    between atoms: C2_2  and  C5_6 
REMARK    3  A    between atoms: C3_3  and  C4_4 
REMARK    4  A    between atoms: C4_4  and  O1_5 
REMARK    5  A    between atoms: C5_6  and  C6_7 
REMARK    6  A    between atoms: C6_7  and  C7_8 
REMARK    7  A    between atoms: C7_8  and  C9_10 
REMARK    8  A    between atoms: C10_11  and  O2_12 
REMARK    9  A    between atoms: C11_13  and  O3_14 
REMARK   10  A    between atoms: C22_25  and  O4_26 
REMARK   11  A    between atoms: C25_29  and  O5_30 
REMARK   12  A    between atoms: C27_32  and  O6_33 
ROOT
HETATM    1  C9  UNL     1      -1.285   6.513  12.416  1.00  0.00     0.029 C 
HETATM    2  C10 UNL     1       0.065   5.820  12.766  1.00  0.00     0.152 C 
HETATM    3  C11 UNL     1       0.978   6.892  13.408  1.00  0.00     0.155 C 
HETATM    4  C12 UNL     1      -0.028   7.878  13.991  1.00  0.00     0.060 C 
HETATM    5  C13 UNL     1      -1.062   8.011  12.837  1.00  0.00    -0.029 C 
HETATM    6  C14 UNL     1      -0.525   8.729  11.557  1.00  0.00     0.016 C 
HETATM    7  C15 UNL     1      -2.273   8.815  13.335  1.00  0.00     0.011 C 
HETATM    8  C16 UNL     1      -1.856  10.168  13.942  1.00  0.00     0.009 C 
HETATM    9  C17 UNL     1      -0.797  10.013  15.065  1.00  0.00     0.029 C 
HETATM   10  C18 UNL     1      -0.505  11.357  15.840  1.00  0.00    -0.031 C 
HETATM   11  C19 UNL     1      -0.114  12.512  14.886  1.00  0.00     0.016 C 
HETATM   12  C20 UNL     1      -1.832  11.799  16.561  1.00  0.00     0.012 C 
HETATM   13  C21 UNL     1      -1.581  12.504  17.887  1.00  0.00     0.032 C 
HETATM   14  C22 UNL     1      -0.906  11.562  18.885  1.00  0.00     0.118 C 
HETATM   15  C23 UNL     1       0.063  10.578  18.220  1.00  0.00     0.039 C 
HETATM   16  C24 UNL     1       0.635  11.160  16.910  1.00  0.00     0.025 C 
HETATM   17  C25 UNL     1       1.831  10.323  16.423  1.00  0.00     0.126 C 
HETATM   18  C26 UNL     1       1.426   9.008  15.760  1.00  0.00     0.071 C 
HETATM   19  C27 UNL     1       0.464   9.224  14.575  1.00  0.00     0.071 C 
ENDROOT
BRANCH   1  20
HETATM   20  C7  UNL     1      -2.536   5.768  12.977  1.00  0.00    -0.011 C 
HETATM   21  C8  UNL     1      -2.439   5.320  14.445  1.00  0.00     0.010 C 
BRANCH  20  22
HETATM   22  C6  UNL     1      -2.903   4.516  12.130  1.00  0.00     0.005 C 
BRANCH  22  23
HETATM   23  C5  UNL     1      -3.963   3.613  12.775  1.00  0.00     0.005 C 
BRANCH  23  24
HETATM   24  C2  UNL     1      -5.282   3.531  11.969  1.00  0.00    -0.017 C 
HETATM   25  C1  UNL     1      -5.409   2.127  11.368  1.00  0.00     0.010 C 
BRANCH  24  26
HETATM   26  C3  UNL     1      -6.500   3.923  12.837  1.00  0.00     0.030 C 
BRANCH  26  27
HETATM   27  C4  UNL     1      -7.578   2.847  12.950  1.00  0.00     0.164 C 
BRANCH  27  28
HETATM   28  O1  UNL     1      -8.846   3.439  13.195  1.00  0.00    -0.401 OA
HETATM   29  H9  UNL     1      -9.495   2.717  13.245  1.00  0.00     0.209 HD
ENDBRANCH  27  28
ENDBRANCH  26  27
ENDBRANCH  24  26
ENDBRANCH  23  24
ENDBRANCH  22  23
ENDBRANCH  20  22
ENDBRANCH   1  20
BRANCH   2  30
HETATM   30  O2  UNL     1       0.675   5.291  11.590  1.00  0.00    -0.393 OA
HETATM   31  H20 UNL     1       1.501   4.863  11.879  1.00  0.00     0.210 HD
ENDBRANCH   2  30
BRANCH   3  32
HETATM   32  O3  UNL     1       1.778   6.278  14.416  1.00  0.00    -0.392 OA
HETATM   33  H22 UNL     1       2.700   6.542  14.237  1.00  0.00     0.210 HD
ENDBRANCH   3  32
BRANCH  19  34
HETATM   34  O6  UNL     1       1.158   9.931  13.553  1.00  0.00    -0.389 OA
HETATM   35  H48 UNL     1       1.824  10.505  13.986  1.00  0.00     0.210 HD
ENDBRANCH  19  34
BRANCH  17  36
HETATM   36  O5  UNL     1       2.600  11.077  15.479  1.00  0.00    -0.395 OA
HETATM   37  H45 UNL     1       2.922  11.874  15.940  1.00  0.00     0.210 HD
ENDBRANCH  17  36
BRANCH  14  38
HETATM   38  O4  UNL     1      -0.202  12.362  19.832  1.00  0.00    -0.396 OA
HETATM   39  H40 UNL     1       0.108  11.773  20.542  1.00  0.00     0.210 HD
ENDBRANCH  14  38
TORSDOF 12
ENDMDL
MODEL 7
REMARK minimizedAffinity -8.06432724
REMARK  12 active torsions:
REMARK  status: ('A' for Active; 'I' for Inactive)
REMARK    1  A    between atoms: C2_2  and  C3_3 
REMARK    2  A    between atoms: C2_2  and  C5_6 
REMARK    3  A    between atoms: C3_3  and  C4_4 
REMARK    4  A    between atoms: C4_4  and  O1_5 
REMARK    5  A    between atoms: C5_6  and  C6_7 
REMARK    6  A    between atoms: C6_7  and  C7_8 
REMARK    7  A    between atoms: C7_8  and  C9_10 
REMARK    8  A    between atoms: C10_11  and  O2_12 
REMARK    9  A    between atoms: C11_13  and  O3_14 
REMARK   10  A    between atoms: C22_25  and  O4_26 
REMARK   11  A    between atoms: C25_29  and  O5_30 
REMARK   12  A    between atoms: C27_32  and  O6_33 
ROOT
HETATM    1  C9  UNL     1      -2.850   6.565  14.310  1.00  0.00     0.029 C 
HETATM    2  C10 UNL     1      -3.354   7.082  15.690  1.00  0.00     0.152 C 
HETATM    3  C11 UNL     1      -2.119   7.605  16.463  1.00  0.00     0.155 C 
HETATM    4  C12 UNL     1      -1.162   7.984  15.338  1.00  0.00     0.060 C 
HETATM    5  C13 UNL     1      -1.294   6.771  14.374  1.00  0.00    -0.029 C 
HETATM    6  C14 UNL     1      -0.716   5.428  14.927  1.00  0.00     0.016 C 
HETATM    7  C15 UNL     1      -0.547   7.082  13.067  1.00  0.00     0.011 C 
HETATM    8  C16 UNL     1       0.911   7.504  13.323  1.00  0.00     0.009 C 
HETATM    9  C17 UNL     1       1.020   8.691  14.317  1.00  0.00     0.029 C 
HETATM   10  C18 UNL     1       2.483   9.272  14.439  1.00  0.00    -0.031 C 
HETATM   11  C19 UNL     1       3.523   8.180  14.789  1.00  0.00     0.016 C 
HETATM   12  C20 UNL     1       2.893   9.852  13.035  1.00  0.00     0.012 C 
HETATM   13  C21 UNL     1       3.800  11.071  13.137  1.00  0.00     0.032 C 
HETATM   14  C22 UNL     1       3.079  12.230  13.826  1.00  0.00     0.118 C 
HETATM   15  C23 UNL     1       2.108  11.767  14.918  1.00  0.00     0.039 C 
HETATM   16  C24 UNL     1       2.550  10.418  15.521  1.00  0.00     0.025 C 
HETATM   17  C25 UNL     1       1.771  10.121  16.814  1.00  0.00     0.126 C 
HETATM   18  C26 UNL     1       0.342   9.639  16.570  1.00  0.00     0.071 C 
HETATM   19  C27 UNL     1       0.295   8.387  15.671  1.00  0.00     0.071 C 
ENDROOT
BRANCH   1  20
HETATM   20  C7  UNL     1      -3.625   7.164  13.096  1.00  0.00    -0.011 C 
HETATM   21  C8  UNL     1      -3.787   8.694  13.101  1.00  0.00     0.010 C 
BRANCH  20  22
HETATM   22  C6  UNL     1      -5.043   6.546  12.940  1.00  0.00     0.005 C 
BRANCH  22  23
HETATM   23  C5  UNL     1      -5.109   5.043  13.247  1.00  0.00     0.005 C 
BRANCH  23  24
HETATM   24  C2  UNL     1      -6.336   4.335  12.624  1.00  0.00    -0.017 C 
HETATM   25  C1  UNL     1      -5.882   3.006  12.012  1.00  0.00     0.010 C 
BRANCH  24  26
HETATM   26  C3  UNL     1      -7.474   4.161  13.656  1.00  0.00     0.030 C 
BRANCH  26  27
HETATM   27  C4  UNL     1      -7.246   4.875  14.987  1.00  0.00     0.164 C 
BRANCH  27  28
HETATM   28  O1  UNL     1      -8.032   4.280  16.010  1.00  0.00    -0.401 OA
HETATM   29  H9  UNL     1      -7.842   4.760  16.834  1.00  0.00     0.209 HD
ENDBRANCH  27  28
ENDBRANCH  26  27
ENDBRANCH  24  26
ENDBRANCH  23  24
ENDBRANCH  22  23
ENDBRANCH  20  22
ENDBRANCH   1  20
BRANCH   2  30
HETATM   30  O2  UNL     1      -3.984   6.030  16.419  1.00  0.00    -0.393 OA
HETATM   31  H20 UNL     1      -4.285   6.420  17.259  1.00  0.00     0.210 HD
ENDBRANCH   2  30
BRANCH   3  32
HETATM   32  O3  UNL     1      -2.504   8.732  17.246  1.00  0.00    -0.392 OA
HETATM   33  H22 UNL     1      -2.180   8.563  18.151  1.00  0.00     0.210 HD
ENDBRANCH   3  32
BRANCH  19  34
HETATM   34  O6  UNL     1       0.913   7.309  16.365  1.00  0.00    -0.389 OA
HETATM   35  H48 UNL     1       1.604   7.687  16.950  1.00  0.00     0.210 HD
ENDBRANCH  19  34
BRANCH  17  36
HETATM   36  O5  UNL     1       2.454   9.117  17.574  1.00  0.00    -0.395 OA
HETATM   37  H45 UNL     1       3.336   9.472  17.794  1.00  0.00     0.210 HD
ENDBRANCH  17  36
BRANCH  14  38
HETATM   38  O4  UNL     1       4.069  13.084  14.394  1.00  0.00    -0.396 OA
HETATM   39  H40 UNL     1       3.619  13.888  14.708  1.00  0.00     0.210 HD
ENDBRANCH  14  38
TORSDOF 12
ENDMDL
MODEL 8
REMARK minimizedAffinity -8.04961967
REMARK  12 active torsions:
REMARK  status: ('A' for Active; 'I' for Inactive)
REMARK    1  A    between atoms: C2_2  and  C3_3 
REMARK    2  A    between atoms: C2_2  and  C5_6 
REMARK    3  A    between atoms: C3_3  and  C4_4 
REMARK    4  A    between atoms: C4_4  and  O1_5 
REMARK    5  A    between atoms: C5_6  and  C6_7 
REMARK    6  A    between atoms: C6_7  and  C7_8 
REMARK    7  A    between atoms: C7_8  and  C9_10 
REMARK    8  A    between atoms: C10_11  and  O2_12 
REMARK    9  A    between atoms: C11_13  and  O3_14 
REMARK   10  A    between atoms: C22_25  and  O4_26 
REMARK   11  A    between atoms: C25_29  and  O5_30 
REMARK   12  A    between atoms: C27_32  and  O6_33 
ROOT
HETATM    1  C9  UNL     1      -2.170   6.033  13.283  1.00  0.00     0.029 C 
HETATM    2  C10 UNL     1      -0.928   5.573  14.103  1.00  0.00     0.152 C 
HETATM    3  C11 UNL     1      -0.315   6.837  14.753  1.00  0.00     0.155 C 
HETATM    4  C12 UNL     1      -1.514   7.773  14.853  1.00  0.00     0.060 C 
HETATM    5  C13 UNL     1      -2.185   7.594  13.461  1.00  0.00    -0.029 C 
HETATM    6  C14 UNL     1      -1.362   8.160  12.260  1.00  0.00     0.016 C 
HETATM    7  C15 UNL     1      -3.543   8.314  13.460  1.00  0.00     0.011 C 
HETATM    8  C16 UNL     1      -3.415   9.786  13.894  1.00  0.00     0.009 C 
HETATM    9  C17 UNL     1      -2.709   9.941  15.267  1.00  0.00     0.029 C 
HETATM   10  C18 UNL     1      -2.747  11.417  15.826  1.00  0.00    -0.031 C 
HETATM   11  C19 UNL     1      -2.187  12.445  14.813  1.00  0.00     0.016 C 
HETATM   12  C20 UNL     1      -4.252  11.803  16.074  1.00  0.00     0.012 C 
HETATM   13  C21 UNL     1      -4.439  12.735  17.264  1.00  0.00     0.032 C 
HETATM   14  C22 UNL     1      -4.008  12.053  18.562  1.00  0.00     0.118 C 
HETATM   15  C23 UNL     1      -2.821  11.101  18.374  1.00  0.00     0.039 C 
HETATM   16  C24 UNL     1      -1.946  11.533  17.179  1.00  0.00     0.025 C 
HETATM   17  C25 UNL     1      -0.603  10.780  17.192  1.00  0.00     0.126 C 
HETATM   18  C26 UNL     1      -0.707   9.337  16.702  1.00  0.00     0.071 C 
HETATM   19  C27 UNL     1      -1.307   9.244  15.285  1.00  0.00     0.071 C 
ENDROOT
BRANCH   1  20
HETATM   20  C7  UNL     1      -3.471   5.240  13.620  1.00  0.00    -0.011 C 
HETATM   21  C8  UNL     1      -3.512   3.788  13.115  1.00  0.00     0.010 C 
BRANCH  20  22
HETATM   22  C6  UNL     1      -4.748   5.954  13.093  1.00  0.00     0.005 C 
BRANCH  22  23
HETATM   23  C5  UNL     1      -6.040   5.146  13.279  1.00  0.00     0.005 C 
BRANCH  23  24
HETATM   24  C2  UNL     1      -7.323   6.011  13.241  1.00  0.00    -0.017 C 
HETATM   25  C1  UNL     1      -8.399   5.266  12.445  1.00  0.00     0.010 C 
BRANCH  24  26
HETATM   26  C3  UNL     1      -7.790   6.392  14.666  1.00  0.00     0.030 C 
BRANCH  26  27
HETATM   27  C4  UNL     1      -7.219   5.519  15.782  1.00  0.00     0.164 C 
BRANCH  27  28
HETATM   28  O1  UNL     1      -8.054   4.393  16.008  1.00  0.00    -0.401 OA
HETATM   29  H9  UNL     1      -7.642   3.867  16.714  1.00  0.00     0.209 HD
ENDBRANCH  27  28
ENDBRANCH  26  27
ENDBRANCH  24  26
ENDBRANCH  23  24
ENDBRANCH  22  23
ENDBRANCH  20  22
ENDBRANCH   1  20
BRANCH   2  30
HETATM   30  O2  UNL     1       0.027   4.942  13.251  1.00  0.00    -0.393 OA
HETATM   31  H20 UNL     1       0.766   4.669  13.823  1.00  0.00     0.210 HD
ENDBRANCH   2  30
BRANCH   3  32
HETATM   32  O3  UNL     1       0.210   6.492  16.033  1.00  0.00    -0.392 OA
HETATM   33  H22 UNL     1       1.123   6.835  16.059  1.00  0.00     0.210 HD
ENDBRANCH   3  32
BRANCH  19  34
HETATM   34  O6  UNL     1      -0.405   9.859  14.371  1.00  0.00    -0.389 OA
HETATM   35  H48 UNL     1       0.067  10.572  14.851  1.00  0.00     0.210 HD
ENDBRANCH  19  34
BRANCH  17  36
HETATM   36  O5  UNL     1       0.345  11.463  16.363  1.00  0.00    -0.395 OA
HETATM   37  H45 UNL     1       0.464  12.357  16.737  1.00  0.00     0.210 HD
ENDBRANCH  17  36
BRANCH  14  38
HETATM   38  O4  UNL     1      -3.662  13.073  19.496  1.00  0.00    -0.396 OA
HETATM   39  H40 UNL     1      -3.523  12.645  20.360  1.00  0.00     0.210 HD
ENDBRANCH  14  38
TORSDOF 12
ENDMDL
MODEL 9
REMARK minimizedAffinity -8.03641033
REMARK  12 active torsions:
REMARK  status: ('A' for Active; 'I' for Inactive)
REMARK    1  A    between atoms: C2_2  and  C3_3 
REMARK    2  A    between atoms: C2_2  and  C5_6 
REMARK    3  A    between atoms: C3_3  and  C4_4 
REMARK    4  A    between atoms: C4_4  and  O1_5 
REMARK    5  A    between atoms: C5_6  and  C6_7 
REMARK    6  A    between atoms: C6_7  and  C7_8 
REMARK    7  A    between atoms: C7_8  and  C9_10 
REMARK    8  A    between atoms: C10_11  and  O2_12 
REMARK    9  A    between atoms: C11_13  and  O3_14 
REMARK   10  A    between atoms: C22_25  and  O4_26 
REMARK   11  A    between atoms: C25_29  and  O5_30 
REMARK   12  A    between atoms: C27_32  and  O6_33 
ROOT
HETATM    1  C9  UNL     1       1.922   7.069  10.977  1.00  0.00     0.029 C 
HETATM    2  C10 UNL     1       1.559   5.593  10.637  1.00  0.00     0.152 C 
HETATM    3  C11 UNL     1       0.588   5.095  11.736  1.00  0.00     0.155 C 
HETATM    4  C12 UNL     1      -0.059   6.389  12.216  1.00  0.00     0.060 C 
HETATM    5  C13 UNL     1       1.163   7.346  12.324  1.00  0.00    -0.029 C 
HETATM    6  C14 UNL     1       2.177   6.986  13.458  1.00  0.00     0.016 C 
HETATM    7  C15 UNL     1       0.663   8.773  12.598  1.00  0.00     0.011 C 
HETATM    8  C16 UNL     1      -0.270   8.832  13.822  1.00  0.00     0.009 C 
HETATM    9  C17 UNL     1      -1.461   7.843  13.708  1.00  0.00     0.029 C 
HETATM   10  C18 UNL     1      -2.538   8.027  14.847  1.00  0.00    -0.031 C 
HETATM   11  C19 UNL     1      -1.915   7.959  16.262  1.00  0.00     0.016 C 
HETATM   12  C20 UNL     1      -3.162   9.464  14.697  1.00  0.00     0.012 C 
HETATM   13  C21 UNL     1      -4.630   9.520  15.097  1.00  0.00     0.032 C 
HETATM   14  C22 UNL     1      -5.479   8.645  14.175  1.00  0.00     0.118 C 
HETATM   15  C23 UNL     1      -4.747   7.382  13.706  1.00  0.00     0.039 C 
HETATM   16  C24 UNL     1      -3.679   6.945  14.730  1.00  0.00     0.025 C 
HETATM   17  C25 UNL     1      -3.181   5.523  14.418  1.00  0.00     0.126 C 
HETATM   18  C26 UNL     1      -2.203   5.461  13.247  1.00  0.00     0.071 C 
HETATM   19  C27 UNL     1      -0.978   6.373  13.461  1.00  0.00     0.071 C 
ENDROOT
BRANCH   1  20
HETATM   20  C7  UNL     1       1.702   8.057   9.789  1.00  0.00    -0.011 C 
HETATM   21  C8  UNL     1       0.358   7.922   9.055  1.00  0.00     0.010 C 
BRANCH  20  22
HETATM   22  C6  UNL     1       2.829   7.955   8.723  1.00  0.00     0.005 C 
BRANCH  22  23
HETATM   23  C5  UNL     1       4.150   8.616   9.141  1.00  0.00     0.005 C 
BRANCH  23  24
HETATM   24  C2  UNL     1       4.540   8.345  10.614  1.00  0.00    -0.017 C 
HETATM   25  C1  UNL     1       5.463   7.124  10.665  1.00  0.00     0.010 C 
BRANCH  24  26
HETATM   26  C3  UNL     1       5.167   9.596  11.273  1.00  0.00     0.030 C 
BRANCH  26  27
HETATM   27  C4  UNL     1       6.687   9.552  11.415  1.00  0.00     0.164 C 
BRANCH  27  28
HETATM   28  O1  UNL     1       7.309  10.013  10.224  1.00  0.00    -0.401 OA
HETATM   29  H9  UNL     1       8.270   9.977  10.370  1.00  0.00     0.209 HD
ENDBRANCH  27  28
ENDBRANCH  26  27
ENDBRANCH  24  26
ENDBRANCH  23  24
ENDBRANCH  22  23
ENDBRANCH  20  22
ENDBRANCH   1  20
BRANCH   2  30
HETATM   30  O2  UNL     1       2.733   4.782  10.611  1.00  0.00    -0.393 OA
HETATM   31  H20 UNL     1       2.439   3.883  10.382  1.00  0.00     0.210 HD
ENDBRANCH   2  30
BRANCH   3  32
HETATM   32  O3  UNL     1      -0.357   4.203  11.150  1.00  0.00    -0.392 OA
HETATM   33  H22 UNL     1      -0.360   3.400  11.704  1.00  0.00     0.210 HD
ENDBRANCH   3  32
BRANCH  19  34
HETATM   34  O6  UNL     1      -0.232   5.876  14.566  1.00  0.00    -0.389 OA
HETATM   35  H48 UNL     1      -0.861   5.446  15.182  1.00  0.00     0.210 HD
ENDBRANCH  19  34
BRANCH  17  36
HETATM   36  O5  UNL     1      -2.529   4.973  15.569  1.00  0.00    -0.395 OA
HETATM   37  H45 UNL     1      -3.190   4.941  16.287  1.00  0.00     0.210 HD
ENDBRANCH  17  36
BRANCH  14  38
HETATM   38  O4  UNL     1      -6.659   8.280  14.886  1.00  0.00    -0.396 OA
HETATM   39  H40 UNL     1      -7.259   7.844  14.255  1.00  0.00     0.210 HD
ENDBRANCH  14  38
TORSDOF 12
ENDMDL
