MODEL 1
REMARK minimizedAffinity -8.5856142
REMARK CNNscore 0.517788529
REMARK CNNaffinity 7.23515654
REMARK  11 active torsions:
REMARK  status: ('A' for Active; 'I' for Inactive)
REMARK    1  A    between atoms: C2_2  and  O1_3 
REMARK    2  A    between atoms: C2_2  and  C3_4 
REMARK    3  A    between atoms: C3_4  and  N1_5 
REMARK    4  A    between atoms: N1_5  and  C4_6 
REMARK    5  A    between atoms: C4_6  and  C5_7 
REMARK    6  A    between atoms: C6_8  and  C7_9 
REMARK    7  A    between atoms: C7_9  and  O2_10 
REMARK    8  A    between atoms: C7_9  and  C8_11 
REMARK    9  A    between atoms: C8_11  and  O3_13 
REMARK   10  A    between atoms: C8_11  and  C10_14 
REMARK   11  A    between atoms: C17_22  and  C18_23 
ROOT
HETATM    1  C10 UNL     1      -8.876  -9.826   1.572  1.00  0.00     0.034 C 
HETATM    2  C11 UNL     1      -9.774 -10.891   2.248  1.00  0.00     0.012 C 
HETATM    3  C12 UNL     1      -8.864 -11.715   3.181  1.00  0.00     0.044 C 
HETATM    4  C13 UNL     1      -7.598 -10.841   3.365  1.00  0.00     0.093 C 
HETATM    5  O4  UNL     1      -7.899  -9.716   4.239  1.00  0.00    -0.363 OA
HETATM    6  C14 UNL     1      -8.430 -10.020   5.532  1.00  0.00     0.263 C 
HETATM    7  C15 UNL     1      -7.545  -9.559   6.608  1.00  0.00    -0.080 C 
HETATM    8  C16 UNL     1      -6.877  -9.268   7.568  1.00  0.00    -0.093 C 
HETATM    9  C17 UNL     1      -6.045  -8.956   8.759  1.00  0.00     0.121 C 
HETATM   10  C24 UNL     1      -4.835  -9.915   8.901  1.00  0.00     0.190 C 
HETATM   11  O5  UNL     1      -3.740  -9.617   8.024  1.00  0.00    -0.384 OA
HETATM   12  C25 UNL     1      -3.873 -10.161   6.711  1.00  0.00     0.122 C 
HETATM   13  C26 UNL     1      -2.938  -9.394   5.780  1.00  0.00     0.033 C 
HETATM   14  C27 UNL     1      -2.619 -10.136   4.477  1.00  0.00     0.013 C 
HETATM   15  C28 UNL     1      -3.676 -11.196   4.066  1.00  0.00    -0.026 C 
HETATM   16  C29 UNL     1      -3.127 -11.965   2.832  1.00  0.00     0.016 C 
HETATM   17  C30 UNL     1      -3.774 -12.232   5.235  1.00  0.00     0.071 C 
HETATM   18  C31 UNL     1      -3.574 -11.652   6.653  1.00  0.00     0.045 C 
HETATM   19  C32 UNL     1      -5.024 -13.093   5.189  1.00  0.00     0.154 C 
HETATM   20  O6  UNL     1      -5.091 -14.170   5.781  1.00  0.00    -0.293 OA
HETATM   21  C33 UNL     1      -6.231 -12.603   4.493  1.00  0.00     0.057 C 
HETATM   22  C34 UNL     1      -6.278 -11.416   3.865  1.00  0.00    -0.036 C 
HETATM   23  C35 UNL     1      -5.058 -10.495   3.722  1.00  0.00     0.026 C 
HETATM   24  C36 UNL     1      -5.013  -9.722   2.372  1.00  0.00     0.011 C 
HETATM   25  C37 UNL     1      -6.370  -9.197   1.887  1.00  0.00     0.014 C 
HETATM   26  C38 UNL     1      -7.424 -10.319   1.887  1.00  0.00    -0.002 C 
HETATM   27  C39 UNL     1      -6.969 -11.450   0.924  1.00  0.00     0.019 C 
ENDROOT
BRANCH   1  28
HETATM   28  C8  UNL     1      -9.340  -9.405   0.138  1.00  0.00     0.087 C 
HETATM   29  C9  UNL     1     -10.546  -8.452   0.109  1.00  0.00     0.049 C 
BRANCH  28  30
HETATM   30  C7  UNL     1      -8.167  -8.737  -0.688  1.00  0.00     0.181 C 
BRANCH  30  31
HETATM   31  C6  UNL     1      -8.118  -9.128  -2.184  1.00  0.00     0.159 C 
HETATM   32  C5  UNL     1      -8.157  -8.044  -3.276  1.00  0.00     0.051 C 
HETATM   33  C41 UNL     1      -8.606  -8.861  -4.492  1.00  0.00     0.014 C 
HETATM   34  C40 UNL     1      -9.504  -9.934  -3.886  1.00  0.00     0.173 C 
HETATM   35  C42 UNL     1      -7.422  -9.491  -5.233  1.00  0.00     0.012 C 
HETATM   36  O7  UNL     1      -9.176 -10.057  -2.496  1.00  0.00    -0.382 OA
BRANCH  32  37
HETATM   37  C4  UNL     1      -9.026  -6.789  -3.050  1.00  0.00     0.277 C 
BRANCH  37  38
HETATM   38  N1  UNL     1      -8.766  -5.668  -3.955  1.00  0.00     0.086 N 
HETATM   39  H8  UNL     1      -8.839  -4.789  -3.442  1.00  0.00     0.315 HD
BRANCH  38  40
HETATM   40  C3  UNL     1      -9.761  -5.650  -5.045  1.00  0.00     0.300 C 
BRANCH  40  41
HETATM   41  C2  UNL     1     -10.231  -4.199  -5.270  1.00  0.00     0.142 C 
HETATM   42  C1  UNL     1      -9.239  -3.407  -6.105  1.00  0.00     0.041 C 
BRANCH  41  43
HETATM   43  O1  UNL     1     -10.391  -3.554  -4.005  1.00  0.00    -0.394 OA
HETATM   44  H5  UNL     1     -10.603  -4.282  -3.386  1.00  0.00     0.210 HD
ENDBRANCH  41  43
ENDBRANCH  40  41
ENDBRANCH  38  40
ENDBRANCH  37  38
ENDBRANCH  32  37
ENDBRANCH  30  31
BRANCH  30  45
HETATM   45  O2  UNL     1      -8.316  -7.317  -0.570  1.00  0.00    -0.390 OA
HETATM   46  H14 UNL     1      -9.172  -7.106  -0.995  1.00  0.00     0.210 HD
ENDBRANCH  30  45
ENDBRANCH  28  30
BRANCH  28  47
HETATM   47  O3  UNL     1      -9.789 -10.580  -0.557  1.00  0.00    -0.387 OA
HETATM   48  H18 UNL     1      -8.993 -11.066  -0.862  1.00  0.00     0.210 HD
ENDBRANCH  28  47
ENDBRANCH   1  28
BRANCH   9  49
HETATM   49  C18 UNL     1      -6.903  -9.014  10.020  1.00  0.00    -0.040 A 
HETATM   50  C19 UNL     1      -6.325  -8.920  11.302  1.00  0.00     0.008 A 
HETATM   51  C20 UNL     1      -7.120  -8.959  12.448  1.00  0.00     0.001 A 
HETATM   52  C21 UNL     1      -8.503  -9.089  12.334  1.00  0.00     0.000 A 
HETATM   53  C22 UNL     1      -9.085  -9.197  11.072  1.00  0.00     0.001 A 
HETATM   54  C23 UNL     1      -8.297  -9.156   9.920  1.00  0.00     0.008 A 
ENDBRANCH   9  49
TORSDOF 11
ENDMDL
MODEL 2
REMARK minimizedAffinity -7.81859064
REMARK CNNscore 0.319424301
REMARK CNNaffinity 6.62026072
REMARK  11 active torsions:
REMARK  status: ('A' for Active; 'I' for Inactive)
REMARK    1  A    between atoms: C2_2  and  O1_3 
REMARK    2  A    between atoms: C2_2  and  C3_4 
REMARK    3  A    between atoms: C3_4  and  N1_5 
REMARK    4  A    between atoms: N1_5  and  C4_6 
REMARK    5  A    between atoms: C4_6  and  C5_7 
REMARK    6  A    between atoms: C6_8  and  C7_9 
REMARK    7  A    between atoms: C7_9  and  O2_10 
REMARK    8  A    between atoms: C7_9  and  C8_11 
REMARK    9  A    between atoms: C8_11  and  O3_13 
REMARK   10  A    between atoms: C8_11  and  C10_14 
REMARK   11  A    between atoms: C17_22  and  C18_23 
ROOT
HETATM    1  C10 UNL     1     -14.979   9.037  24.619  1.00  0.00     0.034 C 
HETATM    2  C11 UNL     1     -16.347   8.864  25.324  1.00  0.00     0.012 C 
HETATM    3  C12 UNL     1     -16.659   7.354  25.330  1.00  0.00     0.044 C 
HETATM    4  C13 UNL     1     -15.297   6.672  25.052  1.00  0.00     0.093 C 
HETATM    5  O4  UNL     1     -14.452   6.757  26.234  1.00  0.00    -0.363 OA
HETATM    6  C14 UNL     1     -14.982   6.228  27.453  1.00  0.00     0.263 C 
HETATM    7  C15 UNL     1     -14.171   5.116  27.963  1.00  0.00    -0.080 C 
HETATM    8  C16 UNL     1     -13.612   4.165  28.449  1.00  0.00    -0.093 C 
HETATM    9  C17 UNL     1     -12.959   2.966  29.034  1.00  0.00     0.121 C 
HETATM   10  C24 UNL     1     -13.242   1.680  28.214  1.00  0.00     0.190 C 
HETATM   11  O5  UNL     1     -12.457   1.557  27.019  1.00  0.00    -0.384 OA
HETATM   12  C25 UNL     1     -12.987   2.257  25.894  1.00  0.00     0.122 C 
HETATM   13  C26 UNL     1     -11.862   2.450  24.880  1.00  0.00     0.033 C 
HETATM   14  C27 UNL     1     -12.356   2.755  23.461  1.00  0.00     0.013 C 
HETATM   15  C28 UNL     1     -13.783   3.362  23.393  1.00  0.00    -0.026 C 
HETATM   16  C29 UNL     1     -14.194   3.452  21.897  1.00  0.00     0.016 C 
HETATM   17  C30 UNL     1     -14.756   2.336  24.066  1.00  0.00     0.071 C 
HETATM   18  C31 UNL     1     -14.165   1.539  25.250  1.00  0.00     0.045 C 
HETATM   19  C32 UNL     1     -16.102   2.929  24.450  1.00  0.00     0.154 C 
HETATM   20  O6  UNL     1     -17.091   2.220  24.637  1.00  0.00    -0.293 OA
HETATM   21  C33 UNL     1     -16.226   4.380  24.691  1.00  0.00     0.057 C 
HETATM   22  C34 UNL     1     -15.192   5.230  24.569  1.00  0.00    -0.036 C 
HETATM   23  C35 UNL     1     -13.807   4.797  24.070  1.00  0.00     0.026 C 
HETATM   24  C36 UNL     1     -13.088   5.874  23.205  1.00  0.00     0.011 C 
HETATM   25  C37 UNL     1     -13.254   7.314  23.706  1.00  0.00     0.014 C 
HETATM   26  C38 UNL     1     -14.738   7.645  23.943  1.00  0.00    -0.002 C 
HETATM   27  C39 UNL     1     -15.516   7.504  22.605  1.00  0.00     0.019 C 
ENDROOT
BRANCH   1  28
HETATM   28  C8  UNL     1     -14.810  10.393  23.859  1.00  0.00     0.087 C 
HETATM   29  C9  UNL     1     -15.446  11.605  24.561  1.00  0.00     0.049 C 
BRANCH  28  30
HETATM   30  C7  UNL     1     -13.287  10.729  23.586  1.00  0.00     0.181 C 
BRANCH  30  31
HETATM   31  C6  UNL     1     -12.807  10.450  22.141  1.00  0.00     0.159 C 
HETATM   32  C5  UNL     1     -11.305  10.420  21.809  1.00  0.00     0.051 C 
HETATM   33  C41 UNL     1     -11.329  10.640  20.293  1.00  0.00     0.014 C 
HETATM   34  C40 UNL     1     -12.549  11.531  20.085  1.00  0.00     0.173 C 
HETATM   35  C42 UNL     1     -11.473   9.324  19.521  1.00  0.00     0.012 C 
HETATM   36  O7  UNL     1     -13.408  11.385  21.223  1.00  0.00    -0.382 OA
BRANCH  32  37
HETATM   37  C4  UNL     1     -10.362  11.401  22.537  1.00  0.00     0.277 C 
BRANCH  37  38
HETATM   38  N1  UNL     1      -9.457  12.165  21.675  1.00  0.00     0.086 N 
HETATM   39  H8  UNL     1      -8.545  11.708  21.646  1.00  0.00     0.315 HD
BRANCH  38  40
HETATM   40  C3  UNL     1      -9.273  13.529  22.208  1.00  0.00     0.300 C 
BRANCH  40  41
HETATM   41  C2  UNL     1      -7.915  13.605  22.934  1.00  0.00     0.142 C 
HETATM   42  C1  UNL     1      -6.760  13.265  22.008  1.00  0.00     0.041 C 
BRANCH  41  43
HETATM   43  O1  UNL     1      -7.916  12.688  24.031  1.00  0.00    -0.394 OA
HETATM   44  H5  UNL     1      -8.858  12.619  24.289  1.00  0.00     0.210 HD
ENDBRANCH  41  43
ENDBRANCH  40  41
ENDBRANCH  38  40
ENDBRANCH  37  38
ENDBRANCH  32  37
ENDBRANCH  30  31
BRANCH  30  45
HETATM   45  O2  UNL     1     -13.092  12.113  23.895  1.00  0.00    -0.390 OA
HETATM   46  H14 UNL     1     -13.651  12.607  23.260  1.00  0.00     0.210 HD
ENDBRANCH  30  45
ENDBRANCH  28  30
BRANCH  28  47
HETATM   47  O3  UNL     1     -15.499  10.298  22.602  1.00  0.00    -0.387 OA
HETATM   48  H18 UNL     1     -14.930   9.784  21.990  1.00  0.00     0.210 HD
ENDBRANCH  28  47
ENDBRANCH   1  28
BRANCH   9  49
HETATM   49  C18 UNL     1     -13.424   2.774  30.475  1.00  0.00    -0.040 A 
HETATM   50  C19 UNL     1     -14.787   2.595  30.786  1.00  0.00     0.008 A 
HETATM   51  C20 UNL     1     -15.199   2.406  32.105  1.00  0.00     0.001 A 
HETATM   52  C21 UNL     1     -14.260   2.390  33.134  1.00  0.00     0.000 A 
HETATM   53  C22 UNL     1     -12.911   2.582  32.842  1.00  0.00     0.001 A 
HETATM   54  C23 UNL     1     -12.489   2.768  31.524  1.00  0.00     0.008 A 
ENDBRANCH   9  49
TORSDOF 11
ENDMDL
MODEL 3
REMARK minimizedAffinity -7.79345465
REMARK CNNscore 0.298137903
REMARK CNNaffinity 6.59795141
REMARK  11 active torsions:
REMARK  status: ('A' for Active; 'I' for Inactive)
REMARK    1  A    between atoms: C2_2  and  O1_3 
REMARK    2  A    between atoms: C2_2  and  C3_4 
REMARK    3  A    between atoms: C3_4  and  N1_5 
REMARK    4  A    between atoms: N1_5  and  C4_6 
REMARK    5  A    between atoms: C4_6  and  C5_7 
REMARK    6  A    between atoms: C6_8  and  C7_9 
REMARK    7  A    between atoms: C7_9  and  O2_10 
REMARK    8  A    between atoms: C7_9  and  C8_11 
REMARK    9  A    between atoms: C8_11  and  O3_13 
REMARK   10  A    between atoms: C8_11  and  C10_14 
REMARK   11  A    between atoms: C17_22  and  C18_23 
ROOT
HETATM    1  C10 UNL     1      -9.957  -9.319  -1.709  1.00  0.00     0.034 C 
HETATM    2  C11 UNL     1      -8.766  -9.516  -2.679  1.00  0.00     0.012 C 
HETATM    3  C12 UNL     1      -9.245  -9.058  -4.072  1.00  0.00     0.044 C 
HETATM    4  C13 UNL     1     -10.505  -8.204  -3.791  1.00  0.00     0.093 C 
HETATM    5  O4  UNL     1     -10.116  -6.920  -3.226  1.00  0.00    -0.363 OA
HETATM    6  C14 UNL     1      -9.193  -6.130  -3.981  1.00  0.00     0.263 C 
HETATM    7  C15 UNL     1      -9.778  -4.845  -4.384  1.00  0.00    -0.080 C 
HETATM    8  C16 UNL     1     -10.167  -3.787  -4.810  1.00  0.00    -0.093 C 
HETATM    9  C17 UNL     1     -10.648  -2.501  -5.379  1.00  0.00     0.121 C 
HETATM   10  C24 UNL     1     -11.624  -2.709  -6.566  1.00  0.00     0.190 C 
HETATM   11  O5  UNL     1     -12.958  -3.067  -6.178  1.00  0.00    -0.384 OA
HETATM   12  C25 UNL     1     -13.143  -4.460  -5.928  1.00  0.00     0.122 C 
HETATM   13  C26 UNL     1     -14.404  -4.629  -5.084  1.00  0.00     0.033 C 
HETATM   14  C27 UNL     1     -14.988  -6.046  -5.124  1.00  0.00     0.013 C 
HETATM   15  C28 UNL     1     -13.966  -7.152  -5.500  1.00  0.00    -0.026 C 
HETATM   16  C29 UNL     1     -14.744  -8.488  -5.659  1.00  0.00     0.016 C 
HETATM   17  C30 UNL     1     -13.393  -6.794  -6.911  1.00  0.00     0.071 C 
HETATM   18  C31 UNL     1     -13.244  -5.284  -7.203  1.00  0.00     0.045 C 
HETATM   19  C32 UNL     1     -12.106  -7.526  -7.255  1.00  0.00     0.154 C 
HETATM   20  O6  UNL     1     -11.726  -7.655  -8.419  1.00  0.00    -0.293 OA
HETATM   21  C33 UNL     1     -11.234  -8.029  -6.176  1.00  0.00     0.057 C 
HETATM   22  C34 UNL     1     -11.532  -7.888  -4.873  1.00  0.00    -0.036 C 
HETATM   23  C35 UNL     1     -12.852  -7.281  -4.377  1.00  0.00     0.026 C 
HETATM   24  C36 UNL     1     -13.394  -7.942  -3.075  1.00  0.00     0.011 C 
HETATM   25  C37 UNL     1     -12.321  -8.279  -2.032  1.00  0.00     0.014 C 
HETATM   26  C38 UNL     1     -11.173  -9.085  -2.666  1.00  0.00    -0.002 C 
HETATM   27  C39 UNL     1     -11.735 -10.418  -3.234  1.00  0.00     0.019 C 
ENDROOT
BRANCH   1  28
HETATM   28  C8  UNL     1      -9.993 -10.331  -0.517  1.00  0.00     0.087 C 
HETATM   29  C9  UNL     1      -9.324 -11.685  -0.805  1.00  0.00     0.049 C 
BRANCH  28  30
HETATM   30  C7  UNL     1      -9.334  -9.726   0.789  1.00  0.00     0.181 C 
BRANCH  30  31
HETATM   31  C6  UNL     1      -8.057 -10.454   1.272  1.00  0.00     0.159 C 
HETATM   32  C5  UNL     1      -7.727 -10.543   2.772  1.00  0.00     0.051 C 
HETATM   33  C41 UNL     1      -6.225 -10.842   2.732  1.00  0.00     0.014 C 
HETATM   34  C40 UNL     1      -5.753 -10.114   1.478  1.00  0.00     0.173 C 
HETATM   35  C42 UNL     1      -5.939 -12.344   2.634  1.00  0.00     0.012 C 
HETATM   36  O7  UNL     1      -6.889  -9.900   0.632  1.00  0.00    -0.382 OA
BRANCH  32  37
HETATM   37  C4  UNL     1      -8.070  -9.343   3.681  1.00  0.00     0.277 C 
BRANCH  37  38
HETATM   38  N1  UNL     1      -7.136  -9.097   4.781  1.00  0.00     0.086 N 
HETATM   39  H8  UNL     1      -6.338  -9.730   4.702  1.00  0.00     0.315 HD
BRANCH  38  40
HETATM   40  C3  UNL     1      -7.795  -9.348   6.078  1.00  0.00     0.300 C 
BRANCH  40  41
HETATM   41  C2  UNL     1      -6.755  -9.201   7.206  1.00  0.00     0.142 C 
HETATM   42  C1  UNL     1      -7.369  -9.441   8.575  1.00  0.00     0.041 C 
BRANCH  41  43
HETATM   43  O1  UNL     1      -6.203  -7.883   7.170  1.00  0.00    -0.394 OA
HETATM   44  H5  UNL     1      -6.277  -7.615   6.231  1.00  0.00     0.210 HD
ENDBRANCH  41  43
ENDBRANCH  40  41
ENDBRANCH  38  40
ENDBRANCH  37  38
ENDBRANCH  32  37
ENDBRANCH  30  31
BRANCH  30  45
HETATM   45  O2  UNL     1      -9.027  -8.354   0.516  1.00  0.00    -0.390 OA
HETATM   46  H14 UNL     1      -8.363  -8.370  -0.203  1.00  0.00     0.210 HD
ENDBRANCH  30  45
ENDBRANCH  28  30
BRANCH  28  47
HETATM   47  O3  UNL     1     -11.365 -10.655  -0.238  1.00  0.00    -0.387 OA
HETATM   48  H18 UNL     1     -11.750  -9.909   0.269  1.00  0.00     0.210 HD
ENDBRANCH  28  47
ENDBRANCH   1  28
BRANCH   9  49
HETATM   49  C18 UNL     1      -9.458  -1.656  -5.827  1.00  0.00    -0.040 A 
HETATM   50  C19 UNL     1      -8.143  -1.985  -5.444  1.00  0.00     0.008 A 
HETATM   51  C20 UNL     1      -7.061  -1.214  -5.871  1.00  0.00     0.001 A 
HETATM   52  C21 UNL     1      -7.274  -0.106  -6.690  1.00  0.00     0.000 A 
HETATM   53  C22 UNL     1      -8.571   0.237  -7.064  1.00  0.00     0.001 A 
HETATM   54  C23 UNL     1      -9.659  -0.531  -6.643  1.00  0.00     0.008 A 
ENDBRANCH   9  49
TORSDOF 11
ENDMDL
MODEL 4
REMARK minimizedAffinity -8.25662041
REMARK CNNscore 0.264739305
REMARK CNNaffinity 5.86435843
REMARK  11 active torsions:
REMARK  status: ('A' for Active; 'I' for Inactive)
REMARK    1  A    between atoms: C2_2  and  O1_3 
REMARK    2  A    between atoms: C2_2  and  C3_4 
REMARK    3  A    between atoms: C3_4  and  N1_5 
REMARK    4  A    between atoms: N1_5  and  C4_6 
REMARK    5  A    between atoms: C4_6  and  C5_7 
REMARK    6  A    between atoms: C6_8  and  C7_9 
REMARK    7  A    between atoms: C7_9  and  O2_10 
REMARK    8  A    between atoms: C7_9  and  C8_11 
REMARK    9  A    between atoms: C8_11  and  O3_13 
REMARK   10  A    between atoms: C8_11  and  C10_14 
REMARK   11  A    between atoms: C17_22  and  C18_23 
ROOT
HETATM    1  C10 UNL     1       2.328  10.637  16.859  1.00  0.00     0.034 C 
HETATM    2  C11 UNL     1       2.873  11.689  15.862  1.00  0.00     0.012 C 
HETATM    3  C12 UNL     1       3.558  12.786  16.700  1.00  0.00     0.044 C 
HETATM    4  C13 UNL     1       3.791  12.133  18.085  1.00  0.00     0.093 C 
HETATM    5  O4  UNL     1       4.878  11.169  17.999  1.00  0.00    -0.363 OA
HETATM    6  C14 UNL     1       6.134  11.646  17.507  1.00  0.00     0.263 C 
HETATM    7  C15 UNL     1       7.197  11.516  18.511  1.00  0.00    -0.080 C 
HETATM    8  C16 UNL     1       8.135  11.504  19.268  1.00  0.00    -0.093 C 
HETATM    9  C17 UNL     1       9.287  11.536  20.205  1.00  0.00     0.121 C 
HETATM   10  C24 UNL     1       9.149  12.651  21.274  1.00  0.00     0.190 C 
HETATM   11  O5  UNL     1       8.251  12.331  22.347  1.00  0.00    -0.384 OA
HETATM   12  C25 UNL     1       6.877  12.590  22.061  1.00  0.00     0.122 C 
HETATM   13  C26 UNL     1       6.027  11.784  23.038  1.00  0.00     0.033 C 
HETATM   14  C27 UNL     1       4.587  12.295  23.171  1.00  0.00     0.013 C 
HETATM   15  C28 UNL     1       4.080  13.113  21.952  1.00  0.00    -0.026 C 
HETATM   16  C29 UNL     1       2.685  13.694  22.313  1.00  0.00     0.016 C 
HETATM   17  C30 UNL     1       5.045  14.334  21.779  1.00  0.00     0.071 C 
HETATM   18  C31 UNL     1       6.523  14.068  22.142  1.00  0.00     0.045 C 
HETATM   19  C32 UNL     1       4.948  15.003  20.419  1.00  0.00     0.154 C 
HETATM   20  O6  UNL     1       5.337  16.157  20.236  1.00  0.00    -0.293 OA
HETATM   21  C33 UNL     1       4.458  14.239  19.255  1.00  0.00     0.057 C 
HETATM   22  C34 UNL     1       4.064  12.957  19.339  1.00  0.00    -0.036 C 
HETATM   23  C35 UNL     1       3.989  12.189  20.665  1.00  0.00     0.026 C 
HETATM   24  C36 UNL     1       2.804  11.182  20.739  1.00  0.00     0.011 C 
HETATM   25  C37 UNL     1       2.540  10.405  19.443  1.00  0.00     0.014 C 
HETATM   26  C38 UNL     1       2.424  11.362  18.244  1.00  0.00    -0.002 C 
HETATM   27  C39 UNL     1       1.236  12.335  18.477  1.00  0.00     0.019 C 
ENDROOT
BRANCH   1  28
HETATM   28  C8  UNL     1       1.041   9.893  16.375  1.00  0.00     0.087 C 
HETATM   29  C9  UNL     1       0.209  10.661  15.335  1.00  0.00     0.049 C 
BRANCH  28  30
HETATM   30  C7  UNL     1       1.376   8.465  15.778  1.00  0.00     0.181 C 
BRANCH  30  31
HETATM   31  C6  UNL     1       1.319   8.375  14.234  1.00  0.00     0.159 C 
HETATM   32  C5  UNL     1       0.410   7.342  13.544  1.00  0.00     0.051 C 
HETATM   33  C41 UNL     1       1.049   7.262  12.154  1.00  0.00     0.014 C 
HETATM   34  C40 UNL     1       2.529   7.510  12.430  1.00  0.00     0.173 C 
HETATM   35  C42 UNL     1       0.486   8.319  11.198  1.00  0.00     0.012 C 
HETATM   36  O7  UNL     1       2.641   8.179  13.693  1.00  0.00    -0.382 OA
BRANCH  32  37
HETATM   37  C4  UNL     1       0.231   5.956  14.197  1.00  0.00     0.277 C 
BRANCH  37  38
HETATM   38  N1  UNL     1      -0.859   5.851  15.169  1.00  0.00     0.086 N 
HETATM   39  H8  UNL     1      -0.823   4.940  15.628  1.00  0.00     0.315 HD
BRANCH  38  40
HETATM   40  C3  UNL     1      -2.164   5.972  14.489  1.00  0.00     0.300 C 
BRANCH  40  41
HETATM   41  C2  UNL     1      -3.122   6.782  15.384  1.00  0.00     0.142 C 
HETATM   42  C1  UNL     1      -2.466   8.044  15.917  1.00  0.00     0.041 C 
BRANCH  41  43
HETATM   43  O1  UNL     1      -3.535   5.972  16.487  1.00  0.00    -0.394 OA
HETATM   44  H5  UNL     1      -3.483   5.055  16.148  1.00  0.00     0.210 HD
ENDBRANCH  41  43
ENDBRANCH  40  41
ENDBRANCH  38  40
ENDBRANCH  37  38
ENDBRANCH  32  37
ENDBRANCH  30  31
BRANCH  30  45
HETATM   45  O2  UNL     1       2.688   8.111  16.229  1.00  0.00    -0.390 OA
HETATM   46  H14 UNL     1       3.290   8.775  15.836  1.00  0.00     0.210 HD
ENDBRANCH  30  45
ENDBRANCH  28  30
BRANCH  28  47
HETATM   47  O3  UNL     1       0.159   9.732  17.499  1.00  0.00    -0.387 OA
HETATM   48  H18 UNL     1       0.496   8.983  18.036  1.00  0.00     0.210 HD
ENDBRANCH  28  47
ENDBRANCH   1  28
BRANCH   9  49
HETATM   49  C18 UNL     1      10.585  11.725  19.423  1.00  0.00    -0.040 A 
HETATM   50  C19 UNL     1      11.757  12.188  20.054  1.00  0.00     0.008 A 
HETATM   51  C20 UNL     1      12.941  12.344  19.334  1.00  0.00     0.001 A 
HETATM   52  C21 UNL     1      12.977  12.038  17.974  1.00  0.00     0.000 A 
HETATM   53  C22 UNL     1      11.821  11.594  17.336  1.00  0.00     0.001 A 
HETATM   54  C23 UNL     1      10.632  11.432  18.050  1.00  0.00     0.008 A 
ENDBRANCH   9  49
TORSDOF 11
ENDMDL
MODEL 5
REMARK minimizedAffinity -7.92413902
REMARK CNNscore 0.243559062
REMARK CNNaffinity 6.29075766
REMARK  11 active torsions:
REMARK  status: ('A' for Active; 'I' for Inactive)
REMARK    1  A    between atoms: C2_2  and  O1_3 
REMARK    2  A    between atoms: C2_2  and  C3_4 
REMARK    3  A    between atoms: C3_4  and  N1_5 
REMARK    4  A    between atoms: N1_5  and  C4_6 
REMARK    5  A    between atoms: C4_6  and  C5_7 
REMARK    6  A    between atoms: C6_8  and  C7_9 
REMARK    7  A    between atoms: C7_9  and  O2_10 
REMARK    8  A    between atoms: C7_9  and  C8_11 
REMARK    9  A    between atoms: C8_11  and  O3_13 
REMARK   10  A    between atoms: C8_11  and  C10_14 
REMARK   11  A    between atoms: C17_22  and  C18_23 
ROOT
HETATM    1  C10 UNL     1     -14.792   9.145  24.793  1.00  0.00     0.034 C 
HETATM    2  C11 UNL     1     -16.176   9.012  25.475  1.00  0.00     0.012 C 
HETATM    3  C12 UNL     1     -16.545   7.515  25.445  1.00  0.00     0.044 C 
HETATM    4  C13 UNL     1     -15.207   6.786  25.173  1.00  0.00     0.093 C 
HETATM    5  O4  UNL     1     -14.377   6.815  26.369  1.00  0.00    -0.363 OA
HETATM    6  C14 UNL     1     -14.946   6.283  27.569  1.00  0.00     0.263 C 
HETATM    7  C15 UNL     1     -14.186   5.130  28.068  1.00  0.00    -0.080 C 
HETATM    8  C16 UNL     1     -13.672   4.149  28.542  1.00  0.00    -0.093 C 
HETATM    9  C17 UNL     1     -13.075   2.914  29.113  1.00  0.00     0.121 C 
HETATM   10  C24 UNL     1     -13.394   1.657  28.263  1.00  0.00     0.190 C 
HETATM   11  O5  UNL     1     -12.597   1.527  27.078  1.00  0.00    -0.384 OA
HETATM   12  C25 UNL     1     -13.082   2.269  25.959  1.00  0.00     0.122 C 
HETATM   13  C26 UNL     1     -11.935   2.438  24.966  1.00  0.00     0.033 C 
HETATM   14  C27 UNL     1     -12.395   2.790  23.546  1.00  0.00     0.013 C 
HETATM   15  C28 UNL     1     -13.797   3.453  23.470  1.00  0.00    -0.026 C 
HETATM   16  C29 UNL     1     -14.180   3.589  21.970  1.00  0.00     0.016 C 
HETATM   17  C30 UNL     1     -14.818   2.453  24.107  1.00  0.00     0.071 C 
HETATM   18  C31 UNL     1     -14.276   1.611  25.283  1.00  0.00     0.045 C 
HETATM   19  C32 UNL     1     -16.146   3.089  24.483  1.00  0.00     0.154 C 
HETATM   20  O6  UNL     1     -17.164   2.417  24.642  1.00  0.00    -0.293 OA
HETATM   21  C33 UNL     1     -16.218   4.539  24.752  1.00  0.00     0.057 C 
HETATM   22  C34 UNL     1     -15.150   5.351  24.662  1.00  0.00    -0.036 C 
HETATM   23  C35 UNL     1     -13.775   4.874  24.176  1.00  0.00     0.026 C 
HETATM   24  C36 UNL     1     -13.002   5.940  23.343  1.00  0.00     0.011 C 
HETATM   25  C37 UNL     1     -13.120   7.375  23.870  1.00  0.00     0.014 C 
HETATM   26  C38 UNL     1     -14.594   7.758  24.093  1.00  0.00    -0.002 C 
HETATM   27  C39 UNL     1     -15.356   7.674  22.741  1.00  0.00     0.019 C 
ENDROOT
BRANCH   1  28
HETATM   28  C8  UNL     1     -14.559  10.509  24.063  1.00  0.00     0.087 C 
HETATM   29  C9  UNL     1     -15.823  11.366  23.888  1.00  0.00     0.049 C 
BRANCH  28  30
HETATM   30  C7  UNL     1     -13.466  11.389  24.797  1.00  0.00     0.181 C 
BRANCH  30  31
HETATM   31  C6  UNL     1     -14.032  12.537  25.668  1.00  0.00     0.159 C 
HETATM   32  C5  UNL     1     -13.531  13.980  25.479  1.00  0.00     0.051 C 
HETATM   33  C41 UNL     1     -13.934  14.613  26.815  1.00  0.00     0.014 C 
HETATM   34  C40 UNL     1     -13.811  13.458  27.805  1.00  0.00     0.173 C 
HETATM   35  C42 UNL     1     -15.364  15.160  26.787  1.00  0.00     0.012 C 
HETATM   36  O7  UNL     1     -13.872  12.231  27.068  1.00  0.00    -0.382 OA
BRANCH  32  37
HETATM   37  C4  UNL     1     -12.046  14.213  25.135  1.00  0.00     0.277 C 
BRANCH  37  38
HETATM   38  N1  UNL     1     -11.326  13.047  24.620  1.00  0.00     0.086 N 
HETATM   39  H8  UNL     1     -10.669  12.711  25.325  1.00  0.00     0.315 HD
BRANCH  38  40
HETATM   40  C3  UNL     1     -10.558  13.411  23.413  1.00  0.00     0.300 C 
BRANCH  40  41
HETATM   41  C2  UNL     1      -9.057  13.436  23.761  1.00  0.00     0.142 C 
HETATM   42  C1  UNL     1      -8.200  12.964  22.599  1.00  0.00     0.041 C 
BRANCH  41  43
HETATM   43  O1  UNL     1      -8.820  12.588  24.887  1.00  0.00    -0.394 OA
HETATM   44  H5  UNL     1      -9.665  12.599  25.381  1.00  0.00     0.210 HD
ENDBRANCH  41  43
ENDBRANCH  40  41
ENDBRANCH  38  40
ENDBRANCH  37  38
ENDBRANCH  32  37
ENDBRANCH  30  31
BRANCH  30  45
HETATM   45  O2  UNL     1     -12.687  10.509  25.614  1.00  0.00    -0.390 OA
HETATM   46  H14 UNL     1     -13.308  10.145  26.278  1.00  0.00     0.210 HD
ENDBRANCH  30  45
ENDBRANCH  28  30
BRANCH  28  47
HETATM   47  O3  UNL     1     -14.115  10.237  22.724  1.00  0.00    -0.387 OA
HETATM   48  H18 UNL     1     -13.165   9.998  22.768  1.00  0.00     0.210 HD
ENDBRANCH  28  47
ENDBRANCH   1  28
BRANCH   9  49
HETATM   49  C18 UNL     1     -13.569   2.713  30.543  1.00  0.00    -0.040 A 
HETATM   50  C19 UNL     1     -12.675   2.723  31.633  1.00  0.00     0.008 A 
HETATM   51  C20 UNL     1     -13.139   2.552  32.937  1.00  0.00     0.001 A 
HETATM   52  C21 UNL     1     -14.500   2.372  33.176  1.00  0.00     0.000 A 
HETATM   53  C22 UNL     1     -15.392   2.346  32.106  1.00  0.00     0.001 A 
HETATM   54  C23 UNL     1     -14.936   2.519  30.797  1.00  0.00     0.008 A 
ENDBRANCH   9  49
TORSDOF 11
ENDMDL
MODEL 6
REMARK minimizedAffinity -7.53664398
REMARK CNNscore 0.242930949
REMARK CNNaffinity 7.19345999
REMARK  11 active torsions:
REMARK  status: ('A' for Active; 'I' for Inactive)
REMARK    1  A    between atoms: C2_2  and  O1_3 
REMARK    2  A    between atoms: C2_2  and  C3_4 
REMARK    3  A    between atoms: C3_4  and  N1_5 
REMARK    4  A    between atoms: N1_5  and  C4_6 
REMARK    5  A    between atoms: C4_6  and  C5_7 
REMARK    6  A    between atoms: C6_8  and  C7_9 
REMARK    7  A    between atoms: C7_9  and  O2_10 
REMARK    8  A    between atoms: C7_9  and  C8_11 
REMARK    9  A    between atoms: C8_11  and  O3_13 
REMARK   10  A    between atoms: C8_11  and  C10_14 
REMARK   11  A    between atoms: C17_22  and  C18_23 
ROOT
HETATM    1  C10 UNL     1      -8.645  -9.725  -1.456  1.00  0.00     0.034 C 
HETATM    2  C11 UNL     1      -7.463  -9.703  -2.456  1.00  0.00     0.012 C 
HETATM    3  C12 UNL     1      -8.051  -9.341  -3.835  1.00  0.00     0.044 C 
HETATM    4  C13 UNL     1      -9.439  -8.730  -3.521  1.00  0.00     0.093 C 
HETATM    5  O4  UNL     1      -9.275  -7.397  -2.961  1.00  0.00    -0.363 OA
HETATM    6  C14 UNL     1      -8.530  -6.452  -3.736  1.00  0.00     0.263 C 
HETATM    7  C15 UNL     1      -9.348  -5.296  -4.120  1.00  0.00    -0.080 C 
HETATM    8  C16 UNL     1      -9.934  -4.327  -4.533  1.00  0.00    -0.093 C 
HETATM    9  C17 UNL     1     -10.654  -3.151  -5.085  1.00  0.00     0.121 C 
HETATM   10  C24 UNL     1     -11.605  -3.534  -6.249  1.00  0.00     0.190 C 
HETATM   11  O5  UNL     1     -12.842  -4.128  -5.829  1.00  0.00    -0.384 OA
HETATM   12  C25 UNL     1     -12.765  -5.531  -5.579  1.00  0.00     0.122 C 
HETATM   13  C26 UNL     1     -13.953  -5.925  -4.706  1.00  0.00     0.033 C 
HETATM   14  C27 UNL     1     -14.270  -7.425  -4.736  1.00  0.00     0.013 C 
HETATM   15  C28 UNL     1     -13.074  -8.327  -5.141  1.00  0.00    -0.026 C 
HETATM   16  C29 UNL     1     -13.600  -9.782  -5.285  1.00  0.00     0.016 C 
HETATM   17  C30 UNL     1     -12.610  -7.872  -6.564  1.00  0.00     0.071 C 
HETATM   18  C31 UNL     1     -12.745  -6.361  -6.854  1.00  0.00     0.045 C 
HETATM   19  C32 UNL     1     -11.221  -8.359  -6.942  1.00  0.00     0.154 C 
HETATM   20  O6  UNL     1     -10.853  -8.417  -8.115  1.00  0.00    -0.293 OA
HETATM   21  C33 UNL     1     -10.246  -8.693  -5.886  1.00  0.00     0.057 C 
HETATM   22  C34 UNL     1     -10.532  -8.608  -4.576  1.00  0.00    -0.036 C 
HETATM   23  C35 UNL     1     -11.927  -8.250  -4.045  1.00  0.00     0.026 C 
HETATM   24  C36 UNL     1     -12.308  -8.997  -2.733  1.00  0.00     0.011 C 
HETATM   25  C37 UNL     1     -11.166  -9.133  -1.718  1.00  0.00     0.014 C 
HETATM   26  C38 UNL     1      -9.908  -9.717  -2.383  1.00  0.00    -0.002 C 
HETATM   27  C39 UNL     1     -10.231 -11.131  -2.941  1.00  0.00     0.019 C 
ENDROOT
BRANCH   1  28
HETATM   28  C8  UNL     1      -8.468 -10.726  -0.267  1.00  0.00     0.087 C 
HETATM   29  C9  UNL     1      -8.320 -12.198  -0.685  1.00  0.00     0.049 C 
BRANCH  28  30
HETATM   30  C7  UNL     1      -7.228 -10.347   0.641  1.00  0.00     0.181 C 
BRANCH  30  31
HETATM   31  C6  UNL     1      -7.563 -10.096   2.131  1.00  0.00     0.159 C 
HETATM   32  C5  UNL     1      -6.575  -9.341   3.038  1.00  0.00     0.051 C 
HETATM   33  C41 UNL     1      -7.047  -9.782   4.427  1.00  0.00     0.014 C 
HETATM   34  C40 UNL     1      -7.561 -11.199   4.192  1.00  0.00     0.173 C 
HETATM   35  C42 UNL     1      -8.157  -8.879   4.973  1.00  0.00     0.012 C 
HETATM   36  O7  UNL     1      -7.856 -11.341   2.797  1.00  0.00    -0.382 OA
BRANCH  32  37
HETATM   37  C4  UNL     1      -5.061  -9.554   2.829  1.00  0.00     0.277 C 
BRANCH  37  38
HETATM   38  N1  UNL     1      -4.251  -9.569   4.048  1.00  0.00     0.086 N 
HETATM   39  H8  UNL     1      -3.461  -8.932   3.943  1.00  0.00     0.315 HD
BRANCH  38  40
HETATM   40  C3  UNL     1      -3.720 -10.925   4.293  1.00  0.00     0.300 C 
BRANCH  40  41
HETATM   41  C2  UNL     1      -2.890 -10.912   5.591  1.00  0.00     0.142 C 
HETATM   42  C1  UNL     1      -3.749 -11.180   6.815  1.00  0.00     0.041 C 
BRANCH  41  43
HETATM   43  O1  UNL     1      -2.262  -9.636   5.736  1.00  0.00    -0.394 OA
HETATM   44  H5  UNL     1      -2.153  -9.313   4.818  1.00  0.00     0.210 HD
ENDBRANCH  41  43
ENDBRANCH  40  41
ENDBRANCH  38  40
ENDBRANCH  37  38
ENDBRANCH  32  37
ENDBRANCH  30  31
BRANCH  30  45
HETATM   45  O2  UNL     1      -6.281 -11.416   0.538  1.00  0.00    -0.390 OA
HETATM   46  H14 UNL     1      -6.728 -12.202   0.913  1.00  0.00     0.210 HD
ENDBRANCH  30  45
ENDBRANCH  28  30
BRANCH  28  47
HETATM   47  O3  UNL     1      -9.660 -10.693   0.535  1.00  0.00    -0.387 OA
HETATM   48  H18 UNL     1      -9.621  -9.887   1.093  1.00  0.00     0.210 HD
ENDBRANCH  28  47
ENDBRANCH   1  28
BRANCH   9  49
HETATM   49  C18 UNL     1      -9.650  -2.104  -5.560  1.00  0.00    -0.040 A 
HETATM   50  C19 UNL     1      -8.317  -2.111  -5.103  1.00  0.00     0.008 A 
HETATM   51  C20 UNL     1      -7.402  -1.159  -5.554  1.00  0.00     0.001 A 
HETATM   52  C21 UNL     1      -7.802  -0.187  -6.470  1.00  0.00     0.000 A 
HETATM   53  C22 UNL     1      -9.121  -0.161  -6.918  1.00  0.00     0.001 A 
HETATM   54  C23 UNL     1     -10.042  -1.112  -6.474  1.00  0.00     0.008 A 
ENDBRANCH   9  49
TORSDOF 11
ENDMDL
MODEL 7
REMARK minimizedAffinity -7.86439514
REMARK CNNscore 0.238829106
REMARK CNNaffinity 6.73296738
REMARK  11 active torsions:
REMARK  status: ('A' for Active; 'I' for Inactive)
REMARK    1  A    between atoms: C2_2  and  O1_3 
REMARK    2  A    between atoms: C2_2  and  C3_4 
REMARK    3  A    between atoms: C3_4  and  N1_5 
REMARK    4  A    between atoms: N1_5  and  C4_6 
REMARK    5  A    between atoms: C4_6  and  C5_7 
REMARK    6  A    between atoms: C6_8  and  C7_9 
REMARK    7  A    between atoms: C7_9  and  O2_10 
REMARK    8  A    between atoms: C7_9  and  C8_11 
REMARK    9  A    between atoms: C8_11  and  O3_13 
REMARK   10  A    between atoms: C8_11  and  C10_14 
REMARK   11  A    between atoms: C17_22  and  C18_23 
ROOT
HETATM    1  C10 UNL     1     -11.340  12.409  19.173  1.00  0.00     0.034 C 
HETATM    2  C11 UNL     1     -11.290  11.135  20.052  1.00  0.00     0.012 C 
HETATM    3  C12 UNL     1     -12.087  10.047  19.306  1.00  0.00     0.044 C 
HETATM    4  C13 UNL     1     -12.185  10.561  17.849  1.00  0.00     0.093 C 
HETATM    5  O4  UNL     1     -10.894  10.422  17.189  1.00  0.00    -0.363 OA
HETATM    6  C14 UNL     1     -10.311   9.115  17.170  1.00  0.00     0.263 C 
HETATM    7  C15 UNL     1     -10.140   8.615  15.800  1.00  0.00    -0.080 C 
HETATM    8  C16 UNL     1      -9.997   8.084  14.728  1.00  0.00    -0.093 C 
HETATM    9  C17 UNL     1      -9.856   7.399  13.417  1.00  0.00     0.121 C 
HETATM   10  C24 UNL     1     -11.220   6.928  12.847  1.00  0.00     0.190 C 
HETATM   11  O5  UNL     1     -12.001   7.972  12.249  1.00  0.00    -0.384 OA
HETATM   12  C25 UNL     1     -12.778   8.730  13.176  1.00  0.00     0.122 C 
HETATM   13  C26 UNL     1     -13.152  10.053  12.514  1.00  0.00     0.033 C 
HETATM   14  C27 UNL     1     -14.341  10.759  13.176  1.00  0.00     0.013 C 
HETATM   15  C28 UNL     1     -14.585  10.358  14.656  1.00  0.00    -0.026 C 
HETATM   16  C29 UNL     1     -15.910  11.026  15.121  1.00  0.00     0.016 C 
HETATM   17  C30 UNL     1     -14.827   8.812  14.683  1.00  0.00     0.071 C 
HETATM   18  C31 UNL     1     -14.028   7.997  13.643  1.00  0.00     0.045 C 
HETATM   19  C32 UNL     1     -14.679   8.193  16.063  1.00  0.00     0.154 C 
HETATM   20  O6  UNL     1     -15.178   7.102  16.340  1.00  0.00    -0.293 OA
HETATM   21  C33 UNL     1     -13.849   8.860  17.085  1.00  0.00     0.057 C 
HETATM   22  C34 UNL     1     -13.216  10.024  16.863  1.00  0.00    -0.036 C 
HETATM   23  C35 UNL     1     -13.371  10.827  15.564  1.00  0.00     0.026 C 
HETATM   24  C36 UNL     1     -13.347  12.370  15.774  1.00  0.00     0.011 C 
HETATM   25  C37 UNL     1     -12.322  12.861  16.805  1.00  0.00     0.014 C 
HETATM   26  C38 UNL     1     -12.462  12.088  18.129  1.00  0.00    -0.002 C 
HETATM   27  C39 UNL     1     -13.884  12.320  18.710  1.00  0.00     0.019 C 
ENDROOT
BRANCH   1  28
HETATM   28  C8  UNL     1     -11.281  13.751  19.974  1.00  0.00     0.087 C 
HETATM   29  C9  UNL     1     -12.531  14.636  19.835  1.00  0.00     0.049 C 
BRANCH  28  30
HETATM   30  C7  UNL     1     -11.025  13.504  21.517  1.00  0.00     0.181 C 
BRANCH  30  31
HETATM   31  C6  UNL     1      -9.546  13.618  21.959  1.00  0.00     0.159 C 
HETATM   32  C5  UNL     1      -9.021  12.796  23.150  1.00  0.00     0.051 C 
HETATM   33  C41 UNL     1      -7.762  13.585  23.525  1.00  0.00     0.014 C 
HETATM   34  C40 UNL     1      -8.129  15.024  23.175  1.00  0.00     0.173 C 
HETATM   35  C42 UNL     1      -6.535  13.124  22.733  1.00  0.00     0.012 C 
HETATM   36  O7  UNL     1      -9.208  14.993  22.233  1.00  0.00    -0.382 OA
BRANCH  32  37
HETATM   37  C4  UNL     1      -9.953  12.555  24.356  1.00  0.00     0.277 C 
BRANCH  37  38
HETATM   38  N1  UNL     1     -10.310  11.158  24.608  1.00  0.00     0.086 N 
HETATM   39  H8  UNL     1      -9.706  10.545  24.060  1.00  0.00     0.315 HD
BRANCH  38  40
HETATM   40  C3  UNL     1     -11.708  10.907  24.204  1.00  0.00     0.300 C 
BRANCH  40  41
HETATM   41  C2  UNL     1     -11.856   9.426  23.802  1.00  0.00     0.142 C 
HETATM   42  C1  UNL     1     -12.194   8.548  24.995  1.00  0.00     0.041 C 
BRANCH  41  43
HETATM   43  O1  UNL     1     -10.632   8.970  23.223  1.00  0.00    -0.394 OA
HETATM   44  H5  UNL     1     -10.231   9.776  22.836  1.00  0.00     0.210 HD
ENDBRANCH  41  43
ENDBRANCH  40  41
ENDBRANCH  38  40
ENDBRANCH  37  38
ENDBRANCH  32  37
ENDBRANCH  30  31
BRANCH  30  45
HETATM   45  O2  UNL     1     -11.814  14.456  22.239  1.00  0.00    -0.390 OA
HETATM   46  H14 UNL     1     -11.461  15.335  21.989  1.00  0.00     0.210 HD
ENDBRANCH  30  45
ENDBRANCH  28  30
BRANCH  28  47
HETATM   47  O3  UNL     1     -10.209  14.549  19.446  1.00  0.00    -0.387 OA
HETATM   48  H18 UNL     1      -9.369  14.194  19.808  1.00  0.00     0.210 HD
ENDBRANCH  28  47
ENDBRANCH   1  28
BRANCH   9  49
HETATM   49  C18 UNL     1      -8.912   6.208  13.553  1.00  0.00    -0.040 A 
HETATM   50  C19 UNL     1      -8.673   5.337  12.472  1.00  0.00     0.008 A 
HETATM   51  C20 UNL     1      -7.797   4.260  12.602  1.00  0.00     0.001 A 
HETATM   52  C21 UNL     1      -7.142   4.035  13.812  1.00  0.00     0.000 A 
HETATM   53  C22 UNL     1      -7.381   4.881  14.894  1.00  0.00     0.001 A 
HETATM   54  C23 UNL     1      -8.254   5.963  14.770  1.00  0.00     0.008 A 
ENDBRANCH   9  49
TORSDOF 11
ENDMDL
MODEL 8
REMARK minimizedAffinity -7.99625874
REMARK CNNscore 0.238391936
REMARK CNNaffinity 6.35744619
REMARK  11 active torsions:
REMARK  status: ('A' for Active; 'I' for Inactive)
REMARK    1  A    between atoms: C2_2  and  O1_3 
REMARK    2  A    between atoms: C2_2  and  C3_4 
REMARK    3  A    between atoms: C3_4  and  N1_5 
REMARK    4  A    between atoms: N1_5  and  C4_6 
REMARK    5  A    between atoms: C4_6  and  C5_7 
REMARK    6  A    between atoms: C6_8  and  C7_9 
REMARK    7  A    between atoms: C7_9  and  O2_10 
REMARK    8  A    between atoms: C7_9  and  C8_11 
REMARK    9  A    between atoms: C8_11  and  O3_13 
REMARK   10  A    between atoms: C8_11  and  C10_14 
REMARK   11  A    between atoms: C17_22  and  C18_23 
ROOT
HETATM    1  C10 UNL     1       4.299   9.008  14.712  1.00  0.00     0.034 C 
HETATM    2  C11 UNL     1       4.086  10.405  14.080  1.00  0.00     0.012 C 
HETATM    3  C12 UNL     1       2.710  10.376  13.385  1.00  0.00     0.044 C 
HETATM    4  C13 UNL     1       1.984   9.156  14.005  1.00  0.00     0.093 C 
HETATM    5  O4  UNL     1       1.571   9.467  15.366  1.00  0.00    -0.363 OA
HETATM    6  C14 UNL     1       0.748  10.624  15.547  1.00  0.00     0.263 C 
HETATM    7  C15 UNL     1      -0.565  10.276  16.105  1.00  0.00    -0.080 C 
HETATM    8  C16 UNL     1      -1.686  10.105  16.513  1.00  0.00    -0.093 C 
HETATM    9  C17 UNL     1      -3.084   9.905  16.973  1.00  0.00     0.121 C 
HETATM   10  C24 UNL     1      -3.986   9.290  15.871  1.00  0.00     0.190 C 
HETATM   11  O5  UNL     1      -3.815   7.878  15.687  1.00  0.00    -0.384 OA
HETATM   12  C25 UNL     1      -2.726   7.523  14.836  1.00  0.00     0.122 C 
HETATM   13  C26 UNL     1      -2.362   6.067  15.110  1.00  0.00     0.033 C 
HETATM   14  C27 UNL     1      -1.551   5.411  13.986  1.00  0.00     0.013 C 
HETATM   15  C28 UNL     1      -0.775   6.410  13.086  1.00  0.00    -0.026 C 
HETATM   16  C29 UNL     1      -0.152   5.609  11.909  1.00  0.00     0.016 C 
HETATM   17  C30 UNL     1      -1.828   7.384  12.459  1.00  0.00     0.071 C 
HETATM   18  C31 UNL     1      -3.036   7.724  13.360  1.00  0.00     0.045 C 
HETATM   19  C32 UNL     1      -1.223   8.655  11.887  1.00  0.00     0.154 C 
HETATM   20  O6  UNL     1      -1.819   9.338  11.054  1.00  0.00    -0.293 OA
HETATM   21  C33 UNL     1       0.074   9.146  12.393  1.00  0.00     0.057 C 
HETATM   22  C34 UNL     1       0.776   8.504  13.342  1.00  0.00    -0.036 C 
HETATM   23  C35 UNL     1       0.353   7.148  13.924  1.00  0.00     0.026 C 
HETATM   24  C36 UNL     1       1.549   6.212  14.264  1.00  0.00     0.011 C 
HETATM   25  C37 UNL     1       2.758   6.917  14.892  1.00  0.00     0.014 C 
HETATM   26  C38 UNL     1       3.183   8.132  14.048  1.00  0.00    -0.002 C 
HETATM   27  C39 UNL     1       3.586   7.654  12.626  1.00  0.00     0.019 C 
ENDROOT
BRANCH   1  28
HETATM   28  C8  UNL     1       5.795   8.558  14.799  1.00  0.00     0.087 C 
HETATM   29  C9  UNL     1       6.588   8.713  13.491  1.00  0.00     0.049 C 
BRANCH  28  30
HETATM   30  C7  UNL     1       6.575   9.330  15.940  1.00  0.00     0.181 C 
BRANCH  30  31
HETATM   31  C6  UNL     1       7.666  10.306  15.437  1.00  0.00     0.159 C 
HETATM   32  C5  UNL     1       9.115  10.186  15.943  1.00  0.00     0.051 C 
HETATM   33  C41 UNL     1       9.660  11.582  15.624  1.00  0.00     0.014 C 
HETATM   34  C40 UNL     1       8.441  12.484  15.788  1.00  0.00     0.173 C 
HETATM   35  C42 UNL     1      10.220  11.671  14.200  1.00  0.00     0.012 C 
HETATM   36  O7  UNL     1       7.266  11.672  15.671  1.00  0.00    -0.382 OA
BRANCH  32  37
HETATM   37  C4  UNL     1       9.359   9.775  17.410  1.00  0.00     0.277 C 
BRANCH  37  38
HETATM   38  N1  UNL     1      10.449  10.477  18.090  1.00  0.00     0.086 N 
HETATM   39  H8  UNL     1      11.142   9.802  18.415  1.00  0.00     0.315 HD
BRANCH  38  40
HETATM   40  C3  UNL     1       9.933  11.208  19.264  1.00  0.00     0.300 C 
BRANCH  40  41
HETATM   41  C2  UNL     1      10.944  12.304  19.657  1.00  0.00     0.142 C 
HETATM   42  C1  UNL     1      12.377  11.868  19.403  1.00  0.00     0.041 C 
BRANCH  41  43
HETATM   43  O1  UNL     1      10.790  12.611  21.044  1.00  0.00    -0.394 OA
HETATM   44  H5  UNL     1       9.852  12.406  21.236  1.00  0.00     0.210 HD
ENDBRANCH  41  43
ENDBRANCH  40  41
ENDBRANCH  38  40
ENDBRANCH  37  38
ENDBRANCH  32  37
ENDBRANCH  30  31
BRANCH  30  45
HETATM   45  O2  UNL     1       5.606  10.053  16.707  1.00  0.00    -0.390 OA
HETATM   46  H14 UNL     1       5.210  10.702  16.090  1.00  0.00     0.210 HD
ENDBRANCH  30  45
ENDBRANCH  28  30
BRANCH  28  47
HETATM   47  O3  UNL     1       5.830   7.150  15.082  1.00  0.00    -0.387 OA
HETATM   48  H18 UNL     1       5.649   7.034  16.039  1.00  0.00     0.210 HD
ENDBRANCH  28  47
ENDBRANCH   1  28
BRANCH   9  49
HETATM   49  C18 UNL     1      -3.671  11.233  17.442  1.00  0.00    -0.040 A 
HETATM   50  C19 UNL     1      -3.648  11.603  18.802  1.00  0.00     0.008 A 
HETATM   51  C20 UNL     1      -4.173  12.826  19.219  1.00  0.00     0.001 A 
HETATM   52  C21 UNL     1      -4.728  13.701  18.286  1.00  0.00     0.000 A 
HETATM   53  C22 UNL     1      -4.770  13.341  16.941  1.00  0.00     0.001 A 
HETATM   54  C23 UNL     1      -4.244  12.119  16.515  1.00  0.00     0.008 A 
ENDBRANCH   9  49
TORSDOF 11
ENDMDL
MODEL 9
REMARK minimizedAffinity -7.53773499
REMARK CNNscore 0.234737635
REMARK CNNaffinity 6.82002497
REMARK  11 active torsions:
REMARK  status: ('A' for Active; 'I' for Inactive)
REMARK    1  A    between atoms: C2_2  and  O1_3 
REMARK    2  A    between atoms: C2_2  and  C3_4 
REMARK    3  A    between atoms: C3_4  and  N1_5 
REMARK    4  A    between atoms: N1_5  and  C4_6 
REMARK    5  A    between atoms: C4_6  and  C5_7 
REMARK    6  A    between atoms: C6_8  and  C7_9 
REMARK    7  A    between atoms: C7_9  and  O2_10 
REMARK    8  A    between atoms: C7_9  and  C8_11 
REMARK    9  A    between atoms: C8_11  and  O3_13 
REMARK   10  A    between atoms: C8_11  and  C10_14 
REMARK   11  A    between atoms: C17_22  and  C18_23 
ROOT
HETATM    1  C10 UNL     1      -2.008   9.999  16.549  1.00  0.00     0.034 C 
HETATM    2  C11 UNL     1      -1.313  10.011  17.932  1.00  0.00     0.012 C 
HETATM    3  C12 UNL     1      -1.294  11.477  18.409  1.00  0.00     0.044 C 
HETATM    4  C13 UNL     1      -2.354  12.188  17.532  1.00  0.00     0.093 C 
HETATM    5  O4  UNL     1      -3.690  11.802  17.962  1.00  0.00    -0.363 OA
HETATM    6  C14 UNL     1      -4.020  12.023  19.337  1.00  0.00     0.263 C 
HETATM    7  C15 UNL     1      -5.137  12.964  19.486  1.00  0.00    -0.080 C 
HETATM    8  C16 UNL     1      -6.010  13.758  19.730  1.00  0.00    -0.093 C 
HETATM    9  C17 UNL     1      -7.053  14.767  20.047  1.00  0.00     0.121 C 
HETATM   10  C24 UNL     1      -6.562  16.219  19.809  1.00  0.00     0.190 C 
HETATM   11  O5  UNL     1      -6.553  16.621  18.432  1.00  0.00    -0.384 OA
HETATM   12  C25 UNL     1      -5.385  16.228  17.712  1.00  0.00     0.122 C 
HETATM   13  C26 UNL     1      -5.706  16.274  16.221  1.00  0.00     0.033 C 
HETATM   14  C27 UNL     1      -4.464  16.335  15.324  1.00  0.00     0.013 C 
HETATM   15  C28 UNL     1      -3.170  15.784  15.980  1.00  0.00    -0.026 C 
HETATM   16  C29 UNL     1      -1.985  16.070  15.015  1.00  0.00     0.016 C 
HETATM   17  C30 UNL     1      -2.910  16.625  17.274  1.00  0.00     0.071 C 
HETATM   18  C31 UNL     1      -4.176  17.098  18.023  1.00  0.00     0.045 C 
HETATM   19  C32 UNL     1      -1.937  15.975  18.242  1.00  0.00     0.154 C 
HETATM   20  O6  UNL     1      -1.344  16.629  19.101  1.00  0.00    -0.293 OA
HETATM   21  C33 UNL     1      -1.747  14.511  18.226  1.00  0.00     0.057 C 
HETATM   22  C34 UNL     1      -2.391  13.703  17.366  1.00  0.00    -0.036 C 
HETATM   23  C35 UNL     1      -3.308  14.226  16.253  1.00  0.00     0.026 C 
HETATM   24  C36 UNL     1      -3.246  13.385  14.944  1.00  0.00     0.011 C 
HETATM   25  C37 UNL     1      -3.169  11.868  15.159  1.00  0.00     0.014 C 
HETATM   26  C38 UNL     1      -2.040  11.510  16.142  1.00  0.00    -0.002 C 
HETATM   27  C39 UNL     1      -0.681  11.987  15.560  1.00  0.00     0.019 C 
ENDROOT
BRANCH   1  28
HETATM   28  C8  UNL     1      -1.513   8.868  15.587  1.00  0.00     0.087 C 
HETATM   29  C9  UNL     1       0.005   8.625  15.612  1.00  0.00     0.049 C 
BRANCH  28  30
HETATM   30  C7  UNL     1      -2.236   7.490  15.877  1.00  0.00     0.181 C 
BRANCH  30  31
HETATM   31  C6  UNL     1      -3.626   7.331  15.216  1.00  0.00     0.159 C 
HETATM   32  C5  UNL     1      -3.841   6.311  14.084  1.00  0.00     0.051 C 
HETATM   33  C41 UNL     1      -5.114   6.855  13.429  1.00  0.00     0.014 C 
HETATM   34  C40 UNL     1      -4.999   8.363  13.630  1.00  0.00     0.173 C 
HETATM   35  C42 UNL     1      -6.383   6.309  14.091  1.00  0.00     0.012 C 
HETATM   36  O7  UNL     1      -4.092   8.600  14.713  1.00  0.00    -0.382 OA
BRANCH  32  37
HETATM   37  C4  UNL     1      -2.703   6.076  13.068  1.00  0.00     0.277 C 
BRANCH  37  38
HETATM   38  N1  UNL     1      -3.000   5.123  11.997  1.00  0.00     0.086 N 
HETATM   39  H8  UNL     1      -3.768   5.476  11.426  1.00  0.00     0.315 HD
BRANCH  38  40
HETATM   40  C3  UNL     1      -3.410   3.824  12.567  1.00  0.00     0.300 C 
BRANCH  40  41
HETATM   41  C2  UNL     1      -4.415   3.151  11.612  1.00  0.00     0.142 C 
HETATM   42  C1  UNL     1      -5.817   3.123  12.195  1.00  0.00     0.041 C 
BRANCH  41  43
HETATM   43  O1  UNL     1      -3.993   1.810  11.353  1.00  0.00    -0.394 OA
HETATM   44  H5  UNL     1      -3.020   1.837  11.458  1.00  0.00     0.210 HD
ENDBRANCH  41  43
ENDBRANCH  40  41
ENDBRANCH  38  40
ENDBRANCH  37  38
ENDBRANCH  32  37
ENDBRANCH  30  31
BRANCH  30  45
HETATM   45  O2  UNL     1      -1.367   6.448  15.419  1.00  0.00    -0.390 OA
HETATM   46  H14 UNL     1      -1.290   6.575  14.452  1.00  0.00     0.210 HD
ENDBRANCH  30  45
ENDBRANCH  28  30
BRANCH  28  47
HETATM   47  O3  UNL     1      -1.795   9.267  14.235  1.00  0.00    -0.387 OA
HETATM   48  H18 UNL     1      -2.749   9.108  14.072  1.00  0.00     0.210 HD
ENDBRANCH  28  47
ENDBRANCH   1  28
BRANCH   9  49
HETATM   49  C18 UNL     1      -7.508  14.604  21.494  1.00  0.00    -0.040 A 
HETATM   50  C19 UNL     1      -7.450  13.354  22.142  1.00  0.00     0.008 A 
HETATM   51  C20 UNL     1      -7.855  13.219  23.470  1.00  0.00     0.001 A 
HETATM   52  C21 UNL     1      -8.322  14.328  24.174  1.00  0.00     0.000 A 
HETATM   53  C22 UNL     1      -8.398  15.566  23.540  1.00  0.00     0.001 A 
HETATM   54  C23 UNL     1      -7.992  15.711  22.212  1.00  0.00     0.008 A 
ENDBRANCH   9  49
TORSDOF 11
ENDMDL
