MODEL 1
REMARK minimizedAffinity -8.80818462
REMARK CNNscore 0.516539276
REMARK CNNaffinity 7.30154037
REMARK  11 active torsions:
REMARK  status: ('A' for Active; 'I' for Inactive)
REMARK    1  A    between atoms: C2_2  and  C3_3 
REMARK    2  A    between atoms: C2_2  and  C4_5 
REMARK    3  A    between atoms: C3_3  and  O1_4 
REMARK    4  A    between atoms: C13_14  and  C14_15 
REMARK    5  A    between atoms: C14_15  and  C16_17 
REMARK    6  A    between atoms: C16_17  and  C17_18 
REMARK    7  A    between atoms: C17_18  and  C18_20 
REMARK    8  A    between atoms: C27_29  and  C28_30 
REMARK    9  A    between atoms: C28_30  and  C29_31 
REMARK   10  A    between atoms: C29_31  and  C30_32 
REMARK   11  A    between atoms: C30_32  and  O4_34 
ROOT
HETATM    1  C4  UNL     1      -4.309   4.043  12.688  1.00  0.00     0.025 C 
HETATM    2  C5  UNL     1      -4.506   5.509  13.111  1.00  0.00     0.010 C 
HETATM    3  C6  UNL     1      -3.287   6.017  13.872  1.00  0.00     0.007 C 
HETATM    4  C7  UNL     1      -2.089   6.152  12.924  1.00  0.00     0.004 C 
HETATM    5  C8  UNL     1      -1.783   4.821  12.189  1.00  0.00    -0.027 A 
HETATM    6  C9  UNL     1      -0.333   4.308  12.235  1.00  0.00     0.011 C 
HETATM    7  C10 UNL     1       0.806   5.345  12.314  1.00  0.00     0.011 C 
HETATM    8  C11 UNL     1       0.335   6.785  12.537  1.00  0.00    -0.032 C 
HETATM    9  C12 UNL     1      -0.059   7.363  11.148  1.00  0.00     0.016 C 
HETATM   10  C13 UNL     1       1.374   7.720  13.232  1.00  0.00    -0.002 C 
HETATM   11  C22 UNL     1       0.497   8.812  13.893  1.00  0.00     0.006 C 
HETATM   12  C23 UNL     1      -0.946   8.270  13.923  1.00  0.00     0.011 C 
HETATM   13  C24 UNL     1      -0.830   6.770  13.584  1.00  0.00    -0.032 C 
HETATM   14  C25 UNL     1      -0.504   6.035  14.922  1.00  0.00     0.016 C 
HETATM   15  C26 UNL     1      -2.503   4.653  10.863  1.00  0.00     0.022 A 
HETATM   16  C27 UNL     1      -2.936   3.779  12.015  1.00  0.00    -0.024 A 
ENDROOT
BRANCH  10  17
HETATM   17  C14 UNL     1       2.594   8.218  12.405  1.00  0.00    -0.007 C 
HETATM   18  C15 UNL     1       2.822   9.716  12.681  1.00  0.00     0.011 C 
BRANCH  17  19
HETATM   19  C16 UNL     1       2.491   8.021  10.878  1.00  0.00     0.087 C 
BRANCH  19  20
HETATM   20  C17 UNL     1       3.368   6.880  10.378  1.00  0.00     0.149 C 
HETATM   21  O2  UNL     1       4.247   6.386  11.079  1.00  0.00    -0.293 OA
BRANCH  20  22
HETATM   22  C18 UNL     1       3.078   6.375   8.998  1.00  0.00     0.052 C 
HETATM   23  C19 UNL     1       2.463   7.065   8.016  1.00  0.00    -0.084 C 
HETATM   24  C20 UNL     1       2.000   8.492   8.136  1.00  0.00     0.043 C 
HETATM   25  C21 UNL     1       2.195   6.423   6.681  1.00  0.00     0.043 C 
ENDBRANCH  20  22
ENDBRANCH  19  20
ENDBRANCH  17  19
ENDBRANCH  10  17
BRANCH  16  26
HETATM   26  C28 UNL     1      -2.606   2.285  11.872  1.00  0.00     0.021 C 
BRANCH  26  27
HETATM   27  C29 UNL     1      -2.029   1.914  10.507  1.00  0.00     0.111 C 
BRANCH  27  28
HETATM   28  C30 UNL     1      -0.840   1.003  10.645  1.00  0.00     0.139 C 
HETATM   29  O3  UNL     1      -0.836  -0.215  10.678  1.00  0.00    -0.650 OA
BRANCH  28  30
HETATM   30  O4  UNL     1       0.310   1.696  10.762  1.00  0.00    -0.776 OA
HETATM   31  H46 UNL     1       0.998   1.003  10.859  1.00  0.00     0.167 HD
ENDBRANCH  28  30
ENDBRANCH  27  28
ENDBRANCH  26  27
ENDBRANCH  16  26
BRANCH   1  32
HETATM   32  C2  UNL     1      -5.560   3.545  11.950  1.00  0.00    -0.061 C 
HETATM   33  C1  UNL     1      -6.767   3.422  12.534  1.00  0.00     0.017 C 
BRANCH  32  34
HETATM   34  C3  UNL     1      -5.322   3.195  10.494  1.00  0.00     0.198 C 
BRANCH  34  35
HETATM   35  O1  UNL     1      -5.805   1.900  10.167  1.00  0.00    -0.397 OA
HETATM   36  H5  UNL     1      -6.757   1.906  10.364  1.00  0.00     0.209 HD
ENDBRANCH  34  35
ENDBRANCH  32  34
ENDBRANCH   1  32
TORSDOF 11
ENDMDL
MODEL 2
REMARK minimizedAffinity -8.56340218
REMARK CNNscore 0.443770856
REMARK CNNaffinity 7.08762884
REMARK  11 active torsions:
REMARK  status: ('A' for Active; 'I' for Inactive)
REMARK    1  A    between atoms: C2_2  and  C3_3 
REMARK    2  A    between atoms: C2_2  and  C4_5 
REMARK    3  A    between atoms: C3_3  and  O1_4 
REMARK    4  A    between atoms: C13_14  and  C14_15 
REMARK    5  A    between atoms: C14_15  and  C16_17 
REMARK    6  A    between atoms: C16_17  and  C17_18 
REMARK    7  A    between atoms: C17_18  and  C18_20 
REMARK    8  A    between atoms: C27_29  and  C28_30 
REMARK    9  A    between atoms: C28_30  and  C29_31 
REMARK   10  A    between atoms: C29_31  and  C30_32 
REMARK   11  A    between atoms: C30_32  and  O4_34 
ROOT
HETATM    1  C4  UNL     1      -3.877   3.867  12.767  1.00  0.00     0.025 C 
HETATM    2  C5  UNL     1      -4.131   5.305  13.251  1.00  0.00     0.010 C 
HETATM    3  C6  UNL     1      -2.857   5.909  13.830  1.00  0.00     0.007 C 
HETATM    4  C7  UNL     1      -1.835   6.160  12.714  1.00  0.00     0.004 C 
HETATM    5  C8  UNL     1      -1.533   4.869  11.908  1.00  0.00    -0.027 A 
HETATM    6  C9  UNL     1      -0.055   4.486  11.720  1.00  0.00     0.011 C 
HETATM    7  C10 UNL     1       0.990   5.618  11.650  1.00  0.00     0.011 C 
HETATM    8  C11 UNL     1       0.437   7.007  11.978  1.00  0.00    -0.032 C 
HETATM    9  C12 UNL     1      -0.213   7.565  10.680  1.00  0.00     0.016 C 
HETATM   10  C13 UNL     1       1.487   8.023  12.529  1.00  0.00    -0.002 C 
HETATM   11  C22 UNL     1       0.633   9.026  13.343  1.00  0.00     0.006 C 
HETATM   12  C23 UNL     1      -0.736   8.358  13.579  1.00  0.00     0.011 C 
HETATM   13  C24 UNL     1      -0.547   6.878  13.190  1.00  0.00    -0.032 C 
HETATM   14  C25 UNL     1       0.043   6.160  14.443  1.00  0.00     0.016 C 
HETATM   15  C26 UNL     1      -2.433   4.654  10.704  1.00  0.00     0.022 A 
HETATM   16  C27 UNL     1      -2.607   3.731  11.887  1.00  0.00    -0.024 A 
ENDROOT
BRANCH  10  17
HETATM   17  C14 UNL     1       2.519   8.635  11.538  1.00  0.00    -0.007 C 
HETATM   18  C15 UNL     1       2.670   7.705  10.319  1.00  0.00     0.011 C 
BRANCH  17  19
HETATM   19  C16 UNL     1       3.925   8.900  12.117  1.00  0.00     0.087 C 
BRANCH  19  20
HETATM   20  C17 UNL     1       5.005   8.902  11.043  1.00  0.00     0.149 C 
HETATM   21  O2  UNL     1       5.393   9.943  10.519  1.00  0.00    -0.293 OA
BRANCH  20  22
HETATM   22  C18 UNL     1       5.587   7.569  10.685  1.00  0.00     0.052 C 
HETATM   23  C19 UNL     1       6.336   6.790  11.491  1.00  0.00    -0.084 C 
HETATM   24  C20 UNL     1       6.677   7.120  12.920  1.00  0.00     0.043 C 
HETATM   25  C21 UNL     1       6.897   5.485  10.992  1.00  0.00     0.043 C 
ENDBRANCH  20  22
ENDBRANCH  19  20
ENDBRANCH  17  19
ENDBRANCH  10  17
BRANCH  16  26
HETATM   26  C28 UNL     1      -2.177   2.274  11.658  1.00  0.00     0.021 C 
BRANCH  26  27
HETATM   27  C29 UNL     1      -0.851   2.138  10.911  1.00  0.00     0.111 C 
BRANCH  27  28
HETATM   28  C30 UNL     1      -0.620   0.722  10.459  1.00  0.00     0.139 C 
HETATM   29  O3  UNL     1      -0.311  -0.237  11.144  1.00  0.00    -0.650 OA
BRANCH  28  30
HETATM   30  O4  UNL     1      -0.771   0.592   9.125  1.00  0.00    -0.776 OA
HETATM   31  H46 UNL     1      -0.583  -0.356   8.955  1.00  0.00     0.167 HD
ENDBRANCH  28  30
ENDBRANCH  27  28
ENDBRANCH  26  27
ENDBRANCH  16  26
BRANCH   1  32
HETATM   32  C2  UNL     1      -5.179   3.269  12.216  1.00  0.00    -0.061 C 
HETATM   33  C1  UNL     1      -6.401   3.764  12.496  1.00  0.00     0.017 C 
BRANCH  32  34
HETATM   34  C3  UNL     1      -4.977   2.059  11.325  1.00  0.00     0.198 C 
BRANCH  34  35
HETATM   35  O1  UNL     1      -5.485   2.265  10.015  1.00  0.00    -0.397 OA
HETATM   36  H5  UNL     1      -5.011   3.035   9.656  1.00  0.00     0.209 HD
ENDBRANCH  34  35
ENDBRANCH  32  34
ENDBRANCH   1  32
TORSDOF 11
ENDMDL
MODEL 3
REMARK minimizedAffinity -8.47288513
REMARK CNNscore 0.353462696
REMARK CNNaffinity 6.80352402
REMARK  11 active torsions:
REMARK  status: ('A' for Active; 'I' for Inactive)
REMARK    1  A    between atoms: C2_2  and  C3_3 
REMARK    2  A    between atoms: C2_2  and  C4_5 
REMARK    3  A    between atoms: C3_3  and  O1_4 
REMARK    4  A    between atoms: C13_14  and  C14_15 
REMARK    5  A    between atoms: C14_15  and  C16_17 
REMARK    6  A    between atoms: C16_17  and  C17_18 
REMARK    7  A    between atoms: C17_18  and  C18_20 
REMARK    8  A    between atoms: C27_29  and  C28_30 
REMARK    9  A    between atoms: C28_30  and  C29_31 
REMARK   10  A    between atoms: C29_31  and  C30_32 
REMARK   11  A    between atoms: C30_32  and  O4_34 
ROOT
HETATM    1  C4  UNL     1      -0.077   7.144  12.073  1.00  0.00     0.025 C 
HETATM    2  C5  UNL     1      -0.344   8.374  12.957  1.00  0.00     0.010 C 
HETATM    3  C6  UNL     1      -1.835   8.693  12.998  1.00  0.00     0.007 C 
HETATM    4  C7  UNL     1      -2.586   7.609  13.781  1.00  0.00     0.004 C 
HETATM    5  C8  UNL     1      -2.327   6.194  13.201  1.00  0.00    -0.027 A 
HETATM    6  C9  UNL     1      -3.556   5.323  12.890  1.00  0.00     0.011 C 
HETATM    7  C10 UNL     1      -4.819   5.506  13.756  1.00  0.00     0.011 C 
HETATM    8  C11 UNL     1      -4.757   6.695  14.719  1.00  0.00    -0.032 C 
HETATM    9  C12 UNL     1      -3.988   6.226  15.986  1.00  0.00     0.016 C 
HETATM   10  C13 UNL     1      -6.142   7.291  15.122  1.00  0.00    -0.002 C 
HETATM   11  C22 UNL     1      -5.812   8.754  15.510  1.00  0.00     0.006 C 
HETATM   12  C23 UNL     1      -4.412   9.062  14.943  1.00  0.00     0.011 C 
HETATM   13  C24 UNL     1      -4.096   7.904  13.973  1.00  0.00    -0.032 C 
HETATM   14  C25 UNL     1      -4.754   8.276  12.608  1.00  0.00     0.016 C 
HETATM   15  C26 UNL     1      -1.140   5.470  13.814  1.00  0.00     0.022 A 
HETATM   16  C27 UNL     1      -1.014   5.948  12.387  1.00  0.00    -0.024 A 
ENDROOT
BRANCH  10  17
HETATM   17  C14 UNL     1      -7.031   6.494  16.120  1.00  0.00    -0.007 C 
HETATM   18  C15 UNL     1      -7.454   5.160  15.473  1.00  0.00     0.011 C 
BRANCH  17  19
HETATM   19  C16 UNL     1      -8.305   7.217  16.605  1.00  0.00     0.087 C 
BRANCH  19  20
HETATM   20  C17 UNL     1      -9.102   7.822  15.457  1.00  0.00     0.149 C 
HETATM   21  O2  UNL     1      -9.647   7.121  14.607  1.00  0.00    -0.293 OA
BRANCH  20  22
HETATM   22  C18 UNL     1      -9.211   9.317  15.438  1.00  0.00     0.052 C 
HETATM   23  C19 UNL     1     -10.171  10.032  14.820  1.00  0.00    -0.084 C 
HETATM   24  C20 UNL     1     -11.333   9.436  14.072  1.00  0.00     0.043 C 
HETATM   25  C21 UNL     1     -10.140  11.537  14.845  1.00  0.00     0.043 C 
ENDBRANCH  20  22
ENDBRANCH  19  20
ENDBRANCH  17  19
ENDBRANCH  10  17
BRANCH  16  26
HETATM   26  C28 UNL     1      -0.967   4.842  11.321  1.00  0.00     0.021 C 
BRANCH  26  27
HETATM   27  C29 UNL     1      -0.238   3.580  11.781  1.00  0.00     0.111 C 
BRANCH  27  28
HETATM   28  C30 UNL     1      -0.922   2.339  11.276  1.00  0.00     0.139 C 
HETATM   29  O3  UNL     1      -2.116   2.097  11.268  1.00  0.00    -0.650 OA
BRANCH  28  30
HETATM   30  O4  UNL     1      -0.036   1.432  10.818  1.00  0.00    -0.776 OA
HETATM   31  H46 UNL     1      -0.593   0.674  10.537  1.00  0.00     0.167 HD
ENDBRANCH  28  30
ENDBRANCH  27  28
ENDBRANCH  26  27
ENDBRANCH  16  26
BRANCH   1  32
HETATM   32  C2  UNL     1       1.430   6.861  12.022  1.00  0.00    -0.061 C 
HETATM   33  C1  UNL     1       2.048   6.311  10.959  1.00  0.00     0.017 C 
BRANCH  32  34
HETATM   34  C3  UNL     1       2.176   7.250  13.284  1.00  0.00     0.198 C 
BRANCH  34  35
HETATM   35  O1  UNL     1       2.032   6.283  14.314  1.00  0.00    -0.397 OA
HETATM   36  H5  UNL     1       2.381   5.449  13.956  1.00  0.00     0.209 HD
ENDBRANCH  34  35
ENDBRANCH  32  34
ENDBRANCH   1  32
TORSDOF 11
ENDMDL
MODEL 4
REMARK minimizedAffinity -8.14665508
REMARK CNNscore 0.348462969
REMARK CNNaffinity 7.04182673
REMARK  11 active torsions:
REMARK  status: ('A' for Active; 'I' for Inactive)
REMARK    1  A    between atoms: C2_2  and  C3_3 
REMARK    2  A    between atoms: C2_2  and  C4_5 
REMARK    3  A    between atoms: C3_3  and  O1_4 
REMARK    4  A    between atoms: C13_14  and  C14_15 
REMARK    5  A    between atoms: C14_15  and  C16_17 
REMARK    6  A    between atoms: C16_17  and  C17_18 
REMARK    7  A    between atoms: C17_18  and  C18_20 
REMARK    8  A    between atoms: C27_29  and  C28_30 
REMARK    9  A    between atoms: C28_30  and  C29_31 
REMARK   10  A    between atoms: C29_31  and  C30_32 
REMARK   11  A    between atoms: C30_32  and  O4_34 
ROOT
HETATM    1  C4  UNL     1       0.597   8.131  13.771  1.00  0.00     0.025 C 
HETATM    2  C5  UNL     1      -0.220   9.130  14.607  1.00  0.00     0.010 C 
HETATM    3  C6  UNL     1      -1.649   9.227  14.083  1.00  0.00     0.007 C 
HETATM    4  C7  UNL     1      -2.408   7.926  14.372  1.00  0.00     0.004 C 
HETATM    5  C8  UNL     1      -1.674   6.689  13.788  1.00  0.00    -0.027 A 
HETATM    6  C9  UNL     1      -2.499   5.729  12.914  1.00  0.00     0.011 C 
HETATM    7  C10 UNL     1      -4.003   5.575  13.217  1.00  0.00     0.011 C 
HETATM    8  C11 UNL     1      -4.543   6.566  14.251  1.00  0.00    -0.032 C 
HETATM    9  C12 UNL     1      -4.228   5.984  15.658  1.00  0.00     0.016 C 
HETATM   10  C13 UNL     1      -6.068   6.881  14.131  1.00  0.00    -0.002 C 
HETATM   11  C22 UNL     1      -6.204   8.281  14.782  1.00  0.00     0.006 C 
HETATM   12  C23 UNL     1      -4.784   8.876  14.861  1.00  0.00     0.011 C 
HETATM   13  C24 UNL     1      -3.906   7.970  13.975  1.00  0.00    -0.032 C 
HETATM   14  C25 UNL     1      -4.064   8.489  12.512  1.00  0.00     0.016 C 
HETATM   15  C26 UNL     1      -0.685   6.038  14.738  1.00  0.00     0.022 A 
HETATM   16  C27 UNL     1      -0.131   6.780  13.546  1.00  0.00    -0.024 A 
ENDROOT
BRANCH  10  17
HETATM   17  C14 UNL     1      -7.088   5.800  14.592  1.00  0.00    -0.007 C 
HETATM   18  C15 UNL     1      -7.336   5.944  16.105  1.00  0.00     0.011 C 
BRANCH  17  19
HETATM   19  C16 UNL     1      -6.685   4.338  14.308  1.00  0.00     0.087 C 
BRANCH  19  20
HETATM   20  C17 UNL     1      -7.316   3.799  13.031  1.00  0.00     0.149 C 
HETATM   21  O2  UNL     1      -8.431   3.283  13.029  1.00  0.00    -0.293 OA
BRANCH  20  22
HETATM   22  C18 UNL     1      -6.515   3.961  11.775  1.00  0.00     0.052 C 
HETATM   23  C19 UNL     1      -5.848   2.983  11.131  1.00  0.00    -0.084 C 
HETATM   24  C20 UNL     1      -5.834   1.538  11.552  1.00  0.00     0.043 C 
HETATM   25  C21 UNL     1      -5.044   3.289   9.895  1.00  0.00     0.043 C 
ENDBRANCH  20  22
ENDBRANCH  19  20
ENDBRANCH  17  19
ENDBRANCH  10  17
BRANCH  16  26
HETATM   26  C28 UNL     1       0.529   5.903  12.470  1.00  0.00     0.021 C 
BRANCH  26  27
HETATM   27  C29 UNL     1       0.824   6.650  11.170  1.00  0.00     0.111 C 
BRANCH  27  28
HETATM   28  C30 UNL     1       2.084   6.144  10.522  1.00  0.00     0.139 C 
HETATM   29  O3  UNL     1       3.175   5.985  11.039  1.00  0.00    -0.650 OA
BRANCH  28  30
HETATM   30  O4  UNL     1       1.901   5.881   9.212  1.00  0.00    -0.776 OA
HETATM   31  H46 UNL     1       2.782   5.579   8.904  1.00  0.00     0.167 HD
ENDBRANCH  28  30
ENDBRANCH  27  28
ENDBRANCH  26  27
ENDBRANCH  16  26
BRANCH   1  32
HETATM   32  C2  UNL     1       2.038   8.072  14.297  1.00  0.00    -0.061 C 
HETATM   33  C1  UNL     1       3.112   8.412  13.559  1.00  0.00     0.017 C 
BRANCH  32  34
HETATM   34  C3  UNL     1       2.155   7.591  15.730  1.00  0.00     0.198 C 
BRANCH  34  35
HETATM   35  O1  UNL     1       3.068   6.512  15.861  1.00  0.00    -0.397 OA
HETATM   36  H5  UNL     1       3.926   6.839  15.542  1.00  0.00     0.209 HD
ENDBRANCH  34  35
ENDBRANCH  32  34
ENDBRANCH   1  32
TORSDOF 11
ENDMDL
MODEL 5
REMARK minimizedAffinity -7.23922968
REMARK CNNscore 0.297124684
REMARK CNNaffinity 6.6322937
REMARK  11 active torsions:
REMARK  status: ('A' for Active; 'I' for Inactive)
REMARK    1  A    between atoms: C2_2  and  C3_3 
REMARK    2  A    between atoms: C2_2  and  C4_5 
REMARK    3  A    between atoms: C3_3  and  O1_4 
REMARK    4  A    between atoms: C13_14  and  C14_15 
REMARK    5  A    between atoms: C14_15  and  C16_17 
REMARK    6  A    between atoms: C16_17  and  C17_18 
REMARK    7  A    between atoms: C17_18  and  C18_20 
REMARK    8  A    between atoms: C27_29  and  C28_30 
REMARK    9  A    between atoms: C28_30  and  C29_31 
REMARK   10  A    between atoms: C29_31  and  C30_32 
REMARK   11  A    between atoms: C30_32  and  O4_34 
ROOT
HETATM    1  C4  UNL     1      -2.486   3.931  12.113  1.00  0.00     0.025 C 
HETATM    2  C5  UNL     1      -3.916   4.486  12.231  1.00  0.00     0.010 C 
HETATM    3  C6  UNL     1      -4.110   5.191  13.569  1.00  0.00     0.007 C 
HETATM    4  C7  UNL     1      -3.295   6.490  13.606  1.00  0.00     0.004 C 
HETATM    5  C8  UNL     1      -1.793   6.237  13.313  1.00  0.00    -0.027 A 
HETATM    6  C9  UNL     1      -0.773   6.818  14.307  1.00  0.00     0.011 C 
HETATM    7  C10 UNL     1      -1.134   8.124  15.044  1.00  0.00     0.011 C 
HETATM    8  C11 UNL     1      -2.578   8.589  14.833  1.00  0.00    -0.032 C 
HETATM    9  C12 UNL     1      -2.623   9.366  13.488  1.00  0.00     0.016 C 
HETATM   10  C13 UNL     1      -3.163   9.470  15.981  1.00  0.00    -0.002 C 
HETATM   11  C22 UNL     1      -4.692   9.255  15.865  1.00  0.00     0.006 C 
HETATM   12  C23 UNL     1      -4.902   8.004  14.990  1.00  0.00     0.011 C 
HETATM   13  C24 UNL     1      -3.516   7.335  14.887  1.00  0.00    -0.032 C 
HETATM   14  C25 UNL     1      -3.355   6.445  16.158  1.00  0.00     0.016 C 
HETATM   15  C26 UNL     1      -1.413   6.327  11.846  1.00  0.00     0.022 A 
HETATM   16  C27 UNL     1      -1.394   4.964  12.495  1.00  0.00    -0.024 A 
ENDROOT
BRANCH  10  17
HETATM   17  C14 UNL     1      -2.677  10.944  16.107  1.00  0.00    -0.007 C 
HETATM   18  C15 UNL     1      -2.468  11.533  14.699  1.00  0.00     0.011 C 
BRANCH  17  19
HETATM   19  C16 UNL     1      -1.377  11.152  16.913  1.00  0.00     0.087 C 
BRANCH  19  20
HETATM   20  C17 UNL     1      -1.634  11.261  18.410  1.00  0.00     0.149 C 
HETATM   21  O2  UNL     1      -2.742  11.549  18.857  1.00  0.00    -0.293 OA
BRANCH  20  22
HETATM   22  C18 UNL     1      -0.470  10.968  19.307  1.00  0.00     0.052 C 
HETATM   23  C19 UNL     1       0.333  11.883  19.884  1.00  0.00    -0.084 C 
HETATM   24  C20 UNL     1       0.162  13.373  19.754  1.00  0.00     0.043 C 
HETATM   25  C21 UNL     1       1.499  11.452  20.734  1.00  0.00     0.043 C 
ENDBRANCH  20  22
ENDBRANCH  19  20
ENDBRANCH  17  19
ENDBRANCH  10  17
BRANCH  16  26
HETATM   26  C28 UNL     1      -0.002   4.338  12.679  1.00  0.00     0.021 C 
BRANCH  26  27
HETATM   27  C29 UNL     1       1.137   5.225  12.177  1.00  0.00     0.111 C 
BRANCH  27  28
HETATM   28  C30 UNL     1       1.585   4.814  10.801  1.00  0.00     0.139 C 
HETATM   29  O3  UNL     1       1.654   5.509   9.803  1.00  0.00    -0.650 OA
BRANCH  28  30
HETATM   30  O4  UNL     1       1.906   3.506  10.750  1.00  0.00    -0.776 OA
HETATM   31  H46 UNL     1       2.161   3.359   9.814  1.00  0.00     0.167 HD
ENDBRANCH  28  30
ENDBRANCH  27  28
ENDBRANCH  26  27
ENDBRANCH  16  26
BRANCH   1  32
HETATM   32  C2  UNL     1      -2.324   3.201  10.773  1.00  0.00    -0.061 C 
HETATM   33  C1  UNL     1      -2.885   3.623   9.624  1.00  0.00     0.017 C 
BRANCH  32  34
HETATM   34  C3  UNL     1      -1.473   1.948  10.849  1.00  0.00     0.198 C 
BRANCH  34  35
HETATM   35  O1  UNL     1      -2.257   0.774  10.998  1.00  0.00    -0.397 OA
HETATM   36  H5  UNL     1      -2.845   0.738  10.223  1.00  0.00     0.209 HD
ENDBRANCH  34  35
ENDBRANCH  32  34
ENDBRANCH   1  32
TORSDOF 11
ENDMDL
MODEL 6
REMARK minimizedAffinity -7.59179211
REMARK CNNscore 0.276968539
REMARK CNNaffinity 6.74205399
REMARK  11 active torsions:
REMARK  status: ('A' for Active; 'I' for Inactive)
REMARK    1  A    between atoms: C2_2  and  C3_3 
REMARK    2  A    between atoms: C2_2  and  C4_5 
REMARK    3  A    between atoms: C3_3  and  O1_4 
REMARK    4  A    between atoms: C13_14  and  C14_15 
REMARK    5  A    between atoms: C14_15  and  C16_17 
REMARK    6  A    between atoms: C16_17  and  C17_18 
REMARK    7  A    between atoms: C17_18  and  C18_20 
REMARK    8  A    between atoms: C27_29  and  C28_30 
REMARK    9  A    between atoms: C28_30  and  C29_31 
REMARK   10  A    between atoms: C29_31  and  C30_32 
REMARK   11  A    between atoms: C30_32  and  O4_34 
ROOT
HETATM    1  C4  UNL     1       0.510   6.684  11.739  1.00  0.00     0.025 C 
HETATM    2  C5  UNL     1      -0.561   5.762  11.131  1.00  0.00     0.010 C 
HETATM    3  C6  UNL     1      -1.535   5.289  12.205  1.00  0.00     0.007 C 
HETATM    4  C7  UNL     1      -2.403   6.459  12.683  1.00  0.00     0.004 C 
HETATM    5  C8  UNL     1      -1.543   7.649  13.184  1.00  0.00    -0.027 A 
HETATM    6  C9  UNL     1      -1.875   8.223  14.573  1.00  0.00     0.011 C 
HETATM    7  C10 UNL     1      -3.337   8.160  15.059  1.00  0.00     0.011 C 
HETATM    8  C11 UNL     1      -4.266   7.341  14.159  1.00  0.00    -0.032 C 
HETATM    9  C12 UNL     1      -4.721   8.268  12.997  1.00  0.00     0.016 C 
HETATM   10  C13 UNL     1      -5.512   6.731  14.876  1.00  0.00    -0.002 C 
HETATM   11  C22 UNL     1      -5.879   5.511  13.996  1.00  0.00     0.006 C 
HETATM   12  C23 UNL     1      -4.657   5.220  13.103  1.00  0.00     0.011 C 
HETATM   13  C24 UNL     1      -3.503   6.053  13.697  1.00  0.00    -0.032 C 
HETATM   14  C25 UNL     1      -2.889   5.202  14.852  1.00  0.00     0.016 C 
HETATM   15  C26 UNL     1      -1.191   8.666  12.114  1.00  0.00     0.022 A 
HETATM   16  C27 UNL     1      -0.080   7.793  12.648  1.00  0.00    -0.024 A 
ENDROOT
BRANCH  10  17
HETATM   17  C14 UNL     1      -6.681   7.680  15.268  1.00  0.00    -0.007 C 
HETATM   18  C15 UNL     1      -6.107   9.035  15.726  1.00  0.00     0.011 C 
BRANCH  17  19
HETATM   19  C16 UNL     1      -7.622   7.159  16.375  1.00  0.00     0.087 C 
BRANCH  19  20
HETATM   20  C17 UNL     1      -9.062   7.613  16.175  1.00  0.00     0.149 C 
HETATM   21  O2  UNL     1      -9.603   8.402  16.946  1.00  0.00    -0.293 OA
BRANCH  20  22
HETATM   22  C18 UNL     1      -9.769   7.070  14.971  1.00  0.00     0.052 C 
HETATM   23  C19 UNL     1     -10.499   7.785  14.093  1.00  0.00    -0.084 C 
HETATM   24  C20 UNL     1     -10.689   9.277  14.156  1.00  0.00     0.043 C 
HETATM   25  C21 UNL     1     -11.195   7.107  12.943  1.00  0.00     0.043 C 
ENDBRANCH  20  22
ENDBRANCH  19  20
ENDBRANCH  17  19
ENDBRANCH  10  17
BRANCH  16  26
HETATM   26  C28 UNL     1       0.980   8.515  13.495  1.00  0.00     0.021 C 
BRANCH  26  27
HETATM   27  C29 UNL     1       2.113   7.604  13.963  1.00  0.00     0.111 C 
BRANCH  27  28
HETATM   28  C30 UNL     1       3.449   8.285  13.842  1.00  0.00     0.139 C 
HETATM   29  O3  UNL     1       3.667   9.474  13.696  1.00  0.00    -0.650 OA
BRANCH  28  30
HETATM   30  O4  UNL     1       4.466   7.401  13.886  1.00  0.00    -0.776 OA
HETATM   31  H46 UNL     1       5.269   7.956  13.783  1.00  0.00     0.167 HD
ENDBRANCH  28  30
ENDBRANCH  27  28
ENDBRANCH  26  27
ENDBRANCH  16  26
BRANCH   1  32
HETATM   32  C2  UNL     1       1.495   7.122  10.647  1.00  0.00    -0.061 C 
HETATM   33  C1  UNL     1       1.226   8.088   9.747  1.00  0.00     0.017 C 
BRANCH  32  34
HETATM   34  C3  UNL     1       2.811   6.368  10.660  1.00  0.00     0.198 C 
BRANCH  34  35
HETATM   35  O1  UNL     1       2.624   4.962  10.597  1.00  0.00    -0.397 OA
HETATM   36  H5  UNL     1       2.141   4.787   9.772  1.00  0.00     0.209 HD
ENDBRANCH  34  35
ENDBRANCH  32  34
ENDBRANCH   1  32
TORSDOF 11
ENDMDL
MODEL 7
REMARK minimizedAffinity -8.27217865
REMARK CNNscore 0.265792072
REMARK CNNaffinity 6.81693268
REMARK  11 active torsions:
REMARK  status: ('A' for Active; 'I' for Inactive)
REMARK    1  A    between atoms: C2_2  and  C3_3 
REMARK    2  A    between atoms: C2_2  and  C4_5 
REMARK    3  A    between atoms: C3_3  and  O1_4 
REMARK    4  A    between atoms: C13_14  and  C14_15 
REMARK    5  A    between atoms: C14_15  and  C16_17 
REMARK    6  A    between atoms: C16_17  and  C17_18 
REMARK    7  A    between atoms: C17_18  and  C18_20 
REMARK    8  A    between atoms: C27_29  and  C28_30 
REMARK    9  A    between atoms: C28_30  and  C29_31 
REMARK   10  A    between atoms: C29_31  and  C30_32 
REMARK   11  A    between atoms: C30_32  and  O4_34 
ROOT
HETATM    1  C4  UNL     1       0.271   7.089  11.880  1.00  0.00     0.025 C 
HETATM    2  C5  UNL     1      -0.668   6.091  11.181  1.00  0.00     0.010 C 
HETATM    3  C6  UNL     1      -1.619   5.454  12.188  1.00  0.00     0.007 C 
HETATM    4  C7  UNL     1      -2.629   6.491  12.692  1.00  0.00     0.004 C 
HETATM    5  C8  UNL     1      -1.926   7.738  13.290  1.00  0.00    -0.027 A 
HETATM    6  C9  UNL     1      -2.367   8.191  14.692  1.00  0.00     0.011 C 
HETATM    7  C10 UNL     1      -3.829   7.940  15.115  1.00  0.00     0.011 C 
HETATM    8  C11 UNL     1      -4.629   7.076  14.135  1.00  0.00    -0.032 C 
HETATM    9  C12 UNL     1      -5.144   8.013  13.006  1.00  0.00     0.016 C 
HETATM   10  C13 UNL     1      -5.822   6.293  14.768  1.00  0.00    -0.002 C 
HETATM   11  C22 UNL     1      -6.020   5.092  13.810  1.00  0.00     0.006 C 
HETATM   12  C23 UNL     1      -4.743   4.989  12.953  1.00  0.00     0.011 C 
HETATM   13  C24 UNL     1      -3.711   5.909  13.637  1.00  0.00    -0.032 C 
HETATM   14  C25 UNL     1      -3.044   5.066  14.769  1.00  0.00     0.016 C 
HETATM   15  C26 UNL     1      -1.653   8.847  12.290  1.00  0.00     0.022 A 
HETATM   16  C27 UNL     1      -0.471   8.073  12.822  1.00  0.00    -0.024 A 
ENDROOT
BRANCH  10  17
HETATM   17  C14 UNL     1      -7.103   7.083  15.162  1.00  0.00    -0.007 C 
HETATM   18  C15 UNL     1      -7.357   6.922  16.673  1.00  0.00     0.011 C 
BRANCH  17  19
HETATM   19  C16 UNL     1      -8.392   6.683  14.413  1.00  0.00     0.087 C 
BRANCH  19  20
HETATM   20  C17 UNL     1      -9.543   7.643  14.684  1.00  0.00     0.149 C 
HETATM   21  O2  UNL     1      -9.348   8.822  14.970  1.00  0.00    -0.293 OA
BRANCH  20  22
HETATM   22  C18 UNL     1     -10.924   7.078  14.552  1.00  0.00     0.052 C 
HETATM   23  C19 UNL     1     -11.850   7.455  13.649  1.00  0.00    -0.084 C 
HETATM   24  C20 UNL     1     -11.628   8.493  12.581  1.00  0.00     0.043 C 
HETATM   25  C21 UNL     1     -13.221   6.832  13.650  1.00  0.00     0.043 C 
ENDBRANCH  20  22
ENDBRANCH  19  20
ENDBRANCH  17  19
ENDBRANCH  10  17
BRANCH  16  26
HETATM   26  C28 UNL     1       0.472   8.858  13.748  1.00  0.00     0.021 C 
BRANCH  26  27
HETATM   27  C29 UNL     1       1.450   7.972  14.517  1.00  0.00     0.111 C 
BRANCH  27  28
HETATM   28  C30 UNL     1       1.181   8.015  15.997  1.00  0.00     0.139 C 
HETATM   29  O3  UNL     1       0.465   8.794  16.600  1.00  0.00    -0.650 OA
BRANCH  28  30
HETATM   30  O4  UNL     1       1.869   7.062  16.658  1.00  0.00    -0.776 OA
HETATM   31  H46 UNL     1       1.626   7.202  17.598  1.00  0.00     0.167 HD
ENDBRANCH  28  30
ENDBRANCH  27  28
ENDBRANCH  26  27
ENDBRANCH  16  26
BRANCH   1  32
HETATM   32  C2  UNL     1       1.238   7.695  10.853  1.00  0.00    -0.061 C 
HETATM   33  C1  UNL     1       2.479   8.120  11.162  1.00  0.00     0.017 C 
BRANCH  32  34
HETATM   34  C3  UNL     1       0.675   7.782   9.448  1.00  0.00     0.198 C 
BRANCH  34  35
HETATM   35  O1  UNL     1       0.045   9.029   9.198  1.00  0.00    -0.397 OA
HETATM   36  H5  UNL     1       0.725   9.712   9.334  1.00  0.00     0.209 HD
ENDBRANCH  34  35
ENDBRANCH  32  34
ENDBRANCH   1  32
TORSDOF 11
ENDMDL
MODEL 8
REMARK minimizedAffinity -7.82541752
REMARK CNNscore 0.250004053
REMARK CNNaffinity 6.64394903
REMARK  11 active torsions:
REMARK  status: ('A' for Active; 'I' for Inactive)
REMARK    1  A    between atoms: C2_2  and  C3_3 
REMARK    2  A    between atoms: C2_2  and  C4_5 
REMARK    3  A    between atoms: C3_3  and  O1_4 
REMARK    4  A    between atoms: C13_14  and  C14_15 
REMARK    5  A    between atoms: C14_15  and  C16_17 
REMARK    6  A    between atoms: C16_17  and  C17_18 
REMARK    7  A    between atoms: C17_18  and  C18_20 
REMARK    8  A    between atoms: C27_29  and  C28_30 
REMARK    9  A    between atoms: C28_30  and  C29_31 
REMARK   10  A    between atoms: C29_31  and  C30_32 
REMARK   11  A    between atoms: C30_32  and  O4_34 
ROOT
HETATM    1  C4  UNL     1      -7.719   6.655  15.034  1.00  0.00     0.025 C 
HETATM    2  C5  UNL     1      -6.925   7.566  15.986  1.00  0.00     0.010 C 
HETATM    3  C6  UNL     1      -5.499   7.053  16.155  1.00  0.00     0.007 C 
HETATM    4  C7  UNL     1      -4.711   7.243  14.853  1.00  0.00     0.004 C 
HETATM    5  C8  UNL     1      -5.415   6.567  13.648  1.00  0.00    -0.027 A 
HETATM    6  C9  UNL     1      -4.569   5.623  12.775  1.00  0.00     0.011 C 
HETATM    7  C10 UNL     1      -3.062   5.916  12.633  1.00  0.00     0.011 C 
HETATM    8  C11 UNL     1      -2.544   7.023  13.555  1.00  0.00    -0.032 C 
HETATM    9  C12 UNL     1      -2.846   8.382  12.862  1.00  0.00     0.016 C 
HETATM   10  C13 UNL     1      -1.028   6.930  13.914  1.00  0.00    -0.002 C 
HETATM   11  C22 UNL     1      -0.924   7.685  15.262  1.00  0.00     0.006 C 
HETATM   12  C23 UNL     1      -2.356   7.807  15.818  1.00  0.00     0.011 C 
HETATM   13  C24 UNL     1      -3.214   6.853  14.961  1.00  0.00    -0.032 C 
HETATM   14  C25 UNL     1      -3.068   5.434  15.593  1.00  0.00     0.016 C 
HETATM   15  C26 UNL     1      -6.389   7.463  12.903  1.00  0.00     0.022 A 
HETATM   16  C27 UNL     1      -6.960   6.329  13.721  1.00  0.00    -0.024 A 
ENDROOT
BRANCH  10  17
HETATM   17  C14 UNL     1       0.017   7.309  12.824  1.00  0.00    -0.007 C 
HETATM   18  C15 UNL     1       0.126   8.843  12.734  1.00  0.00     0.011 C 
BRANCH  17  19
HETATM   19  C16 UNL     1      -0.266   6.762  11.409  1.00  0.00     0.087 C 
BRANCH  19  20
HETATM   20  C17 UNL     1       0.652   7.370  10.357  1.00  0.00     0.149 C 
HETATM   21  O2  UNL     1       0.209   7.918   9.351  1.00  0.00    -0.293 OA
BRANCH  20  22
HETATM   22  C18 UNL     1       2.123   7.292  10.634  1.00  0.00     0.052 C 
HETATM   23  C19 UNL     1       3.108   7.594   9.765  1.00  0.00    -0.084 C 
HETATM   24  C20 UNL     1       2.887   8.109   8.368  1.00  0.00     0.043 C 
HETATM   25  C21 UNL     1       4.552   7.431  10.158  1.00  0.00     0.043 C 
ENDBRANCH  20  22
ENDBRANCH  19  20
ENDBRANCH  17  19
ENDBRANCH  10  17
BRANCH  16  26
HETATM   26  C28 UNL     1      -7.601   5.189  12.914  1.00  0.00     0.021 C 
BRANCH  26  27
HETATM   27  C29 UNL     1      -7.567   3.839  13.630  1.00  0.00     0.111 C 
BRANCH  27  28
HETATM   28  C30 UNL     1      -7.202   2.728  12.684  1.00  0.00     0.139 C 
HETATM   29  O3  UNL     1      -6.188   2.621  12.016  1.00  0.00    -0.650 OA
BRANCH  28  30
HETATM   30  O4  UNL     1      -8.173   1.796  12.610  1.00  0.00    -0.776 OA
HETATM   31  H46 UNL     1      -7.830   1.144  11.961  1.00  0.00     0.167 HD
ENDBRANCH  28  30
ENDBRANCH  27  28
ENDBRANCH  26  27
ENDBRANCH  16  26
BRANCH   1  32
HETATM   32  C2  UNL     1      -9.158   7.173  14.903  1.00  0.00    -0.061 C 
HETATM   33  C1  UNL     1      -9.667   8.156  15.671  1.00  0.00     0.017 C 
BRANCH  32  34
HETATM   34  C3  UNL     1      -9.971   6.477  13.829  1.00  0.00     0.198 C 
BRANCH  34  35
HETATM   35  O1  UNL     1     -11.294   6.189  14.259  1.00  0.00    -0.397 OA
HETATM   36  H5  UNL     1     -11.698   7.043  14.491  1.00  0.00     0.209 HD
ENDBRANCH  34  35
ENDBRANCH  32  34
ENDBRANCH   1  32
TORSDOF 11
ENDMDL
MODEL 9
REMARK minimizedAffinity -6.71531868
REMARK CNNscore 0.240076885
REMARK CNNaffinity 5.41158485
REMARK  11 active torsions:
REMARK  status: ('A' for Active; 'I' for Inactive)
REMARK    1  A    between atoms: C2_2  and  C3_3 
REMARK    2  A    between atoms: C2_2  and  C4_5 
REMARK    3  A    between atoms: C3_3  and  O1_4 
REMARK    4  A    between atoms: C13_14  and  C14_15 
REMARK    5  A    between atoms: C14_15  and  C16_17 
REMARK    6  A    between atoms: C16_17  and  C17_18 
REMARK    7  A    between atoms: C17_18  and  C18_20 
REMARK    8  A    between atoms: C27_29  and  C28_30 
REMARK    9  A    between atoms: C28_30  and  C29_31 
REMARK   10  A    between atoms: C29_31  and  C30_32 
REMARK   11  A    between atoms: C30_32  and  O4_34 
ROOT
HETATM    1  C4  UNL     1     -16.436  -1.290  14.878  1.00  0.00     0.025 C 
HETATM    2  C5  UNL     1     -16.520  -0.791  13.425  1.00  0.00     0.010 C 
HETATM    3  C6  UNL     1     -17.416   0.439  13.331  1.00  0.00     0.007 C 
HETATM    4  C7  UNL     1     -16.739   1.639  14.005  1.00  0.00     0.004 C 
HETATM    5  C8  UNL     1     -16.354   1.332  15.476  1.00  0.00    -0.027 A 
HETATM    6  C9  UNL     1     -16.808   2.338  16.548  1.00  0.00     0.011 C 
HETATM    7  C10 UNL     1     -16.932   3.823  16.150  1.00  0.00     0.011 C 
HETATM    8  C11 UNL     1     -16.770   4.090  14.652  1.00  0.00    -0.032 C 
HETATM    9  C12 UNL     1     -15.246   4.166  14.356  1.00  0.00     0.016 C 
HETATM   10  C13 UNL     1     -17.482   5.378  14.129  1.00  0.00    -0.002 C 
HETATM   11  C22 UNL     1     -17.720   5.081  12.628  1.00  0.00     0.006 C 
HETATM   12  C23 UNL     1     -17.541   3.561  12.439  1.00  0.00     0.011 C 
HETATM   13  C24 UNL     1     -17.526   2.967  13.862  1.00  0.00    -0.032 C 
HETATM   14  C25 UNL     1     -19.017   2.761  14.274  1.00  0.00     0.016 C 
HETATM   15  C26 UNL     1     -14.961   0.756  15.655  1.00  0.00     0.022 A 
HETATM   16  C27 UNL     1     -16.138  -0.159  15.898  1.00  0.00    -0.024 A 
ENDROOT
BRANCH  10  17
HETATM   17  C14 UNL     1     -16.858   6.761  14.473  1.00  0.00    -0.007 C 
HETATM   18  C15 UNL     1     -17.585   7.361  15.691  1.00  0.00     0.011 C 
BRANCH  17  19
HETATM   19  C16 UNL     1     -16.884   7.805  13.336  1.00  0.00     0.087 C 
BRANCH  19  20
HETATM   20  C17 UNL     1     -15.771   7.585  12.320  1.00  0.00     0.149 C 
HETATM   21  O2  UNL     1     -15.930   7.822  11.126  1.00  0.00    -0.293 OA
BRANCH  20  22
HETATM   22  C18 UNL     1     -14.463   7.095  12.864  1.00  0.00     0.052 C 
HETATM   23  C19 UNL     1     -13.360   7.842  13.064  1.00  0.00    -0.084 C 
HETATM   24  C20 UNL     1     -13.274   9.323  12.811  1.00  0.00     0.043 C 
HETATM   25  C21 UNL     1     -12.092   7.213  13.579  1.00  0.00     0.043 C 
ENDBRANCH  20  22
ENDBRANCH  19  20
ENDBRANCH  17  19
ENDBRANCH  10  17
BRANCH  16  26
HETATM   26  C28 UNL     1     -16.355  -0.584  17.359  1.00  0.00     0.021 C 
BRANCH  26  27
HETATM   27  C29 UNL     1     -17.382  -1.703  17.523  1.00  0.00     0.111 C 
BRANCH  27  28
HETATM   28  C30 UNL     1     -16.817  -2.852  18.312  1.00  0.00     0.139 C 
HETATM   29  O3  UNL     1     -16.937  -4.043  18.083  1.00  0.00    -0.650 OA
BRANCH  28  30
HETATM   30  O4  UNL     1     -16.133  -2.427  19.394  1.00  0.00    -0.776 OA
HETATM   31  H46 UNL     1     -15.833  -3.255  19.827  1.00  0.00     0.167 HD
ENDBRANCH  28  30
ENDBRANCH  27  28
ENDBRANCH  26  27
ENDBRANCH  16  26
BRANCH   1  32
HETATM   32  C2  UNL     1     -15.555  -2.545  14.944  1.00  0.00    -0.061 C 
HETATM   33  C1  UNL     1     -14.261  -2.526  15.320  1.00  0.00     0.017 C 
BRANCH  32  34
HETATM   34  C3  UNL     1     -16.266  -3.823  14.543  1.00  0.00     0.198 C 
BRANCH  34  35
HETATM   35  O1  UNL     1     -15.615  -4.485  13.468  1.00  0.00    -0.397 OA
HETATM   36  H5  UNL     1     -14.712  -4.680  13.774  1.00  0.00     0.209 HD
ENDBRANCH  34  35
ENDBRANCH  32  34
ENDBRANCH   1  32
TORSDOF 11
ENDMDL
