MODEL 1
REMARK minimizedAffinity -10.2627716
REMARK  10 active torsions:
REMARK  status: ('A' for Active; 'I' for Inactive)
REMARK    1  A    between atoms: C2_2  and  C3_3 
REMARK    2  A    between atoms: C2_2  and  C9_11 
REMARK    3  A    between atoms: C3_3  and  C4_4 
REMARK    4  A    between atoms: C4_4  and  C5_5 
REMARK    5  A    between atoms: C5_5  and  O1_6 
REMARK    6  A    between atoms: C5_5  and  C6_7 
REMARK    7  A    between atoms: C6_7  and  O2_10 
REMARK    8  A    between atoms: C12_14  and  C13_15 
REMARK    9  A    between atoms: C13_15  and  O4_17 
REMARK   10  A    between atoms: C21_25  and  O5_26 
ROOT
HETATM    1  C9  UNL     1       0.796   7.468  13.121  1.00  0.00    -0.001 C 
HETATM    2  C10 UNL     1       0.308   8.934  12.971  1.00  0.00     0.007 C 
HETATM    3  C11 UNL     1      -1.238   8.881  12.869  1.00  0.00     0.022 C 
HETATM    4  C12 UNL     1      -1.608   7.441  13.289  1.00  0.00     0.057 C 
HETATM    5  C14 UNL     1      -2.970   6.867  12.807  1.00  0.00     0.010 C 
HETATM    6  C15 UNL     1      -4.202   7.690  13.221  1.00  0.00     0.010 C 
HETATM    7  C16 UNL     1      -4.964   7.195  14.453  1.00  0.00     0.036 C 
HETATM    8  C17 UNL     1      -5.933   6.042  14.215  1.00  0.00    -0.067 C 
HETATM    9  C18 UNL     1      -5.680   5.015  13.365  1.00  0.00    -0.076 C 
HETATM   10  C19 UNL     1      -6.714   3.947  13.039  1.00  0.00     0.037 C 
HETATM   11  C20 UNL     1      -8.119   4.216  13.559  1.00  0.00     0.037 C 
HETATM   12  C21 UNL     1      -8.076   4.804  14.960  1.00  0.00     0.130 C 
HETATM   13  C22 UNL     1      -7.272   6.143  15.002  1.00  0.00     0.002 C 
HETATM   14  C23 UNL     1      -7.026   6.498  16.490  1.00  0.00     0.022 C 
HETATM   15  C24 UNL     1      -8.139   7.256  14.368  1.00  0.00     0.022 C 
HETATM   16  C25 UNL     1      -4.368   4.730  12.641  1.00  0.00     0.039 C 
HETATM   17  C26 UNL     1      -3.073   5.363  13.185  1.00  0.00    -0.005 C 
HETATM   18  C27 UNL     1      -1.850   4.543  12.691  1.00  0.00     0.006 C 
HETATM   19  C28 UNL     1      -0.478   5.163  13.007  1.00  0.00     0.011 C 
HETATM   20  C29 UNL     1      -0.423   6.647  12.607  1.00  0.00    -0.022 C 
HETATM   21  C30 UNL     1      -0.449   6.682  11.045  1.00  0.00     0.017 C 
ENDROOT
BRANCH   1  22
HETATM   22  C2  UNL     1       2.212   7.122  12.568  1.00  0.00    -0.014 C 
HETATM   23  C1  UNL     1       2.901   8.419  12.112  1.00  0.00     0.010 C 
BRANCH  22  24
HETATM   24  C3  UNL     1       2.245   6.080  11.425  1.00  0.00     0.007 C 
BRANCH  24  25
HETATM   25  C4  UNL     1       3.088   6.512  10.205  1.00  0.00     0.035 C 
BRANCH  25  26
HETATM   26  C5  UNL     1       2.379   6.266   8.858  1.00  0.00     0.151 C 
BRANCH  26  27
HETATM   27  O1  UNL     1       3.186   5.360   8.084  1.00  0.00    -0.393 OA
HETATM   28  H10 UNL     1       4.086   5.731   8.080  1.00  0.00     0.210 HD
ENDBRANCH  26  27
BRANCH  26  29
HETATM   29  C6  UNL     1       2.135   7.549   8.012  1.00  0.00     0.076 C 
HETATM   30  C7  UNL     1       0.940   8.365   8.505  1.00  0.00     0.048 C 
HETATM   31  C8  UNL     1       1.925   7.187   6.534  1.00  0.00     0.048 C 
BRANCH  29  32
HETATM   32  O2  UNL     1       3.295   8.392   8.100  1.00  0.00    -0.388 OA
HETATM   33  H17 UNL     1       3.967   8.016   7.503  1.00  0.00     0.210 HD
ENDBRANCH  29  32
ENDBRANCH  26  29
ENDBRANCH  25  26
ENDBRANCH  24  25
ENDBRANCH  22  24
ENDBRANCH   1  22
BRANCH   4  34
HETATM   34  C13 UNL     1      -1.591   7.400  14.844  1.00  0.00     0.149 C 
HETATM   35  O3  UNL     1      -1.871   8.297  15.621  1.00  0.00    -0.649 OA
BRANCH  34  36
HETATM   36  O4  UNL     1      -1.164   6.227  15.356  1.00  0.00    -0.776 OA
HETATM   37  H23 UNL     1      -1.197   6.374  16.325  1.00  0.00     0.167 HD
ENDBRANCH  34  36
ENDBRANCH   4  34
BRANCH  12  38
HETATM   38  O5  UNL     1      -7.532   3.827  15.856  1.00  0.00    -0.394 OA
HETATM   39  H34 UNL     1      -6.577   3.762  15.670  1.00  0.00     0.210 HD
ENDBRANCH  12  38
TORSDOF 10
ENDMDL
MODEL 2
REMARK minimizedAffinity -9.57863712
REMARK  10 active torsions:
REMARK  status: ('A' for Active; 'I' for Inactive)
REMARK    1  A    between atoms: C2_2  and  C3_3 
REMARK    2  A    between atoms: C2_2  and  C9_11 
REMARK    3  A    between atoms: C3_3  and  C4_4 
REMARK    4  A    between atoms: C4_4  and  C5_5 
REMARK    5  A    between atoms: C5_5  and  O1_6 
REMARK    6  A    between atoms: C5_5  and  C6_7 
REMARK    7  A    between atoms: C6_7  and  O2_10 
REMARK    8  A    between atoms: C12_14  and  C13_15 
REMARK    9  A    between atoms: C13_15  and  O4_17 
REMARK   10  A    between atoms: C21_25  and  O5_26 
ROOT
HETATM    1  C9  UNL     1       0.424   8.372  14.062  1.00  0.00    -0.001 C 
HETATM    2  C10 UNL     1      -0.284   9.745  13.901  1.00  0.00     0.007 C 
HETATM    3  C11 UNL     1      -1.755   9.445  13.515  1.00  0.00     0.022 C 
HETATM    4  C12 UNL     1      -1.929   7.934  13.784  1.00  0.00     0.057 C 
HETATM    5  C14 UNL     1      -3.064   7.184  13.032  1.00  0.00     0.010 C 
HETATM    6  C15 UNL     1      -4.476   7.754  13.255  1.00  0.00     0.010 C 
HETATM    7  C16 UNL     1      -5.337   7.039  14.298  1.00  0.00     0.036 C 
HETATM    8  C17 UNL     1      -6.030   5.765  13.827  1.00  0.00    -0.067 C 
HETATM    9  C18 UNL     1      -5.456   4.868  12.985  1.00  0.00    -0.076 C 
HETATM   10  C19 UNL     1      -6.212   3.674  12.420  1.00  0.00     0.037 C 
HETATM   11  C20 UNL     1      -7.710   3.663  12.687  1.00  0.00     0.037 C 
HETATM   12  C21 UNL     1      -8.014   4.131  14.101  1.00  0.00     0.130 C 
HETATM   13  C22 UNL     1      -7.480   5.577  14.360  1.00  0.00     0.002 C 
HETATM   14  C23 UNL     1      -7.561   5.843  15.883  1.00  0.00     0.022 C 
HETATM   15  C24 UNL     1      -8.409   6.580  13.636  1.00  0.00     0.022 C 
HETATM   16  C25 UNL     1      -4.010   4.866  12.500  1.00  0.00     0.039 C 
HETATM   17  C26 UNL     1      -2.961   5.658  13.306  1.00  0.00    -0.005 C 
HETATM   18  C27 UNL     1      -1.545   5.096  13.002  1.00  0.00     0.006 C 
HETATM   19  C28 UNL     1      -0.380   5.906  13.596  1.00  0.00     0.011 C 
HETATM   20  C29 UNL     1      -0.522   7.406  13.291  1.00  0.00    -0.022 C 
HETATM   21  C30 UNL     1      -0.286   7.566  11.755  1.00  0.00     0.017 C 
ENDROOT
BRANCH   1  22
HETATM   22  C2  UNL     1       1.952   8.313  13.761  1.00  0.00    -0.014 C 
HETATM   23  C1  UNL     1       2.396   9.656  13.155  1.00  0.00     0.010 C 
BRANCH  22  24
HETATM   24  C3  UNL     1       2.408   7.151  12.847  1.00  0.00     0.007 C 
BRANCH  24  25
HETATM   25  C4  UNL     1       3.281   7.594  11.653  1.00  0.00     0.035 C 
BRANCH  25  26
HETATM   26  C5  UNL     1       4.113   6.446  11.048  1.00  0.00     0.151 C 
BRANCH  26  27
HETATM   27  O1  UNL     1       5.272   7.016  10.413  1.00  0.00    -0.393 OA
HETATM   28  H10 UNL     1       4.944   7.719   9.825  1.00  0.00     0.210 HD
ENDBRANCH  26  27
BRANCH  26  29
HETATM   29  C6  UNL     1       3.356   5.583   9.997  1.00  0.00     0.076 C 
HETATM   30  C7  UNL     1       2.936   6.384   8.764  1.00  0.00     0.048 C 
HETATM   31  C8  UNL     1       2.114   4.935  10.627  1.00  0.00     0.048 C 
BRANCH  29  32
HETATM   32  O2  UNL     1       4.224   4.529   9.548  1.00  0.00    -0.388 OA
HETATM   33  H17 UNL     1       4.226   3.846  10.243  1.00  0.00     0.210 HD
ENDBRANCH  29  32
ENDBRANCH  26  29
ENDBRANCH  25  26
ENDBRANCH  24  25
ENDBRANCH  22  24
ENDBRANCH   1  22
BRANCH   4  34
HETATM   34  C13 UNL     1      -2.172   7.767  15.312  1.00  0.00     0.149 C 
HETATM   35  O3  UNL     1      -2.749   8.531  16.067  1.00  0.00    -0.649 OA
BRANCH  34  36
HETATM   36  O4  UNL     1      -1.622   6.652  15.835  1.00  0.00    -0.776 OA
HETATM   37  H23 UNL     1      -1.848   6.709  16.787  1.00  0.00     0.167 HD
ENDBRANCH  34  36
ENDBRANCH   4  34
BRANCH  12  38
HETATM   38  O5  UNL     1      -7.466   3.187  15.029  1.00  0.00    -0.394 OA
HETATM   39  H34 UNL     1      -6.498   3.297  15.019  1.00  0.00     0.210 HD
ENDBRANCH  12  38
TORSDOF 10
ENDMDL
MODEL 3
REMARK minimizedAffinity -9.25748253
REMARK  10 active torsions:
REMARK  status: ('A' for Active; 'I' for Inactive)
REMARK    1  A    between atoms: C2_2  and  C3_3 
REMARK    2  A    between atoms: C2_2  and  C9_11 
REMARK    3  A    between atoms: C3_3  and  C4_4 
REMARK    4  A    between atoms: C4_4  and  C5_5 
REMARK    5  A    between atoms: C5_5  and  O1_6 
REMARK    6  A    between atoms: C5_5  and  C6_7 
REMARK    7  A    between atoms: C6_7  and  O2_10 
REMARK    8  A    between atoms: C12_14  and  C13_15 
REMARK    9  A    between atoms: C13_15  and  O4_17 
REMARK   10  A    between atoms: C21_25  and  O5_26 
ROOT
HETATM    1  C9  UNL     1       0.804   6.835  12.551  1.00  0.00    -0.001 C 
HETATM    2  C10 UNL     1       1.036   5.568  13.418  1.00  0.00     0.007 C 
HETATM    3  C11 UNL     1      -0.336   5.193  14.036  1.00  0.00     0.022 C 
HETATM    4  C12 UNL     1      -1.361   6.045  13.256  1.00  0.00     0.057 C 
HETATM    5  C14 UNL     1      -2.731   6.339  13.932  1.00  0.00     0.010 C 
HETATM    6  C15 UNL     1      -3.533   5.090  14.336  1.00  0.00     0.010 C 
HETATM    7  C16 UNL     1      -4.636   4.653  13.369  1.00  0.00     0.036 C 
HETATM    8  C17 UNL     1      -5.952   5.415  13.474  1.00  0.00    -0.067 C 
HETATM    9  C18 UNL     1      -6.027   6.750  13.711  1.00  0.00    -0.076 C 
HETATM   10  C19 UNL     1      -7.348   7.467  13.946  1.00  0.00     0.037 C 
HETATM   11  C20 UNL     1      -8.563   6.564  14.109  1.00  0.00     0.037 C 
HETATM   12  C21 UNL     1      -8.513   5.405  13.127  1.00  0.00     0.130 C 
HETATM   13  C22 UNL     1      -7.228   4.537  13.320  1.00  0.00     0.002 C 
HETATM   14  C23 UNL     1      -7.116   3.586  12.103  1.00  0.00     0.022 C 
HETATM   15  C24 UNL     1      -7.400   3.683  14.598  1.00  0.00     0.022 C 
HETATM   16  C25 UNL     1      -4.866   7.738  13.750  1.00  0.00     0.039 C 
HETATM   17  C26 UNL     1      -3.541   7.345  13.067  1.00  0.00    -0.005 C 
HETATM   18  C27 UNL     1      -2.730   8.628  12.736  1.00  0.00     0.006 C 
HETATM   19  C28 UNL     1      -1.303   8.382  12.216  1.00  0.00     0.011 C 
HETATM   20  C29 UNL     1      -0.541   7.389  13.108  1.00  0.00    -0.022 C 
HETATM   21  C30 UNL     1      -0.277   8.126  14.460  1.00  0.00     0.017 C 
ENDROOT
BRANCH   1  22
HETATM   22  C2  UNL     1       2.001   7.820  12.383  1.00  0.00    -0.014 C 
HETATM   23  C1  UNL     1       1.554   9.006  11.512  1.00  0.00     0.010 C 
BRANCH  22  24
HETATM   24  C3  UNL     1       3.296   7.203  11.804  1.00  0.00     0.007 C 
BRANCH  24  25
HETATM   25  C4  UNL     1       3.418   7.324  10.269  1.00  0.00     0.035 C 
BRANCH  25  26
HETATM   26  C5  UNL     1       2.126   6.936   9.523  1.00  0.00     0.151 C 
BRANCH  26  27
HETATM   27  O1  UNL     1       2.067   5.500   9.442  1.00  0.00    -0.393 OA
HETATM   28  H10 UNL     1       2.923   5.212   9.079  1.00  0.00     0.210 HD
ENDBRANCH  26  27
BRANCH  26  29
HETATM   29  C6  UNL     1       2.012   7.513   8.082  1.00  0.00     0.076 C 
HETATM   30  C7  UNL     1       2.232   6.453   7.001  1.00  0.00     0.048 C 
HETATM   31  C8  UNL     1       3.017   8.657   7.880  1.00  0.00     0.048 C 
BRANCH  29  32
HETATM   32  O2  UNL     1       0.691   8.046   7.897  1.00  0.00    -0.388 OA
HETATM   33  H17 UNL     1       0.668   8.911   8.344  1.00  0.00     0.210 HD
ENDBRANCH  29  32
ENDBRANCH  26  29
ENDBRANCH  25  26
ENDBRANCH  24  25
ENDBRANCH  22  24
ENDBRANCH   1  22
BRANCH   4  34
HETATM   34  C13 UNL     1      -1.634   5.313  11.911  1.00  0.00     0.149 C 
HETATM   35  O3  UNL     1      -0.864   5.142  10.981  1.00  0.00    -0.649 OA
BRANCH  34  36
HETATM   36  O4  UNL     1      -2.902   4.871  11.776  1.00  0.00    -0.776 OA
HETATM   37  H23 UNL     1      -2.908   4.460  10.886  1.00  0.00     0.167 HD
ENDBRANCH  34  36
ENDBRANCH   4  34
BRANCH  12  38
HETATM   38  O5  UNL     1      -8.613   5.922  11.794  1.00  0.00    -0.394 OA
HETATM   39  H34 UNL     1      -7.765   6.355  11.587  1.00  0.00     0.210 HD
ENDBRANCH  12  38
TORSDOF 10
ENDMDL
MODEL 4
REMARK minimizedAffinity -9.20847797
REMARK  10 active torsions:
REMARK  status: ('A' for Active; 'I' for Inactive)
REMARK    1  A    between atoms: C2_2  and  C3_3 
REMARK    2  A    between atoms: C2_2  and  C9_11 
REMARK    3  A    between atoms: C3_3  and  C4_4 
REMARK    4  A    between atoms: C4_4  and  C5_5 
REMARK    5  A    between atoms: C5_5  and  O1_6 
REMARK    6  A    between atoms: C5_5  and  C6_7 
REMARK    7  A    between atoms: C6_7  and  O2_10 
REMARK    8  A    between atoms: C12_14  and  C13_15 
REMARK    9  A    between atoms: C13_15  and  O4_17 
REMARK   10  A    between atoms: C21_25  and  O5_26 
ROOT
HETATM    1  C9  UNL     1      -0.059   8.886  15.041  1.00  0.00    -0.001 C 
HETATM    2  C10 UNL     1      -0.736  10.130  14.402  1.00  0.00     0.007 C 
HETATM    3  C11 UNL     1      -2.013   9.623  13.683  1.00  0.00     0.022 C 
HETATM    4  C12 UNL     1      -2.205   8.180  14.201  1.00  0.00     0.057 C 
HETATM    5  C14 UNL     1      -3.036   7.197  13.329  1.00  0.00     0.010 C 
HETATM    6  C15 UNL     1      -4.469   7.662  13.017  1.00  0.00     0.010 C 
HETATM    7  C16 UNL     1      -5.576   7.077  13.896  1.00  0.00     0.036 C 
HETATM    8  C17 UNL     1      -6.051   5.677  13.523  1.00  0.00    -0.067 C 
HETATM    9  C18 UNL     1      -5.220   4.696  13.087  1.00  0.00    -0.076 C 
HETATM   10  C19 UNL     1      -5.730   3.350  12.591  1.00  0.00     0.037 C 
HETATM   11  C20 UNL     1      -7.239   3.247  12.416  1.00  0.00     0.037 C 
HETATM   12  C21 UNL     1      -7.967   3.942  13.554  1.00  0.00     0.130 C 
HETATM   13  C22 UNL     1      -7.587   5.455  13.647  1.00  0.00     0.002 C 
HETATM   14  C23 UNL     1      -8.129   5.995  14.994  1.00  0.00     0.022 C 
HETATM   15  C24 UNL     1      -8.293   6.209  12.496  1.00  0.00     0.022 C 
HETATM   16  C25 UNL     1      -3.697   4.741  13.046  1.00  0.00     0.039 C 
HETATM   17  C26 UNL     1      -2.965   5.767  13.934  1.00  0.00    -0.005 C 
HETATM   18  C27 UNL     1      -1.504   5.295  14.171  1.00  0.00     0.006 C 
HETATM   19  C28 UNL     1      -0.600   6.311  14.890  1.00  0.00     0.011 C 
HETATM   20  C29 UNL     1      -0.697   7.706  14.251  1.00  0.00    -0.022 C 
HETATM   21  C30 UNL     1      -0.019   7.595  12.848  1.00  0.00     0.017 C 
ENDROOT
BRANCH   1  22
HETATM   22  C2  UNL     1       1.490   8.917  15.207  1.00  0.00    -0.014 C 
HETATM   23  C1  UNL     1       1.833   9.479  16.598  1.00  0.00     0.010 C 
BRANCH  22  24
HETATM   24  C3  UNL     1       2.263   9.702  14.121  1.00  0.00     0.007 C 
BRANCH  24  25
HETATM   25  C4  UNL     1       3.790   9.748  14.344  1.00  0.00     0.035 C 
BRANCH  25  26
HETATM   26  C5  UNL     1       4.529   8.532  13.750  1.00  0.00     0.151 C 
BRANCH  26  27
HETATM   27  O1  UNL     1       3.555   7.515  13.454  1.00  0.00    -0.393 OA
HETATM   28  H10 UNL     1       3.029   7.396  14.265  1.00  0.00     0.210 HD
ENDBRANCH  26  27
BRANCH  26  29
HETATM   29  C6  UNL     1       5.612   7.916  14.682  1.00  0.00     0.076 C 
HETATM   30  C7  UNL     1       6.338   8.967  15.523  1.00  0.00     0.048 C 
HETATM   31  C8  UNL     1       6.643   7.126  13.860  1.00  0.00     0.048 C 
BRANCH  29  32
HETATM   32  O2  UNL     1       4.979   7.002  15.592  1.00  0.00    -0.388 OA
HETATM   33  H17 UNL     1       4.806   6.181  15.097  1.00  0.00     0.210 HD
ENDBRANCH  29  32
ENDBRANCH  26  29
ENDBRANCH  25  26
ENDBRANCH  24  25
ENDBRANCH  22  24
ENDBRANCH   1  22
BRANCH   4  34
HETATM   34  C13 UNL     1      -2.887   8.283  15.595  1.00  0.00     0.149 C 
HETATM   35  O3  UNL     1      -3.630   9.159  16.005  1.00  0.00    -0.649 OA
BRANCH  34  36
HETATM   36  O4  UNL     1      -2.554   7.286  16.442  1.00  0.00    -0.776 OA
HETATM   37  H23 UNL     1      -3.046   7.507  17.261  1.00  0.00     0.167 HD
ENDBRANCH  34  36
ENDBRANCH   4  34
BRANCH  12  38
HETATM   38  O5  UNL     1      -7.689   3.247  14.776  1.00  0.00    -0.394 OA
HETATM   39  H34 UNL     1      -6.766   3.445  15.020  1.00  0.00     0.210 HD
ENDBRANCH  12  38
TORSDOF 10
ENDMDL
MODEL 5
REMARK minimizedAffinity -9.17908478
REMARK  10 active torsions:
REMARK  status: ('A' for Active; 'I' for Inactive)
REMARK    1  A    between atoms: C2_2  and  C3_3 
REMARK    2  A    between atoms: C2_2  and  C9_11 
REMARK    3  A    between atoms: C3_3  and  C4_4 
REMARK    4  A    between atoms: C4_4  and  C5_5 
REMARK    5  A    between atoms: C5_5  and  O1_6 
REMARK    6  A    between atoms: C5_5  and  C6_7 
REMARK    7  A    between atoms: C6_7  and  O2_10 
REMARK    8  A    between atoms: C12_14  and  C13_15 
REMARK    9  A    between atoms: C13_15  and  O4_17 
REMARK   10  A    between atoms: C21_25  and  O5_26 
ROOT
HETATM    1  C9  UNL     1      -0.187   9.061  15.118  1.00  0.00    -0.001 C 
HETATM    2  C10 UNL     1      -0.913  10.302  14.533  1.00  0.00     0.007 C 
HETATM    3  C11 UNL     1      -2.177   9.777  13.804  1.00  0.00     0.022 C 
HETATM    4  C12 UNL     1      -2.312   8.309  14.266  1.00  0.00     0.057 C 
HETATM    5  C14 UNL     1      -3.113   7.330  13.362  1.00  0.00     0.010 C 
HETATM    6  C15 UNL     1      -4.565   7.753  13.078  1.00  0.00     0.010 C 
HETATM    7  C16 UNL     1      -5.643   7.094  13.942  1.00  0.00     0.036 C 
HETATM    8  C17 UNL     1      -6.069   5.693  13.517  1.00  0.00    -0.067 C 
HETATM    9  C18 UNL     1      -5.206   4.762  13.038  1.00  0.00    -0.076 C 
HETATM   10  C19 UNL     1      -5.670   3.418  12.494  1.00  0.00     0.037 C 
HETATM   11  C20 UNL     1      -7.175   3.265  12.324  1.00  0.00     0.037 C 
HETATM   12  C21 UNL     1      -7.919   3.889  13.494  1.00  0.00     0.130 C 
HETATM   13  C22 UNL     1      -7.594   5.410  13.643  1.00  0.00     0.002 C 
HETATM   14  C23 UNL     1      -8.145   5.877  15.013  1.00  0.00     0.022 C 
HETATM   15  C24 UNL     1      -8.337   6.182  12.526  1.00  0.00     0.022 C 
HETATM   16  C25 UNL     1      -3.685   4.864  12.988  1.00  0.00     0.039 C 
HETATM   17  C26 UNL     1      -2.985   5.881  13.910  1.00  0.00    -0.005 C 
HETATM   18  C27 UNL     1      -1.506   5.455  14.119  1.00  0.00     0.006 C 
HETATM   19  C28 UNL     1      -0.633   6.475  14.871  1.00  0.00     0.011 C 
HETATM   20  C29 UNL     1      -0.787   7.889  14.287  1.00  0.00    -0.022 C 
HETATM   21  C30 UNL     1      -0.117   7.858  12.876  1.00  0.00     0.017 C 
ENDROOT
BRANCH   1  22
HETATM   22  C2  UNL     1       1.362   9.143  15.275  1.00  0.00    -0.014 C 
HETATM   23  C1  UNL     1       1.857   7.888  16.015  1.00  0.00     0.010 C 
BRANCH  22  24
HETATM   24  C3  UNL     1       1.895  10.412  15.983  1.00  0.00     0.007 C 
BRANCH  24  25
HETATM   25  C4  UNL     1       1.101  10.807  17.247  1.00  0.00     0.035 C 
BRANCH  25  26
HETATM   26  C5  UNL     1       1.988  10.960  18.499  1.00  0.00     0.151 C 
BRANCH  26  27
HETATM   27  O1  UNL     1       2.712   9.731  18.691  1.00  0.00    -0.393 OA
HETATM   28  H10 UNL     1       2.050   9.018  18.668  1.00  0.00     0.210 HD
ENDBRANCH  26  27
BRANCH  26  29
HETATM   29  C6  UNL     1       1.209  11.278  19.808  1.00  0.00     0.076 C 
HETATM   30  C7  UNL     1       1.701  10.461  21.004  1.00  0.00     0.048 C 
HETATM   31  C8  UNL     1      -0.295  11.033  19.614  1.00  0.00     0.048 C 
BRANCH  29  32
HETATM   32  O2  UNL     1       1.392  12.666  20.133  1.00  0.00    -0.388 OA
HETATM   33  H17 UNL     1       0.802  13.176  19.550  1.00  0.00     0.210 HD
ENDBRANCH  29  32
ENDBRANCH  26  29
ENDBRANCH  25  26
ENDBRANCH  24  25
ENDBRANCH  22  24
ENDBRANCH   1  22
BRANCH   4  34
HETATM   34  C13 UNL     1      -2.986   8.332  15.668  1.00  0.00     0.149 C 
HETATM   35  O3  UNL     1      -3.779   9.149  16.106  1.00  0.00    -0.649 OA
BRANCH  34  36
HETATM   36  O4  UNL     1      -2.582   7.337  16.486  1.00  0.00    -0.776 OA
HETATM   37  H23 UNL     1      -3.079   7.506  17.314  1.00  0.00     0.167 HD
ENDBRANCH  34  36
ENDBRANCH   4  34
BRANCH  12  38
HETATM   38  O5  UNL     1      -7.606   3.158  14.686  1.00  0.00    -0.394 OA
HETATM   39  H34 UNL     1      -6.689   3.380  14.931  1.00  0.00     0.210 HD
ENDBRANCH  12  38
TORSDOF 10
ENDMDL
MODEL 6
REMARK minimizedAffinity -9.04778671
REMARK  10 active torsions:
REMARK  status: ('A' for Active; 'I' for Inactive)
REMARK    1  A    between atoms: C2_2  and  C3_3 
REMARK    2  A    between atoms: C2_2  and  C9_11 
REMARK    3  A    between atoms: C3_3  and  C4_4 
REMARK    4  A    between atoms: C4_4  and  C5_5 
REMARK    5  A    between atoms: C5_5  and  O1_6 
REMARK    6  A    between atoms: C5_5  and  C6_7 
REMARK    7  A    between atoms: C6_7  and  O2_10 
REMARK    8  A    between atoms: C12_14  and  C13_15 
REMARK    9  A    between atoms: C13_15  and  O4_17 
REMARK   10  A    between atoms: C21_25  and  O5_26 
ROOT
HETATM    1  C9  UNL     1      -2.246   7.048  13.879  1.00  0.00    -0.001 C 
HETATM    2  C10 UNL     1      -1.846   7.310  15.357  1.00  0.00     0.007 C 
HETATM    3  C11 UNL     1      -0.301   7.428  15.386  1.00  0.00     0.022 C 
HETATM    4  C12 UNL     1       0.109   7.559  13.903  1.00  0.00     0.057 C 
HETATM    5  C14 UNL     1       1.561   7.165  13.509  1.00  0.00     0.010 C 
HETATM    6  C15 UNL     1       2.665   7.933  14.256  1.00  0.00     0.010 C 
HETATM    7  C16 UNL     1       3.286   9.118  13.512  1.00  0.00     0.036 C 
HETATM    8  C17 UNL     1       4.357   8.770  12.485  1.00  0.00    -0.067 C 
HETATM    9  C18 UNL     1       4.293   7.680  11.678  1.00  0.00    -0.076 C 
HETATM   10  C19 UNL     1       5.434   7.276  10.755  1.00  0.00     0.037 C 
HETATM   11  C20 UNL     1       6.734   8.045  10.946  1.00  0.00     0.037 C 
HETATM   12  C21 UNL     1       6.461   9.521  11.185  1.00  0.00     0.130 C 
HETATM   13  C22 UNL     1       5.566   9.749  12.446  1.00  0.00     0.002 C 
HETATM   14  C23 UNL     1       5.098  11.225  12.432  1.00  0.00     0.022 C 
HETATM   15  C24 UNL     1       6.431   9.519  13.709  1.00  0.00     0.022 C 
HETATM   16  C25 UNL     1       3.115   6.725  11.523  1.00  0.00     0.039 C 
HETATM   17  C26 UNL     1       1.716   7.202  11.962  1.00  0.00    -0.005 C 
HETATM   18  C27 UNL     1       0.632   6.359  11.238  1.00  0.00     0.006 C 
HETATM   19  C28 UNL     1      -0.810   6.602  11.715  1.00  0.00     0.011 C 
HETATM   20  C29 UNL     1      -0.915   6.546  13.248  1.00  0.00    -0.022 C 
HETATM   21  C30 UNL     1      -0.680   5.055  13.651  1.00  0.00     0.017 C 
ENDROOT
BRANCH   1  22
HETATM   22  C2  UNL     1      -3.546   6.228  13.621  1.00  0.00    -0.014 C 
HETATM   23  C1  UNL     1      -4.523   6.458  14.788  1.00  0.00     0.010 C 
BRANCH  22  24
HETATM   24  C3  UNL     1      -3.345   4.711  13.399  1.00  0.00     0.007 C 
BRANCH  24  25
HETATM   25  C4  UNL     1      -3.592   4.250  11.946  1.00  0.00     0.035 C 
BRANCH  25  26
HETATM   26  C5  UNL     1      -4.081   2.791  11.845  1.00  0.00     0.151 C 
BRANCH  26  27
HETATM   27  O1  UNL     1      -3.148   2.058  11.030  1.00  0.00    -0.393 OA
HETATM   28  H10 UNL     1      -3.036   2.574  10.212  1.00  0.00     0.210 HD
ENDBRANCH  26  27
BRANCH  26  29
HETATM   29  C6  UNL     1      -5.501   2.625  11.231  1.00  0.00     0.076 C 
HETATM   30  C7  UNL     1      -6.543   3.524  11.898  1.00  0.00     0.048 C 
HETATM   31  C8  UNL     1      -5.961   1.163  11.325  1.00  0.00     0.048 C 
BRANCH  29  32
HETATM   32  O2  UNL     1      -5.452   2.985   9.841  1.00  0.00    -0.388 OA
HETATM   33  H17 UNL     1      -5.059   2.231   9.365  1.00  0.00     0.210 HD
ENDBRANCH  29  32
ENDBRANCH  26  29
ENDBRANCH  25  26
ENDBRANCH  24  25
ENDBRANCH  22  24
ENDBRANCH   1  22
BRANCH   4  34
HETATM   34  C13 UNL     1      -0.115   9.044  13.496  1.00  0.00     0.149 C 
HETATM   35  O3  UNL     1      -1.173   9.641  13.389  1.00  0.00    -0.649 OA
BRANCH  34  36
HETATM   36  O4  UNL     1       1.021   9.703  13.185  1.00  0.00    -0.776 OA
HETATM   37  H23 UNL     1       0.706  10.599  12.940  1.00  0.00     0.167 HD
ENDBRANCH  34  36
ENDBRANCH   4  34
BRANCH  12  38
HETATM   38  O5  UNL     1       5.870  10.081  10.005  1.00  0.00    -0.394 OA
HETATM   39  H34 UNL     1       4.956   9.746   9.952  1.00  0.00     0.210 HD
ENDBRANCH  12  38
TORSDOF 10
ENDMDL
MODEL 7
REMARK minimizedAffinity -8.80443096
REMARK  10 active torsions:
REMARK  status: ('A' for Active; 'I' for Inactive)
REMARK    1  A    between atoms: C2_2  and  C3_3 
REMARK    2  A    between atoms: C2_2  and  C9_11 
REMARK    3  A    between atoms: C3_3  and  C4_4 
REMARK    4  A    between atoms: C4_4  and  C5_5 
REMARK    5  A    between atoms: C5_5  and  O1_6 
REMARK    6  A    between atoms: C5_5  and  C6_7 
REMARK    7  A    between atoms: C6_7  and  O2_10 
REMARK    8  A    between atoms: C12_14  and  C13_15 
REMARK    9  A    between atoms: C13_15  and  O4_17 
REMARK   10  A    between atoms: C21_25  and  O5_26 
ROOT
HETATM    1  C9  UNL     1      -2.664   7.581  14.043  1.00  0.00    -0.001 C 
HETATM    2  C10 UNL     1      -2.251   7.460  15.535  1.00  0.00     0.007 C 
HETATM    3  C11 UNL     1      -0.724   7.196  15.555  1.00  0.00     0.022 C 
HETATM    4  C12 UNL     1      -0.256   7.498  14.114  1.00  0.00     0.057 C 
HETATM    5  C14 UNL     1       1.068   6.848  13.625  1.00  0.00     0.010 C 
HETATM    6  C15 UNL     1       2.305   7.175  14.481  1.00  0.00     0.010 C 
HETATM    7  C16 UNL     1       3.210   8.293  13.960  1.00  0.00     0.036 C 
HETATM    8  C17 UNL     1       4.193   7.895  12.864  1.00  0.00    -0.067 C 
HETATM    9  C18 UNL     1       3.891   7.023  11.869  1.00  0.00    -0.076 C 
HETATM   10  C19 UNL     1       4.926   6.535  10.865  1.00  0.00     0.037 C 
HETATM   11  C20 UNL     1       6.367   6.920  11.170  1.00  0.00     0.037 C 
HETATM   12  C21 UNL     1       6.449   8.348  11.686  1.00  0.00     0.130 C 
HETATM   13  C22 UNL     1       5.602   8.544  12.985  1.00  0.00     0.002 C 
HETATM   14  C23 UNL     1       5.502  10.066  13.256  1.00  0.00     0.022 C 
HETATM   15  C24 UNL     1       6.354   7.883  14.165  1.00  0.00     0.022 C 
HETATM   16  C25 UNL     1       2.523   6.424  11.562  1.00  0.00     0.039 C 
HETATM   17  C26 UNL     1       1.268   7.133  12.110  1.00  0.00    -0.005 C 
HETATM   18  C27 UNL     1       0.033   6.725  11.262  1.00  0.00     0.006 C 
HETATM   19  C28 UNL     1      -1.321   7.214  11.805  1.00  0.00     0.011 C 
HETATM   20  C29 UNL     1      -1.475   6.901  13.302  1.00  0.00    -0.022 C 
HETATM   21  C30 UNL     1      -1.616   5.349  13.415  1.00  0.00     0.017 C 
ENDROOT
BRANCH   1  22
HETATM   22  C2  UNL     1      -4.116   7.161  13.662  1.00  0.00    -0.014 C 
HETATM   23  C1  UNL     1      -4.867   8.389  13.119  1.00  0.00     0.010 C 
BRANCH  22  24
HETATM   24  C3  UNL     1      -4.939   6.502  14.795  1.00  0.00     0.007 C 
BRANCH  24  25
HETATM   25  C4  UNL     1      -5.596   5.162  14.398  1.00  0.00     0.035 C 
BRANCH  25  26
HETATM   26  C5  UNL     1      -7.124   5.263  14.219  1.00  0.00     0.151 C 
BRANCH  26  27
HETATM   27  O1  UNL     1      -7.751   4.729  15.399  1.00  0.00    -0.393 OA
HETATM   28  H10 UNL     1      -7.352   3.854  15.548  1.00  0.00     0.210 HD
ENDBRANCH  26  27
BRANCH  26  29
HETATM   29  C6  UNL     1      -7.682   4.503  12.982  1.00  0.00     0.076 C 
HETATM   30  C7  UNL     1      -6.584   3.834  12.153  1.00  0.00     0.048 C 
HETATM   31  C8  UNL     1      -8.485   5.454  12.082  1.00  0.00     0.048 C 
BRANCH  29  32
HETATM   32  O2  UNL     1      -8.569   3.466  13.433  1.00  0.00    -0.388 OA
HETATM   33  H17 UNL     1      -9.413   3.895  13.665  1.00  0.00     0.210 HD
ENDBRANCH  29  32
ENDBRANCH  26  29
ENDBRANCH  25  26
ENDBRANCH  24  25
ENDBRANCH  22  24
ENDBRANCH   1  22
BRANCH   4  34
HETATM   34  C13 UNL     1      -0.108   9.042  13.997  1.00  0.00     0.149 C 
HETATM   35  O3  UNL     1       0.247   9.829  14.858  1.00  0.00    -0.649 OA
BRANCH  34  36
HETATM   36  O4  UNL     1      -0.469   9.537  12.794  1.00  0.00    -0.776 OA
HETATM   37  H23 UNL     1      -0.334  10.503  12.894  1.00  0.00     0.167 HD
ENDBRANCH  34  36
ENDBRANCH   4  34
BRANCH  12  38
HETATM   38  O5  UNL     1       6.041   9.242  10.644  1.00  0.00    -0.394 OA
HETATM   39  H34 UNL     1       5.075   9.153  10.546  1.00  0.00     0.210 HD
ENDBRANCH  12  38
TORSDOF 10
ENDMDL
MODEL 8
REMARK minimizedAffinity -8.62214565
REMARK  10 active torsions:
REMARK  status: ('A' for Active; 'I' for Inactive)
REMARK    1  A    between atoms: C2_2  and  C3_3 
REMARK    2  A    between atoms: C2_2  and  C9_11 
REMARK    3  A    between atoms: C3_3  and  C4_4 
REMARK    4  A    between atoms: C4_4  and  C5_5 
REMARK    5  A    between atoms: C5_5  and  O1_6 
REMARK    6  A    between atoms: C5_5  and  C6_7 
REMARK    7  A    between atoms: C6_7  and  O2_10 
REMARK    8  A    between atoms: C12_14  and  C13_15 
REMARK    9  A    between atoms: C13_15  and  O4_17 
REMARK   10  A    between atoms: C21_25  and  O5_26 
ROOT
HETATM    1  C9  UNL     1       0.838   7.159  12.587  1.00  0.00    -0.001 C 
HETATM    2  C10 UNL     1       1.122   5.961  13.533  1.00  0.00     0.007 C 
HETATM    3  C11 UNL     1      -0.238   5.551  14.154  1.00  0.00     0.022 C 
HETATM    4  C12 UNL     1      -1.294   6.298  13.309  1.00  0.00     0.057 C 
HETATM    5  C14 UNL     1      -2.688   6.558  13.946  1.00  0.00     0.010 C 
HETATM    6  C15 UNL     1      -3.431   5.295  14.415  1.00  0.00     0.010 C 
HETATM    7  C16 UNL     1      -4.492   4.741  13.461  1.00  0.00     0.036 C 
HETATM    8  C17 UNL     1      -5.848   5.436  13.500  1.00  0.00    -0.067 C 
HETATM    9  C18 UNL     1      -5.997   6.776  13.654  1.00  0.00    -0.076 C 
HETATM   10  C19 UNL     1      -7.359   7.435  13.826  1.00  0.00     0.037 C 
HETATM   11  C20 UNL     1      -8.527   6.479  14.028  1.00  0.00     0.037 C 
HETATM   12  C21 UNL     1      -8.399   5.267  13.120  1.00  0.00     0.130 C 
HETATM   13  C22 UNL     1      -7.073   4.483  13.383  1.00  0.00     0.002 C 
HETATM   14  C23 UNL     1      -6.889   3.467  12.229  1.00  0.00     0.022 C 
HETATM   15  C24 UNL     1      -7.221   3.700  14.709  1.00  0.00     0.022 C 
HETATM   16  C25 UNL     1      -4.891   7.826  13.648  1.00  0.00     0.039 C 
HETATM   17  C26 UNL     1      -3.535   7.465  13.010  1.00  0.00    -0.005 C 
HETATM   18  C27 UNL     1      -2.789   8.767  12.611  1.00  0.00     0.006 C 
HETATM   19  C28 UNL     1      -1.342   8.567  12.127  1.00  0.00     0.011 C 
HETATM   20  C29 UNL     1      -0.543   7.673  13.089  1.00  0.00    -0.022 C 
HETATM   21  C30 UNL     1      -0.342   8.504  14.397  1.00  0.00     0.017 C 
ENDROOT
BRANCH   1  22
HETATM   22  C2  UNL     1       1.984   8.195  12.375  1.00  0.00    -0.014 C 
HETATM   23  C1  UNL     1       2.325   8.264  10.877  1.00  0.00     0.010 C 
BRANCH  22  24
HETATM   24  C3  UNL     1       3.272   7.942  13.194  1.00  0.00     0.007 C 
BRANCH  24  25
HETATM   25  C4  UNL     1       4.495   8.751  12.710  1.00  0.00     0.035 C 
BRANCH  25  26
HETATM   26  C5  UNL     1       5.771   7.897  12.567  1.00  0.00     0.151 C 
BRANCH  26  27
HETATM   27  O1  UNL     1       5.380   6.557  12.217  1.00  0.00    -0.393 OA
HETATM   28  H10 UNL     1       4.706   6.291  12.868  1.00  0.00     0.210 HD
ENDBRANCH  26  27
BRANCH  26  29
HETATM   29  C6  UNL     1       6.651   7.831  13.849  1.00  0.00     0.076 C 
HETATM   30  C7  UNL     1       6.405   9.005  14.798  1.00  0.00     0.048 C 
HETATM   31  C8  UNL     1       8.141   7.785  13.478  1.00  0.00     0.048 C 
BRANCH  29  32
HETATM   32  O2  UNL     1       6.336   6.627  14.568  1.00  0.00    -0.388 OA
HETATM   33  H17 UNL     1       6.788   5.896  14.110  1.00  0.00     0.210 HD
ENDBRANCH  29  32
ENDBRANCH  26  29
ENDBRANCH  25  26
ENDBRANCH  24  25
ENDBRANCH  22  24
ENDBRANCH   1  22
BRANCH   4  34
HETATM   34  C13 UNL     1      -1.505   5.472  12.007  1.00  0.00     0.149 C 
HETATM   35  O3  UNL     1      -1.906   4.325  11.904  1.00  0.00    -0.649 OA
BRANCH  34  36
HETATM   36  O4  UNL     1      -1.143   6.123  10.882  1.00  0.00    -0.776 OA
HETATM   37  H23 UNL     1      -1.320   5.470  10.173  1.00  0.00     0.167 HD
ENDBRANCH  34  36
ENDBRANCH   4  34
BRANCH  12  38
HETATM   38  O5  UNL     1      -8.502   5.695  11.756  1.00  0.00    -0.394 OA
HETATM   39  H34 UNL     1      -7.675   6.161  11.534  1.00  0.00     0.210 HD
ENDBRANCH  12  38
TORSDOF 10
ENDMDL
MODEL 9
REMARK minimizedAffinity -8.59745026
REMARK  10 active torsions:
REMARK  status: ('A' for Active; 'I' for Inactive)
REMARK    1  A    between atoms: C2_2  and  C3_3 
REMARK    2  A    between atoms: C2_2  and  C9_11 
REMARK    3  A    between atoms: C3_3  and  C4_4 
REMARK    4  A    between atoms: C4_4  and  C5_5 
REMARK    5  A    between atoms: C5_5  and  O1_6 
REMARK    6  A    between atoms: C5_5  and  C6_7 
REMARK    7  A    between atoms: C6_7  and  O2_10 
REMARK    8  A    between atoms: C12_14  and  C13_15 
REMARK    9  A    between atoms: C13_15  and  O4_17 
REMARK   10  A    between atoms: C21_25  and  O5_26 
ROOT
HETATM    1  C9  UNL     1      -2.988   7.244  13.403  1.00  0.00    -0.001 C 
HETATM    2  C10 UNL     1      -3.085   8.432  12.407  1.00  0.00     0.007 C 
HETATM    3  C11 UNL     1      -1.668   9.056  12.318  1.00  0.00     0.022 C 
HETATM    4  C12 UNL     1      -0.744   8.022  12.998  1.00  0.00     0.057 C 
HETATM    5  C14 UNL     1       0.616   8.520  13.566  1.00  0.00     0.010 C 
HETATM    6  C15 UNL     1       1.534   9.204  12.539  1.00  0.00     0.010 C 
HETATM    7  C16 UNL     1       2.640   8.334  11.937  1.00  0.00     0.036 C 
HETATM    8  C17 UNL     1       3.889   8.160  12.795  1.00  0.00    -0.067 C 
HETATM    9  C18 UNL     1       3.856   8.024  14.145  1.00  0.00    -0.076 C 
HETATM   10  C19 UNL     1       5.118   7.987  14.995  1.00  0.00     0.037 C 
HETATM   11  C20 UNL     1       6.410   8.323  14.264  1.00  0.00     0.037 C 
HETATM   12  C21 UNL     1       6.430   7.695  12.880  1.00  0.00     0.130 C 
HETATM   13  C22 UNL     1       5.230   8.182  12.005  1.00  0.00     0.002 C 
HETATM   14  C23 UNL     1       5.163   7.276  10.751  1.00  0.00     0.022 C 
HETATM   15  C24 UNL     1       5.513   9.633  11.548  1.00  0.00     0.022 C 
HETATM   16  C25 UNL     1       2.616   7.855  15.017  1.00  0.00     0.039 C 
HETATM   17  C26 UNL     1       1.310   7.374  14.355  1.00  0.00    -0.005 C 
HETATM   18  C27 UNL     1       0.383   6.752  15.434  1.00  0.00     0.006 C 
HETATM   19  C28 UNL     1      -1.033   6.393  14.950  1.00  0.00     0.011 C 
HETATM   20  C29 UNL     1      -1.680   7.559  14.186  1.00  0.00    -0.022 C 
HETATM   21  C30 UNL     1      -1.965   8.674  15.243  1.00  0.00     0.017 C 
ENDROOT
BRANCH   1  22
HETATM   22  C2  UNL     1      -4.270   6.880  14.212  1.00  0.00    -0.014 C 
HETATM   23  C1  UNL     1      -3.855   6.168  15.511  1.00  0.00     0.010 C 
BRANCH  22  24
HETATM   24  C3  UNL     1      -5.315   6.024  13.457  1.00  0.00     0.007 C 
BRANCH  24  25
HETATM   25  C4  UNL     1      -4.834   4.596  13.120  1.00  0.00     0.035 C 
BRANCH  25  26
HETATM   26  C5  UNL     1      -5.793   3.837  12.180  1.00  0.00     0.151 C 
BRANCH  26  27
HETATM   27  O1  UNL     1      -6.821   3.228  12.982  1.00  0.00    -0.393 OA
HETATM   28  H10 UNL     1      -6.362   2.734  13.685  1.00  0.00     0.210 HD
ENDBRANCH  26  27
BRANCH  26  29
HETATM   29  C6  UNL     1      -5.116   2.727  11.326  1.00  0.00     0.076 C 
HETATM   30  C7  UNL     1      -5.885   1.405  11.356  1.00  0.00     0.048 C 
HETATM   31  C8  UNL     1      -3.675   2.484  11.801  1.00  0.00     0.048 C 
BRANCH  29  32
HETATM   32  O2  UNL     1      -5.064   3.160   9.957  1.00  0.00    -0.388 OA
HETATM   33  H17 UNL     1      -4.326   3.791   9.886  1.00  0.00     0.210 HD
ENDBRANCH  29  32
ENDBRANCH  26  29
ENDBRANCH  25  26
ENDBRANCH  24  25
ENDBRANCH  22  24
ENDBRANCH   1  22
BRANCH   4  34
HETATM   34  C13 UNL     1      -0.450   6.912  11.949  1.00  0.00     0.149 C 
HETATM   35  O3  UNL     1      -0.282   7.041  10.748  1.00  0.00    -0.649 OA
BRANCH  34  36
HETATM   36  O4  UNL     1      -0.433   5.664  12.462  1.00  0.00    -0.776 OA
HETATM   37  H23 UNL     1      -0.256   5.097  11.682  1.00  0.00     0.167 HD
ENDBRANCH  34  36
ENDBRANCH   4  34
BRANCH  12  38
HETATM   38  O5  UNL     1       6.444   6.269  13.018  1.00  0.00    -0.394 OA
HETATM   39  H34 UNL     1       5.556   5.997  13.314  1.00  0.00     0.210 HD
ENDBRANCH  12  38
TORSDOF 10
ENDMDL
