MODEL 1
REMARK minimizedAffinity -6.90821934
REMARK CNNscore 0.557213366
REMARK CNNaffinity 6.82553101
REMARK  10 active torsions:
REMARK  status: ('A' for Active; 'I' for Inactive)
REMARK    1  A    between atoms: C2_2  and  O2_4 
REMARK    2  A    between atoms: O2_4  and  C3_5 
REMARK    3  A    between atoms: C10_12  and  O3_13 
REMARK    4  A    between atoms: O3_13  and  C11_14 
REMARK    5  A    between atoms: C13_17  and  O5_18 
REMARK    6  A    between atoms: C14_19  and  O6_20 
REMARK    7  A    between atoms: C15_21  and  O7_22 
REMARK    8  A    between atoms: C27_35  and  O9_36 
REMARK    9  A    between atoms: C27_35  and  C28_37 
REMARK   10  A    between atoms: C28_37  and  C29_39 
ROOT
HETATM    1  C3  UNL     1       0.522  17.024   8.130  1.00  0.00     0.142 C 
HETATM    2  C4  UNL     1       0.900  16.894   6.649  1.00  0.00     0.044 C 
HETATM    3  C5  UNL     1      -0.191  16.176   5.870  1.00  0.00    -0.025 A 
HETATM    4  C6  UNL     1       0.175  14.738   5.536  1.00  0.00     0.021 A 
HETATM    5  C7  UNL     1       0.027  15.735   4.411  1.00  0.00    -0.027 A 
HETATM    6  C8  UNL     1       1.276  16.227   3.703  1.00  0.00     0.013 C 
HETATM    7  C9  UNL     1       1.597  15.378   2.484  1.00  0.00     0.034 C 
HETATM    8  C10 UNL     1       0.405  15.305   1.528  1.00  0.00     0.133 C 
HETATM    9  C16 UNL     1      -0.876  14.734   2.220  1.00  0.00    -0.017 C 
HETATM   10  C17 UNL     1      -0.705  13.240   2.577  1.00  0.00     0.018 C 
HETATM   11  C18 UNL     1      -2.041  14.819   1.205  1.00  0.00     0.018 C 
HETATM   12  C19 UNL     1      -1.187  15.622   3.478  1.00  0.00     0.005 C 
HETATM   13  C20 UNL     1      -2.453  15.216   4.248  1.00  0.00     0.007 C 
HETATM   14  C21 UNL     1      -2.745  16.227   5.347  1.00  0.00     0.007 C 
HETATM   15  C22 UNL     1      -1.616  16.461   6.382  1.00  0.00     0.004 C 
HETATM   16  C23 UNL     1      -1.720  17.888   7.073  1.00  0.00    -0.027 C 
HETATM   17  C24 UNL     1      -1.595  19.023   6.022  1.00  0.00     0.016 C 
HETATM   18  C25 UNL     1      -3.124  18.012   7.762  1.00  0.00     0.042 C 
HETATM   19  C26 UNL     1      -2.828  18.518   9.158  1.00  0.00     0.131 C 
HETATM   20  O8  UNL     1      -3.863  18.282  10.091  1.00  0.00    -0.343 OA
HETATM   21  C27 UNL     1      -3.586  18.915  11.346  1.00  0.00     0.225 C 
HETATM   22  C32 UNL     1      -2.065  19.066  11.633  1.00  0.00     0.081 C 
HETATM   23  C33 UNL     1      -1.252  17.904  11.033  1.00  0.00    -0.006 C 
HETATM   24  C34 UNL     1       0.199  17.938  11.482  1.00  0.00     0.010 C 
HETATM   25  C35 UNL     1      -1.563  17.729   9.527  1.00  0.00     0.030 C 
HETATM   26  C36 UNL     1      -0.646  18.049   8.295  1.00  0.00    -0.003 C 
HETATM   27  C37 UNL     1      -0.063  19.486   8.388  1.00  0.00     0.019 C 
ENDROOT
BRANCH   8  28
HETATM   28  O3  UNL     1       0.780  14.480   0.415  1.00  0.00    -0.353 OA
BRANCH  28  29
HETATM   29  C11 UNL     1       1.060  15.238  -0.773  1.00  0.00     0.291 C 
HETATM   30  O4  UNL     1       2.411  15.055  -1.219  1.00  0.00    -0.356 OA
HETATM   31  C12 UNL     1       2.559  13.963  -2.117  1.00  0.00     0.205 C 
HETATM   32  C13 UNL     1       1.811  14.211  -3.437  1.00  0.00     0.173 C 
HETATM   33  C14 UNL     1       0.561  15.101  -3.232  1.00  0.00     0.182 C 
HETATM   34  C15 UNL     1      -0.002  14.842  -1.836  1.00  0.00     0.204 C 
BRANCH  32  35
HETATM   35  O5  UNL     1       1.434  12.945  -3.989  1.00  0.00    -0.391 OA
HETATM   36  H18 UNL     1       0.702  12.607  -3.432  1.00  0.00     0.210 HD
ENDBRANCH  32  35
BRANCH  33  37
HETATM   37  O6  UNL     1       0.826  16.499  -3.383  1.00  0.00    -0.390 OA
HETATM   38  H20 UNL     1       1.739  16.618  -3.702  1.00  0.00     0.210 HD
ENDBRANCH  33  37
BRANCH  34  39
HETATM   39  O7  UNL     1      -0.343  13.442  -1.719  1.00  0.00    -0.388 OA
HETATM   40  H22 UNL     1      -0.289  13.260  -0.757  1.00  0.00     0.210 HD
ENDBRANCH  34  39
ENDBRANCH  28  29
ENDBRANCH   8  28
BRANCH   1  41
HETATM   41  O2  UNL     1       1.687  17.461   8.861  1.00  0.00    -0.315 OA
BRANCH  41  42
HETATM   42  C2  UNL     1       2.498  16.484   9.351  1.00  0.00     0.255 C 
HETATM   43  C1  UNL     1       3.876  16.635   8.778  1.00  0.00     0.126 C 
HETATM   44  O1  UNL     1       2.171  15.614  10.147  1.00  0.00    -0.266 OA
ENDBRANCH  41  42
ENDBRANCH   1  41
BRANCH  21  45
HETATM   45  O9  UNL     1      -4.112  20.233  11.271  1.00  0.00    -0.359 OA
HETATM   46  H41 UNL     1      -4.966  20.133  10.817  1.00  0.00     0.213 HD
ENDBRANCH  21  45
BRANCH  21  47
HETATM   47  C28 UNL     1      -4.273  18.082  12.482  1.00  0.00     0.192 C 
HETATM   48  O10 UNL     1      -3.811  17.002  12.870  1.00  0.00    -0.292 OA
BRANCH  47  49
HETATM   49  C29 UNL     1      -5.566  18.644  13.087  1.00  0.00     0.053 C 
HETATM   50  C30 UNL     1      -6.730  18.526  12.110  1.00  0.00     0.017 C 
HETATM   51  C31 UNL     1      -5.911  17.932  14.397  1.00  0.00     0.017 C 
ENDBRANCH  47  49
ENDBRANCH  21  47
TORSDOF 10
ENDMDL
MODEL 2
REMARK minimizedAffinity -10.9485397
REMARK CNNscore 0.495486498
REMARK CNNaffinity 7.59946203
REMARK  10 active torsions:
REMARK  status: ('A' for Active; 'I' for Inactive)
REMARK    1  A    between atoms: C2_2  and  O2_4 
REMARK    2  A    between atoms: O2_4  and  C3_5 
REMARK    3  A    between atoms: C10_12  and  O3_13 
REMARK    4  A    between atoms: O3_13  and  C11_14 
REMARK    5  A    between atoms: C13_17  and  O5_18 
REMARK    6  A    between atoms: C14_19  and  O6_20 
REMARK    7  A    between atoms: C15_21  and  O7_22 
REMARK    8  A    between atoms: C27_35  and  O9_36 
REMARK    9  A    between atoms: C27_35  and  C28_37 
REMARK   10  A    between atoms: C28_37  and  C29_39 
ROOT
HETATM    1  C3  UNL     1      -1.287   8.370  13.166  1.00  0.00     0.142 C 
HETATM    2  C4  UNL     1      -2.480   8.118  14.096  1.00  0.00     0.044 C 
HETATM    3  C5  UNL     1      -3.510   7.219  13.429  1.00  0.00    -0.025 A 
HETATM    4  C6  UNL     1      -4.734   7.985  12.947  1.00  0.00     0.021 A 
HETATM    5  C7  UNL     1      -4.893   6.978  14.063  1.00  0.00    -0.027 A 
HETATM    6  C8  UNL     1      -5.119   7.485  15.475  1.00  0.00     0.013 C 
HETATM    7  C9  UNL     1      -6.601   7.599  15.796  1.00  0.00     0.034 C 
HETATM    8  C10 UNL     1      -7.325   6.273  15.555  1.00  0.00     0.133 C 
HETATM    9  C16 UNL     1      -7.162   5.768  14.085  1.00  0.00    -0.017 C 
HETATM   10  C17 UNL     1      -7.906   6.684  13.088  1.00  0.00     0.018 C 
HETATM   11  C18 UNL     1      -7.824   4.372  13.987  1.00  0.00     0.018 C 
HETATM   12  C19 UNL     1      -5.625   5.661  13.773  1.00  0.00     0.005 C 
HETATM   13  C20 UNL     1      -5.295   5.130  12.370  1.00  0.00     0.007 C 
HETATM   14  C21 UNL     1      -3.794   4.921  12.229  1.00  0.00     0.007 C 
HETATM   15  C22 UNL     1      -2.901   6.162  12.489  1.00  0.00     0.004 C 
HETATM   16  C23 UNL     1      -1.428   5.760  12.928  1.00  0.00    -0.027 C 
HETATM   17  C24 UNL     1      -1.447   4.947  14.250  1.00  0.00     0.016 C 
HETATM   18  C25 UNL     1      -0.797   4.860  11.809  1.00  0.00     0.042 C 
HETATM   19  C26 UNL     1       0.568   5.461  11.550  1.00  0.00     0.131 C 
HETATM   20  O8  UNL     1       1.128   5.112  10.301  1.00  0.00    -0.343 OA
HETATM   21  C27 UNL     1       2.474   5.587  10.184  1.00  0.00     0.225 C 
HETATM   22  C32 UNL     1       2.747   6.868  11.022  1.00  0.00     0.081 C 
HETATM   23  C33 UNL     1       1.500   7.767  11.113  1.00  0.00    -0.006 C 
HETATM   24  C34 UNL     1       1.816   9.109  11.752  1.00  0.00     0.010 C 
HETATM   25  C35 UNL     1       0.276   6.968  11.622  1.00  0.00     0.030 C 
HETATM   26  C36 UNL     1      -0.445   7.063  13.011  1.00  0.00    -0.003 C 
HETATM   27  C37 UNL     1       0.574   6.965  14.181  1.00  0.00     0.019 C 
ENDROOT
BRANCH   8  28
HETATM   28  O3  UNL     1      -8.713   6.465  15.866  1.00  0.00    -0.353 OA
BRANCH  28  29
HETATM   29  C11 UNL     1      -9.292   7.584  15.174  1.00  0.00     0.291 C 
HETATM   30  O4  UNL     1     -10.428   7.198  14.390  1.00  0.00    -0.356 OA
HETATM   31  C12 UNL     1     -11.652   7.262  15.111  1.00  0.00     0.205 C 
HETATM   32  C13 UNL     1     -12.001   8.707  15.503  1.00  0.00     0.173 C 
HETATM   33  C14 UNL     1     -10.733   9.569  15.717  1.00  0.00     0.182 C 
HETATM   34  C15 UNL     1      -9.612   8.670  16.237  1.00  0.00     0.204 C 
BRANCH  32  35
HETATM   35  O5  UNL     1     -12.788   8.675  16.699  1.00  0.00    -0.391 OA
HETATM   36  H18 UNL     1     -12.175   8.438  17.426  1.00  0.00     0.210 HD
ENDBRANCH  32  35
BRANCH  33  37
HETATM   37  O6  UNL     1     -10.291  10.238  14.532  1.00  0.00    -0.390 OA
HETATM   38  H20 UNL     1     -10.952  10.108  13.827  1.00  0.00     0.210 HD
ENDBRANCH  33  37
BRANCH  34  39
HETATM   39  O7  UNL     1     -10.036   8.061  17.478  1.00  0.00    -0.388 OA
HETATM   40  H22 UNL     1      -9.509   7.235  17.533  1.00  0.00     0.210 HD
ENDBRANCH  34  39
ENDBRANCH  28  29
ENDBRANCH   8  28
BRANCH   1  41
HETATM   41  O2  UNL     1      -0.484   9.427  13.732  1.00  0.00    -0.315 OA
BRANCH  41  42
HETATM   42  C2  UNL     1      -1.156  10.426  14.369  1.00  0.00     0.255 C 
HETATM   43  C1  UNL     1      -0.897  10.349  15.844  1.00  0.00     0.126 C 
HETATM   44  O1  UNL     1      -1.860  11.270  13.832  1.00  0.00    -0.266 OA
ENDBRANCH  41  42
ENDBRANCH   1  41
BRANCH  21  45
HETATM   45  O9  UNL     1       3.319   4.574  10.713  1.00  0.00    -0.359 OA
HETATM   46  H41 UNL     1       2.938   3.740  10.390  1.00  0.00     0.213 HD
ENDBRANCH  21  45
BRANCH  21  47
HETATM   47  C28 UNL     1       2.773   5.854   8.668  1.00  0.00     0.192 C 
HETATM   48  O10 UNL     1       3.461   5.081   7.992  1.00  0.00    -0.292 OA
BRANCH  47  49
HETATM   49  C29 UNL     1       2.197   7.135   8.050  1.00  0.00     0.053 C 
HETATM   50  C30 UNL     1       3.190   8.288   8.143  1.00  0.00     0.017 C 
HETATM   51  C31 UNL     1       1.799   6.906   6.590  1.00  0.00     0.017 C 
ENDBRANCH  47  49
ENDBRANCH  21  47
TORSDOF 10
ENDMDL
MODEL 3
REMARK minimizedAffinity -9.20986176
REMARK CNNscore 0.463402897
REMARK CNNaffinity 7.56858635
REMARK  10 active torsions:
REMARK  status: ('A' for Active; 'I' for Inactive)
REMARK    1  A    between atoms: C2_2  and  O2_4 
REMARK    2  A    between atoms: O2_4  and  C3_5 
REMARK    3  A    between atoms: C10_12  and  O3_13 
REMARK    4  A    between atoms: O3_13  and  C11_14 
REMARK    5  A    between atoms: C13_17  and  O5_18 
REMARK    6  A    between atoms: C14_19  and  O6_20 
REMARK    7  A    between atoms: C15_21  and  O7_22 
REMARK    8  A    between atoms: C27_35  and  O9_36 
REMARK    9  A    between atoms: C27_35  and  C28_37 
REMARK   10  A    between atoms: C28_37  and  C29_39 
ROOT
HETATM    1  C3  UNL     1      -2.799   5.491  13.436  1.00  0.00     0.142 C 
HETATM    2  C4  UNL     1      -4.290   5.686  13.134  1.00  0.00     0.044 C 
HETATM    3  C5  UNL     1      -4.942   6.584  14.174  1.00  0.00    -0.025 A 
HETATM    4  C6  UNL     1      -5.795   5.809  15.168  1.00  0.00     0.021 A 
HETATM    5  C7  UNL     1      -6.470   6.775  14.222  1.00  0.00    -0.027 A 
HETATM    6  C8  UNL     1      -7.287   6.217  13.071  1.00  0.00     0.013 C 
HETATM    7  C9  UNL     1      -8.751   6.061  13.451  1.00  0.00     0.034 C 
HETATM    8  C10 UNL     1      -9.335   7.379  13.964  1.00  0.00     0.133 C 
HETATM    9  C16 UNL     1      -8.549   7.936  15.195  1.00  0.00    -0.017 C 
HETATM   10  C17 UNL     1      -8.738   7.037  16.438  1.00  0.00     0.018 C 
HETATM   11  C18 UNL     1      -9.144   9.319  15.552  1.00  0.00     0.018 C 
HETATM   12  C19 UNL     1      -7.040   8.085  14.783  1.00  0.00     0.005 C 
HETATM   13  C20 UNL     1      -6.134   8.668  15.878  1.00  0.00     0.007 C 
HETATM   14  C21 UNL     1      -4.737   8.914  15.328  1.00  0.00     0.007 C 
HETATM   15  C22 UNL     1      -4.014   7.685  14.721  1.00  0.00     0.004 C 
HETATM   16  C23 UNL     1      -2.907   8.104  13.659  1.00  0.00    -0.027 C 
HETATM   17  C24 UNL     1      -3.542   8.872  12.470  1.00  0.00     0.016 C 
HETATM   18  C25 UNL     1      -1.873   9.053  14.359  1.00  0.00     0.042 C 
HETATM   19  C26 UNL     1      -0.517   8.489  13.991  1.00  0.00     0.131 C 
HETATM   20  O8  UNL     1       0.531   8.891  14.850  1.00  0.00    -0.343 OA
HETATM   21  C27 UNL     1       1.802   8.449  14.361  1.00  0.00     0.225 C 
HETATM   22  C32 UNL     1       1.715   7.147  13.515  1.00  0.00     0.081 C 
HETATM   23  C33 UNL     1       0.590   6.219  14.010  1.00  0.00    -0.006 C 
HETATM   24  C34 UNL     1       0.631   4.864  13.324  1.00  0.00     0.010 C 
HETATM   25  C35 UNL     1      -0.759   6.976  14.088  1.00  0.00     0.030 C 
HETATM   26  C36 UNL     1      -2.021   6.819  13.170  1.00  0.00    -0.003 C 
HETATM   27  C37 UNL     1      -1.637   6.901  11.667  1.00  0.00     0.019 C 
ENDROOT
BRANCH   8  28
HETATM   28  O3  UNL     1     -10.708   7.148  14.312  1.00  0.00    -0.353 OA
BRANCH  28  29
HETATM   29  C11 UNL     1     -11.628   7.720  13.368  1.00  0.00     0.291 C 
HETATM   30  O4  UNL     1     -12.521   6.737  12.828  1.00  0.00    -0.356 OA
HETATM   31  C12 UNL     1     -13.709   6.581  13.593  1.00  0.00     0.205 C 
HETATM   32  C13 UNL     1     -14.570   7.854  13.565  1.00  0.00     0.173 C 
HETATM   33  C14 UNL     1     -13.707   9.130  13.411  1.00  0.00     0.182 C 
HETATM   34  C15 UNL     1     -12.356   8.892  14.082  1.00  0.00     0.204 C 
BRANCH  32  35
HETATM   35  O5  UNL     1     -15.332   7.914  14.776  1.00  0.00    -0.391 OA
HETATM   36  H18 UNL     1     -14.700   8.144  15.489  1.00  0.00     0.210 HD
ENDBRANCH  32  35
BRANCH  33  37
HETATM   37  O6  UNL     1     -13.497   9.515  12.049  1.00  0.00    -0.390 OA
HETATM   38  H20 UNL     1     -14.042   8.951  11.470  1.00  0.00     0.210 HD
ENDBRANCH  33  37
BRANCH  34  39
HETATM   39  O7  UNL     1     -12.572   8.583  15.478  1.00  0.00    -0.388 OA
HETATM   40  H22 UNL     1     -11.785   8.057  15.733  1.00  0.00     0.210 HD
ENDBRANCH  34  39
ENDBRANCH  28  29
ENDBRANCH   8  28
BRANCH   1  41
HETATM   41  O2  UNL     1      -2.299   4.433  12.591  1.00  0.00    -0.315 OA
BRANCH  41  42
HETATM   42  C2  UNL     1      -3.225   3.576  12.078  1.00  0.00     0.255 C 
HETATM   43  C1  UNL     1      -3.211   3.652  10.580  1.00  0.00     0.126 C 
HETATM   44  O1  UNL     1      -3.958   2.841  12.727  1.00  0.00    -0.266 OA
ENDBRANCH  41  42
ENDBRANCH   1  41
BRANCH  21  45
HETATM   45  O9  UNL     1       2.286   9.461  13.489  1.00  0.00    -0.359 OA
HETATM   46  H41 UNL     1       2.063  10.297  13.932  1.00  0.00     0.213 HD
ENDBRANCH  21  45
BRANCH  21  47
HETATM   47  C28 UNL     1       2.757   8.238  15.587  1.00  0.00     0.192 C 
HETATM   48  O10 UNL     1       2.350   7.772  16.658  1.00  0.00    -0.292 OA
BRANCH  47  49
HETATM   49  C29 UNL     1       4.224   8.655  15.420  1.00  0.00     0.053 C 
HETATM   50  C30 UNL     1       4.803   8.126  14.112  1.00  0.00     0.017 C 
HETATM   51  C31 UNL     1       4.369  10.177  15.476  1.00  0.00     0.017 C 
ENDBRANCH  47  49
ENDBRANCH  21  47
TORSDOF 10
ENDMDL
MODEL 4
REMARK minimizedAffinity -9.88275623
REMARK CNNscore 0.394317746
REMARK CNNaffinity 7.47342682
REMARK  10 active torsions:
REMARK  status: ('A' for Active; 'I' for Inactive)
REMARK    1  A    between atoms: C2_2  and  O2_4 
REMARK    2  A    between atoms: O2_4  and  C3_5 
REMARK    3  A    between atoms: C10_12  and  O3_13 
REMARK    4  A    between atoms: O3_13  and  C11_14 
REMARK    5  A    between atoms: C13_17  and  O5_18 
REMARK    6  A    between atoms: C14_19  and  O6_20 
REMARK    7  A    between atoms: C15_21  and  O7_22 
REMARK    8  A    between atoms: C27_35  and  O9_36 
REMARK    9  A    between atoms: C27_35  and  C28_37 
REMARK   10  A    between atoms: C28_37  and  C29_39 
ROOT
HETATM    1  C3  UNL     1      -4.965   5.231  13.147  1.00  0.00     0.142 C 
HETATM    2  C4  UNL     1      -3.437   5.111  13.188  1.00  0.00     0.044 C 
HETATM    3  C5  UNL     1      -2.777   6.437  12.844  1.00  0.00    -0.025 A 
HETATM    4  C6  UNL     1      -2.201   6.458  11.435  1.00  0.00     0.021 A 
HETATM    5  C7  UNL     1      -1.257   6.539  12.613  1.00  0.00    -0.027 A 
HETATM    6  C8  UNL     1      -0.410   5.327  12.952  1.00  0.00     0.013 C 
HETATM    7  C9  UNL     1       0.946   5.386  12.268  1.00  0.00     0.034 C 
HETATM    8  C10 UNL     1       1.678   6.689  12.596  1.00  0.00     0.133 C 
HETATM    9  C16 UNL     1       0.849   7.952  12.190  1.00  0.00    -0.017 C 
HETATM   10  C17 UNL     1       0.725   8.074  10.655  1.00  0.00     0.018 C 
HETATM   11  C18 UNL     1       1.622   9.202  12.675  1.00  0.00     0.018 C 
HETATM   12  C19 UNL     1      -0.548   7.868  12.904  1.00  0.00     0.005 C 
HETATM   13  C20 UNL     1      -1.471   9.068  12.641  1.00  0.00     0.007 C 
HETATM   14  C21 UNL     1      -2.725   8.962  13.495  1.00  0.00     0.007 C 
HETATM   15  C22 UNL     1      -3.566   7.671  13.322  1.00  0.00     0.004 C 
HETATM   16  C23 UNL     1      -4.443   7.348  14.608  1.00  0.00    -0.027 C 
HETATM   17  C24 UNL     1      -3.541   7.123  15.851  1.00  0.00     0.016 C 
HETATM   18  C25 UNL     1      -5.379   8.573  14.898  1.00  0.00     0.042 C 
HETATM   19  C26 UNL     1      -6.754   7.971  15.097  1.00  0.00     0.131 C 
HETATM   20  O8  UNL     1      -7.817   8.886  14.925  1.00  0.00    -0.343 OA
HETATM   21  C27 UNL     1      -9.074   8.294  15.274  1.00  0.00     0.225 C 
HETATM   22  C32 UNL     1      -9.104   6.753  15.065  1.00  0.00     0.081 C 
HETATM   23  C33 UNL     1      -8.225   6.320  13.878  1.00  0.00    -0.006 C 
HETATM   24  C34 UNL     1      -8.411   4.850  13.543  1.00  0.00     0.010 C 
HETATM   25  C35 UNL     1      -6.788   6.878  14.019  1.00  0.00     0.030 C 
HETATM   26  C36 UNL     1      -5.466   6.100  14.345  1.00  0.00    -0.003 C 
HETATM   27  C37 UNL     1      -5.638   5.200  15.599  1.00  0.00     0.019 C 
ENDROOT
BRANCH   8  28
HETATM   28  O3  UNL     1       2.936   6.676  11.906  1.00  0.00    -0.353 OA
BRANCH  28  29
HETATM   29  C11 UNL     1       3.738   7.836  12.182  1.00  0.00     0.291 C 
HETATM   30  O4  UNL     1       4.580   7.646  13.327  1.00  0.00    -0.356 OA
HETATM   31  C12 UNL     1       5.847   7.091  13.001  1.00  0.00     0.205 C 
HETATM   32  C13 UNL     1       6.681   8.053  12.139  1.00  0.00     0.173 C 
HETATM   33  C14 UNL     1       5.788   8.951  11.249  1.00  0.00     0.182 C 
HETATM   34  C15 UNL     1       4.523   8.175  10.884  1.00  0.00     0.204 C 
BRANCH  32  35
HETATM   35  O5  UNL     1       7.572   7.279  11.328  1.00  0.00    -0.391 OA
HETATM   36  H18 UNL     1       7.019   6.856  10.637  1.00  0.00     0.210 HD
ENDBRANCH  32  35
BRANCH  33  37
HETATM   37  O6  UNL     1       5.422  10.186  11.872  1.00  0.00    -0.390 OA
HETATM   38  H20 UNL     1       5.908  10.276  12.712  1.00  0.00     0.210 HD
ENDBRANCH  33  37
BRANCH  34  39
HETATM   39  O7  UNL     1       4.897   6.968  10.184  1.00  0.00    -0.388 OA
HETATM   40  H22 UNL     1       4.151   6.353  10.349  1.00  0.00     0.210 HD
ENDBRANCH  34  39
ENDBRANCH  28  29
ENDBRANCH   8  28
BRANCH   1  41
HETATM   41  O2  UNL     1      -5.528   3.904  13.213  1.00  0.00    -0.315 OA
BRANCH  41  42
HETATM   42  C2  UNL     1      -5.638   3.231  12.034  1.00  0.00     0.255 C 
HETATM   43  C1  UNL     1      -6.636   2.121  12.176  1.00  0.00     0.126 C 
HETATM   44  O1  UNL     1      -5.029   3.488  11.004  1.00  0.00    -0.266 OA
ENDBRANCH  41  42
ENDBRANCH   1  41
BRANCH  21  45
HETATM   45  O9  UNL     1      -9.265   8.514  16.665  1.00  0.00    -0.359 OA
HETATM   46  H41 UNL     1      -8.959   9.424  16.816  1.00  0.00     0.213 HD
ENDBRANCH  21  45
BRANCH  21  47
HETATM   47  C28 UNL     1     -10.197   8.980  14.422  1.00  0.00     0.192 C 
HETATM   48  O10 UNL     1     -10.287  10.210  14.330  1.00  0.00    -0.292 OA
BRANCH  47  49
HETATM   49  C29 UNL     1     -11.206   8.065  13.715  1.00  0.00     0.053 C 
HETATM   50  C30 UNL     1     -12.360   7.698  14.641  1.00  0.00     0.017 C 
HETATM   51  C31 UNL     1     -11.746   8.725  12.445  1.00  0.00     0.017 C 
ENDBRANCH  47  49
ENDBRANCH  21  47
TORSDOF 10
ENDMDL
MODEL 5
REMARK minimizedAffinity -6.63171768
REMARK CNNscore 0.364496469
REMARK CNNaffinity 6.15953684
REMARK  10 active torsions:
REMARK  status: ('A' for Active; 'I' for Inactive)
REMARK    1  A    between atoms: C2_2  and  O2_4 
REMARK    2  A    between atoms: O2_4  and  C3_5 
REMARK    3  A    between atoms: C10_12  and  O3_13 
REMARK    4  A    between atoms: O3_13  and  C11_14 
REMARK    5  A    between atoms: C13_17  and  O5_18 
REMARK    6  A    between atoms: C14_19  and  O6_20 
REMARK    7  A    between atoms: C15_21  and  O7_22 
REMARK    8  A    between atoms: C27_35  and  O9_36 
REMARK    9  A    between atoms: C27_35  and  C28_37 
REMARK   10  A    between atoms: C28_37  and  C29_39 
ROOT
HETATM    1  C3  UNL     1      -9.435  -9.051   2.180  1.00  0.00     0.142 C 
HETATM    2  C4  UNL     1      -9.921  -9.368   0.760  1.00  0.00     0.044 C 
HETATM    3  C5  UNL     1      -8.774  -9.296  -0.237  1.00  0.00    -0.025 A 
HETATM    4  C6  UNL     1      -8.811  -8.032  -1.084  1.00  0.00     0.021 A 
HETATM    5  C7  UNL     1      -9.027  -9.369  -1.754  1.00  0.00    -0.027 A 
HETATM    6  C8  UNL     1     -10.425  -9.733  -2.220  1.00  0.00     0.013 C 
HETATM    7  C9  UNL     1     -10.654  -9.328  -3.667  1.00  0.00     0.034 C 
HETATM    8  C10 UNL     1      -9.586  -9.924  -4.586  1.00  0.00     0.133 C 
HETATM    9  C16 UNL     1      -8.140  -9.503  -4.164  1.00  0.00    -0.017 C 
HETATM   10  C17 UNL     1      -7.904  -7.994  -4.393  1.00  0.00     0.018 C 
HETATM   11  C18 UNL     1      -7.142 -10.254  -5.079  1.00  0.00     0.018 C 
HETATM   12  C19 UNL     1      -7.927  -9.927  -2.667  1.00  0.00     0.005 C 
HETATM   13  C20 UNL     1      -6.527  -9.621  -2.111  1.00  0.00     0.007 C 
HETATM   14  C21 UNL     1      -6.378 -10.207  -0.715  1.00  0.00     0.007 C 
HETATM   15  C22 UNL     1      -7.417  -9.743   0.338  1.00  0.00     0.004 C 
HETATM   16  C23 UNL     1      -7.593 -10.799   1.514  1.00  0.00    -0.027 C 
HETATM   17  C24 UNL     1      -8.100 -12.159   0.965  1.00  0.00     0.016 C 
HETATM   18  C25 UNL     1      -6.199 -11.033   2.192  1.00  0.00     0.042 C 
HETATM   19  C26 UNL     1      -6.463 -10.904   3.677  1.00  0.00     0.131 C 
HETATM   20  O8  UNL     1      -5.311 -10.631   4.449  1.00  0.00    -0.343 OA
HETATM   21  C27 UNL     1      -5.603 -10.672   5.851  1.00  0.00     0.225 C 
HETATM   22  C32 UNL     1      -7.077 -10.300   6.180  1.00  0.00     0.081 C 
HETATM   23  C33 UNL     1      -7.639  -9.261   5.192  1.00  0.00    -0.006 C 
HETATM   24  C34 UNL     1      -9.000  -8.745   5.628  1.00  0.00     0.010 C 
HETATM   25  C35 UNL     1      -7.452  -9.730   3.729  1.00  0.00     0.030 C 
HETATM   26  C36 UNL     1      -8.542 -10.217   2.712  1.00  0.00    -0.003 C 
HETATM   27  C37 UNL     1      -9.445 -11.314   3.339  1.00  0.00     0.019 C 
ENDROOT
BRANCH   8  28
HETATM   28  O3  UNL     1      -9.862  -9.488  -5.925  1.00  0.00    -0.353 OA
BRANCH  28  29
HETATM   29  C11 UNL     1     -10.216 -10.568  -6.804  1.00  0.00     0.291 C 
HETATM   30  O4  UNL     1     -11.425 -11.220  -6.390  1.00  0.00    -0.356 OA
HETATM   31  C12 UNL     1     -12.593 -10.639  -6.953  1.00  0.00     0.205 C 
HETATM   32  C13 UNL     1     -12.633 -10.817  -8.480  1.00  0.00     0.173 C 
HETATM   33  C14 UNL     1     -11.212 -10.861  -9.092  1.00  0.00     0.182 C 
HETATM   34  C15 UNL     1     -10.286  -9.991  -8.244  1.00  0.00     0.204 C 
BRANCH  32  35
HETATM   35  O5  UNL     1     -13.383  -9.735  -9.044  1.00  0.00    -0.391 OA
HETATM   36  H18 UNL     1     -12.815  -8.939  -8.973  1.00  0.00     0.210 HD
ENDBRANCH  32  35
BRANCH  33  37
HETATM   37  O6  UNL     1     -10.670 -12.183  -9.179  1.00  0.00    -0.390 OA
HETATM   38  H20 UNL     1     -11.358 -12.827  -8.934  1.00  0.00     0.210 HD
ENDBRANCH  33  37
BRANCH  34  39
HETATM   39  O7  UNL     1     -10.796  -8.639  -8.227  1.00  0.00    -0.388 OA
HETATM   40  H22 UNL     1     -10.448  -8.260  -7.393  1.00  0.00     0.210 HD
ENDBRANCH  34  39
ENDBRANCH  28  29
ENDBRANCH   8  28
BRANCH   1  41
HETATM   41  O2  UNL     1     -10.589  -8.869   3.026  1.00  0.00    -0.315 OA
BRANCH  41  42
HETATM   42  C2  UNL     1     -11.140  -7.624   3.044  1.00  0.00     0.255 C 
HETATM   43  C1  UNL     1     -12.047  -7.489   4.231  1.00  0.00     0.126 C 
HETATM   44  O1  UNL     1     -10.929  -6.737   2.228  1.00  0.00    -0.266 OA
ENDBRANCH  41  42
ENDBRANCH   1  41
BRANCH  21  45
HETATM   45  O9  UNL     1      -5.425 -12.017   6.273  1.00  0.00    -0.359 OA
HETATM   46  H41 UNL     1      -4.624 -12.317   5.810  1.00  0.00     0.213 HD
ENDBRANCH  21  45
BRANCH  21  47
HETATM   47  C28 UNL     1      -4.619  -9.699   6.588  1.00  0.00     0.192 C 
HETATM   48  O10 UNL     1      -5.027  -8.784   7.314  1.00  0.00    -0.292 OA
BRANCH  47  49
HETATM   49  C29 UNL     1      -3.117  -9.906   6.358  1.00  0.00     0.053 C 
HETATM   50  C30 UNL     1      -2.750 -11.385   6.406  1.00  0.00     0.017 C 
HETATM   51  C31 UNL     1      -2.680  -9.304   5.021  1.00  0.00     0.017 C 
ENDBRANCH  47  49
ENDBRANCH  21  47
TORSDOF 10
ENDMDL
MODEL 6
REMARK minimizedAffinity -6.72118425
REMARK CNNscore 0.35761553
REMARK CNNaffinity 6.25266266
REMARK  10 active torsions:
REMARK  status: ('A' for Active; 'I' for Inactive)
REMARK    1  A    between atoms: C2_2  and  O2_4 
REMARK    2  A    between atoms: O2_4  and  C3_5 
REMARK    3  A    between atoms: C10_12  and  O3_13 
REMARK    4  A    between atoms: O3_13  and  C11_14 
REMARK    5  A    between atoms: C13_17  and  O5_18 
REMARK    6  A    between atoms: C14_19  and  O6_20 
REMARK    7  A    between atoms: C15_21  and  O7_22 
REMARK    8  A    between atoms: C27_35  and  O9_36 
REMARK    9  A    between atoms: C27_35  and  C28_37 
REMARK   10  A    between atoms: C28_37  and  C29_39 
ROOT
HETATM    1  C3  UNL     1      -0.669  10.630  17.132  1.00  0.00     0.142 C 
HETATM    2  C4  UNL     1      -1.749  11.250  18.027  1.00  0.00     0.044 C 
HETATM    3  C5  UNL     1      -2.591  12.250  17.251  1.00  0.00    -0.025 A 
HETATM    4  C6  UNL     1      -2.245  13.694  17.584  1.00  0.00     0.021 A 
HETATM    5  C7  UNL     1      -3.608  13.163  17.962  1.00  0.00    -0.027 A 
HETATM    6  C8  UNL     1      -3.902  12.886  19.425  1.00  0.00     0.013 C 
HETATM    7  C9  UNL     1      -4.534  14.090  20.104  1.00  0.00     0.034 C 
HETATM    8  C10 UNL     1      -5.788  14.553  19.359  1.00  0.00     0.133 C 
HETATM    9  C16 UNL     1      -5.492  14.911  17.867  1.00  0.00    -0.017 C 
HETATM   10  C17 UNL     1      -4.610  16.175  17.754  1.00  0.00     0.018 C 
HETATM   11  C18 UNL     1      -6.839  15.246  17.183  1.00  0.00     0.018 C 
HETATM   12  C19 UNL     1      -4.836  13.656  17.185  1.00  0.00     0.005 C 
HETATM   13  C20 UNL     1      -4.524  13.832  15.692  1.00  0.00     0.007 C 
HETATM   14  C21 UNL     1      -4.040  12.517  15.099  1.00  0.00     0.007 C 
HETATM   15  C22 UNL     1      -2.797  11.878  15.770  1.00  0.00     0.004 C 
HETATM   16  C23 UNL     1      -2.733  10.306  15.542  1.00  0.00    -0.027 C 
HETATM   17  C24 UNL     1      -3.974   9.606  16.157  1.00  0.00     0.016 C 
HETATM   18  C25 UNL     1      -2.725  10.022  14.000  1.00  0.00     0.042 C 
HETATM   19  C26 UNL     1      -1.587   9.045  13.791  1.00  0.00     0.131 C 
HETATM   20  O8  UNL     1      -1.104   8.993  12.464  1.00  0.00    -0.343 OA
HETATM   21  C27 UNL     1      -0.138   7.947  12.304  1.00  0.00     0.225 C 
HETATM   22  C32 UNL     1       0.641   7.627  13.611  1.00  0.00     0.081 C 
HETATM   23  C33 UNL     1       0.837   8.883  14.481  1.00  0.00    -0.006 C 
HETATM   24  C34 UNL     1       1.769   8.620  15.652  1.00  0.00     0.010 C 
HETATM   25  C35 UNL     1      -0.514   9.590  14.747  1.00  0.00     0.030 C 
HETATM   26  C36 UNL     1      -1.327   9.674  16.086  1.00  0.00    -0.003 C 
HETATM   27  C37 UNL     1      -1.514   8.267  16.718  1.00  0.00     0.019 C 
ENDROOT
BRANCH   8  28
HETATM   28  O3  UNL     1      -6.315  15.695  20.051  1.00  0.00    -0.353 OA
BRANCH  28  29
HETATM   29  C11 UNL     1      -6.455  15.478  21.464  1.00  0.00     0.291 C 
HETATM   30  O4  UNL     1      -6.111  16.645  22.222  1.00  0.00    -0.356 OA
HETATM   31  C12 UNL     1      -7.215  17.512  22.446  1.00  0.00     0.205 C 
HETATM   32  C13 UNL     1      -8.282  16.850  23.333  1.00  0.00     0.173 C 
HETATM   33  C14 UNL     1      -8.310  15.313  23.151  1.00  0.00     0.182 C 
HETATM   34  C15 UNL     1      -7.906  14.982  21.716  1.00  0.00     0.204 C 
BRANCH  32  35
HETATM   35  O5  UNL     1      -9.557  17.412  23.005  1.00  0.00    -0.391 OA
HETATM   36  H18 UNL     1      -9.804  17.046  22.129  1.00  0.00     0.210 HD
ENDBRANCH  32  35
BRANCH  33  37
HETATM   37  O6  UNL     1      -7.450  14.616  24.057  1.00  0.00    -0.390 OA
HETATM   38  H20 UNL     1      -7.087  15.249  24.704  1.00  0.00     0.210 HD
ENDBRANCH  33  37
BRANCH  34  39
HETATM   39  O7  UNL     1      -8.829  15.624  20.807  1.00  0.00    -0.388 OA
HETATM   40  H22 UNL     1      -8.315  15.733  19.979  1.00  0.00     0.210 HD
ENDBRANCH  34  39
ENDBRANCH  28  29
ENDBRANCH   8  28
BRANCH   1  41
HETATM   41  O2  UNL     1       0.256   9.906  17.969  1.00  0.00    -0.315 OA
BRANCH  41  42
HETATM   42  C2  UNL     1       1.148  10.653  18.677  1.00  0.00     0.255 C 
HETATM   43  C1  UNL     1       0.582  10.968  20.031  1.00  0.00     0.126 C 
HETATM   44  O1  UNL     1       2.250  11.013  18.287  1.00  0.00    -0.266 OA
ENDBRANCH  41  42
ENDBRANCH   1  41
BRANCH  21  45
HETATM   45  O9  UNL     1      -0.855   6.767  11.966  1.00  0.00    -0.359 OA
HETATM   46  H41 UNL     1      -1.539   7.064  11.342  1.00  0.00     0.213 HD
ENDBRANCH  21  45
BRANCH  21  47
HETATM   47  C28 UNL     1       0.857   8.365  11.166  1.00  0.00     0.192 C 
HETATM   48  O10 UNL     1       1.811   9.122  11.379  1.00  0.00    -0.292 OA
BRANCH  47  49
HETATM   49  C29 UNL     1       0.591   7.815   9.759  1.00  0.00     0.053 C 
HETATM   50  C30 UNL     1      -0.352   8.725   8.980  1.00  0.00     0.017 C 
HETATM   51  C31 UNL     1       1.900   7.637   8.986  1.00  0.00     0.017 C 
ENDBRANCH  47  49
ENDBRANCH  21  47
TORSDOF 10
ENDMDL
MODEL 7
REMARK minimizedAffinity -10.0506516
REMARK CNNscore 0.347284794
REMARK CNNaffinity 7.14400244
REMARK  10 active torsions:
REMARK  status: ('A' for Active; 'I' for Inactive)
REMARK    1  A    between atoms: C2_2  and  O2_4 
REMARK    2  A    between atoms: O2_4  and  C3_5 
REMARK    3  A    between atoms: C10_12  and  O3_13 
REMARK    4  A    between atoms: O3_13  and  C11_14 
REMARK    5  A    between atoms: C13_17  and  O5_18 
REMARK    6  A    between atoms: C14_19  and  O6_20 
REMARK    7  A    between atoms: C15_21  and  O7_22 
REMARK    8  A    between atoms: C27_35  and  O9_36 
REMARK    9  A    between atoms: C27_35  and  C28_37 
REMARK   10  A    between atoms: C28_37  and  C29_39 
ROOT
HETATM    1  C3  UNL     1      -4.948   5.089  12.901  1.00  0.00     0.142 C 
HETATM    2  C4  UNL     1      -3.449   5.118  13.221  1.00  0.00     0.044 C 
HETATM    3  C5  UNL     1      -2.909   6.538  13.170  1.00  0.00    -0.025 A 
HETATM    4  C6  UNL     1      -2.098   6.813  11.911  1.00  0.00     0.021 A 
HETATM    5  C7  UNL     1      -1.397   6.823  13.250  1.00  0.00    -0.027 A 
HETATM    6  C8  UNL     1      -0.479   5.667  13.600  1.00  0.00     0.013 C 
HETATM    7  C9  UNL     1       0.959   5.957  13.202  1.00  0.00     0.034 C 
HETATM    8  C10 UNL     1       1.452   7.268  13.816  1.00  0.00     0.133 C 
HETATM    9  C16 UNL     1       0.559   8.485  13.410  1.00  0.00    -0.017 C 
HETATM   10  C17 UNL     1       0.695   8.806  11.905  1.00  0.00     0.018 C 
HETATM   11  C18 UNL     1       1.071   9.727  14.179  1.00  0.00     0.018 C 
HETATM   12  C19 UNL     1      -0.922   8.163  13.826  1.00  0.00     0.005 C 
HETATM   13  C20 UNL     1      -1.925   9.289  13.534  1.00  0.00     0.007 C 
HETATM   14  C21 UNL     1      -3.288   8.940  14.112  1.00  0.00     0.007 C 
HETATM   15  C22 UNL     1      -3.917   7.608  13.629  1.00  0.00     0.004 C 
HETATM   16  C23 UNL     1      -4.962   7.023  14.675  1.00  0.00    -0.027 C 
HETATM   17  C24 UNL     1      -4.275   6.718  16.033  1.00  0.00     0.016 C 
HETATM   18  C25 UNL     1      -6.080   8.095  14.922  1.00  0.00     0.042 C 
HETATM   19  C26 UNL     1      -7.383   7.337  14.780  1.00  0.00     0.131 C 
HETATM   20  O8  UNL     1      -8.504   8.155  14.515  1.00  0.00    -0.343 OA
HETATM   21  C27 UNL     1      -9.719   7.397  14.543  1.00  0.00     0.225 C 
HETATM   22  C32 UNL     1      -9.519   5.905  14.152  1.00  0.00     0.081 C 
HETATM   23  C33 UNL     1      -8.396   5.732  13.113  1.00  0.00    -0.006 C 
HETATM   24  C34 UNL     1      -8.335   4.312  12.578  1.00  0.00     0.010 C 
HETATM   25  C35 UNL     1      -7.088   6.406  13.594  1.00  0.00     0.030 C 
HETATM   26  C36 UNL     1      -5.758   5.728  14.074  1.00  0.00    -0.003 C 
HETATM   27  C37 UNL     1      -6.038   4.648  15.156  1.00  0.00     0.019 C 
ENDROOT
BRANCH   8  28
HETATM   28  O3  UNL     1       2.805   7.477  13.385  1.00  0.00    -0.353 OA
BRANCH  28  29
HETATM   29  C11 UNL     1       2.897   7.912  12.019  1.00  0.00     0.291 C 
HETATM   30  O4  UNL     1       3.525   9.196  11.906  1.00  0.00    -0.356 OA
HETATM   31  C12 UNL     1       4.938   9.116  11.769  1.00  0.00     0.205 C 
HETATM   32  C13 UNL     1       5.339   8.439  10.449  1.00  0.00     0.173 C 
HETATM   33  C14 UNL     1       4.286   7.402   9.988  1.00  0.00     0.182 C 
HETATM   34  C15 UNL     1       3.626   6.793  11.224  1.00  0.00     0.204 C 
BRANCH  32  35
HETATM   35  O5  UNL     1       6.612   7.808  10.631  1.00  0.00    -0.391 OA
HETATM   36  H18 UNL     1       6.451   7.019  11.191  1.00  0.00     0.210 HD
ENDBRANCH  32  35
BRANCH  33  37
HETATM   37  O6  UNL     1       3.278   7.954   9.137  1.00  0.00    -0.390 OA
HETATM   38  H20 UNL     1       3.515   8.873   8.914  1.00  0.00     0.210 HD
ENDBRANCH  33  37
BRANCH  34  39
HETATM   39  O7  UNL     1       4.641   6.167  12.040  1.00  0.00    -0.388 OA
HETATM   40  H22 UNL     1       4.265   6.180  12.945  1.00  0.00     0.210 HD
ENDBRANCH  34  39
ENDBRANCH  28  29
ENDBRANCH   8  28
BRANCH   1  41
HETATM   41  O2  UNL     1      -5.344   3.716  12.700  1.00  0.00    -0.315 OA
BRANCH  41  42
HETATM   42  C2  UNL     1      -5.059   3.172  11.484  1.00  0.00     0.255 C 
HETATM   43  C1  UNL     1      -5.705   1.823  11.369  1.00  0.00     0.126 C 
HETATM   44  O1  UNL     1      -4.389   3.697  10.606  1.00  0.00    -0.266 OA
ENDBRANCH  41  42
ENDBRANCH   1  41
BRANCH  21  45
HETATM   45  O9  UNL     1     -10.180   7.401  15.887  1.00  0.00    -0.359 OA
HETATM   46  H41 UNL     1     -10.022   8.308  16.200  1.00  0.00     0.213 HD
ENDBRANCH  21  45
BRANCH  21  47
HETATM   47  C28 UNL     1     -10.749   8.079  13.577  1.00  0.00     0.192 C 
HETATM   48  O10 UNL     1     -11.077   7.563  12.503  1.00  0.00    -0.292 OA
BRANCH  47  49
HETATM   49  C29 UNL     1     -11.324   9.436  14.003  1.00  0.00     0.053 C 
HETATM   50  C30 UNL     1     -12.519   9.262  14.933  1.00  0.00     0.017 C 
HETATM   51  C31 UNL     1     -10.255  10.294  14.682  1.00  0.00     0.017 C 
ENDBRANCH  47  49
ENDBRANCH  21  47
TORSDOF 10
ENDMDL
MODEL 8
REMARK minimizedAffinity -9.30984879
REMARK CNNscore 0.330098033
REMARK CNNaffinity 7.28571463
REMARK  10 active torsions:
REMARK  status: ('A' for Active; 'I' for Inactive)
REMARK    1  A    between atoms: C2_2  and  O2_4 
REMARK    2  A    between atoms: O2_4  and  C3_5 
REMARK    3  A    between atoms: C10_12  and  O3_13 
REMARK    4  A    between atoms: O3_13  and  C11_14 
REMARK    5  A    between atoms: C13_17  and  O5_18 
REMARK    6  A    between atoms: C14_19  and  O6_20 
REMARK    7  A    between atoms: C15_21  and  O7_22 
REMARK    8  A    between atoms: C27_35  and  O9_36 
REMARK    9  A    between atoms: C27_35  and  C28_37 
REMARK   10  A    between atoms: C28_37  and  C29_39 
ROOT
HETATM    1  C3  UNL     1      -5.065   5.233  13.091  1.00  0.00     0.142 C 
HETATM    2  C4  UNL     1      -3.590   5.304  13.506  1.00  0.00     0.044 C 
HETATM    3  C5  UNL     1      -3.075   6.733  13.438  1.00  0.00    -0.025 A 
HETATM    4  C6  UNL     1      -2.190   6.981  12.225  1.00  0.00     0.021 A 
HETATM    5  C7  UNL     1      -1.577   7.053  13.605  1.00  0.00    -0.027 A 
HETATM    6  C8  UNL     1      -0.662   5.929  14.055  1.00  0.00     0.013 C 
HETATM    7  C9  UNL     1       0.793   6.235  13.740  1.00  0.00     0.034 C 
HETATM    8  C10 UNL     1       1.221   7.577  14.336  1.00  0.00     0.133 C 
HETATM    9  C16 UNL     1       0.333   8.760  13.830  1.00  0.00    -0.017 C 
HETATM   10  C17 UNL     1       0.561   9.031  12.326  1.00  0.00     0.018 C 
HETATM   11  C18 UNL     1       0.771  10.039  14.584  1.00  0.00     0.018 C 
HETATM   12  C19 UNL     1      -1.165   8.422  14.161  1.00  0.00     0.005 C 
HETATM   13  C20 UNL     1      -2.168   9.516  13.764  1.00  0.00     0.007 C 
HETATM   14  C21 UNL     1      -3.560   9.158  14.266  1.00  0.00     0.007 C 
HETATM   15  C22 UNL     1      -4.131   7.797  13.793  1.00  0.00     0.004 C 
HETATM   16  C23 UNL     1      -5.230   7.228  14.790  1.00  0.00    -0.027 C 
HETATM   17  C24 UNL     1      -4.627   6.985  16.199  1.00  0.00     0.016 C 
HETATM   18  C25 UNL     1      -6.382   8.284  14.925  1.00  0.00     0.042 C 
HETATM   19  C26 UNL     1      -7.658   7.494  14.727  1.00  0.00     0.131 C 
HETATM   20  O8  UNL     1      -8.775   8.279  14.361  1.00  0.00    -0.343 OA
HETATM   21  C27 UNL     1      -9.975   7.497  14.339  1.00  0.00     0.225 C 
HETATM   22  C32 UNL     1      -9.722   5.997  14.016  1.00  0.00     0.081 C 
HETATM   23  C33 UNL     1      -8.531   5.811  13.058  1.00  0.00    -0.006 C 
HETATM   24  C34 UNL     1      -8.408   4.374  12.580  1.00  0.00     0.010 C 
HETATM   25  C35 UNL     1      -7.269   6.529  13.597  1.00  0.00     0.030 C 
HETATM   26  C36 UNL     1      -5.961   5.895  14.186  1.00  0.00    -0.003 C 
HETATM   27  C37 UNL     1      -6.290   4.849  15.287  1.00  0.00     0.019 C 
ENDROOT
BRANCH   8  28
HETATM   28  O3  UNL     1       2.594   7.799  13.986  1.00  0.00    -0.353 OA
BRANCH  28  29
HETATM   29  C11 UNL     1       3.355   8.390  15.053  1.00  0.00     0.291 C 
HETATM   30  O4  UNL     1       4.315   7.474  15.597  1.00  0.00    -0.356 OA
HETATM   31  C12 UNL     1       5.573   7.525  14.935  1.00  0.00     0.205 C 
HETATM   32  C13 UNL     1       6.264   8.883  15.141  1.00  0.00     0.173 C 
HETATM   33  C14 UNL     1       5.240  10.032  15.311  1.00  0.00     0.182 C 
HETATM   34  C15 UNL     1       3.989   9.697  14.501  1.00  0.00     0.204 C 
BRANCH  32  35
HETATM   35  O5  UNL     1       7.111   9.137  14.014  1.00  0.00    -0.391 OA
HETATM   36  H18 UNL     1       6.516   9.353  13.265  1.00  0.00     0.210 HD
ENDBRANCH  32  35
BRANCH  33  37
HETATM   37  O6  UNL     1       4.871  10.268  16.674  1.00  0.00    -0.390 OA
HETATM   38  H20 UNL     1       5.432   9.723  17.255  1.00  0.00     0.210 HD
ENDBRANCH  33  37
BRANCH  34  39
HETATM   39  O7  UNL     1       4.357   9.538  13.112  1.00  0.00    -0.388 OA
HETATM   40  H22 UNL     1       3.665   8.948  12.745  1.00  0.00     0.210 HD
ENDBRANCH  34  39
ENDBRANCH  28  29
ENDBRANCH   8  28
BRANCH   1  41
HETATM   41  O2  UNL     1      -5.422   3.845  12.916  1.00  0.00    -0.315 OA
BRANCH  41  42
HETATM   42  C2  UNL     1      -5.069   3.273  11.732  1.00  0.00     0.255 C 
HETATM   43  C1  UNL     1      -5.815   1.984  11.551  1.00  0.00     0.126 C 
HETATM   44  O1  UNL     1      -4.273   3.732  10.924  1.00  0.00    -0.266 OA
ENDBRANCH  41  42
ENDBRANCH   1  41
BRANCH  21  45
HETATM   45  O9  UNL     1     -10.522   7.538  15.650  1.00  0.00    -0.359 OA
HETATM   46  H41 UNL     1     -10.402   8.459  15.939  1.00  0.00     0.213 HD
ENDBRANCH  21  45
BRANCH  21  47
HETATM   47  C28 UNL     1     -10.952   8.123  13.285  1.00  0.00     0.192 C 
HETATM   48  O10 UNL     1     -11.209   7.557  12.216  1.00  0.00    -0.292 OA
BRANCH  47  49
HETATM   49  C29 UNL     1     -11.568   9.489  13.616  1.00  0.00     0.053 C 
HETATM   50  C30 UNL     1     -12.894   9.333  14.351  1.00  0.00     0.017 C 
HETATM   51  C31 UNL     1     -10.605  10.334  14.452  1.00  0.00     0.017 C 
ENDBRANCH  47  49
ENDBRANCH  21  47
TORSDOF 10
ENDMDL
MODEL 9
REMARK minimizedAffinity -8.90666008
REMARK CNNscore 0.329693019
REMARK CNNaffinity 7.34059715
REMARK  10 active torsions:
REMARK  status: ('A' for Active; 'I' for Inactive)
REMARK    1  A    between atoms: C2_2  and  O2_4 
REMARK    2  A    between atoms: O2_4  and  C3_5 
REMARK    3  A    between atoms: C10_12  and  O3_13 
REMARK    4  A    between atoms: O3_13  and  C11_14 
REMARK    5  A    between atoms: C13_17  and  O5_18 
REMARK    6  A    between atoms: C14_19  and  O6_20 
REMARK    7  A    between atoms: C15_21  and  O7_22 
REMARK    8  A    between atoms: C27_35  and  O9_36 
REMARK    9  A    between atoms: C27_35  and  C28_37 
REMARK   10  A    between atoms: C28_37  and  C29_39 
ROOT
HETATM    1  C3  UNL     1      -2.649   9.529  14.728  1.00  0.00     0.142 C 
HETATM    2  C4  UNL     1      -4.085   9.111  15.068  1.00  0.00     0.044 C 
HETATM    3  C5  UNL     1      -4.516   7.916  14.233  1.00  0.00    -0.025 A 
HETATM    4  C6  UNL     1      -5.466   8.298  13.107  1.00  0.00     0.021 A 
HETATM    5  C7  UNL     1      -5.977   7.426  14.231  1.00  0.00    -0.027 A 
HETATM    6  C8  UNL     1      -6.925   8.031  15.250  1.00  0.00     0.013 C 
HETATM    7  C9  UNL     1      -8.377   7.821  14.853  1.00  0.00     0.034 C 
HETATM    8  C10 UNL     1      -8.680   6.340  14.616  1.00  0.00     0.133 C 
HETATM    9  C16 UNL     1      -7.759   5.715  13.519  1.00  0.00    -0.017 C 
HETATM   10  C17 UNL     1      -8.073   6.296  12.122  1.00  0.00     0.018 C 
HETATM   11  C18 UNL     1      -8.066   4.199  13.449  1.00  0.00     0.018 C 
HETATM   12  C19 UNL     1      -6.265   5.946  13.946  1.00  0.00     0.005 C 
HETATM   13  C20 UNL     1      -5.227   5.345  12.986  1.00  0.00     0.007 C 
HETATM   14  C21 UNL     1      -3.829   5.489  13.568  1.00  0.00     0.007 C 
HETATM   15  C22 UNL     1      -3.376   6.931  13.914  1.00  0.00     0.004 C 
HETATM   16  C23 UNL     1      -2.247   6.953  15.033  1.00  0.00    -0.027 C 
HETATM   17  C24 UNL     1      -2.765   6.326  16.355  1.00  0.00     0.016 C 
HETATM   18  C25 UNL     1      -1.027   6.104  14.534  1.00  0.00     0.042 C 
HETATM   19  C26 UNL     1       0.183   6.982  14.776  1.00  0.00     0.131 C 
HETATM   20  O8  UNL     1       1.317   6.629  14.010  1.00  0.00    -0.343 OA
HETATM   21  C27 UNL     1       2.463   7.398  14.396  1.00  0.00     0.225 C 
HETATM   22  C32 UNL     1       2.098   8.799  14.963  1.00  0.00     0.081 C 
HETATM   23  C33 UNL     1       0.835   9.374  14.297  1.00  0.00    -0.006 C 
HETATM   24  C34 UNL     1       0.593  10.819  14.697  1.00  0.00     0.010 C 
HETATM   25  C35 UNL     1      -0.341   8.370  14.378  1.00  0.00     0.030 C 
HETATM   26  C36 UNL     1      -1.641   8.456  15.251  1.00  0.00    -0.003 C 
HETATM   27  C37 UNL     1      -1.301   8.749  16.738  1.00  0.00     0.019 C 
ENDROOT
BRANCH   8  28
HETATM   28  O3  UNL     1     -10.059   6.227  14.235  1.00  0.00    -0.353 OA
BRANCH  28  29
HETATM   29  C11 UNL     1     -10.800   7.440  14.447  1.00  0.00     0.291 C 
HETATM   30  O4  UNL     1     -10.845   8.253  13.267  1.00  0.00    -0.356 OA
HETATM   31  C12 UNL     1     -11.953   7.956  12.426  1.00  0.00     0.205 C 
HETATM   32  C13 UNL     1     -13.287   8.297  13.109  1.00  0.00     0.173 C 
HETATM   33  C14 UNL     1     -13.203   8.146  14.648  1.00  0.00     0.182 C 
HETATM   34  C15 UNL     1     -12.204   7.038  14.977  1.00  0.00     0.204 C 
BRANCH  32  35
HETATM   35  O5  UNL     1     -14.301   7.434  12.581  1.00  0.00    -0.391 OA
HETATM   36  H18 UNL     1     -14.132   6.546  12.958  1.00  0.00     0.210 HD
ENDBRANCH  32  35
BRANCH  33  37
HETATM   37  O6  UNL     1     -12.813   9.349  15.317  1.00  0.00    -0.390 OA
HETATM   38  H20 UNL     1     -12.782  10.079  14.671  1.00  0.00     0.210 HD
ENDBRANCH  33  37
BRANCH  34  39
HETATM   39  O7  UNL     1     -12.648   5.807  14.364  1.00  0.00    -0.388 OA
HETATM   40  H22 UNL     1     -11.826   5.286  14.247  1.00  0.00     0.210 HD
ENDBRANCH  34  39
ENDBRANCH  28  29
ENDBRANCH   8  28
BRANCH   1  41
HETATM   41  O2  UNL     1      -2.390  10.809  15.341  1.00  0.00    -0.315 OA
BRANCH  41  42
HETATM   42  C2  UNL     1      -3.414  11.362  16.049  1.00  0.00     0.255 C 
HETATM   43  C1  UNL     1      -3.918  12.584  15.340  1.00  0.00     0.126 C 
HETATM   44  O1  UNL     1      -3.871  10.932  17.100  1.00  0.00    -0.266 OA
ENDBRANCH  41  42
ENDBRANCH   1  41
BRANCH  21  45
HETATM   45  O9  UNL     1       3.101   6.691  15.451  1.00  0.00    -0.359 OA
HETATM   46  H41 UNL     1       3.057   5.757  15.185  1.00  0.00     0.213 HD
ENDBRANCH  21  45
BRANCH  21  47
HETATM   47  C28 UNL     1       3.402   7.544  13.148  1.00  0.00     0.192 C 
HETATM   48  O10 UNL     1       4.622   7.706  13.264  1.00  0.00    -0.292 OA
BRANCH  47  49
HETATM   49  C29 UNL     1       2.745   7.503  11.762  1.00  0.00     0.053 C 
HETATM   50  C30 UNL     1       3.491   8.390  10.772  1.00  0.00     0.017 C 
HETATM   51  C31 UNL     1       2.680   6.069  11.231  1.00  0.00     0.017 C 
ENDBRANCH  47  49
ENDBRANCH  21  47
TORSDOF 10
ENDMDL
