MODEL 1
REMARK minimizedAffinity -9.10235786
REMARK CNNscore 0.343734801
REMARK CNNaffinity 7.17463923
REMARK  9 active torsions:
REMARK  status: ('A' for Active; 'I' for Inactive)
REMARK    1  A    between atoms: C3_3  and  O1_4 
REMARK    2  A    between atoms: N1_14  and  O2_16 
REMARK    3  A    between atoms: O2_16  and  C13_17 
REMARK    4  A    between atoms: C13_17  and  C14_18 
REMARK       I    between atoms: C14_18  and  N2_20 
REMARK    5  A    between atoms: N2_20  and  C15_21 
REMARK    6  A    between atoms: C15_21  and  C16_22 
REMARK    7  A    between atoms: C15_21  and  C18_26 
REMARK    8  A    between atoms: C16_22  and  C17_23 
REMARK    9  A    between atoms: C17_23  and  O5_25 
ROOT
HETATM    1  C1  UNL     1      -9.151   9.052  15.820  1.00  0.00     0.015 C 
HETATM    2  C2  UNL     1      -8.573   8.035  15.552  1.00  0.00    -0.078 C 
HETATM    3  C3  UNL     1      -7.883   6.773  15.244  1.00  0.00     0.128 C 
HETATM    4  C4  UNL     1      -7.003   6.310  16.400  1.00  0.00     0.052 C 
HETATM    5  C5  UNL     1      -6.112   5.250  15.771  1.00  0.00     0.010 C 
HETATM    6  C6  UNL     1      -5.897   5.665  14.300  1.00  0.00     0.002 C 
HETATM    7  C7  UNL     1      -4.442   6.059  13.949  1.00  0.00    -0.004 C 
HETATM    8  C8  UNL     1      -3.468   4.883  14.128  1.00  0.00     0.010 C 
HETATM    9  C9  UNL     1      -2.056   5.268  13.706  1.00  0.00     0.035 C 
HETATM   10  C10 UNL     1      -1.570   6.502  14.431  1.00  0.00    -0.069 C 
HETATM   11  C11 UNL     1      -0.382   6.480  15.059  1.00  0.00     0.030 C 
HETATM   12  C12 UNL     1       0.200   7.696  15.682  1.00  0.00     0.032 C 
HETATM   13  N1  UNL     1       1.313   7.566  16.344  1.00  0.00    -0.271 N 
ATOM     14  H1  UNL     1       1.782   6.674  16.506  1.00  0.00     0.194 HD
HETATM   15  C25 UNL     1      -0.515   9.010  15.448  1.00  0.00     0.060 C 
HETATM   16  C26 UNL     1      -2.022   8.786  15.432  1.00  0.00     0.020 C 
HETATM   17  C27 UNL     1      -2.489   7.731  14.386  1.00  0.00    -0.016 C 
HETATM   18  C28 UNL     1      -2.399   8.347  12.970  1.00  0.00     0.020 C 
HETATM   19  C29 UNL     1      -3.961   7.295  14.751  1.00  0.00     0.002 C 
HETATM   20  C30 UNL     1      -4.995   8.443  14.711  1.00  0.00     0.007 C 
HETATM   21  C31 UNL     1      -6.182   8.173  13.792  1.00  0.00     0.014 C 
HETATM   22  C32 UNL     1      -6.920   6.819  14.012  1.00  0.00     0.003 C 
HETATM   23  C33 UNL     1      -7.686   6.523  12.700  1.00  0.00     0.020 C 
ENDROOT
BRANCH   3  24
HETATM   24  O1  UNL     1      -8.876   5.758  15.053  1.00  0.00    -0.377 OA
HETATM   25  H2  UNL     1      -9.531   5.864  15.764  1.00  0.00     0.211 HD
ENDBRANCH   3  24
BRANCH  13  26
HETATM   26  O2  UNL     1       1.789   8.800  16.810  1.00  0.00    -0.271 OA
BRANCH  26  27
HETATM   27  C13 UNL     1       2.500   9.447  15.759  1.00  0.00     0.303 C 
BRANCH  27  28
HETATM   28  C14 UNL     1       3.420   8.458  15.054  1.00  0.00     0.244 C 
HETATM   29  O3  UNL     1       4.094   7.634  15.666  1.00  0.00    -0.271 OA
HETATM   30  N2  UNL     1       3.372   8.523  13.678  1.00  0.00    -0.354 N 
HETATM   31  H16 UNL     1       2.770   9.233  13.262  1.00  0.00     0.162 HD
BRANCH  30  32
HETATM   32  C15 UNL     1       4.106   7.626  12.789  1.00  0.00     0.098 C 
BRANCH  32  33
HETATM   33  C16 UNL     1       5.403   8.311  12.327  1.00  0.00     0.135 C 
BRANCH  33  34
HETATM   34  C17 UNL     1       6.653   7.568  12.704  1.00  0.00     0.141 C 
HETATM   35  O4  UNL     1       7.417   7.014  11.930  1.00  0.00    -0.650 OA
BRANCH  34  36
HETATM   36  O5  UNL     1       6.870   7.513  14.034  1.00  0.00    -0.776 OA
HETATM   37  H20 UNL     1       7.693   6.983  14.111  1.00  0.00     0.167 HD
ENDBRANCH  34  36
ENDBRANCH  33  34
ENDBRANCH  32  33
BRANCH  32  38
HETATM   38  C18 UNL     1       3.203   7.121  11.629  1.00  0.00     0.014 C 
HETATM   39  C19 UNL     1       3.984   6.250  10.624  1.00  0.00     0.033 C 
HETATM   40  C20 UNL     1       3.113   5.204   9.935  1.00  0.00     0.169 C 
HETATM   41  O6  UNL     1       1.799   5.706   9.736  1.00  0.00    -0.381 OA
HETATM   42  C21 UNL     1       1.064   5.909  10.954  1.00  0.00     0.054 C 
HETATM   43  C22 UNL     1       0.051   7.021  10.648  1.00  0.00     0.045 C 
HETATM   44  C23 UNL     1       0.300   4.625  11.297  1.00  0.00     0.045 C 
HETATM   45  C24 UNL     1       1.982   6.327  12.127  1.00  0.00     0.044 C 
ENDBRANCH  32  38
ENDBRANCH  30  32
ENDBRANCH  27  28
ENDBRANCH  26  27
ENDBRANCH  13  26
TORSDOF 9
ENDMDL
MODEL 2
REMARK minimizedAffinity -7.97612858
REMARK CNNscore 0.318375319
REMARK CNNaffinity 7.17923212
REMARK  9 active torsions:
REMARK  status: ('A' for Active; 'I' for Inactive)
REMARK    1  A    between atoms: C3_3  and  O1_4 
REMARK    2  A    between atoms: N1_14  and  O2_16 
REMARK    3  A    between atoms: O2_16  and  C13_17 
REMARK    4  A    between atoms: C13_17  and  C14_18 
REMARK       I    between atoms: C14_18  and  N2_20 
REMARK    5  A    between atoms: N2_20  and  C15_21 
REMARK    6  A    between atoms: C15_21  and  C16_22 
REMARK    7  A    between atoms: C15_21  and  C18_26 
REMARK    8  A    between atoms: C16_22  and  C17_23 
REMARK    9  A    between atoms: C17_23  and  O5_25 
ROOT
HETATM    1  C1  UNL     1      -6.109   3.485  12.885  1.00  0.00     0.015 C 
HETATM    2  C2  UNL     1      -6.276   4.399  13.644  1.00  0.00    -0.078 C 
HETATM    3  C3  UNL     1      -6.464   5.505  14.597  1.00  0.00     0.128 C 
HETATM    4  C4  UNL     1      -7.421   5.127  15.723  1.00  0.00     0.052 C 
HETATM    5  C5  UNL     1      -7.777   6.464  16.356  1.00  0.00     0.010 C 
HETATM    6  C6  UNL     1      -7.742   7.513  15.225  1.00  0.00     0.002 C 
HETATM    7  C7  UNL     1      -9.117   8.134  14.880  1.00  0.00    -0.004 C 
HETATM    8  C8  UNL     1      -9.712   8.912  16.064  1.00  0.00     0.010 C 
HETATM    9  C9  UNL     1     -11.028   9.577  15.682  1.00  0.00     0.035 C 
HETATM   10  C10 UNL     1     -12.018   8.581  15.123  1.00  0.00    -0.069 C 
HETATM   11  C11 UNL     1     -13.262   8.524  15.630  1.00  0.00     0.030 C 
HETATM   12  C12 UNL     1     -14.311   7.653  15.042  1.00  0.00     0.032 C 
HETATM   13  N1  UNL     1     -15.461   7.593  15.649  1.00  0.00    -0.271 N 
ATOM     14  H1  UNL     1     -15.669   8.064  16.529  1.00  0.00     0.194 HD
HETATM   15  C25 UNL     1     -13.983   6.945  13.744  1.00  0.00     0.060 C 
HETATM   16  C26 UNL     1     -12.520   6.518  13.740  1.00  0.00     0.020 C 
HETATM   17  C27 UNL     1     -11.523   7.690  13.975  1.00  0.00    -0.016 C 
HETATM   18  C28 UNL     1     -11.445   8.554  12.695  1.00  0.00     0.020 C 
HETATM   19  C29 UNL     1     -10.123   7.073  14.362  1.00  0.00     0.002 C 
HETATM   20  C30 UNL     1      -9.498   6.176  13.270  1.00  0.00     0.007 C 
HETATM   21  C31 UNL     1      -8.099   6.606  12.842  1.00  0.00     0.014 C 
HETATM   22  C32 UNL     1      -7.069   6.814  13.992  1.00  0.00     0.003 C 
HETATM   23  C33 UNL     1      -5.955   7.724  13.419  1.00  0.00     0.020 C 
ENDROOT
BRANCH   3  24
HETATM   24  O1  UNL     1      -5.200   5.785  15.210  1.00  0.00    -0.377 OA
HETATM   25  H2  UNL     1      -4.799   4.929  15.437  1.00  0.00     0.211 HD
ENDBRANCH   3  24
BRANCH  13  26
HETATM   26  O2  UNL     1     -16.379   6.800  14.945  1.00  0.00    -0.271 OA
BRANCH  26  27
HETATM   27  C13 UNL     1     -16.823   5.745  15.792  1.00  0.00     0.303 C 
BRANCH  27  28
HETATM   28  C14 UNL     1     -17.603   4.712  14.988  1.00  0.00     0.244 C 
HETATM   29  O3  UNL     1     -18.746   4.372  15.284  1.00  0.00    -0.271 OA
HETATM   30  N2  UNL     1     -16.945   4.254  13.867  1.00  0.00    -0.354 N 
HETATM   31  H16 UNL     1     -16.003   4.607  13.697  1.00  0.00     0.162 HD
BRANCH  30  32
HETATM   32  C15 UNL     1     -17.521   3.320  12.902  1.00  0.00     0.098 C 
BRANCH  32  33
HETATM   33  C16 UNL     1     -18.997   3.676  12.662  1.00  0.00     0.135 C 
BRANCH  33  34
HETATM   34  C17 UNL     1     -19.816   2.544  12.110  1.00  0.00     0.141 C 
HETATM   35  O4  UNL     1     -19.775   2.123  10.966  1.00  0.00    -0.650 OA
BRANCH  34  36
HETATM   36  O5  UNL     1     -20.681   2.018  13.001  1.00  0.00    -0.776 OA
HETATM   37  H20 UNL     1     -21.147   1.323  12.486  1.00  0.00     0.167 HD
ENDBRANCH  34  36
ENDBRANCH  33  34
ENDBRANCH  32  33
BRANCH  32  38
HETATM   38  C18 UNL     1     -17.281   1.847  13.334  1.00  0.00     0.014 C 
HETATM   39  C19 UNL     1     -16.603   1.021  12.222  1.00  0.00     0.033 C 
HETATM   40  C20 UNL     1     -15.739  -0.116  12.763  1.00  0.00     0.169 C 
HETATM   41  O6  UNL     1     -16.309  -0.650  13.949  1.00  0.00    -0.381 OA
HETATM   42  C21 UNL     1     -16.290   0.257  15.063  1.00  0.00     0.054 C 
HETATM   43  C22 UNL     1     -17.470  -0.153  15.955  1.00  0.00     0.045 C 
HETATM   44  C23 UNL     1     -14.987   0.061  15.846  1.00  0.00     0.045 C 
HETATM   45  C24 UNL     1     -16.441   1.731  14.619  1.00  0.00     0.044 C 
ENDBRANCH  32  38
ENDBRANCH  30  32
ENDBRANCH  27  28
ENDBRANCH  26  27
ENDBRANCH  13  26
TORSDOF 9
ENDMDL
MODEL 3
REMARK minimizedAffinity -8.57137108
REMARK CNNscore 0.312559545
REMARK CNNaffinity 7.29062033
REMARK  9 active torsions:
REMARK  status: ('A' for Active; 'I' for Inactive)
REMARK    1  A    between atoms: C3_3  and  O1_4 
REMARK    2  A    between atoms: N1_14  and  O2_16 
REMARK    3  A    between atoms: O2_16  and  C13_17 
REMARK    4  A    between atoms: C13_17  and  C14_18 
REMARK       I    between atoms: C14_18  and  N2_20 
REMARK    5  A    between atoms: N2_20  and  C15_21 
REMARK    6  A    between atoms: C15_21  and  C16_22 
REMARK    7  A    between atoms: C15_21  and  C18_26 
REMARK    8  A    between atoms: C16_22  and  C17_23 
REMARK    9  A    between atoms: C17_23  and  O5_25 
ROOT
HETATM    1  C1  UNL     1      -5.816   3.658  12.871  1.00  0.00     0.015 C 
HETATM    2  C2  UNL     1      -6.041   4.545  13.648  1.00  0.00    -0.078 C 
HETATM    3  C3  UNL     1      -6.300   5.617  14.622  1.00  0.00     0.128 C 
HETATM    4  C4  UNL     1      -7.237   5.159  15.735  1.00  0.00     0.052 C 
HETATM    5  C5  UNL     1      -7.676   6.459  16.392  1.00  0.00     0.010 C 
HETATM    6  C6  UNL     1      -7.698   7.532  15.283  1.00  0.00     0.002 C 
HETATM    7  C7  UNL     1      -9.106   8.076  14.943  1.00  0.00    -0.004 C 
HETATM    8  C8  UNL     1      -9.752   8.793  16.140  1.00  0.00     0.010 C 
HETATM    9  C9  UNL     1     -11.103   9.385  15.764  1.00  0.00     0.035 C 
HETATM   10  C10 UNL     1     -12.030   8.344  15.179  1.00  0.00    -0.069 C 
HETATM   11  C11 UNL     1     -13.270   8.202  15.678  1.00  0.00     0.030 C 
HETATM   12  C12 UNL     1     -14.263   7.282  15.065  1.00  0.00     0.032 C 
HETATM   13  N1  UNL     1     -15.410   7.141  15.664  1.00  0.00    -0.271 N 
ATOM     14  H1  UNL     1     -15.650   7.581  16.553  1.00  0.00     0.194 HD
HETATM   15  C25 UNL     1     -13.887   6.623  13.755  1.00  0.00     0.060 C 
HETATM   16  C26 UNL     1     -12.402   6.284  13.751  1.00  0.00     0.020 C 
HETATM   17  C27 UNL     1     -11.477   7.509  14.016  1.00  0.00    -0.016 C 
HETATM   18  C28 UNL     1     -11.446   8.402  12.754  1.00  0.00     0.020 C 
HETATM   19  C29 UNL     1     -10.044   6.969  14.398  1.00  0.00     0.002 C 
HETATM   20  C30 UNL     1      -9.362   6.133  13.291  1.00  0.00     0.007 C 
HETATM   21  C31 UNL     1      -7.989   6.655  12.881  1.00  0.00     0.014 C 
HETATM   22  C32 UNL     1      -6.979   6.900  14.040  1.00  0.00     0.003 C 
HETATM   23  C33 UNL     1      -5.919   7.887  13.493  1.00  0.00     0.020 C 
ENDROOT
BRANCH   3  24
HETATM   24  O1  UNL     1      -5.057   5.959  15.247  1.00  0.00    -0.377 OA
HETATM   25  H2  UNL     1      -4.607   5.124  15.460  1.00  0.00     0.211 HD
ENDBRANCH   3  24
BRANCH  13  26
HETATM   26  O2  UNL     1     -16.276   6.310  14.939  1.00  0.00    -0.271 OA
BRANCH  26  27
HETATM   27  C13 UNL     1     -17.308   5.849  15.806  1.00  0.00     0.303 C 
BRANCH  27  28
HETATM   28  C14 UNL     1     -17.371   4.327  15.793  1.00  0.00     0.244 C 
HETATM   29  O3  UNL     1     -18.154   3.693  16.495  1.00  0.00    -0.271 OA
HETATM   30  N2  UNL     1     -16.529   3.734  14.876  1.00  0.00    -0.354 N 
HETATM   31  H16 UNL     1     -15.925   4.346  14.328  1.00  0.00     0.162 HD
BRANCH  30  32
HETATM   32  C15 UNL     1     -16.468   2.296  14.628  1.00  0.00     0.098 C 
BRANCH  32  33
HETATM   33  C16 UNL     1     -15.013   1.815  14.753  1.00  0.00     0.135 C 
BRANCH  33  34
HETATM   34  C17 UNL     1     -14.807   0.760  15.803  1.00  0.00     0.141 C 
HETATM   35  O4  UNL     1     -14.837   0.936  17.010  1.00  0.00    -0.650 OA
BRANCH  34  36
HETATM   36  O5  UNL     1     -14.529  -0.458  15.298  1.00  0.00    -0.776 OA
HETATM   37  H20 UNL     1     -14.399  -1.014  16.097  1.00  0.00     0.167 HD
ENDBRANCH  34  36
ENDBRANCH  33  34
ENDBRANCH  32  33
BRANCH  32  38
HETATM   38  C18 UNL     1     -17.148   1.928  13.280  1.00  0.00     0.014 C 
HETATM   39  C19 UNL     1     -16.410   0.787  12.551  1.00  0.00     0.033 C 
HETATM   40  C20 UNL     1     -17.330  -0.061  11.679  1.00  0.00     0.169 C 
HETATM   41  O6  UNL     1     -18.358   0.742  11.115  1.00  0.00    -0.381 OA
HETATM   42  C21 UNL     1     -19.293   1.251  12.080  1.00  0.00     0.054 C 
HETATM   43  C22 UNL     1     -19.846   2.550  11.479  1.00  0.00     0.045 C 
HETATM   44  C23 UNL     1     -20.444   0.250  12.237  1.00  0.00     0.045 C 
HETATM   45  C24 UNL     1     -18.627   1.532  13.447  1.00  0.00     0.044 C 
ENDBRANCH  32  38
ENDBRANCH  30  32
ENDBRANCH  27  28
ENDBRANCH  26  27
ENDBRANCH  13  26
TORSDOF 9
ENDMDL
MODEL 4
REMARK minimizedAffinity -8.05416203
REMARK CNNscore 0.309201509
REMARK CNNaffinity 6.92328787
REMARK  9 active torsions:
REMARK  status: ('A' for Active; 'I' for Inactive)
REMARK    1  A    between atoms: C3_3  and  O1_4 
REMARK    2  A    between atoms: N1_14  and  O2_16 
REMARK    3  A    between atoms: O2_16  and  C13_17 
REMARK    4  A    between atoms: C13_17  and  C14_18 
REMARK       I    between atoms: C14_18  and  N2_20 
REMARK    5  A    between atoms: N2_20  and  C15_21 
REMARK    6  A    between atoms: C15_21  and  C16_22 
REMARK    7  A    between atoms: C15_21  and  C18_26 
REMARK    8  A    between atoms: C16_22  and  C17_23 
REMARK    9  A    between atoms: C17_23  and  O5_25 
ROOT
HETATM    1  C1  UNL     1      -0.993  10.923  15.957  1.00  0.00     0.015 C 
HETATM    2  C2  UNL     1      -1.123  10.003  15.199  1.00  0.00    -0.078 C 
HETATM    3  C3  UNL     1      -1.264   8.889  14.247  1.00  0.00     0.128 C 
HETATM    4  C4  UNL     1      -2.195   9.245  13.092  1.00  0.00     0.052 C 
HETATM    5  C5  UNL     1      -2.510   7.899  12.457  1.00  0.00     0.010 C 
HETATM    6  C6  UNL     1      -2.488   6.855  13.594  1.00  0.00     0.002 C 
HETATM    7  C7  UNL     1      -3.861   6.212  13.904  1.00  0.00    -0.004 C 
HETATM    8  C8  UNL     1      -4.408   5.417  12.707  1.00  0.00     0.010 C 
HETATM    9  C9  UNL     1      -5.722   4.732  13.056  1.00  0.00     0.035 C 
HETATM   10  C10 UNL     1      -6.746   5.712  13.582  1.00  0.00    -0.069 C 
HETATM   11  C11 UNL     1      -7.975   5.744  13.039  1.00  0.00     0.030 C 
HETATM   12  C12 UNL     1      -9.056   6.599  13.594  1.00  0.00     0.032 C 
HETATM   13  N1  UNL     1     -10.189   6.636  12.955  1.00  0.00    -0.271 N 
ATOM     14  H1  UNL     1     -10.365   6.156  12.072  1.00  0.00     0.194 HD
HETATM   15  C25 UNL     1      -8.777   7.318  14.896  1.00  0.00     0.060 C 
HETATM   16  C26 UNL     1      -7.323   7.772  14.939  1.00  0.00     0.020 C 
HETATM   17  C27 UNL     1      -6.298   6.616  14.738  1.00  0.00    -0.016 C 
HETATM   18  C28 UNL     1      -6.242   5.760  16.024  1.00  0.00     0.020 C 
HETATM   19  C29 UNL     1      -4.899   7.257  14.387  1.00  0.00     0.002 C 
HETATM   20  C30 UNL     1      -4.321   8.170  15.492  1.00  0.00     0.007 C 
HETATM   21  C31 UNL     1      -2.927   7.767  15.961  1.00  0.00     0.014 C 
HETATM   22  C32 UNL     1      -1.862   7.572  14.841  1.00  0.00     0.003 C 
HETATM   23  C33 UNL     1      -0.749   6.685  15.450  1.00  0.00     0.020 C 
ENDROOT
BRANCH   3  24
HETATM   24  O1  UNL     1       0.022   8.629  13.671  1.00  0.00    -0.377 OA
HETATM   25  H2  UNL     1       0.413   9.491  13.450  1.00  0.00     0.211 HD
ENDBRANCH   3  24
BRANCH  13  26
HETATM   26  O2  UNL     1     -11.141   7.415  13.628  1.00  0.00    -0.271 OA
BRANCH  26  27
HETATM   27  C13 UNL     1     -12.152   6.560  14.152  1.00  0.00     0.303 C 
BRANCH  27  28
HETATM   28  C14 UNL     1     -13.534   7.092  13.795  1.00  0.00     0.244 C 
HETATM   29  O3  UNL     1     -14.486   6.352  13.563  1.00  0.00    -0.271 OA
HETATM   30  N2  UNL     1     -13.637   8.467  13.829  1.00  0.00    -0.354 N 
HETATM   31  H16 UNL     1     -12.792   8.996  14.047  1.00  0.00     0.162 HD
BRANCH  30  32
HETATM   32  C15 UNL     1     -14.877   9.203  13.599  1.00  0.00     0.098 C 
BRANCH  32  33
HETATM   33  C16 UNL     1     -14.910   9.710  12.148  1.00  0.00     0.135 C 
BRANCH  33  34
HETATM   34  C17 UNL     1     -15.921   9.016  11.281  1.00  0.00     0.141 C 
HETATM   35  O4  UNL     1     -16.799   9.560  10.631  1.00  0.00    -0.650 OA
BRANCH  34  36
HETATM   36  O5  UNL     1     -15.818   7.673  11.298  1.00  0.00    -0.776 OA
HETATM   37  H20 UNL     1     -16.551   7.378  10.714  1.00  0.00     0.167 HD
ENDBRANCH  34  36
ENDBRANCH  33  34
ENDBRANCH  32  33
BRANCH  32  38
HETATM   38  C18 UNL     1     -15.080  10.312  14.668  1.00  0.00     0.014 C 
HETATM   39  C19 UNL     1     -16.312  10.043  15.555  1.00  0.00     0.033 C 
HETATM   40  C20 UNL     1     -16.175  10.618  16.962  1.00  0.00     0.169 C 
HETATM   41  O6  UNL     1     -15.436  11.831  16.932  1.00  0.00    -0.381 OA
HETATM   42  C21 UNL     1     -14.055  11.661  16.573  1.00  0.00     0.054 C 
HETATM   43  C22 UNL     1     -13.623  12.990  15.938  1.00  0.00     0.045 C 
HETATM   44  C23 UNL     1     -13.232  11.432  17.846  1.00  0.00     0.045 C 
HETATM   45  C24 UNL     1     -13.849  10.498  15.575  1.00  0.00     0.044 C 
ENDBRANCH  32  38
ENDBRANCH  30  32
ENDBRANCH  27  28
ENDBRANCH  26  27
ENDBRANCH  13  26
TORSDOF 9
ENDMDL
MODEL 5
REMARK minimizedAffinity -7.45051003
REMARK CNNscore 0.301855177
REMARK CNNaffinity 6.86629534
REMARK  9 active torsions:
REMARK  status: ('A' for Active; 'I' for Inactive)
REMARK    1  A    between atoms: C3_3  and  O1_4 
REMARK    2  A    between atoms: N1_14  and  O2_16 
REMARK    3  A    between atoms: O2_16  and  C13_17 
REMARK    4  A    between atoms: C13_17  and  C14_18 
REMARK       I    between atoms: C14_18  and  N2_20 
REMARK    5  A    between atoms: N2_20  and  C15_21 
REMARK    6  A    between atoms: C15_21  and  C16_22 
REMARK    7  A    between atoms: C15_21  and  C18_26 
REMARK    8  A    between atoms: C16_22  and  C17_23 
REMARK    9  A    between atoms: C17_23  and  O5_25 
ROOT
HETATM    1  C1  UNL     1      -0.755  11.157  15.727  1.00  0.00     0.015 C 
HETATM    2  C2  UNL     1      -0.964  10.221  15.006  1.00  0.00    -0.078 C 
HETATM    3  C3  UNL     1      -1.204   9.087  14.099  1.00  0.00     0.128 C 
HETATM    4  C4  UNL     1      -2.216   9.435  13.012  1.00  0.00     0.052 C 
HETATM    5  C5  UNL     1      -2.608   8.080  12.441  1.00  0.00     0.010 C 
HETATM    6  C6  UNL     1      -2.517   7.066  13.600  1.00  0.00     0.002 C 
HETATM    7  C7  UNL     1      -3.874   6.463  14.035  1.00  0.00    -0.004 C 
HETATM    8  C8  UNL     1      -4.532   5.650  12.908  1.00  0.00     0.010 C 
HETATM    9  C9  UNL     1      -5.828   5.004  13.377  1.00  0.00     0.035 C 
HETATM   10  C10 UNL     1      -6.786   6.021  13.955  1.00  0.00    -0.069 C 
HETATM   11  C11 UNL     1      -8.054   6.067  13.511  1.00  0.00     0.030 C 
HETATM   12  C12 UNL     1      -9.069   6.961  14.126  1.00  0.00     0.032 C 
HETATM   13  N1  UNL     1     -10.248   7.007  13.578  1.00  0.00    -0.271 N 
ATOM     14  H1  UNL     1     -10.503   6.509  12.724  1.00  0.00     0.194 HD
HETATM   15  C25 UNL     1      -8.672   7.706  15.382  1.00  0.00     0.060 C 
HETATM   16  C26 UNL     1      -7.210   8.128  15.298  1.00  0.00     0.020 C 
HETATM   17  C27 UNL     1      -6.229   6.944  15.048  1.00  0.00    -0.016 C 
HETATM   18  C28 UNL     1      -6.088   6.120  16.348  1.00  0.00     0.020 C 
HETATM   19  C29 UNL     1      -4.849   7.543  14.571  1.00  0.00     0.002 C 
HETATM   20  C30 UNL     1      -4.166   8.470  15.601  1.00  0.00     0.007 C 
HETATM   21  C31 UNL     1      -2.748   8.047  15.969  1.00  0.00     0.014 C 
HETATM   22  C32 UNL     1      -1.780   7.800  14.774  1.00  0.00     0.003 C 
HETATM   23  C33 UNL     1      -0.640   6.903  15.317  1.00  0.00     0.020 C 
ENDROOT
BRANCH   3  24
HETATM   24  O1  UNL     1       0.027   8.783  13.431  1.00  0.00    -0.377 OA
HETATM   25  H2  UNL     1       0.417   9.630  13.156  1.00  0.00     0.211 HD
ENDBRANCH   3  24
BRANCH  13  26
HETATM   26  O2  UNL     1     -11.127   7.825  14.303  1.00  0.00    -0.271 OA
BRANCH  26  27
HETATM   27  C13 UNL     1     -12.445   7.295  14.197  1.00  0.00     0.303 C 
BRANCH  27  28
HETATM   28  C14 UNL     1     -13.338   8.249  13.414  1.00  0.00     0.244 C 
HETATM   29  O3  UNL     1     -13.023   8.694  12.314  1.00  0.00    -0.271 OA
HETATM   30  N2  UNL     1     -14.553   8.505  14.013  1.00  0.00    -0.354 N 
HETATM   31  H16 UNL     1     -14.730   8.077  14.921  1.00  0.00     0.162 HD
BRANCH  30  32
HETATM   32  C15 UNL     1     -15.604   9.327  13.417  1.00  0.00     0.098 C 
BRANCH  32  33
HETATM   33  C16 UNL     1     -15.463   9.308  11.886  1.00  0.00     0.135 C 
BRANCH  33  34
HETATM   34  C17 UNL     1     -16.714   8.893  11.163  1.00  0.00     0.141 C 
HETATM   35  O4  UNL     1     -17.159   9.409  10.151  1.00  0.00    -0.650 OA
BRANCH  34  36
HETATM   36  O5  UNL     1     -17.373   7.881  11.761  1.00  0.00    -0.776 OA
HETATM   37  H20 UNL     1     -18.162   7.752  11.189  1.00  0.00     0.167 HD
ENDBRANCH  34  36
ENDBRANCH  33  34
ENDBRANCH  32  33
BRANCH  32  38
HETATM   38  C18 UNL     1     -15.625  10.751  14.039  1.00  0.00     0.014 C 
HETATM   39  C19 UNL     1     -14.825  11.763  13.195  1.00  0.00     0.033 C 
HETATM   40  C20 UNL     1     -15.353  13.190  13.310  1.00  0.00     0.169 C 
HETATM   41  O6  UNL     1     -15.855  13.429  14.618  1.00  0.00    -0.381 OA
HETATM   42  C21 UNL     1     -17.038  12.676  14.932  1.00  0.00     0.054 C 
HETATM   43  C22 UNL     1     -17.031  12.507  16.458  1.00  0.00     0.045 C 
HETATM   44  C23 UNL     1     -18.272  13.492  14.532  1.00  0.00     0.045 C 
HETATM   45  C24 UNL     1     -17.052  11.293  14.239  1.00  0.00     0.044 C 
ENDBRANCH  32  38
ENDBRANCH  30  32
ENDBRANCH  27  28
ENDBRANCH  26  27
ENDBRANCH  13  26
TORSDOF 9
ENDMDL
MODEL 6
REMARK minimizedAffinity -7.3954978
REMARK CNNscore 0.298993289
REMARK CNNaffinity 6.00679207
REMARK  9 active torsions:
REMARK  status: ('A' for Active; 'I' for Inactive)
REMARK    1  A    between atoms: C3_3  and  O1_4 
REMARK    2  A    between atoms: N1_14  and  O2_16 
REMARK    3  A    between atoms: O2_16  and  C13_17 
REMARK    4  A    between atoms: C13_17  and  C14_18 
REMARK       I    between atoms: C14_18  and  N2_20 
REMARK    5  A    between atoms: N2_20  and  C15_21 
REMARK    6  A    between atoms: C15_21  and  C16_22 
REMARK    7  A    between atoms: C15_21  and  C18_26 
REMARK    8  A    between atoms: C16_22  and  C17_23 
REMARK    9  A    between atoms: C17_23  and  O5_25 
ROOT
HETATM    1  C1  UNL     1      -4.399  17.506  13.540  1.00  0.00     0.015 C 
HETATM    2  C2  UNL     1      -4.427  17.042  14.647  1.00  0.00    -0.078 C 
HETATM    3  C3  UNL     1      -4.451  16.502  16.015  1.00  0.00     0.128 C 
HETATM    4  C4  UNL     1      -3.045  16.286  16.565  1.00  0.00     0.052 C 
HETATM    5  C5  UNL     1      -3.266  15.397  17.779  1.00  0.00     0.010 C 
HETATM    6  C6  UNL     1      -4.491  14.512  17.464  1.00  0.00     0.002 C 
HETATM    7  C7  UNL     1      -4.175  13.004  17.324  1.00  0.00    -0.004 C 
HETATM    8  C8  UNL     1      -3.635  12.403  18.632  1.00  0.00     0.010 C 
HETATM    9  C9  UNL     1      -3.401  10.905  18.495  1.00  0.00     0.035 C 
HETATM   10  C10 UNL     1      -2.500  10.581  17.326  1.00  0.00    -0.069 C 
HETATM   11  C11 UNL     1      -1.425   9.794  17.512  1.00  0.00     0.030 C 
HETATM   12  C12 UNL     1      -0.576   9.344  16.380  1.00  0.00     0.032 C 
HETATM   13  N1  UNL     1       0.494   8.657  16.660  1.00  0.00    -0.271 N 
ATOM     14  H1  UNL     1       0.812   8.453  17.607  1.00  0.00     0.194 HD
HETATM   15  C25 UNL     1      -1.051   9.668  14.980  1.00  0.00     0.060 C 
HETATM   16  C26 UNL     1      -1.716  11.039  14.960  1.00  0.00     0.020 C 
HETATM   17  C27 UNL     1      -2.894  11.180  15.969  1.00  0.00    -0.016 C 
HETATM   18  C28 UNL     1      -4.115  10.397  15.434  1.00  0.00     0.020 C 
HETATM   19  C29 UNL     1      -3.205  12.716  16.149  1.00  0.00     0.002 C 
HETATM   20  C30 UNL     1      -3.647  13.433  14.853  1.00  0.00     0.007 C 
HETATM   21  C31 UNL     1      -4.993  14.142  14.967  1.00  0.00     0.014 C 
HETATM   22  C32 UNL     1      -5.152  15.112  16.174  1.00  0.00     0.003 C 
HETATM   23  C33 UNL     1      -6.674  15.283  16.398  1.00  0.00     0.020 C 
ENDROOT
BRANCH   3  24
HETATM   24  O1  UNL     1      -5.079  17.469  16.865  1.00  0.00    -0.377 OA
HETATM   25  H2  UNL     1      -4.713  18.337  16.627  1.00  0.00     0.211 HD
ENDBRANCH   3  24
BRANCH  13  26
HETATM   26  O2  UNL     1       1.157   8.232  15.500  1.00  0.00    -0.271 OA
BRANCH  26  27
HETATM   27  C13 UNL     1       2.528   8.606  15.586  1.00  0.00     0.303 C 
BRANCH  27  28
HETATM   28  C14 UNL     1       3.122   8.769  14.193  1.00  0.00     0.244 C 
HETATM   29  O3  UNL     1       3.062   9.826  13.570  1.00  0.00    -0.271 OA
HETATM   30  N2  UNL     1       3.791   7.657  13.730  1.00  0.00    -0.354 N 
HETATM   31  H16 UNL     1       3.798   6.830  14.326  1.00  0.00     0.162 HD
BRANCH  30  32
HETATM   32  C15 UNL     1       4.505   7.600  12.456  1.00  0.00     0.098 C 
BRANCH  32  33
HETATM   33  C16 UNL     1       5.220   8.938  12.210  1.00  0.00     0.135 C 
BRANCH  33  34
HETATM   34  C17 UNL     1       5.856   9.050  10.853  1.00  0.00     0.141 C 
HETATM   35  O4  UNL     1       5.427   9.700   9.914  1.00  0.00    -0.650 OA
BRANCH  34  36
HETATM   36  O5  UNL     1       6.975   8.311  10.718  1.00  0.00    -0.776 OA
HETATM   37  H20 UNL     1       7.246   8.471   9.787  1.00  0.00     0.167 HD
ENDBRANCH  34  36
ENDBRANCH  33  34
ENDBRANCH  32  33
BRANCH  32  38
HETATM   38  C18 UNL     1       3.563   7.157  11.302  1.00  0.00     0.014 C 
HETATM   39  C19 UNL     1       4.195   6.053  10.431  1.00  0.00     0.033 C 
HETATM   40  C20 UNL     1       3.163   5.124   9.798  1.00  0.00     0.169 C 
HETATM   41  O6  UNL     1       1.979   5.843   9.479  1.00  0.00    -0.381 OA
HETATM   42  C21 UNL     1       1.255   6.309  10.630  1.00  0.00     0.054 C 
HETATM   43  C22 UNL     1       0.489   7.554  10.163  1.00  0.00     0.045 C 
HETATM   44  C23 UNL     1       0.244   5.236  11.052  1.00  0.00     0.045 C 
HETATM   45  C24 UNL     1       2.194   6.666  11.806  1.00  0.00     0.044 C 
ENDBRANCH  32  38
ENDBRANCH  30  32
ENDBRANCH  27  28
ENDBRANCH  26  27
ENDBRANCH  13  26
TORSDOF 9
ENDMDL
MODEL 7
REMARK minimizedAffinity -8.9431572
REMARK CNNscore 0.279437304
REMARK CNNaffinity 7.04521751
REMARK  9 active torsions:
REMARK  status: ('A' for Active; 'I' for Inactive)
REMARK    1  A    between atoms: C3_3  and  O1_4 
REMARK    2  A    between atoms: N1_14  and  O2_16 
REMARK    3  A    between atoms: O2_16  and  C13_17 
REMARK    4  A    between atoms: C13_17  and  C14_18 
REMARK       I    between atoms: C14_18  and  N2_20 
REMARK    5  A    between atoms: N2_20  and  C15_21 
REMARK    6  A    between atoms: C15_21  and  C16_22 
REMARK    7  A    between atoms: C15_21  and  C18_26 
REMARK    8  A    between atoms: C16_22  and  C17_23 
REMARK    9  A    between atoms: C17_23  and  O5_25 
ROOT
HETATM    1  C1  UNL     1      -0.582  10.298  15.235  1.00  0.00     0.015 C 
HETATM    2  C2  UNL     1      -0.871   9.324  14.595  1.00  0.00    -0.078 C 
HETATM    3  C3  UNL     1      -1.206   8.141  13.787  1.00  0.00     0.128 C 
HETATM    4  C4  UNL     1      -2.170   8.482  12.655  1.00  0.00     0.052 C 
HETATM    5  C5  UNL     1      -2.682   7.124  12.198  1.00  0.00     0.010 C 
HETATM    6  C6  UNL     1      -2.699   6.214  13.444  1.00  0.00     0.002 C 
HETATM    7  C7  UNL     1      -4.111   5.780  13.904  1.00  0.00    -0.004 C 
HETATM    8  C8  UNL     1      -4.830   4.935  12.840  1.00  0.00     0.010 C 
HETATM    9  C9  UNL     1      -6.186   4.455  13.341  1.00  0.00     0.035 C 
HETATM   10  C10 UNL     1      -7.050   5.604  13.809  1.00  0.00    -0.069 C 
HETATM   11  C11 UNL     1      -8.303   5.728  13.338  1.00  0.00     0.030 C 
HETATM   12  C12 UNL     1      -9.236   6.763  13.853  1.00  0.00     0.032 C 
HETATM   13  N1  UNL     1     -10.400   6.869  13.280  1.00  0.00    -0.271 N 
ATOM     14  H1  UNL     1     -10.692   6.323  12.469  1.00  0.00     0.194 HD
HETATM   15  C25 UNL     1      -8.785   7.578  15.046  1.00  0.00     0.060 C 
HETATM   16  C26 UNL     1      -7.289   7.853  14.952  1.00  0.00     0.020 C 
HETATM   17  C27 UNL     1      -6.421   6.566  14.826  1.00  0.00    -0.016 C 
HETATM   18  C28 UNL     1      -6.372   5.852  16.196  1.00  0.00     0.020 C 
HETATM   19  C29 UNL     1      -4.986   6.989  14.324  1.00  0.00     0.002 C 
HETATM   20  C30 UNL     1      -4.230   7.938  15.282  1.00  0.00     0.007 C 
HETATM   21  C31 UNL     1      -2.862   7.420  15.712  1.00  0.00     0.014 C 
HETATM   22  C32 UNL     1      -1.908   6.978  14.563  1.00  0.00     0.003 C 
HETATM   23  C33 UNL     1      -0.863   6.032  15.204  1.00  0.00     0.020 C 
ENDROOT
BRANCH   3  24
HETATM   24  O1  UNL     1      -0.003   7.666  13.172  1.00  0.00    -0.377 OA
HETATM   25  H2  UNL     1       0.469   8.445  12.832  1.00  0.00     0.211 HD
ENDBRANCH   3  24
BRANCH  13  26
HETATM   26  O2  UNL     1     -11.206   7.826  13.913  1.00  0.00    -0.271 OA
BRANCH  26  27
HETATM   27  C13 UNL     1     -12.320   7.171  14.511  1.00  0.00     0.303 C 
BRANCH  27  28
HETATM   28  C14 UNL     1     -13.508   7.168  13.557  1.00  0.00     0.244 C 
HETATM   29  O3  UNL     1     -13.444   7.636  12.423  1.00  0.00    -0.271 OA
HETATM   30  N2  UNL     1     -14.628   6.533  14.050  1.00  0.00    -0.354 N 
HETATM   31  H16 UNL     1     -14.579   6.163  14.999  1.00  0.00     0.162 HD
BRANCH  30  32
HETATM   32  C15 UNL     1     -15.861   6.338  13.292  1.00  0.00     0.098 C 
BRANCH  32  33
HETATM   33  C16 UNL     1     -16.612   7.675  13.183  1.00  0.00     0.135 C 
BRANCH  33  34
HETATM   34  C17 UNL     1     -16.999   8.046  11.779  1.00  0.00     0.141 C 
HETATM   35  O4  UNL     1     -18.136   8.104  11.343  1.00  0.00    -0.650 OA
BRANCH  34  36
HETATM   36  O5  UNL     1     -15.945   8.285  10.973  1.00  0.00    -0.776 OA
HETATM   37  H20 UNL     1     -16.360   8.484  10.105  1.00  0.00     0.167 HD
ENDBRANCH  34  36
ENDBRANCH  33  34
ENDBRANCH  32  33
BRANCH  32  38
HETATM   38  C18 UNL     1     -16.707   5.176  13.883  1.00  0.00     0.014 C 
HETATM   39  C19 UNL     1     -17.503   4.428  12.794  1.00  0.00     0.033 C 
HETATM   40  C20 UNL     1     -17.749   2.961  13.135  1.00  0.00     0.169 C 
HETATM   41  O6  UNL     1     -17.925   2.800  14.535  1.00  0.00    -0.381 OA
HETATM   42  C21 UNL     1     -16.739   3.060  15.304  1.00  0.00     0.054 C 
HETATM   43  C22 UNL     1     -17.229   3.511  16.686  1.00  0.00     0.045 C 
HETATM   44  C23 UNL     1     -15.949   1.755  15.461  1.00  0.00     0.045 C 
HETATM   45  C24 UNL     1     -15.857   4.157  14.663  1.00  0.00     0.044 C 
ENDBRANCH  32  38
ENDBRANCH  30  32
ENDBRANCH  27  28
ENDBRANCH  26  27
ENDBRANCH  13  26
TORSDOF 9
ENDMDL
MODEL 8
REMARK minimizedAffinity -7.48774719
REMARK CNNscore 0.267589718
REMARK CNNaffinity 6.50958633
REMARK  9 active torsions:
REMARK  status: ('A' for Active; 'I' for Inactive)
REMARK    1  A    between atoms: C3_3  and  O1_4 
REMARK    2  A    between atoms: N1_14  and  O2_16 
REMARK    3  A    between atoms: O2_16  and  C13_17 
REMARK    4  A    between atoms: C13_17  and  C14_18 
REMARK       I    between atoms: C14_18  and  N2_20 
REMARK    5  A    between atoms: N2_20  and  C15_21 
REMARK    6  A    between atoms: C15_21  and  C16_22 
REMARK    7  A    between atoms: C15_21  and  C18_26 
REMARK    8  A    between atoms: C16_22  and  C17_23 
REMARK    9  A    between atoms: C17_23  and  O5_25 
ROOT
HETATM    1  C1  UNL     1     -12.484   3.747  30.249  1.00  0.00     0.015 C 
HETATM    2  C2  UNL     1     -13.019   3.219  29.313  1.00  0.00    -0.078 C 
HETATM    3  C3  UNL     1     -13.659   2.545  28.172  1.00  0.00     0.128 C 
HETATM    4  C4  UNL     1     -12.695   2.367  27.005  1.00  0.00     0.052 C 
HETATM    5  C5  UNL     1     -13.605   2.025  25.835  1.00  0.00     0.010 C 
HETATM    6  C6  UNL     1     -14.939   2.762  26.081  1.00  0.00     0.002 C 
HETATM    7  C7  UNL     1     -15.254   3.879  25.058  1.00  0.00    -0.004 C 
HETATM    8  C8  UNL     1     -15.415   3.328  23.632  1.00  0.00     0.010 C 
HETATM    9  C9  UNL     1     -15.797   4.430  22.654  1.00  0.00     0.035 C 
HETATM   10  C10 UNL     1     -14.818   5.581  22.693  1.00  0.00    -0.069 C 
HETATM   11  C11 UNL     1     -14.273   6.029  21.549  1.00  0.00     0.030 C 
HETATM   12  C12 UNL     1     -13.401   7.231  21.513  1.00  0.00     0.032 C 
HETATM   13  N1  UNL     1     -12.845   7.544  20.378  1.00  0.00    -0.271 N 
ATOM     14  H1  UNL     1     -12.929   6.988  19.527  1.00  0.00     0.194 HD
HETATM   15  C25 UNL     1     -13.273   8.038  22.787  1.00  0.00     0.060 C 
HETATM   16  C26 UNL     1     -13.270   7.108  23.994  1.00  0.00     0.020 C 
HETATM   17  C27 UNL     1     -14.518   6.180  24.074  1.00  0.00    -0.016 C 
HETATM   18  C28 UNL     1     -15.743   7.015  24.512  1.00  0.00     0.020 C 
HETATM   19  C29 UNL     1     -14.199   5.015  25.089  1.00  0.00     0.002 C 
HETATM   20  C30 UNL     1     -13.909   5.488  26.532  1.00  0.00     0.007 C 
HETATM   21  C31 UNL     1     -14.807   4.847  27.584  1.00  0.00     0.014 C 
HETATM   22  C32 UNL     1     -14.887   3.292  27.557  1.00  0.00     0.003 C 
HETATM   23  C33 UNL     1     -16.194   2.910  28.295  1.00  0.00     0.020 C 
ENDROOT
BRANCH   3  24
HETATM   24  O1  UNL     1     -14.043   1.230  28.591  1.00  0.00    -0.377 OA
HETATM   25  H2  UNL     1     -13.297   0.862  29.094  1.00  0.00     0.211 HD
ENDBRANCH   3  24
BRANCH  13  26
HETATM   26  O2  UNL     1     -12.117   8.739  20.468  1.00  0.00    -0.271 OA
BRANCH  26  27
HETATM   27  C13 UNL     1     -12.671   9.688  19.562  1.00  0.00     0.303 C 
BRANCH  27  28
HETATM   28  C14 UNL     1     -11.578  10.284  18.684  1.00  0.00     0.244 C 
HETATM   29  O3  UNL     1     -11.002  11.330  18.969  1.00  0.00    -0.271 OA
HETATM   30  N2  UNL     1     -11.247   9.512  17.591  1.00  0.00    -0.354 N 
HETATM   31  H16 UNL     1     -11.773   8.650  17.447  1.00  0.00     0.162 HD
BRANCH  30  32
HETATM   32  C15 UNL     1     -10.178   9.839  16.650  1.00  0.00     0.098 C 
BRANCH  32  33
HETATM   33  C16 UNL     1     -10.171  11.353  16.389  1.00  0.00     0.135 C 
BRANCH  33  34
HETATM   34  C17 UNL     1     -11.099  11.789  15.290  1.00  0.00     0.141 C 
HETATM   35  O4  UNL     1     -12.317  11.820  15.353  1.00  0.00    -0.650 OA
BRANCH  34  36
HETATM   36  O5  UNL     1     -10.466  12.124  14.148  1.00  0.00    -0.776 OA
HETATM   37  H20 UNL     1     -11.200  12.354  13.537  1.00  0.00     0.167 HD
ENDBRANCH  34  36
ENDBRANCH  33  34
ENDBRANCH  32  33
BRANCH  32  38
HETATM   38  C18 UNL     1     -10.276   8.970  15.365  1.00  0.00     0.014 C 
HETATM   39  C19 UNL     1      -9.156   7.913  15.294  1.00  0.00     0.033 C 
HETATM   40  C20 UNL     1      -9.564   6.657  14.528  1.00  0.00     0.169 C 
HETATM   41  O6  UNL     1     -10.445   6.990  13.465  1.00  0.00    -0.381 OA
HETATM   42  C21 UNL     1     -11.728   7.469  13.901  1.00  0.00     0.054 C 
HETATM   43  C22 UNL     1     -12.238   8.378  12.775  1.00  0.00     0.045 C 
HETATM   44  C23 UNL     1     -12.683   6.279  14.047  1.00  0.00     0.045 C 
HETATM   45  C24 UNL     1     -11.635   8.260  15.228  1.00  0.00     0.044 C 
ENDBRANCH  32  38
ENDBRANCH  30  32
ENDBRANCH  27  28
ENDBRANCH  26  27
ENDBRANCH  13  26
TORSDOF 9
ENDMDL
MODEL 9
REMARK minimizedAffinity -8.38885307
REMARK CNNscore 0.239778563
REMARK CNNaffinity 5.75935602
REMARK  9 active torsions:
REMARK  status: ('A' for Active; 'I' for Inactive)
REMARK    1  A    between atoms: C3_3  and  O1_4 
REMARK    2  A    between atoms: N1_14  and  O2_16 
REMARK    3  A    between atoms: O2_16  and  C13_17 
REMARK    4  A    between atoms: C13_17  and  C14_18 
REMARK       I    between atoms: C14_18  and  N2_20 
REMARK    5  A    between atoms: N2_20  and  C15_21 
REMARK    6  A    between atoms: C15_21  and  C16_22 
REMARK    7  A    between atoms: C15_21  and  C18_26 
REMARK    8  A    between atoms: C16_22  and  C17_23 
REMARK    9  A    between atoms: C17_23  and  O5_25 
ROOT
HETATM    1  C1  UNL     1      -5.020  -9.147   7.709  1.00  0.00     0.015 C 
HETATM    2  C2  UNL     1      -4.299  -9.618   6.872  1.00  0.00    -0.078 C 
HETATM    3  C3  UNL     1      -3.391 -10.177   5.858  1.00  0.00     0.128 C 
HETATM    4  C4  UNL     1      -3.026  -9.148   4.794  1.00  0.00     0.052 C 
HETATM    5  C5  UNL     1      -2.428  -9.986   3.674  1.00  0.00     0.010 C 
HETATM    6  C6  UNL     1      -3.147 -11.351   3.708  1.00  0.00     0.002 C 
HETATM    7  C7  UNL     1      -4.030 -11.644   2.472  1.00  0.00    -0.004 C 
HETATM    8  C8  UNL     1      -3.205 -11.714   1.177  1.00  0.00     0.010 C 
HETATM    9  C9  UNL     1      -4.079 -12.076  -0.015  1.00  0.00     0.035 C 
HETATM   10  C10 UNL     1      -5.252 -11.133  -0.159  1.00  0.00    -0.069 C 
HETATM   11  C11 UNL     1      -5.489 -10.541  -1.343  1.00  0.00     0.030 C 
HETATM   12  C12 UNL     1      -6.693  -9.703  -1.575  1.00  0.00     0.032 C 
HETATM   13  N1  UNL     1      -6.799  -9.098  -2.722  1.00  0.00    -0.271 N 
ATOM     14  H1  UNL     1      -6.084  -9.120  -3.450  1.00  0.00     0.194 HD
HETATM   15  C25 UNL     1      -7.738  -9.665  -0.480  1.00  0.00     0.060 C 
HETATM   16  C26 UNL     1      -7.062  -9.699   0.885  1.00  0.00     0.020 C 
HETATM   17  C27 UNL     1      -6.120 -10.923   1.089  1.00  0.00    -0.016 C 
HETATM   18  C28 UNL     1      -6.978 -12.193   1.298  1.00  0.00     0.020 C 
HETATM   19  C29 UNL     1      -5.189 -10.625   2.327  1.00  0.00     0.002 C 
HETATM   20  C30 UNL     1      -5.945 -10.424   3.660  1.00  0.00     0.007 C 
HETATM   21  C31 UNL     1      -5.489 -11.358   4.776  1.00  0.00     0.014 C 
HETATM   22  C32 UNL     1      -3.956 -11.392   5.052  1.00  0.00     0.003 C 
HETATM   23  C33 UNL     1      -3.677 -12.724   5.790  1.00  0.00     0.020 C 
ENDROOT
BRANCH   3  24
HETATM   24  O1  UNL     1      -2.169 -10.546   6.509  1.00  0.00    -0.377 OA
HETATM   25  H2  UNL     1      -1.937  -9.817   7.109  1.00  0.00     0.211 HD
ENDBRANCH   3  24
BRANCH  13  26
HETATM   26  O2  UNL     1      -8.015  -8.409  -2.837  1.00  0.00    -0.271 OA
BRANCH  26  27
HETATM   27  C13 UNL     1      -7.750  -7.060  -3.206  1.00  0.00     0.303 C 
BRANCH  27  28
HETATM   28  C14 UNL     1      -9.042  -6.353  -3.597  1.00  0.00     0.244 C 
HETATM   29  O3  UNL     1      -9.958  -6.168  -2.800  1.00  0.00    -0.271 OA
HETATM   30  N2  UNL     1      -9.058  -5.880  -4.891  1.00  0.00    -0.354 N 
HETATM   31  H16 UNL     1      -8.243  -6.071  -5.473  1.00  0.00     0.162 HD
BRANCH  30  32
HETATM   32  C15 UNL     1     -10.155  -5.106  -5.468  1.00  0.00     0.098 C 
BRANCH  32  33
HETATM   33  C16 UNL     1     -10.958  -5.994  -6.431  1.00  0.00     0.135 C 
BRANCH  33  34
HETATM   34  C17 UNL     1     -12.081  -6.747  -5.775  1.00  0.00     0.141 C 
HETATM   35  O4  UNL     1     -12.751  -7.626  -6.293  1.00  0.00    -0.650 OA
BRANCH  34  36
HETATM   36  O5  UNL     1     -12.344  -6.339  -4.518  1.00  0.00    -0.776 OA
HETATM   37  H20 UNL     1     -13.103  -6.901  -4.248  1.00  0.00     0.167 HD
ENDBRANCH  34  36
ENDBRANCH  33  34
ENDBRANCH  32  33
BRANCH  32  38
HETATM   38  C18 UNL     1      -9.638  -3.783  -6.099  1.00  0.00     0.014 C 
HETATM   39  C19 UNL     1     -10.436  -3.394  -7.360  1.00  0.00     0.033 C 
HETATM   40  C20 UNL     1     -10.488  -1.886  -7.595  1.00  0.00     0.169 C 
HETATM   41  O6  UNL     1      -9.277  -1.277  -7.170  1.00  0.00    -0.381 OA
HETATM   42  C21 UNL     1      -9.071  -1.322  -5.748  1.00  0.00     0.054 C 
HETATM   43  C22 UNL     1      -7.551  -1.284  -5.546  1.00  0.00     0.045 C 
HETATM   44  C23 UNL     1      -9.685  -0.069  -5.113  1.00  0.00     0.045 C 
HETATM   45  C24 UNL     1      -9.666  -2.601  -5.113  1.00  0.00     0.044 C 
ENDBRANCH  32  38
ENDBRANCH  30  32
ENDBRANCH  27  28
ENDBRANCH  26  27
ENDBRANCH  13  26
TORSDOF 9
ENDMDL
