MODEL 1
REMARK minimizedAffinity -7.84414816
REMARK  4 active torsions:
REMARK  status: ('A' for Active; 'I' for Inactive)
REMARK    1  A    between atoms: N1_5  and  C5_6 
REMARK    2  A    between atoms: C5_6  and  C6_7 
REMARK    3  A    between atoms: C6_7  and  N2_8 
REMARK    4  A    between atoms: N3_11  and  C9_12 
ROOT
HETATM    1  N2  UNL     1      -0.197   4.794  12.185  1.00  0.00    -0.331 N 
HETATM    2  C7  UNL     1      -0.477   5.769  13.205  1.00  0.00     0.148 C 
HETATM    3  C8  UNL     1      -1.877   5.402  13.668  1.00  0.00     0.154 C 
HETATM    4  N3  UNL     1      -2.427   4.627  12.574  1.00  0.00    -0.298 N 
HETATM    5  C15 UNL     1      -1.388   4.227  11.702  1.00  0.00     0.325 C 
HETATM    6  O1  UNL     1      -1.452   3.535  10.700  1.00  0.00    -0.247 OA
ENDROOT
BRANCH   1   7
HETATM    7  C6  UNL     1       1.041   4.795  11.421  1.00  0.00     0.158 C 
BRANCH   7   8
HETATM    8  C5  UNL     1       1.458   6.201  10.953  1.00  0.00     0.292 C 
BRANCH   8   9
HETATM    9  N1  UNL     1       1.454   6.299   9.487  1.00  0.00     0.091 N 
HETATM   10  C4  UNL     1       1.134   7.684   9.063  1.00  0.00     0.283 C 
HETATM   11  C2  UNL     1       2.283   7.582   8.021  1.00  0.00     0.005 C 
HETATM   12  C1  UNL     1       1.845   7.105   6.636  1.00  0.00     0.018 C 
HETATM   13  C3  UNL     1       3.170   8.818   7.937  1.00  0.00     0.018 C 
HETATM   14  C16 UNL     1       2.827   6.461   8.950  1.00  0.00     0.283 C 
ENDBRANCH   8   9
ENDBRANCH   7   8
ENDBRANCH   1   7
BRANCH   4  15
HETATM   15  C9  UNL     1      -3.795   4.254  12.500  1.00  0.00     0.040 A 
HETATM   16  C10 UNL     1      -4.787   5.064  13.083  1.00  0.00     0.030 A 
HETATM   17  C11 UNL     1      -6.142   4.718  13.019  1.00  0.00     0.004 A 
HETATM   18  C12 UNL     1      -6.532   3.554  12.368  1.00  0.00     0.024 A 
HETATM   19  C13 UNL     1      -5.565   2.741  11.785  1.00  0.00     0.036 A 
HETATM   20 CL1  UNL     1      -6.047   1.301  10.974  1.00  0.00    -0.084 Cl
HETATM   21  C14 UNL     1      -4.211   3.085  11.849  1.00  0.00     0.053 A 
ENDBRANCH   4  15
TORSDOF 4
ENDMDL
MODEL 2
REMARK minimizedAffinity -7.68496084
REMARK  4 active torsions:
REMARK  status: ('A' for Active; 'I' for Inactive)
REMARK    1  A    between atoms: N1_5  and  C5_6 
REMARK    2  A    between atoms: C5_6  and  C6_7 
REMARK    3  A    between atoms: C6_7  and  N2_8 
REMARK    4  A    between atoms: N3_11  and  C9_12 
ROOT
HETATM    1  N2  UNL     1      -0.876   5.332  12.143  1.00  0.00    -0.331 N 
HETATM    2  C7  UNL     1      -1.592   6.238  13.001  1.00  0.00     0.148 C 
HETATM    3  C8  UNL     1      -2.848   5.463  13.362  1.00  0.00     0.154 C 
HETATM    4  N3  UNL     1      -2.965   4.461  12.322  1.00  0.00    -0.298 N 
HETATM    5  C15 UNL     1      -1.743   4.360  11.615  1.00  0.00     0.325 C 
HETATM    6  O1  UNL     1      -1.444   3.607  10.705  1.00  0.00    -0.247 OA
ENDROOT
BRANCH   1   7
HETATM    7  C6  UNL     1       0.387   5.684  11.513  1.00  0.00     0.158 C 
BRANCH   7   8
HETATM    8  C5  UNL     1       0.346   7.051  10.806  1.00  0.00     0.292 C 
BRANCH   8   9
HETATM    9  N1  UNL     1       0.661   6.921   9.376  1.00  0.00     0.091 N 
HETATM   10  C4  UNL     1       0.770   8.260   8.748  1.00  0.00     0.283 C 
HETATM   11  C2  UNL     1       2.048   7.762   8.015  1.00  0.00     0.005 C 
HETATM   12  C1  UNL     1       1.798   7.180   6.624  1.00  0.00     0.018 C 
HETATM   13  C3  UNL     1       3.201   8.757   8.010  1.00  0.00     0.018 C 
HETATM   14  C16 UNL     1       2.112   6.708   9.157  1.00  0.00     0.283 C 
ENDBRANCH   8   9
ENDBRANCH   7   8
ENDBRANCH   1   7
BRANCH   4  15
HETATM   15  C9  UNL     1      -4.116   3.645  12.156  1.00  0.00     0.040 A 
HETATM   16  C10 UNL     1      -4.007   2.371  11.571  1.00  0.00     0.030 A 
HETATM   17  C11 UNL     1      -5.126   1.548  11.399  1.00  0.00     0.004 A 
HETATM   18  C12 UNL     1      -6.379   1.985  11.813  1.00  0.00     0.024 A 
HETATM   19  C13 UNL     1      -6.505   3.242  12.395  1.00  0.00     0.036 A 
HETATM   20 CL1  UNL     1      -8.056   3.783  12.913  1.00  0.00    -0.084 Cl
HETATM   21  C14 UNL     1      -5.388   4.066  12.566  1.00  0.00     0.053 A 
ENDBRANCH   4  15
TORSDOF 4
ENDMDL
MODEL 3
REMARK minimizedAffinity -7.4853735
REMARK  4 active torsions:
REMARK  status: ('A' for Active; 'I' for Inactive)
REMARK    1  A    between atoms: N1_5  and  C5_6 
REMARK    2  A    between atoms: C5_6  and  C6_7 
REMARK    3  A    between atoms: C6_7  and  N2_8 
REMARK    4  A    between atoms: N3_11  and  C9_12 
ROOT
HETATM    1  N2  UNL     1      -0.558   5.125  11.739  1.00  0.00    -0.331 N 
HETATM    2  C7  UNL     1      -0.722   3.707  11.561  1.00  0.00     0.148 C 
HETATM    3  C8  UNL     1      -2.230   3.520  11.593  1.00  0.00     0.154 C 
HETATM    4  N3  UNL     1      -2.726   4.703  12.265  1.00  0.00    -0.298 N 
HETATM    5  C15 UNL     1      -1.712   5.689  12.309  1.00  0.00     0.325 C 
HETATM    6  O1  UNL     1      -1.763   6.823  12.755  1.00  0.00    -0.247 OA
ENDROOT
BRANCH   1   7
HETATM    7  C6  UNL     1       0.749   5.758  11.819  1.00  0.00     0.158 C 
BRANCH   7   8
HETATM    8  C5  UNL     1       1.682   5.361  10.661  1.00  0.00     0.292 C 
BRANCH   8   9
HETATM    9  N1  UNL     1       2.255   6.546  10.007  1.00  0.00     0.091 N 
HETATM   10  C4  UNL     1       2.988   6.153   8.779  1.00  0.00     0.283 C 
HETATM   11  C2  UNL     1       2.318   7.354   8.051  1.00  0.00     0.005 C 
HETATM   12  C1  UNL     1       3.135   8.646   8.071  1.00  0.00     0.018 C 
HETATM   13  C3  UNL     1       1.801   7.036   6.653  1.00  0.00     0.018 C 
HETATM   14  C16 UNL     1       1.248   7.246   9.173  1.00  0.00     0.283 C 
ENDBRANCH   8   9
ENDBRANCH   7   8
ENDBRANCH   1   7
BRANCH   4  15
HETATM   15  C9  UNL     1      -4.073   4.846  12.693  1.00  0.00     0.040 A 
HETATM   16  C10 UNL     1      -4.524   6.065  13.231  1.00  0.00     0.030 A 
HETATM   17  C11 UNL     1      -5.847   6.230  13.656  1.00  0.00     0.004 A 
HETATM   18  C12 UNL     1      -6.747   5.176  13.549  1.00  0.00     0.024 A 
HETATM   19  C13 UNL     1      -6.319   3.964  13.018  1.00  0.00     0.036 A 
HETATM   20 CL1  UNL     1      -7.435   2.660  12.879  1.00  0.00    -0.084 Cl
HETATM   21  C14 UNL     1      -4.997   3.797  12.594  1.00  0.00     0.053 A 
ENDBRANCH   4  15
TORSDOF 4
ENDMDL
MODEL 4
REMARK minimizedAffinity -7.43831635
REMARK  4 active torsions:
REMARK  status: ('A' for Active; 'I' for Inactive)
REMARK    1  A    between atoms: N1_5  and  C5_6 
REMARK    2  A    between atoms: C5_6  and  C6_7 
REMARK    3  A    between atoms: C6_7  and  N2_8 
REMARK    4  A    between atoms: N3_11  and  C9_12 
ROOT
HETATM    1  N2  UNL     1      -1.692   6.228  12.734  1.00  0.00    -0.331 N 
HETATM    2  C7  UNL     1      -2.526   7.401  12.768  1.00  0.00     0.148 C 
HETATM    3  C8  UNL     1      -3.892   6.851  13.141  1.00  0.00     0.154 C 
HETATM    4  N3  UNL     1      -3.823   5.446  12.795  1.00  0.00    -0.298 N 
HETATM    5  C15 UNL     1      -2.474   5.069  12.592  1.00  0.00     0.325 C 
HETATM    6  O1  UNL     1      -2.016   3.970  12.328  1.00  0.00    -0.247 OA
ENDROOT
BRANCH   1   7
HETATM    7  C6  UNL     1      -0.285   6.279  12.368  1.00  0.00     0.158 C 
BRANCH   7   8
HETATM    8  C5  UNL     1      -0.062   6.308  10.845  1.00  0.00     0.292 C 
BRANCH   8   9
HETATM    9  N1  UNL     1       1.202   6.977  10.504  1.00  0.00     0.091 N 
HETATM   10  C4  UNL     1       1.942   6.193   9.487  1.00  0.00     0.283 C 
HETATM   11  C2  UNL     1       2.234   7.524   8.739  1.00  0.00     0.005 C 
HETATM   12  C1  UNL     1       3.555   8.192   9.120  1.00  0.00     0.018 C 
HETATM   13  C3  UNL     1       2.055   7.452   7.227  1.00  0.00     0.018 C 
HETATM   14  C16 UNL     1       0.993   8.057   9.509  1.00  0.00     0.283 C 
ENDBRANCH   8   9
ENDBRANCH   7   8
ENDBRANCH   1   7
BRANCH   4  15
HETATM   15  C9  UNL     1      -4.957   4.591  12.790  1.00  0.00     0.040 A 
HETATM   16  C10 UNL     1      -6.080   4.894  13.582  1.00  0.00     0.030 A 
HETATM   17  C11 UNL     1      -7.211   4.069  13.591  1.00  0.00     0.004 A 
HETATM   18  C12 UNL     1      -7.240   2.923  12.805  1.00  0.00     0.024 A 
HETATM   19  C13 UNL     1      -6.140   2.609  12.015  1.00  0.00     0.036 A 
HETATM   20 CL1  UNL     1      -6.177   1.192  11.036  1.00  0.00    -0.084 Cl
HETATM   21  C14 UNL     1      -5.009   3.432  12.005  1.00  0.00     0.053 A 
ENDBRANCH   4  15
TORSDOF 4
ENDMDL
MODEL 5
REMARK minimizedAffinity -7.25584412
REMARK  4 active torsions:
REMARK  status: ('A' for Active; 'I' for Inactive)
REMARK    1  A    between atoms: N1_5  and  C5_6 
REMARK    2  A    between atoms: C5_6  and  C6_7 
REMARK    3  A    between atoms: C6_7  and  N2_8 
REMARK    4  A    between atoms: N3_11  and  C9_12 
ROOT
HETATM    1  N2  UNL     1      -1.610   5.023  11.850  1.00  0.00    -0.331 N 
HETATM    2  C7  UNL     1      -1.719   3.924  10.928  1.00  0.00     0.148 C 
HETATM    3  C8  UNL     1      -3.214   3.661  10.867  1.00  0.00     0.154 C 
HETATM    4  N3  UNL     1      -3.735   4.256  12.081  1.00  0.00    -0.298 N 
HETATM    5  C15 UNL     1      -2.764   5.116  12.647  1.00  0.00     0.325 C 
HETATM    6  O1  UNL     1      -2.848   5.818  13.640  1.00  0.00    -0.247 OA
ENDROOT
BRANCH   1   7
HETATM    7  C6  UNL     1      -0.330   5.584  12.252  1.00  0.00     0.158 C 
BRANCH   7   8
HETATM    8  C5  UNL     1       0.865   4.923  11.542  1.00  0.00     0.292 C 
BRANCH   8   9
HETATM    9  N1  UNL     1       1.843   5.926  11.096  1.00  0.00     0.091 N 
HETATM   10  C4  UNL     1       2.811   5.318  10.151  1.00  0.00     0.283 C 
HETATM   11  C2  UNL     1       2.657   6.578   9.254  1.00  0.00     0.005 C 
HETATM   12  C1  UNL     1       3.681   7.681   9.523  1.00  0.00     0.018 C 
HETATM   13  C3  UNL     1       2.528   6.282   7.764  1.00  0.00     0.018 C 
HETATM   14  C16 UNL     1       1.301   6.758   9.994  1.00  0.00     0.283 C 
ENDBRANCH   8   9
ENDBRANCH   7   8
ENDBRANCH   1   7
BRANCH   4  15
HETATM   15  C9  UNL     1      -5.069   4.063  12.529  1.00  0.00     0.040 A 
HETATM   16  C10 UNL     1      -5.801   2.933  12.120  1.00  0.00     0.030 A 
HETATM   17  C11 UNL     1      -7.115   2.720  12.550  1.00  0.00     0.004 A 
HETATM   18  C12 UNL     1      -7.724   3.634  13.402  1.00  0.00     0.024 A 
HETATM   19  C13 UNL     1      -7.015   4.756  13.818  1.00  0.00     0.036 A 
HETATM   20 CL1  UNL     1      -7.766   5.887  14.878  1.00  0.00    -0.084 Cl
HETATM   21  C14 UNL     1      -5.701   4.971  13.388  1.00  0.00     0.053 A 
ENDBRANCH   4  15
TORSDOF 4
ENDMDL
MODEL 6
REMARK minimizedAffinity -7.22839737
REMARK  4 active torsions:
REMARK  status: ('A' for Active; 'I' for Inactive)
REMARK    1  A    between atoms: N1_5  and  C5_6 
REMARK    2  A    between atoms: C5_6  and  C6_7 
REMARK    3  A    between atoms: C6_7  and  N2_8 
REMARK    4  A    between atoms: N3_11  and  C9_12 
ROOT
HETATM    1  N2  UNL     1      -1.857   6.154  12.744  1.00  0.00    -0.331 N 
HETATM    2  C7  UNL     1      -2.699   7.293  12.997  1.00  0.00     0.148 C 
HETATM    3  C8  UNL     1      -4.027   6.669  13.392  1.00  0.00     0.154 C 
HETATM    4  N3  UNL     1      -3.968   5.325  12.855  1.00  0.00    -0.298 N 
HETATM    5  C15 UNL     1      -2.634   5.008  12.504  1.00  0.00     0.325 C 
HETATM    6  O1  UNL     1      -2.186   3.964  12.061  1.00  0.00    -0.247 OA
ENDROOT
BRANCH   1   7
HETATM    7  C6  UNL     1      -0.483   6.283  12.285  1.00  0.00     0.158 C 
BRANCH   7   8
HETATM    8  C5  UNL     1      -0.263   7.512  11.385  1.00  0.00     0.292 C 
BRANCH   8   9
HETATM    9  N1  UNL     1       0.464   7.152  10.158  1.00  0.00     0.091 N 
HETATM   10  C4  UNL     1       1.724   7.927  10.060  1.00  0.00     0.283 C 
HETATM   11  C2  UNL     1       2.443   6.615   9.636  1.00  0.00     0.005 C 
HETATM   12  C1  UNL     1       2.517   6.389   8.126  1.00  0.00     0.018 C 
HETATM   13  C3  UNL     1       3.794   6.390  10.305  1.00  0.00     0.018 C 
HETATM   14  C16 UNL     1       1.251   5.908  10.339  1.00  0.00     0.283 C 
ENDBRANCH   8   9
ENDBRANCH   7   8
ENDBRANCH   1   7
BRANCH   4  15
HETATM   15  C9  UNL     1      -5.090   4.455  12.818  1.00  0.00     0.040 A 
HETATM   16  C10 UNL     1      -6.227   4.725  13.601  1.00  0.00     0.030 A 
HETATM   17  C11 UNL     1      -7.346   3.884  13.579  1.00  0.00     0.004 A 
HETATM   18  C12 UNL     1      -7.349   2.755  12.769  1.00  0.00     0.024 A 
HETATM   19  C13 UNL     1      -6.234   2.472  11.988  1.00  0.00     0.036 A 
HETATM   20 CL1  UNL     1      -6.239   1.075  10.980  1.00  0.00    -0.084 Cl
HETATM   21  C14 UNL     1      -5.115   3.311  12.010  1.00  0.00     0.053 A 
ENDBRANCH   4  15
TORSDOF 4
ENDMDL
MODEL 7
REMARK minimizedAffinity -6.91423559
REMARK  4 active torsions:
REMARK  status: ('A' for Active; 'I' for Inactive)
REMARK    1  A    between atoms: N1_5  and  C5_6 
REMARK    2  A    between atoms: C5_6  and  C6_7 
REMARK    3  A    between atoms: C6_7  and  N2_8 
REMARK    4  A    between atoms: N3_11  and  C9_12 
ROOT
HETATM    1  N2  UNL     1      -0.849   5.146  13.403  1.00  0.00    -0.331 N 
HETATM    2  C7  UNL     1      -1.244   5.817  14.613  1.00  0.00     0.148 C 
HETATM    3  C8  UNL     1      -2.695   5.400  14.790  1.00  0.00     0.154 C 
HETATM    4  N3  UNL     1      -3.112   4.978  13.468  1.00  0.00    -0.298 N 
HETATM    5  C15 UNL     1      -1.977   4.786  12.646  1.00  0.00     0.325 C 
HETATM    6  O1  UNL     1      -1.923   4.398  11.491  1.00  0.00    -0.247 OA
ENDROOT
BRANCH   1   7
HETATM    7  C6  UNL     1       0.474   5.301  12.819  1.00  0.00     0.158 C 
BRANCH   7   8
HETATM    8  C5  UNL     1       0.900   6.774  12.677  1.00  0.00     0.292 C 
BRANCH   8   9
HETATM    9  N1  UNL     1       0.339   7.377  11.460  1.00  0.00     0.091 N 
HETATM   10  C4  UNL     1       1.235   8.445  10.953  1.00  0.00     0.283 C 
HETATM   11  C2  UNL     1       1.030   7.874   9.522  1.00  0.00     0.005 C 
HETATM   12  C1  UNL     1      -0.111   8.520   8.736  1.00  0.00     0.018 C 
HETATM   13  C3  UNL     1       2.304   7.781   8.691  1.00  0.00     0.018 C 
HETATM   14  C16 UNL     1       0.646   6.561  10.260  1.00  0.00     0.283 C 
ENDBRANCH   8   9
ENDBRANCH   7   8
ENDBRANCH   1   7
BRANCH   4  15
HETATM   15  C9  UNL     1      -4.465   4.701  13.134  1.00  0.00     0.040 A 
HETATM   16  C10 UNL     1      -4.794   3.541  12.409  1.00  0.00     0.030 A 
HETATM   17  C11 UNL     1      -6.120   3.244  12.070  1.00  0.00     0.004 A 
HETATM   18  C12 UNL     1      -7.143   4.103  12.453  1.00  0.00     0.024 A 
HETATM   19  C13 UNL     1      -6.835   5.254  13.171  1.00  0.00     0.036 A 
HETATM   20 CL1  UNL     1      -8.103   6.317  13.650  1.00  0.00    -0.084 Cl
HETATM   21  C14 UNL     1      -5.511   5.552  13.509  1.00  0.00     0.053 A 
ENDBRANCH   4  15
TORSDOF 4
ENDMDL
MODEL 8
REMARK minimizedAffinity -6.88955212
REMARK  4 active torsions:
REMARK  status: ('A' for Active; 'I' for Inactive)
REMARK    1  A    between atoms: N1_5  and  C5_6 
REMARK    2  A    between atoms: C5_6  and  C6_7 
REMARK    3  A    between atoms: C6_7  and  N2_8 
REMARK    4  A    between atoms: N3_11  and  C9_12 
ROOT
HETATM    1  N2  UNL     1      -8.987   6.743  14.173  1.00  0.00    -0.331 N 
HETATM    2  C7  UNL     1      -8.431   6.447  15.467  1.00  0.00     0.148 C 
HETATM    3  C8  UNL     1      -7.076   5.844  15.139  1.00  0.00     0.154 C 
HETATM    4  N3  UNL     1      -7.200   5.403  13.765  1.00  0.00    -0.298 N 
HETATM    5  C15 UNL     1      -8.344   5.991  13.175  1.00  0.00     0.325 C 
HETATM    6  O1  UNL     1      -8.754   5.892  12.031  1.00  0.00    -0.247 OA
ENDROOT
BRANCH   1   7
HETATM    7  C6  UNL     1     -10.320   7.301  14.003  1.00  0.00     0.158 C 
BRANCH   7   8
HETATM    8  C5  UNL     1     -10.456   8.719  14.584  1.00  0.00     0.292 C 
BRANCH   8   9
HETATM    9  N1  UNL     1     -11.504   9.482  13.890  1.00  0.00     0.091 N 
HETATM   10  C4  UNL     1     -11.884   8.803  12.627  1.00  0.00     0.283 C 
HETATM   11  C2  UNL     1     -13.373   9.071  12.986  1.00  0.00     0.005 C 
HETATM   12  C1  UNL     1     -13.944  10.366  12.409  1.00  0.00     0.018 C 
HETATM   13  C3  UNL     1     -14.304   7.888  12.744  1.00  0.00     0.018 C 
HETATM   14  C16 UNL     1     -12.847   9.188  14.444  1.00  0.00     0.283 C 
ENDBRANCH   8   9
ENDBRANCH   7   8
ENDBRANCH   1   7
BRANCH   4  15
HETATM   15  C9  UNL     1      -6.228   4.594  13.118  1.00  0.00     0.040 A 
HETATM   16  C10 UNL     1      -4.877   4.987  13.095  1.00  0.00     0.030 A 
HETATM   17  C11 UNL     1      -3.900   4.205  12.467  1.00  0.00     0.004 A 
HETATM   18  C12 UNL     1      -4.257   3.011  11.851  1.00  0.00     0.024 A 
HETATM   19  C13 UNL     1      -5.588   2.607  11.865  1.00  0.00     0.036 A 
HETATM   20 CL1  UNL     1      -6.030   1.126  11.106  1.00  0.00    -0.084 Cl
HETATM   21  C14 UNL     1      -6.565   3.388  12.491  1.00  0.00     0.053 A 
ENDBRANCH   4  15
TORSDOF 4
ENDMDL
MODEL 9
REMARK minimizedAffinity -6.82442379
REMARK  4 active torsions:
REMARK  status: ('A' for Active; 'I' for Inactive)
REMARK    1  A    between atoms: N1_5  and  C5_6 
REMARK    2  A    between atoms: C5_6  and  C6_7 
REMARK    3  A    between atoms: C6_7  and  N2_8 
REMARK    4  A    between atoms: N3_11  and  C9_12 
ROOT
HETATM    1  N2  UNL     1      -2.102   5.041  12.240  1.00  0.00    -0.331 N 
HETATM    2  C7  UNL     1      -2.003   6.328  12.876  1.00  0.00     0.148 C 
HETATM    3  C8  UNL     1      -0.944   7.045  12.057  1.00  0.00     0.154 C 
HETATM    4  N3  UNL     1      -0.215   5.980  11.398  1.00  0.00    -0.298 N 
HETATM    5  C15 UNL     1      -0.951   4.775  11.480  1.00  0.00     0.325 C 
HETATM    6  O1  UNL     1      -0.684   3.681  11.013  1.00  0.00    -0.247 OA
ENDROOT
BRANCH   1   7
HETATM    7  C6  UNL     1      -2.982   3.991  12.731  1.00  0.00     0.158 C 
BRANCH   7   8
HETATM    8  C5  UNL     1      -3.920   3.436  11.644  1.00  0.00     0.292 C 
BRANCH   8   9
HETATM    9  N1  UNL     1      -5.224   4.113  11.669  1.00  0.00     0.091 N 
HETATM   10  C4  UNL     1      -6.319   3.119  11.774  1.00  0.00     0.283 C 
HETATM   11  C2  UNL     1      -6.986   4.033  12.840  1.00  0.00     0.005 C 
HETATM   12  C1  UNL     1      -8.003   5.028  12.280  1.00  0.00     0.018 C 
HETATM   13  C3  UNL     1      -7.532   3.292  14.055  1.00  0.00     0.018 C 
HETATM   14  C16 UNL     1      -5.553   4.608  13.028  1.00  0.00     0.283 C 
ENDBRANCH   8   9
ENDBRANCH   7   8
ENDBRANCH   1   7
BRANCH   4  15
HETATM   15  C9  UNL     1       0.998   6.193  10.690  1.00  0.00     0.040 A 
HETATM   16  C10 UNL     1       2.196   5.605  11.137  1.00  0.00     0.030 A 
HETATM   17  C11 UNL     1       3.403   5.797  10.455  1.00  0.00     0.004 A 
HETATM   18  C12 UNL     1       3.434   6.582   9.308  1.00  0.00     0.024 A 
HETATM   19  C13 UNL     1       2.259   7.170   8.851  1.00  0.00     0.036 A 
HETATM   20 CL1  UNL     1       2.296   8.139   7.427  1.00  0.00    -0.084 Cl
HETATM   21  C14 UNL     1       1.053   6.980   9.533  1.00  0.00     0.053 A 
ENDBRANCH   4  15
TORSDOF 4
ENDMDL
