MODEL 1
REMARK minimizedAffinity -5.94807863
REMARK CNNscore 0.398977727
REMARK CNNaffinity 5.95705843
REMARK  5 active torsions:
REMARK  status: ('A' for Active; 'I' for Inactive)
REMARK    1  A    between atoms: C2_2  and  C4_4 
REMARK    2  A    between atoms: C7_7  and  C8_8 
REMARK    3  A    between atoms: C8_8  and  O2_10 
REMARK    4  A    between atoms: C11_13  and  C12_14 
REMARK    5  A    between atoms: C12_14  and  O4_16 
ROOT
HETATM    1  C4  UNL     1       6.106  18.580  -1.321  1.00  0.00     0.019 C 
HETATM    2  C5  UNL     1       7.566  18.364  -1.807  1.00  0.00     0.011 C 
HETATM    3  C6  UNL     1       7.987  16.964  -1.327  1.00  0.00     0.021 C 
HETATM    4  C7  UNL     1       7.060  16.686  -0.138  1.00  0.00     0.050 C 
HETATM    5  C9  UNL     1       6.890  15.210   0.235  1.00  0.00     0.022 C 
HETATM    6  C10 UNL     1       5.727  15.024   1.237  1.00  0.00     0.023 C 
HETATM    7  C11 UNL     1       4.345  15.591   0.736  1.00  0.00     0.057 C 
HETATM    8  C13 UNL     1       4.575  17.101   0.329  1.00  0.00     0.011 C 
HETATM    9  C14 UNL     1       3.294  17.848  -0.057  1.00  0.00     0.007 C 
HETATM   10  C15 UNL     1       2.170  17.680   0.965  1.00  0.00     0.006 C 
HETATM   11  C16 UNL     1       1.882  16.204   1.317  1.00  0.00     0.003 C 
HETATM   12  C17 UNL     1       0.536  15.973   2.147  1.00  0.00    -0.035 C 
HETATM   13  C18 UNL     1       0.525  16.770   3.471  1.00  0.00     0.016 C 
HETATM   14  C19 UNL     1      -0.672  16.460   1.286  1.00  0.00     0.017 C 
HETATM   15  C20 UNL     1      -2.039  16.076   1.835  1.00  0.00     0.080 C 
HETATM   16  C21 UNL     1      -2.143  14.596   2.106  1.00  0.00     0.135 C 
HETATM   17  O5  UNL     1      -3.153  13.980   1.756  1.00  0.00    -0.297 OA
HETATM   18  C22 UNL     1      -1.015  13.935   2.916  1.00  0.00     0.017 C 
HETATM   19  C23 UNL     1      -1.240  14.236   4.405  1.00  0.00     0.023 C 
HETATM   20  C24 UNL     1      -1.147  12.401   2.738  1.00  0.00     0.023 C 
HETATM   21  C25 UNL     1       0.361  14.420   2.339  1.00  0.00     0.009 C 
HETATM   22  C26 UNL     1       1.591  13.806   3.036  1.00  0.00     0.007 C 
HETATM   23  C27 UNL     1       2.853  14.005   2.192  1.00  0.00     0.011 C 
HETATM   24  C28 UNL     1       3.185  15.488   1.860  1.00  0.00    -0.022 C 
HETATM   25  C29 UNL     1       3.686  16.134   3.185  1.00  0.00     0.017 C 
HETATM   26  C30 UNL     1       5.720  17.215  -0.707  1.00  0.00     0.018 C 
ENDROOT
BRANCH   4  27
HETATM   27  C8  UNL     1       7.619  17.454   1.071  1.00  0.00     0.149 C 
HETATM   28  O1  UNL     1       8.110  18.569   1.084  1.00  0.00    -0.649 OA
BRANCH  27  29
HETATM   29  O2  UNL     1       7.543  16.751   2.220  1.00  0.00    -0.776 OA
HETATM   30  H11 UNL     1       7.940  17.346   2.890  1.00  0.00     0.167 HD
ENDBRANCH  27  29
ENDBRANCH   4  27
BRANCH   1  31
HETATM   31  C2  UNL     1       5.214  19.110  -2.432  1.00  0.00    -0.088 C 
HETATM   32  C1  UNL     1       4.854  20.406  -2.465  1.00  0.00     0.014 C 
HETATM   33  C3  UNL     1       4.757  18.165  -3.511  1.00  0.00     0.043 C 
ENDBRANCH   1  31
BRANCH   7  34
HETATM   34  C12 UNL     1       3.978  14.688  -0.474  1.00  0.00     0.149 C 
HETATM   35  O3  UNL     1       3.189  14.966  -1.366  1.00  0.00    -0.649 OA
BRANCH  34  36
HETATM   36  O4  UNL     1       4.614  13.510  -0.538  1.00  0.00    -0.776 OA
HETATM   37  H16 UNL     1       4.271  13.100  -1.361  1.00  0.00     0.167 HD
ENDBRANCH  34  36
ENDBRANCH   7  34
TORSDOF 5
ENDMDL
MODEL 2
REMARK minimizedAffinity -6.68526793
REMARK CNNscore 0.39227879
REMARK CNNaffinity 5.69250441
REMARK  5 active torsions:
REMARK  status: ('A' for Active; 'I' for Inactive)
REMARK    1  A    between atoms: C2_2  and  C4_4 
REMARK    2  A    between atoms: C7_7  and  C8_8 
REMARK    3  A    between atoms: C8_8  and  O2_10 
REMARK    4  A    between atoms: C11_13  and  C12_14 
REMARK    5  A    between atoms: C12_14  and  O4_16 
ROOT
HETATM    1  C4  UNL     1     -14.478   8.303  13.690  1.00  0.00     0.019 C 
HETATM    2  C5  UNL     1     -14.960   9.760  13.452  1.00  0.00     0.011 C 
HETATM    3  C6  UNL     1     -16.490   9.751  13.622  1.00  0.00     0.021 C 
HETATM    4  C7  UNL     1     -16.883   8.294  13.354  1.00  0.00     0.050 C 
HETATM    5  C9  UNL     1     -18.239   7.862  13.921  1.00  0.00     0.022 C 
HETATM    6  C10 UNL     1     -18.402   6.326  13.852  1.00  0.00     0.023 C 
HETATM    7  C11 UNL     1     -17.260   5.522  14.580  1.00  0.00     0.057 C 
HETATM    8  C13 UNL     1     -15.881   6.024  13.992  1.00  0.00     0.011 C 
HETATM    9  C14 UNL     1     -14.663   5.245  14.498  1.00  0.00     0.007 C 
HETATM   10  C15 UNL     1     -14.832   3.729  14.387  1.00  0.00     0.006 C 
HETATM   11  C16 UNL     1     -16.140   3.214  15.025  1.00  0.00     0.003 C 
HETATM   12  C17 UNL     1     -16.214   1.625  15.190  1.00  0.00    -0.035 C 
HETATM   13  C18 UNL     1     -16.042   0.892  13.840  1.00  0.00     0.016 C 
HETATM   14  C19 UNL     1     -15.058   1.167  16.134  1.00  0.00     0.017 C 
HETATM   15  C20 UNL     1     -15.146  -0.284  16.588  1.00  0.00     0.080 C 
HETATM   16  C21 UNL     1     -16.489  -0.603  17.198  1.00  0.00     0.135 C 
HETATM   17  O5  UNL     1     -16.544  -1.254  18.244  1.00  0.00    -0.297 OA
HETATM   18  C22 UNL     1     -17.747  -0.189  16.417  1.00  0.00     0.017 C 
HETATM   19  C23 UNL     1     -17.994  -1.218  15.305  1.00  0.00     0.023 C 
HETATM   20  C24 UNL     1     -18.950  -0.274  17.390  1.00  0.00     0.023 C 
HETATM   21  C25 UNL     1     -17.564   1.290  15.928  1.00  0.00     0.009 C 
HETATM   22  C26 UNL     1     -18.772   1.855  15.155  1.00  0.00     0.007 C 
HETATM   23  C27 UNL     1     -18.692   3.381  15.057  1.00  0.00     0.011 C 
HETATM   24  C28 UNL     1     -17.400   3.921  14.381  1.00  0.00    -0.022 C 
HETATM   25  C29 UNL     1     -17.529   3.597  12.864  1.00  0.00     0.017 C 
HETATM   26  C30 UNL     1     -15.761   7.561  14.130  1.00  0.00     0.018 C 
ENDROOT
BRANCH   4  27
HETATM   27  C8  UNL     1     -16.881   8.089  11.830  1.00  0.00     0.149 C 
HETATM   28  O1  UNL     1     -15.930   7.831  11.113  1.00  0.00    -0.649 OA
BRANCH  27  29
HETATM   29  O2  UNL     1     -18.102   8.242  11.278  1.00  0.00    -0.776 OA
HETATM   30  H11 UNL     1     -17.951   8.100  10.321  1.00  0.00     0.167 HD
ENDBRANCH  27  29
ENDBRANCH   4  27
BRANCH   1  31
HETATM   31  C2  UNL     1     -13.293   8.248  14.640  1.00  0.00    -0.088 C 
HETATM   32  C1  UNL     1     -13.439   8.559  15.940  1.00  0.00     0.014 C 
HETATM   33  C3  UNL     1     -11.952   7.817  14.106  1.00  0.00     0.043 C 
ENDBRANCH   1  31
BRANCH   7  34
HETATM   34  C12 UNL     1     -17.442   5.875  16.082  1.00  0.00     0.149 C 
HETATM   35  O3  UNL     1     -16.558   5.903  16.927  1.00  0.00    -0.649 OA
BRANCH  34  36
HETATM   36  O4  UNL     1     -18.686   6.201  16.459  1.00  0.00    -0.776 OA
HETATM   37  H16 UNL     1     -18.597   6.406  17.415  1.00  0.00     0.167 HD
ENDBRANCH  34  36
ENDBRANCH   7  34
TORSDOF 5
ENDMDL
MODEL 3
REMARK minimizedAffinity -7.41695309
REMARK CNNscore 0.353202641
REMARK CNNaffinity 5.90960455
REMARK  5 active torsions:
REMARK  status: ('A' for Active; 'I' for Inactive)
REMARK    1  A    between atoms: C2_2  and  C4_4 
REMARK    2  A    between atoms: C7_7  and  C8_8 
REMARK    3  A    between atoms: C8_8  and  O2_10 
REMARK    4  A    between atoms: C11_13  and  C12_14 
REMARK    5  A    between atoms: C12_14  and  O4_16 
ROOT
HETATM    1  C4  UNL     1       4.065   7.256  10.847  1.00  0.00     0.019 C 
HETATM    2  C5  UNL     1       5.430   6.639  10.438  1.00  0.00     0.011 C 
HETATM    3  C6  UNL     1       6.394   6.884  11.613  1.00  0.00     0.021 C 
HETATM    4  C7  UNL     1       5.787   8.086  12.344  1.00  0.00     0.050 C 
HETATM    5  C9  UNL     1       6.221   8.259  13.804  1.00  0.00     0.022 C 
HETATM    6  C10 UNL     1       5.341   9.307  14.522  1.00  0.00     0.023 C 
HETATM    7  C11 UNL     1       3.798   8.993  14.477  1.00  0.00     0.057 C 
HETATM    8  C13 UNL     1       3.402   8.788  12.961  1.00  0.00     0.011 C 
HETATM    9  C14 UNL     1       1.899   8.607  12.725  1.00  0.00     0.007 C 
HETATM   10  C15 UNL     1       1.049   9.675  13.414  1.00  0.00     0.006 C 
HETATM   11  C16 UNL     1       1.373   9.835  14.915  1.00  0.00     0.003 C 
HETATM   12  C17 UNL     1       0.319  10.721  15.728  1.00  0.00    -0.035 C 
HETATM   13  C18 UNL     1       0.175  12.142  15.136  1.00  0.00     0.016 C 
HETATM   14  C19 UNL     1      -1.078  10.028  15.653  1.00  0.00     0.017 C 
HETATM   15  C20 UNL     1      -2.129  10.616  16.585  1.00  0.00     0.080 C 
HETATM   16  C21 UNL     1      -1.645  10.683  18.012  1.00  0.00     0.135 C 
HETATM   17  O5  UNL     1      -2.390  10.324  18.926  1.00  0.00    -0.297 OA
HETATM   18  C22 UNL     1      -0.263  11.306  18.271  1.00  0.00     0.017 C 
HETATM   19  C23 UNL     1      -0.401  12.835  18.234  1.00  0.00     0.023 C 
HETATM   20  C24 UNL     1       0.160  10.923  19.712  1.00  0.00     0.023 C 
HETATM   21  C25 UNL     1       0.755  10.704  17.241  1.00  0.00     0.009 C 
HETATM   22  C26 UNL     1       2.200  11.215  17.406  1.00  0.00     0.007 C 
HETATM   23  C27 UNL     1       3.185  10.316  16.654  1.00  0.00     0.011 C 
HETATM   24  C28 UNL     1       2.903  10.174  15.131  1.00  0.00    -0.022 C 
HETATM   25  C29 UNL     1       3.287  11.536  14.483  1.00  0.00     0.017 C 
HETATM   26  C30 UNL     1       4.288   7.698  12.312  1.00  0.00     0.018 C 
ENDROOT
BRANCH   4  27
HETATM   27  C8  UNL     1       6.165   9.348  11.550  1.00  0.00     0.149 C 
HETATM   28  O1  UNL     1       5.420  10.216  11.131  1.00  0.00    -0.649 OA
BRANCH  27  29
HETATM   29  O2  UNL     1       7.489   9.439  11.308  1.00  0.00    -0.776 OA
HETATM   30  H11 UNL     1       7.581  10.267  10.793  1.00  0.00     0.167 HD
ENDBRANCH  27  29
ENDBRANCH   4  27
BRANCH   1  31
HETATM   31  C2  UNL     1       2.912   6.300  10.587  1.00  0.00    -0.088 C 
HETATM   32  C1  UNL     1       2.737   5.750   9.372  1.00  0.00     0.014 C 
HETATM   33  C3  UNL     1       1.980   5.959  11.719  1.00  0.00     0.043 C 
ENDBRANCH   1  31
BRANCH   7  34
HETATM   34  C12 UNL     1       3.646   7.699  15.323  1.00  0.00     0.149 C 
HETATM   35  O3  UNL     1       2.593   7.201  15.694  1.00  0.00    -0.649 OA
BRANCH  34  36
HETATM   36  O4  UNL     1       4.787   7.073  15.643  1.00  0.00    -0.776 OA
HETATM   37  H16 UNL     1       4.491   6.286  16.148  1.00  0.00     0.167 HD
ENDBRANCH  34  36
ENDBRANCH   7  34
TORSDOF 5
ENDMDL
MODEL 4
REMARK minimizedAffinity -6.36742735
REMARK CNNscore 0.328384876
REMARK CNNaffinity 5.66817284
REMARK  5 active torsions:
REMARK  status: ('A' for Active; 'I' for Inactive)
REMARK    1  A    between atoms: C2_2  and  C4_4 
REMARK    2  A    between atoms: C7_7  and  C8_8 
REMARK    3  A    between atoms: C8_8  and  O2_10 
REMARK    4  A    between atoms: C11_13  and  C12_14 
REMARK    5  A    between atoms: C12_14  and  O4_16 
ROOT
HETATM    1  C4  UNL     1       3.289   6.897  11.684  1.00  0.00     0.019 C 
HETATM    2  C5  UNL     1       1.785   7.077  11.339  1.00  0.00     0.011 C 
HETATM    3  C6  UNL     1       1.382   8.474  11.841  1.00  0.00     0.021 C 
HETATM    4  C7  UNL     1       2.412   8.787  12.931  1.00  0.00     0.050 C 
HETATM    5  C9  UNL     1       2.585  10.272  13.269  1.00  0.00     0.022 C 
HETATM    6  C10 UNL     1       3.834  10.496  14.152  1.00  0.00     0.023 C 
HETATM    7  C11 UNL     1       5.173   9.950  13.527  1.00  0.00     0.057 C 
HETATM    8  C13 UNL     1       4.938   8.430  13.162  1.00  0.00     0.011 C 
HETATM    9  C14 UNL     1       6.192   7.704  12.664  1.00  0.00     0.007 C 
HETATM   10  C15 UNL     1       7.406   7.909  13.571  1.00  0.00     0.006 C 
HETATM   11  C16 UNL     1       7.693   9.396  13.876  1.00  0.00     0.003 C 
HETATM   12  C17 UNL     1       9.107   9.666  14.571  1.00  0.00    -0.035 C 
HETATM   13  C18 UNL     1       9.263   8.887  15.897  1.00  0.00     0.016 C 
HETATM   14  C19 UNL     1      10.238   9.191  13.603  1.00  0.00     0.017 C 
HETATM   15  C20 UNL     1      11.643   9.611  14.013  1.00  0.00     0.080 C 
HETATM   16  C21 UNL     1      11.740  11.097  14.256  1.00  0.00     0.135 C 
HETATM   17  O5  UNL     1      12.698  11.727  13.803  1.00  0.00    -0.297 OA
HETATM   18  C22 UNL     1      10.680  11.745  15.163  1.00  0.00     0.017 C 
HETATM   19  C23 UNL     1      11.054  11.470  16.626  1.00  0.00     0.023 C 
HETATM   20  C24 UNL     1      10.762  13.279  14.954  1.00  0.00     0.023 C 
HETATM   21  C25 UNL     1       9.267  11.225  14.727  1.00  0.00     0.009 C 
HETATM   22  C26 UNL     1       8.096  11.823  15.531  1.00  0.00     0.007 C 
HETATM   23  C27 UNL     1       6.764  11.586  14.814  1.00  0.00     0.011 C 
HETATM   24  C28 UNL     1       6.434  10.092  14.534  1.00  0.00    -0.022 C 
HETATM   25  C29 UNL     1       6.075   9.455  15.908  1.00  0.00     0.017 C 
HETATM   26  C30 UNL     1       3.702   8.278  12.243  1.00  0.00     0.018 C 
ENDROOT
BRANCH   4  27
HETATM   27  C8  UNL     1       1.988   8.025  14.198  1.00  0.00     0.149 C 
HETATM   28  O1  UNL     1       0.902   8.044  14.750  1.00  0.00    -0.649 OA
BRANCH  27  29
HETATM   29  O2  UNL     1       2.982   7.279  14.719  1.00  0.00    -0.776 OA
HETATM   30  H11 UNL     1       2.582   6.869  15.514  1.00  0.00     0.167 HD
ENDBRANCH  27  29
ENDBRANCH   4  27
BRANCH   1  31
HETATM   31  C2  UNL     1       4.081   6.370  10.500  1.00  0.00    -0.088 C 
HETATM   32  C1  UNL     1       5.300   5.829  10.674  1.00  0.00     0.014 C 
HETATM   33  C3  UNL     1       3.470   6.442   9.125  1.00  0.00     0.043 C 
ENDBRANCH   1  31
BRANCH   7  34
HETATM   34  C12 UNL     1       5.404  10.844  12.277  1.00  0.00     0.149 C 
HETATM   35  O3  UNL     1       5.058  12.010  12.153  1.00  0.00    -0.649 OA
BRANCH  34  36
HETATM   36  O4  UNL     1       6.066  10.270  11.263  1.00  0.00    -0.776 OA
HETATM   37  H16 UNL     1       6.129  10.981  10.590  1.00  0.00     0.167 HD
ENDBRANCH  34  36
ENDBRANCH   7  34
TORSDOF 5
ENDMDL
MODEL 5
REMARK minimizedAffinity -7.92637825
REMARK CNNscore 0.301315069
REMARK CNNaffinity 6.23264313
REMARK  5 active torsions:
REMARK  status: ('A' for Active; 'I' for Inactive)
REMARK    1  A    between atoms: C2_2  and  C4_4 
REMARK    2  A    between atoms: C7_7  and  C8_8 
REMARK    3  A    between atoms: C8_8  and  O2_10 
REMARK    4  A    between atoms: C11_13  and  C12_14 
REMARK    5  A    between atoms: C12_14  and  O4_16 
ROOT
HETATM    1  C4  UNL     1       6.256  11.011  17.281  1.00  0.00     0.019 C 
HETATM    2  C5  UNL     1       7.609  11.540  17.830  1.00  0.00     0.011 C 
HETATM    3  C6  UNL     1       8.643  11.354  16.705  1.00  0.00     0.021 C 
HETATM    4  C7  UNL     1       8.049  10.240  15.837  1.00  0.00     0.050 C 
HETATM    5  C9  UNL     1       8.576  10.171  14.400  1.00  0.00     0.022 C 
HETATM    6  C10 UNL     1       7.713   9.220  13.539  1.00  0.00     0.023 C 
HETATM    7  C11 UNL     1       6.181   9.587  13.509  1.00  0.00     0.057 C 
HETATM    8  C13 UNL     1       5.689   9.683  15.008  1.00  0.00     0.011 C 
HETATM    9  C14 UNL     1       4.181   9.902  15.159  1.00  0.00     0.007 C 
HETATM   10  C15 UNL     1       3.346   8.927  14.328  1.00  0.00     0.006 C 
HETATM   11  C16 UNL     1       3.766   8.878  12.843  1.00  0.00     0.003 C 
HETATM   12  C17 UNL     1       2.742   8.103  11.892  1.00  0.00    -0.035 C 
HETATM   13  C18 UNL     1       2.511   6.645  12.351  1.00  0.00     0.016 C 
HETATM   14  C19 UNL     1       1.366   8.840  11.933  1.00  0.00     0.017 C 
HETATM   15  C20 UNL     1       0.363   8.371  10.887  1.00  0.00     0.080 C 
HETATM   16  C21 UNL     1       0.942   8.402   9.495  1.00  0.00     0.135 C 
HETATM   17  O5  UNL     1       0.274   8.863   8.566  1.00  0.00    -0.297 OA
HETATM   18  C22 UNL     1       2.317   7.750   9.276  1.00  0.00     0.017 C 
HETATM   19  C23 UNL     1       2.127   6.229   9.175  1.00  0.00     0.023 C 
HETATM   20  C24 UNL     1       2.851   8.233   7.903  1.00  0.00     0.023 C 
HETATM   21  C25 UNL     1       3.281   8.226  10.417  1.00  0.00     0.009 C 
HETATM   22  C26 UNL     1       4.716   7.675  10.305  1.00  0.00     0.007 C 
HETATM   23  C27 UNL     1       5.677   8.471  11.193  1.00  0.00     0.011 C 
HETATM   24  C28 UNL     1       5.296   8.499  12.700  1.00  0.00    -0.022 C 
HETATM   25  C29 UNL     1       5.590   7.075  13.256  1.00  0.00     0.017 C 
HETATM   26  C30 UNL     1       6.565  10.682  15.803  1.00  0.00     0.018 C 
ENDROOT
BRANCH   4  27
HETATM   27  C8  UNL     1       8.330   8.905  16.545  1.00  0.00     0.149 C 
HETATM   28  O1  UNL     1       9.386   8.517  17.012  1.00  0.00    -0.649 OA
BRANCH  27  29
HETATM   29  O2  UNL     1       7.245   8.107  16.611  1.00  0.00    -0.776 OA
HETATM   30  H11 UNL     1       7.568   7.301  17.066  1.00  0.00     0.167 HD
ENDBRANCH  27  29
ENDBRANCH   4  27
BRANCH   1  31
HETATM   31  C2  UNL     1       5.120  11.986  17.545  1.00  0.00    -0.088 C 
HETATM   32  C1  UNL     1       4.364  11.879  18.653  1.00  0.00     0.014 C 
HETATM   33  C3  UNL     1       4.867  13.093  16.556  1.00  0.00     0.043 C 
ENDBRANCH   1  31
BRANCH   7  34
HETATM   34  C12 UNL     1       6.131  10.951  12.767  1.00  0.00     0.149 C 
HETATM   35  O3  UNL     1       5.285  11.298  11.955  1.00  0.00    -0.649 OA
BRANCH  34  36
HETATM   36  O4  UNL     1       7.100  11.823  13.079  1.00  0.00    -0.776 OA
HETATM   37  H16 UNL     1       6.892  12.613  12.536  1.00  0.00     0.167 HD
ENDBRANCH  34  36
ENDBRANCH   7  34
TORSDOF 5
ENDMDL
MODEL 6
REMARK minimizedAffinity -6.13125563
REMARK CNNscore 0.29346773
REMARK CNNaffinity 5.36997414
REMARK  5 active torsions:
REMARK  status: ('A' for Active; 'I' for Inactive)
REMARK    1  A    between atoms: C2_2  and  C4_4 
REMARK    2  A    between atoms: C7_7  and  C8_8 
REMARK    3  A    between atoms: C8_8  and  O2_10 
REMARK    4  A    between atoms: C11_13  and  C12_14 
REMARK    5  A    between atoms: C12_14  and  O4_16 
ROOT
HETATM    1  C4  UNL     1      -5.439  -9.493   8.153  1.00  0.00     0.019 C 
HETATM    2  C5  UNL     1      -5.064  -9.793   9.631  1.00  0.00     0.011 C 
HETATM    3  C6  UNL     1      -6.342 -10.310  10.313  1.00  0.00     0.021 C 
HETATM    4  C7  UNL     1      -7.476  -9.746   9.450  1.00  0.00     0.050 C 
HETATM    5  C9  UNL     1      -8.820 -10.473   9.569  1.00  0.00     0.022 C 
HETATM    6  C10 UNL     1      -9.794 -10.019   8.458  1.00  0.00     0.023 C 
HETATM    7  C11 UNL     1      -9.237 -10.201   6.995  1.00  0.00     0.057 C 
HETATM    8  C13 UNL     1      -7.838  -9.468   6.929  1.00  0.00     0.011 C 
HETATM    9  C14 UNL     1      -7.215  -9.433   5.530  1.00  0.00     0.007 C 
HETATM   10  C15 UNL     1      -8.184  -8.946   4.452  1.00  0.00     0.006 C 
HETATM   11  C16 UNL     1      -9.530  -9.705   4.456  1.00  0.00     0.003 C 
HETATM   12  C17 UNL     1     -10.446  -9.431   3.175  1.00  0.00    -0.035 C 
HETATM   13  C18 UNL     1     -10.767  -7.929   2.999  1.00  0.00     0.016 C 
HETATM   14  C19 UNL     1      -9.678  -9.908   1.901  1.00  0.00     0.017 C 
HETATM   15  C20 UNL     1     -10.518  -9.946   0.632  1.00  0.00     0.080 C 
HETATM   16  C21 UNL     1     -11.786 -10.741   0.817  1.00  0.00     0.135 C 
HETATM   17  O5  UNL     1     -12.134 -11.546  -0.051  1.00  0.00    -0.297 OA
HETATM   18  C22 UNL     1     -12.655 -10.428   2.046  1.00  0.00     0.017 C 
HETATM   19  C23 UNL     1     -13.476  -9.164   1.756  1.00  0.00     0.023 C 
HETATM   20  C24 UNL     1     -13.661 -11.594   2.217  1.00  0.00     0.023 C 
HETATM   21  C25 UNL     1     -11.723 -10.343   3.305  1.00  0.00     0.009 C 
HETATM   22  C26 UNL     1     -12.467 -10.068   4.626  1.00  0.00     0.007 C 
HETATM   23  C27 UNL     1     -11.576 -10.385   5.831  1.00  0.00     0.011 C 
HETATM   24  C28 UNL     1     -10.234  -9.601   5.869  1.00  0.00    -0.022 C 
HETATM   25  C29 UNL     1     -10.593  -8.129   6.226  1.00  0.00     0.017 C 
HETATM   26  C30 UNL     1      -6.895  -9.998   8.037  1.00  0.00     0.018 C 
ENDROOT
BRANCH   4  27
HETATM   27  C8  UNL     1      -7.662  -8.270   9.840  1.00  0.00     0.149 C 
HETATM   28  O1  UNL     1      -7.052  -7.640  10.686  1.00  0.00    -0.649 OA
BRANCH  27  29
HETATM   29  O2  UNL     1      -8.640  -7.661   9.139  1.00  0.00    -0.776 OA
HETATM   30  H11 UNL     1      -8.656  -6.749   9.496  1.00  0.00     0.167 HD
ENDBRANCH  27  29
ENDBRANCH   4  27
BRANCH   1  31
HETATM   31  C2  UNL     1      -4.428 -10.081   7.183  1.00  0.00    -0.088 C 
HETATM   32  C1  UNL     1      -4.427 -11.397   6.905  1.00  0.00     0.014 C 
HETATM   33  C3  UNL     1      -3.438  -9.162   6.518  1.00  0.00     0.043 C 
ENDBRANCH   1  31
BRANCH   7  34
HETATM   34  C12 UNL     1      -9.122 -11.740   6.820  1.00  0.00     0.149 C 
HETATM   35  O3  UNL     1      -9.790 -12.583   7.403  1.00  0.00    -0.649 OA
BRANCH  34  36
HETATM   36  O4  UNL     1      -8.219 -12.161   5.924  1.00  0.00    -0.776 OA
HETATM   37  H16 UNL     1      -8.306 -13.138   5.940  1.00  0.00     0.167 HD
ENDBRANCH  34  36
ENDBRANCH   7  34
TORSDOF 5
ENDMDL
MODEL 7
REMARK minimizedAffinity -5.86377335
REMARK CNNscore 0.286709785
REMARK CNNaffinity 5.22309494
REMARK  5 active torsions:
REMARK  status: ('A' for Active; 'I' for Inactive)
REMARK    1  A    between atoms: C2_2  and  C4_4 
REMARK    2  A    between atoms: C7_7  and  C8_8 
REMARK    3  A    between atoms: C8_8  and  O2_10 
REMARK    4  A    between atoms: C11_13  and  C12_14 
REMARK    5  A    between atoms: C12_14  and  O4_16 
ROOT
HETATM    1  C4  UNL     1     -18.287  -2.820  15.771  1.00  0.00     0.019 C 
HETATM    2  C5  UNL     1     -17.636  -4.087  15.153  1.00  0.00     0.011 C 
HETATM    3  C6  UNL     1     -16.384  -3.613  14.394  1.00  0.00     0.021 C 
HETATM    4  C7  UNL     1     -16.670  -2.138  14.092  1.00  0.00     0.050 C 
HETATM    5  C9  UNL     1     -15.440  -1.274  13.796  1.00  0.00     0.022 C 
HETATM    6  C10 UNL     1     -15.806   0.228  13.798  1.00  0.00     0.023 C 
HETATM    7  C11 UNL     1     -16.478   0.728  15.132  1.00  0.00     0.057 C 
HETATM    8  C13 UNL     1     -17.717  -0.211  15.417  1.00  0.00     0.011 C 
HETATM    9  C14 UNL     1     -18.568   0.221  16.615  1.00  0.00     0.007 C 
HETATM   10  C15 UNL     1     -18.949   1.702  16.578  1.00  0.00     0.006 C 
HETATM   11  C16 UNL     1     -17.738   2.637  16.375  1.00  0.00     0.003 C 
HETATM   12  C17 UNL     1     -18.050   4.186  16.622  1.00  0.00    -0.035 C 
HETATM   13  C18 UNL     1     -19.186   4.703  15.710  1.00  0.00     0.016 C 
HETATM   14  C19 UNL     1     -18.504   4.373  18.104  1.00  0.00     0.017 C 
HETATM   15  C20 UNL     1     -18.595   5.823  18.561  1.00  0.00     0.080 C 
HETATM   16  C21 UNL     1     -17.317   6.580  18.297  1.00  0.00     0.135 C 
HETATM   17  O5  UNL     1     -16.853   7.316  19.170  1.00  0.00    -0.297 OA
HETATM   18  C22 UNL     1     -16.704   6.480  16.890  1.00  0.00     0.017 C 
HETATM   19  C23 UNL     1     -17.470   7.424  15.954  1.00  0.00     0.023 C 
HETATM   20  C24 UNL     1     -15.249   7.008  16.976  1.00  0.00     0.023 C 
HETATM   21  C25 UNL     1     -16.696   4.972  16.458  1.00  0.00     0.009 C 
HETATM   22  C26 UNL     1     -16.071   4.715  15.072  1.00  0.00     0.007 C 
HETATM   23  C27 UNL     1     -15.743   3.230  14.889  1.00  0.00     0.011 C 
HETATM   24  C28 UNL     1     -16.957   2.272  15.048  1.00  0.00    -0.022 C 
HETATM   25  C29 UNL     1     -17.844   2.472  13.785  1.00  0.00     0.017 C 
HETATM   26  C30 UNL     1     -17.277  -1.695  15.446  1.00  0.00     0.018 C 
ENDROOT
BRANCH   4  27
HETATM   27  C8  UNL     1     -17.625  -2.091  12.888  1.00  0.00     0.149 C 
HETATM   28  O1  UNL     1     -18.684  -1.494  12.799  1.00  0.00    -0.649 OA
BRANCH  27  29
HETATM   29  O2  UNL     1     -17.192  -2.828  11.845  1.00  0.00    -0.776 OA
HETATM   30  H11 UNL     1     -17.892  -2.719  11.168  1.00  0.00     0.167 HD
ENDBRANCH  27  29
ENDBRANCH   4  27
BRANCH   1  31
HETATM   31  C2  UNL     1     -18.641  -3.024  17.235  1.00  0.00    -0.088 C 
HETATM   32  C1  UNL     1     -19.918  -3.209  17.614  1.00  0.00     0.014 C 
HETATM   33  C3  UNL     1     -17.534  -3.038  18.256  1.00  0.00     0.043 C 
ENDBRANCH   1  31
BRANCH   7  34
HETATM   34  C12 UNL     1     -15.356   0.590  16.199  1.00  0.00     0.149 C 
HETATM   35  O3  UNL     1     -15.519   0.360  17.389  1.00  0.00    -0.649 OA
BRANCH  34  36
HETATM   36  O4  UNL     1     -14.101   0.714  15.746  1.00  0.00    -0.776 OA
HETATM   37  H16 UNL     1     -13.547   0.580  16.544  1.00  0.00     0.167 HD
ENDBRANCH  34  36
ENDBRANCH   7  34
TORSDOF 5
ENDMDL
MODEL 8
REMARK minimizedAffinity -6.24076557
REMARK CNNscore 0.23671928
REMARK CNNaffinity 5.64073753
REMARK  5 active torsions:
REMARK  status: ('A' for Active; 'I' for Inactive)
REMARK    1  A    between atoms: C2_2  and  C4_4 
REMARK    2  A    between atoms: C7_7  and  C8_8 
REMARK    3  A    between atoms: C8_8  and  O2_10 
REMARK    4  A    between atoms: C11_13  and  C12_14 
REMARK    5  A    between atoms: C12_14  and  O4_16 
ROOT
HETATM    1  C4  UNL     1      -6.048  -9.275   9.314  1.00  0.00     0.019 C 
HETATM    2  C5  UNL     1      -4.723  -9.602  10.054  1.00  0.00     0.011 C 
HETATM    3  C6  UNL     1      -5.108 -10.383  11.323  1.00  0.00     0.021 C 
HETATM    4  C7  UNL     1      -6.562  -9.974  11.582  1.00  0.00     0.050 C 
HETATM    5  C9  UNL     1      -7.372 -10.935  12.458  1.00  0.00     0.022 C 
HETATM    6  C10 UNL     1      -8.878 -10.588  12.413  1.00  0.00     0.023 C 
HETATM    7  C11 UNL     1      -9.493 -10.570  10.963  1.00  0.00     0.057 C 
HETATM    8  C13 UNL     1      -8.608  -9.597  10.087  1.00  0.00     0.011 C 
HETATM    9  C14 UNL     1      -9.151  -9.358   8.674  1.00  0.00     0.007 C 
HETATM   10  C15 UNL     1     -10.632  -8.981   8.655  1.00  0.00     0.006 C 
HETATM   11  C16 UNL     1     -11.521  -9.965   9.446  1.00  0.00     0.003 C 
HETATM   12  C17 UNL     1     -13.091  -9.775   9.210  1.00  0.00    -0.035 C 
HETATM   13  C18 UNL     1     -13.563  -8.346   9.563  1.00  0.00     0.016 C 
HETATM   14  C19 UNL     1     -13.402 -10.020   7.699  1.00  0.00     0.017 C 
HETATM   15  C20 UNL     1     -14.884 -10.123   7.364  1.00  0.00     0.080 C 
HETATM   16  C21 UNL     1     -15.588 -11.142   8.225  1.00  0.00     0.135 C 
HETATM   17  O5  UNL     1     -16.378 -11.936   7.708  1.00  0.00    -0.297 OA
HETATM   18  C22 UNL     1     -15.366 -11.072   9.745  1.00  0.00     0.017 C 
HETATM   19  C23 UNL     1     -16.254  -9.957  10.318  1.00  0.00     0.023 C 
HETATM   20  C24 UNL     1     -15.865 -12.407  10.353  1.00  0.00     0.023 C 
HETATM   21  C25 UNL     1     -13.831 -10.906  10.017  1.00  0.00     0.009 C 
HETATM   22  C26 UNL     1     -13.454 -10.857  11.510  1.00  0.00     0.007 C 
HETATM   23  C27 UNL     1     -11.952 -11.089  11.702  1.00  0.00     0.011 C 
HETATM   24  C28 UNL     1     -11.038 -10.083  10.948  1.00  0.00    -0.022 C 
HETATM   25  C29 UNL     1     -11.162  -8.726  11.700  1.00  0.00     0.017 C 
HETATM   26  C30 UNL     1      -7.121 -10.023  10.138  1.00  0.00     0.018 C 
ENDROOT
BRANCH   4  27
HETATM   27  C8  UNL     1      -6.540  -8.584  12.240  1.00  0.00     0.149 C 
HETATM   28  O1  UNL     1      -6.704  -7.502  11.703  1.00  0.00    -0.649 OA
BRANCH  27  29
HETATM   29  O2  UNL     1      -6.289  -8.634  13.564  1.00  0.00    -0.776 OA
HETATM   30  H11 UNL     1      -6.290  -7.695  13.843  1.00  0.00     0.167 HD
ENDBRANCH  27  29
ENDBRANCH   4  27
BRANCH   1  31
HETATM   31  C2  UNL     1      -5.965  -9.608   7.833  1.00  0.00    -0.088 C 
HETATM   32  C1  UNL     1      -6.309  -8.698   6.904  1.00  0.00     0.014 C 
HETATM   33  C3  UNL     1      -5.468 -10.968   7.420  1.00  0.00     0.043 C 
ENDBRANCH   1  31
BRANCH   7  34
HETATM   34  C12 UNL     1      -9.411 -12.049  10.495  1.00  0.00     0.149 C 
HETATM   35  O3  UNL     1      -9.546 -12.449   9.348  1.00  0.00    -0.649 OA
BRANCH  34  36
HETATM   36  O4  UNL     1      -9.143 -12.950  11.450  1.00  0.00    -0.776 OA
HETATM   37  H16 UNL     1      -9.112 -13.804  10.968  1.00  0.00     0.167 HD
ENDBRANCH  34  36
ENDBRANCH   7  34
TORSDOF 5
ENDMDL
MODEL 9
REMARK minimizedAffinity -6.64883757
REMARK CNNscore 0.23621133
REMARK CNNaffinity 5.69618368
REMARK  5 active torsions:
REMARK  status: ('A' for Active; 'I' for Inactive)
REMARK    1  A    between atoms: C2_2  and  C4_4 
REMARK    2  A    between atoms: C7_7  and  C8_8 
REMARK    3  A    between atoms: C8_8  and  O2_10 
REMARK    4  A    between atoms: C11_13  and  C12_14 
REMARK    5  A    between atoms: C12_14  and  O4_16 
ROOT
HETATM    1  C4  UNL     1     -17.523  -1.811  16.133  1.00  0.00     0.019 C 
HETATM    2  C5  UNL     1     -17.752  -0.409  16.762  1.00  0.00     0.011 C 
HETATM    3  C6  UNL     1     -17.290   0.623  15.719  1.00  0.00     0.021 C 
HETATM    4  C7  UNL     1     -16.305  -0.155  14.839  1.00  0.00     0.050 C 
HETATM    5  C9  UNL     1     -16.059   0.432  13.445  1.00  0.00     0.022 C 
HETATM    6  C10 UNL     1     -15.294  -0.571  12.551  1.00  0.00     0.023 C 
HETATM    7  C11 UNL     1     -15.999  -1.972  12.402  1.00  0.00     0.057 C 
HETATM    8  C13 UNL     1     -16.266  -2.522  13.860  1.00  0.00     0.011 C 
HETATM    9  C14 UNL     1     -16.829  -3.947  13.897  1.00  0.00     0.007 C 
HETATM   10  C15 UNL     1     -16.037  -4.929  13.035  1.00  0.00     0.006 C 
HETATM   11  C16 UNL     1     -15.832  -4.438  11.585  1.00  0.00     0.003 C 
HETATM   12  C17 UNL     1     -15.272  -5.551  10.583  1.00  0.00    -0.035 C 
HETATM   13  C18 UNL     1     -13.925  -6.140  11.062  1.00  0.00     0.016 C 
HETATM   14  C19 UNL     1     -16.304  -6.720  10.508  1.00  0.00     0.017 C 
HETATM   15  C20 UNL     1     -16.033  -7.736   9.406  1.00  0.00     0.080 C 
HETATM   16  C21 UNL     1     -15.874  -7.078   8.058  1.00  0.00     0.135 C 
HETATM   17  O5  UNL     1     -16.437  -7.563   7.073  1.00  0.00    -0.297 OA
HETATM   18  C22 UNL     1     -14.917  -5.879   7.954  1.00  0.00     0.017 C 
HETATM   19  C23 UNL     1     -13.478  -6.407   7.878  1.00  0.00     0.023 C 
HETATM   20  C24 UNL     1     -15.209  -5.163   6.610  1.00  0.00     0.023 C 
HETATM   21  C25 UNL     1     -15.208  -4.906   9.148  1.00  0.00     0.009 C 
HETATM   22  C26 UNL     1     -14.341  -3.631   9.152  1.00  0.00     0.007 C 
HETATM   23  C27 UNL     1     -14.933  -2.572  10.086  1.00  0.00     0.011 C 
HETATM   24  C28 UNL     1     -15.109  -3.031  11.561  1.00  0.00    -0.022 C 
HETATM   25  C29 UNL     1     -13.680  -3.108  12.172  1.00  0.00     0.017 C 
HETATM   26  C30 UNL     1     -17.071  -1.493  14.689  1.00  0.00     0.018 C 
ENDROOT
BRANCH   4  27
HETATM   27  C8  UNL     1     -14.971  -0.234  15.599  1.00  0.00     0.149 C 
HETATM   28  O1  UNL     1     -14.410   0.656  16.215  1.00  0.00    -0.649 OA
BRANCH  27  29
HETATM   29  O2  UNL     1     -14.396  -1.452  15.526  1.00  0.00    -0.776 OA
HETATM   30  H11 UNL     1     -13.564  -1.353  16.033  1.00  0.00     0.167 HD
ENDBRANCH  27  29
ENDBRANCH   4  27
BRANCH   1  31
HETATM   31  C2  UNL     1     -18.741  -2.706  16.290  1.00  0.00    -0.088 C 
HETATM   32  C1  UNL     1     -19.826  -2.533  15.515  1.00  0.00     0.014 C 
HETATM   33  C3  UNL     1     -18.706  -3.808  17.316  1.00  0.00     0.043 C 
ENDBRANCH   1  31
BRANCH   7  34
HETATM   34  C12 UNL     1     -17.308  -1.660  11.624  1.00  0.00     0.149 C 
HETATM   35  O3  UNL     1     -18.308  -2.362  11.589  1.00  0.00    -0.649 OA
BRANCH  34  36
HETATM   36  O4  UNL     1     -17.328  -0.498  10.956  1.00  0.00    -0.776 OA
HETATM   37  H16 UNL     1     -18.222  -0.472  10.554  1.00  0.00     0.167 HD
ENDBRANCH  34  36
ENDBRANCH   7  34
TORSDOF 5
ENDMDL
