MODEL 1
REMARK minimizedAffinity -7.83119869
REMARK CNNscore 0.624168217
REMARK CNNaffinity 6.82856512
REMARK  11 active torsions:
REMARK  status: ('A' for Active; 'I' for Inactive)
REMARK    1  A    between atoms: C4_4  and  C5_5 
REMARK    2  A    between atoms: C5_5  and  O2_7 
REMARK    3  A    between atoms: O2_7  and  C6_8 
REMARK    4  A    between atoms: C6_8  and  C7_9 
REMARK    5  A    between atoms: C7_9  and  N1_10 
REMARK    6  A    between atoms: C14_17  and  O3_18 
REMARK    7  A    between atoms: C20_24  and  O4_25 
REMARK    8  A    between atoms: O4_25  and  C21_26 
REMARK    9  A    between atoms: C21_26  and  C22_28 
REMARK   10  A    between atoms: C22_28  and  C23_29 
REMARK   11  A    between atoms: C23_29  and  O6_32 
ROOT
HETATM    1  C1  UNL     1       1.486   6.849   8.329  1.00  0.00     0.015 C 
HETATM    2  C2  UNL     1       1.740   7.129   9.817  1.00  0.00     0.017 C 
HETATM    3  C3  UNL     1       2.876   6.250  10.313  1.00  0.00    -0.070 C 
HETATM    4  C4  UNL     1       4.161   6.629  10.496  1.00  0.00     0.085 C 
HETATM    5  C10 UNL     1       2.491   4.828  10.656  1.00  0.00     0.035 C 
HETATM    6  C11 UNL     1       1.099   4.697  11.287  1.00  0.00     0.010 C 
HETATM    7  C12 UNL     1       0.568   6.034  11.857  1.00  0.00     0.001 C 
HETATM    8  C13 UNL     1       0.419   6.982  10.645  1.00  0.00     0.027 C 
HETATM    9  C14 UNL     1      -0.085   8.349  11.108  1.00  0.00     0.123 C 
HETATM   10  C15 UNL     1      -1.404   8.225  11.854  1.00  0.00     0.038 C 
HETATM   11  C16 UNL     1      -1.340   7.321  13.106  1.00  0.00     0.007 C 
HETATM   12  C17 UNL     1      -2.753   7.286  13.836  1.00  0.00    -0.016 C 
HETATM   13  C18 UNL     1      -2.631   6.837  15.316  1.00  0.00     0.018 C 
HETATM   14  C19 UNL     1      -3.390   8.704  13.918  1.00  0.00     0.018 C 
HETATM   15  C20 UNL     1      -3.728   6.369  13.042  1.00  0.00     0.140 C 
HETATM   16  C26 UNL     1      -3.154   4.982  12.758  1.00  0.00     0.034 C 
HETATM   17  C27 UNL     1      -1.806   5.036  12.043  1.00  0.00     0.012 C 
HETATM   18  C28 UNL     1      -0.734   5.898  12.755  1.00  0.00    -0.035 C 
HETATM   19  C29 UNL     1      -0.280   5.182  14.061  1.00  0.00     0.016 C 
ENDROOT
BRANCH   4  20
HETATM   20  C5  UNL     1       4.868   7.913  10.251  1.00  0.00     0.283 C 
HETATM   21  O1  UNL     1       4.353   8.807   9.593  1.00  0.00    -0.260 OA
BRANCH  20  22
HETATM   22  O2  UNL     1       6.070   7.967  10.855  1.00  0.00    -0.316 OA
BRANCH  22  23
HETATM   23  C6  UNL     1       6.239   7.143  12.019  1.00  0.00     0.209 C 
BRANCH  23  24
HETATM   24  C7  UNL     1       6.105   7.935  13.337  1.00  0.00     0.298 C 
BRANCH  24  25
HETATM   25  N1  UNL     1       7.156   7.679  14.344  1.00  0.00     0.082 N 
HETATM   26  C8  UNL     1       8.477   7.973  13.787  1.00  0.00     0.309 C 
HETATM   27  C9  UNL     1       6.943   8.444  15.576  1.00  0.00     0.309 C 
ENDBRANCH  24  25
ENDBRANCH  23  24
ENDBRANCH  22  23
ENDBRANCH  20  22
ENDBRANCH   4  20
BRANCH   9  28
HETATM   28  O3  UNL     1      -0.292   9.214   9.988  1.00  0.00    -0.395 OA
HETATM   29  H23 UNL     1      -0.958   8.807   9.410  1.00  0.00     0.210 HD
ENDBRANCH   9  28
BRANCH  15  30
HETATM   30  O4  UNL     1      -4.951   6.205  13.793  1.00  0.00    -0.315 OA
BRANCH  30  31
HETATM   31  C21 UNL     1      -5.909   5.410  13.237  1.00  0.00     0.262 C 
HETATM   32  O5  UNL     1      -5.728   4.272  12.830  1.00  0.00    -0.265 OA
BRANCH  31  33
HETATM   33  C22 UNL     1      -7.234   6.132  13.235  1.00  0.00     0.148 C 
BRANCH  33  34
HETATM   34  C23 UNL     1      -7.867   6.322  14.622  1.00  0.00     0.059 C 
HETATM   35  C24 UNL     1      -7.475   5.206  15.594  1.00  0.00     0.045 C 
HETATM   36  C25 UNL     1      -7.583   7.696  15.233  1.00  0.00     0.045 C 
BRANCH  34  37
HETATM   37  O6  UNL     1      -9.293   6.218  14.451  1.00  0.00    -0.390 OA
HETATM   38  H42 UNL     1      -9.600   7.006  13.968  1.00  0.00     0.210 HD
ENDBRANCH  34  37
ENDBRANCH  33  34
ENDBRANCH  31  33
ENDBRANCH  30  31
ENDBRANCH  15  30
TORSDOF 11
ENDMDL
MODEL 2
REMARK minimizedAffinity -8.10903835
REMARK CNNscore 0.528497577
REMARK CNNaffinity 6.85097265
REMARK  11 active torsions:
REMARK  status: ('A' for Active; 'I' for Inactive)
REMARK    1  A    between atoms: C4_4  and  C5_5 
REMARK    2  A    between atoms: C5_5  and  O2_7 
REMARK    3  A    between atoms: O2_7  and  C6_8 
REMARK    4  A    between atoms: C6_8  and  C7_9 
REMARK    5  A    between atoms: C7_9  and  N1_10 
REMARK    6  A    between atoms: C14_17  and  O3_18 
REMARK    7  A    between atoms: C20_24  and  O4_25 
REMARK    8  A    between atoms: O4_25  and  C21_26 
REMARK    9  A    between atoms: C21_26  and  C22_28 
REMARK   10  A    between atoms: C22_28  and  C23_29 
REMARK   11  A    between atoms: C23_29  and  O6_32 
ROOT
HETATM    1  C1  UNL     1       1.764   7.285   8.175  1.00  0.00     0.015 C 
HETATM    2  C2  UNL     1       1.906   7.452   9.695  1.00  0.00     0.017 C 
HETATM    3  C3  UNL     1       3.125   6.685  10.180  1.00  0.00    -0.070 C 
HETATM    4  C4  UNL     1       4.336   7.210  10.474  1.00  0.00     0.085 C 
HETATM    5  C10 UNL     1       2.919   5.199  10.373  1.00  0.00     0.035 C 
HETATM    6  C11 UNL     1       1.528   4.830  10.905  1.00  0.00     0.010 C 
HETATM    7  C12 UNL     1       0.794   6.026  11.556  1.00  0.00     0.001 C 
HETATM    8  C13 UNL     1       0.578   7.057  10.425  1.00  0.00     0.027 C 
HETATM    9  C14 UNL     1      -0.128   8.296  10.974  1.00  0.00     0.123 C 
HETATM   10  C15 UNL     1      -1.453   7.932  11.624  1.00  0.00     0.038 C 
HETATM   11  C16 UNL     1      -1.329   6.929  12.794  1.00  0.00     0.007 C 
HETATM   12  C17 UNL     1      -2.758   6.641  13.430  1.00  0.00    -0.016 C 
HETATM   13  C18 UNL     1      -2.649   6.073  14.870  1.00  0.00     0.018 C 
HETATM   14  C19 UNL     1      -3.584   7.949  13.597  1.00  0.00     0.018 C 
HETATM   15  C20 UNL     1      -3.560   5.685  12.502  1.00  0.00     0.140 C 
HETATM   16  C26 UNL     1      -2.791   4.417  12.132  1.00  0.00     0.034 C 
HETATM   17  C27 UNL     1      -1.430   4.714  11.509  1.00  0.00     0.012 C 
HETATM   18  C28 UNL     1      -0.519   5.637  12.357  1.00  0.00    -0.035 C 
HETATM   19  C29 UNL     1      -0.037   4.865  13.621  1.00  0.00     0.016 C 
ENDROOT
BRANCH   4  20
HETATM   20  C5  UNL     1       4.874   8.592  10.386  1.00  0.00     0.283 C 
HETATM   21  O1  UNL     1       4.726   9.269   9.377  1.00  0.00    -0.260 OA
BRANCH  20  22
HETATM   22  O2  UNL     1       5.477   8.988  11.523  1.00  0.00    -0.316 OA
BRANCH  22  23
HETATM   23  C6  UNL     1       6.695   8.311  11.870  1.00  0.00     0.209 C 
BRANCH  23  24
HETATM   24  C7  UNL     1       6.517   7.324  13.043  1.00  0.00     0.298 C 
BRANCH  24  25
HETATM   25  N1  UNL     1       7.160   7.720  14.313  1.00  0.00     0.082 N 
HETATM   26  C8  UNL     1       8.594   7.933  14.112  1.00  0.00     0.309 C 
HETATM   27  C9  UNL     1       6.546   8.915  14.899  1.00  0.00     0.309 C 
ENDBRANCH  24  25
ENDBRANCH  23  24
ENDBRANCH  22  23
ENDBRANCH  20  22
ENDBRANCH   4  20
BRANCH   9  28
HETATM   28  O3  UNL     1      -0.396   9.230   9.923  1.00  0.00    -0.395 OA
HETATM   29  H23 UNL     1      -0.971   8.796   9.272  1.00  0.00     0.210 HD
ENDBRANCH   9  28
BRANCH  15  30
HETATM   30  O4  UNL     1      -4.785   5.292  13.159  1.00  0.00    -0.315 OA
BRANCH  30  31
HETATM   31  C21 UNL     1      -5.382   4.151  12.711  1.00  0.00     0.262 C 
HETATM   32  O5  UNL     1      -4.889   3.034  12.762  1.00  0.00    -0.265 OA
BRANCH  31  33
HETATM   33  C22 UNL     1      -6.757   4.469  12.179  1.00  0.00     0.148 C 
BRANCH  33  34
HETATM   34  C23 UNL     1      -7.867   4.506  13.240  1.00  0.00     0.059 C 
HETATM   35  C24 UNL     1      -7.312   4.388  14.662  1.00  0.00     0.045 C 
HETATM   36  C25 UNL     1      -8.782   5.727  13.116  1.00  0.00     0.045 C 
BRANCH  34  37
HETATM   37  O6  UNL     1      -8.684   3.338  13.034  1.00  0.00    -0.390 OA
HETATM   38  H42 UNL     1      -9.181   3.457  12.204  1.00  0.00     0.210 HD
ENDBRANCH  34  37
ENDBRANCH  33  34
ENDBRANCH  31  33
ENDBRANCH  30  31
ENDBRANCH  15  30
TORSDOF 11
ENDMDL
MODEL 3
REMARK minimizedAffinity -7.90076017
REMARK CNNscore 0.444747418
REMARK CNNaffinity 6.66633368
REMARK  11 active torsions:
REMARK  status: ('A' for Active; 'I' for Inactive)
REMARK    1  A    between atoms: C4_4  and  C5_5 
REMARK    2  A    between atoms: C5_5  and  O2_7 
REMARK    3  A    between atoms: O2_7  and  C6_8 
REMARK    4  A    between atoms: C6_8  and  C7_9 
REMARK    5  A    between atoms: C7_9  and  N1_10 
REMARK    6  A    between atoms: C14_17  and  O3_18 
REMARK    7  A    between atoms: C20_24  and  O4_25 
REMARK    8  A    between atoms: O4_25  and  C21_26 
REMARK    9  A    between atoms: C21_26  and  C22_28 
REMARK   10  A    between atoms: C22_28  and  C23_29 
REMARK   11  A    between atoms: C23_29  and  O6_32 
ROOT
HETATM    1  C1  UNL     1       0.085   7.224   9.970  1.00  0.00     0.015 C 
HETATM    2  C2  UNL     1       0.023   7.393  11.495  1.00  0.00     0.017 C 
HETATM    3  C3  UNL     1       1.064   6.499  12.149  1.00  0.00    -0.070 C 
HETATM    4  C4  UNL     1       2.272   6.887  12.618  1.00  0.00     0.085 C 
HETATM    5  C10 UNL     1       0.665   5.048  12.303  1.00  0.00     0.035 C 
HETATM    6  C11 UNL     1      -0.821   4.844  12.626  1.00  0.00     0.010 C 
HETATM    7  C12 UNL     1      -1.501   6.123  13.169  1.00  0.00     0.001 C 
HETATM    8  C13 UNL     1      -1.433   7.159  12.023  1.00  0.00     0.027 C 
HETATM    9  C14 UNL     1      -2.066   8.476  12.470  1.00  0.00     0.123 C 
HETATM   10  C15 UNL     1      -3.504   8.272  12.919  1.00  0.00     0.038 C 
HETATM   11  C16 UNL     1      -3.664   7.275  14.090  1.00  0.00     0.007 C 
HETATM   12  C17 UNL     1      -5.194   7.158  14.510  1.00  0.00    -0.016 C 
HETATM   13  C18 UNL     1      -5.360   6.599  15.948  1.00  0.00     0.018 C 
HETATM   14  C19 UNL     1      -5.881   8.554  14.561  1.00  0.00     0.018 C 
HETATM   15  C20 UNL     1      -5.956   6.288  13.471  1.00  0.00     0.140 C 
HETATM   16  C26 UNL     1      -5.291   4.937  13.211  1.00  0.00     0.034 C 
HETATM   17  C27 UNL     1      -3.829   5.071  12.793  1.00  0.00     0.012 C 
HETATM   18  C28 UNL     1      -2.952   5.895  13.769  1.00  0.00    -0.035 C 
HETATM   19  C29 UNL     1      -2.748   5.089  15.086  1.00  0.00     0.016 C 
ENDROOT
BRANCH   4  20
HETATM   20  C5  UNL     1       2.969   8.198  12.615  1.00  0.00     0.283 C 
HETATM   21  O1  UNL     1       2.354   9.247  12.751  1.00  0.00    -0.260 OA
BRANCH  20  22
HETATM   22  O2  UNL     1       4.304   8.076  12.490  1.00  0.00    -0.316 OA
BRANCH  22  23
HETATM   23  C6  UNL     1       4.788   7.607  11.222  1.00  0.00     0.209 C 
BRANCH  23  24
HETATM   24  C7  UNL     1       4.346   8.503  10.046  1.00  0.00     0.298 C 
BRANCH  24  25
HETATM   25  N1  UNL     1       3.230   7.979   9.230  1.00  0.00     0.082 N 
HETATM   26  C8  UNL     1       3.177   8.668   7.940  1.00  0.00     0.309 C 
HETATM   27  C9  UNL     1       3.320   6.530   9.028  1.00  0.00     0.309 C 
ENDBRANCH  24  25
ENDBRANCH  23  24
ENDBRANCH  22  23
ENDBRANCH  20  22
ENDBRANCH   4  20
BRANCH   9  28
HETATM   28  O3  UNL     1      -2.071   9.421  11.395  1.00  0.00    -0.395 OA
HETATM   29  H23 UNL     1      -2.591   9.048  10.666  1.00  0.00     0.210 HD
ENDBRANCH   9  28
BRANCH  15  30
HETATM   30  O4  UNL     1      -7.300   6.043  13.942  1.00  0.00    -0.315 OA
BRANCH  30  31
HETATM   31  C21 UNL     1      -8.235   5.742  12.997  1.00  0.00     0.262 C 
HETATM   32  O5  UNL     1      -8.099   4.908  12.114  1.00  0.00    -0.265 OA
BRANCH  31  33
HETATM   33  C22 UNL     1      -9.478   6.565  13.228  1.00  0.00     0.148 C 
BRANCH  33  34
HETATM   34  C23 UNL     1      -9.742   6.939  14.694  1.00  0.00     0.059 C 
HETATM   35  C24 UNL     1      -8.941   6.069  15.666  1.00  0.00     0.045 C 
HETATM   36  C25 UNL     1      -9.518   8.424  14.989  1.00  0.00     0.045 C 
BRANCH  34  37
HETATM   37  O6  UNL     1     -11.129   6.656  14.958  1.00  0.00    -0.390 OA
HETATM   38  H42 UNL     1     -11.669   7.306  14.473  1.00  0.00     0.210 HD
ENDBRANCH  34  37
ENDBRANCH  33  34
ENDBRANCH  31  33
ENDBRANCH  30  31
ENDBRANCH  15  30
TORSDOF 11
ENDMDL
MODEL 4
REMARK minimizedAffinity -6.32974386
REMARK CNNscore 0.428178579
REMARK CNNaffinity 6.76989222
REMARK  11 active torsions:
REMARK  status: ('A' for Active; 'I' for Inactive)
REMARK    1  A    between atoms: C4_4  and  C5_5 
REMARK    2  A    between atoms: C5_5  and  O2_7 
REMARK    3  A    between atoms: O2_7  and  C6_8 
REMARK    4  A    between atoms: C6_8  and  C7_9 
REMARK    5  A    between atoms: C7_9  and  N1_10 
REMARK    6  A    between atoms: C14_17  and  O3_18 
REMARK    7  A    between atoms: C20_24  and  O4_25 
REMARK    8  A    between atoms: O4_25  and  C21_26 
REMARK    9  A    between atoms: C21_26  and  C22_28 
REMARK   10  A    between atoms: C22_28  and  C23_29 
REMARK   11  A    between atoms: C23_29  and  O6_32 
ROOT
HETATM    1  C1  UNL     1      -7.907   3.772  12.727  1.00  0.00     0.015 C 
HETATM    2  C2  UNL     1      -7.724   5.275  12.988  1.00  0.00     0.017 C 
HETATM    3  C3  UNL     1      -6.827   5.474  14.199  1.00  0.00    -0.070 C 
HETATM    4  C4  UNL     1      -5.512   5.787  14.179  1.00  0.00     0.085 C 
HETATM    5  C10 UNL     1      -7.513   5.334  15.541  1.00  0.00     0.035 C 
HETATM    6  C11 UNL     1      -8.949   5.872  15.562  1.00  0.00     0.010 C 
HETATM    7  C12 UNL     1      -9.250   6.836  14.390  1.00  0.00     0.001 C 
HETATM    8  C13 UNL     1      -9.110   5.994  13.102  1.00  0.00     0.027 C 
HETATM    9  C14 UNL     1      -9.369   6.867  11.875  1.00  0.00     0.123 C 
HETATM   10  C15 UNL     1     -10.743   7.516  11.941  1.00  0.00     0.038 C 
HETATM   11  C16 UNL     1     -10.960   8.409  13.184  1.00  0.00     0.007 C 
HETATM   12  C17 UNL     1     -12.406   9.070  13.144  1.00  0.00    -0.016 C 
HETATM   13  C18 UNL     1     -12.496  10.327  14.049  1.00  0.00     0.018 C 
HETATM   14  C19 UNL     1     -12.755   9.598  11.722  1.00  0.00     0.018 C 
HETATM   15  C20 UNL     1     -13.476   8.011  13.536  1.00  0.00     0.140 C 
HETATM   16  C26 UNL     1     -13.167   7.301  14.853  1.00  0.00     0.034 C 
HETATM   17  C27 UNL     1     -11.782   6.659  14.866  1.00  0.00     0.012 C 
HETATM   18  C28 UNL     1     -10.621   7.625  14.520  1.00  0.00    -0.035 C 
HETATM   19  C29 UNL     1     -10.424   8.636  15.688  1.00  0.00     0.016 C 
ENDROOT
BRANCH   4  20
HETATM   20  C5  UNL     1      -4.548   5.979  13.065  1.00  0.00     0.283 C 
HETATM   21  O1  UNL     1      -4.342   5.096  12.243  1.00  0.00    -0.260 OA
BRANCH  20  22
HETATM   22  O2  UNL     1      -3.995   7.206  13.063  1.00  0.00    -0.316 OA
BRANCH  22  23
HETATM   23  C6  UNL     1      -2.560   7.261  13.074  1.00  0.00     0.209 C 
BRANCH  23  24
HETATM   24  C7  UNL     1      -1.966   7.070  14.486  1.00  0.00     0.298 C 
BRANCH  24  25
HETATM   25  N1  UNL     1      -1.153   8.195  14.993  1.00  0.00     0.082 N 
HETATM   26  C8  UNL     1      -0.180   7.715  15.976  1.00  0.00     0.309 C 
HETATM   27  C9  UNL     1      -0.471   8.919  13.917  1.00  0.00     0.309 C 
ENDBRANCH  24  25
ENDBRANCH  23  24
ENDBRANCH  22  23
ENDBRANCH  20  22
ENDBRANCH   4  20
BRANCH   9  28
HETATM   28  O3  UNL     1      -9.311   6.084  10.678  1.00  0.00    -0.395 OA
HETATM   29  H23 UNL     1      -9.995   5.397  10.733  1.00  0.00     0.210 HD
ENDBRANCH   9  28
BRANCH  15  30
HETATM   30  O4  UNL     1     -14.764   8.652  13.663  1.00  0.00    -0.315 OA
BRANCH  30  31
HETATM   31  C21 UNL     1     -15.772   8.161  12.888  1.00  0.00     0.262 C 
HETATM   32  O5  UNL     1     -15.753   7.085  12.310  1.00  0.00    -0.265 OA
BRANCH  31  33
HETATM   33  C22 UNL     1     -16.931   9.127  12.884  1.00  0.00     0.148 C 
BRANCH  33  34
HETATM   34  C23 UNL     1     -17.204   9.802  11.532  1.00  0.00     0.059 C 
HETATM   35  C24 UNL     1     -18.567   9.411  10.955  1.00  0.00     0.045 C 
HETATM   36  C25 UNL     1     -17.051  11.324  11.574  1.00  0.00     0.045 C 
BRANCH  34  37
HETATM   37  O6  UNL     1     -16.222   9.300  10.606  1.00  0.00    -0.390 OA
HETATM   38  H42 UNL     1     -15.354   9.667  10.854  1.00  0.00     0.210 HD
ENDBRANCH  34  37
ENDBRANCH  33  34
ENDBRANCH  31  33
ENDBRANCH  30  31
ENDBRANCH  15  30
TORSDOF 11
ENDMDL
MODEL 5
REMARK minimizedAffinity -5.94889164
REMARK CNNscore 0.413870573
REMARK CNNaffinity 5.60243368
REMARK  11 active torsions:
REMARK  status: ('A' for Active; 'I' for Inactive)
REMARK    1  A    between atoms: C4_4  and  C5_5 
REMARK    2  A    between atoms: C5_5  and  O2_7 
REMARK    3  A    between atoms: O2_7  and  C6_8 
REMARK    4  A    between atoms: C6_8  and  C7_9 
REMARK    5  A    between atoms: C7_9  and  N1_10 
REMARK    6  A    between atoms: C14_17  and  O3_18 
REMARK    7  A    between atoms: C20_24  and  O4_25 
REMARK    8  A    between atoms: O4_25  and  C21_26 
REMARK    9  A    between atoms: C21_26  and  C22_28 
REMARK   10  A    between atoms: C22_28  and  C23_29 
REMARK   11  A    between atoms: C23_29  and  O6_32 
ROOT
HETATM    1  C1  UNL     1     -17.831  -0.705  14.331  1.00  0.00     0.015 C 
HETATM    2  C2  UNL     1     -17.194   0.042  15.511  1.00  0.00     0.017 C 
HETATM    3  C3  UNL     1     -18.043  -0.155  16.757  1.00  0.00    -0.070 C 
HETATM    4  C4  UNL     1     -17.794  -1.019  17.767  1.00  0.00     0.085 C 
HETATM    5  C10 UNL     1     -19.258   0.740  16.859  1.00  0.00     0.035 C 
HETATM    6  C11 UNL     1     -19.034   2.154  16.308  1.00  0.00     0.010 C 
HETATM    7  C12 UNL     1     -17.537   2.525  16.186  1.00  0.00     0.001 C 
HETATM    8  C13 UNL     1     -16.942   1.544  15.149  1.00  0.00     0.027 C 
HETATM    9  C14 UNL     1     -15.448   1.815  14.970  1.00  0.00     0.123 C 
HETATM   10  C15 UNL     1     -15.197   3.255  14.549  1.00  0.00     0.038 C 
HETATM   11  C16 UNL     1     -15.729   4.307  15.549  1.00  0.00     0.007 C 
HETATM   12  C17 UNL     1     -15.385   5.775  15.041  1.00  0.00    -0.016 C 
HETATM   13  C18 UNL     1     -15.429   6.813  16.194  1.00  0.00     0.018 C 
HETATM   14  C19 UNL     1     -13.929   5.867  14.499  1.00  0.00     0.018 C 
HETATM   15  C20 UNL     1     -16.351   6.168  13.887  1.00  0.00     0.140 C 
HETATM   16  C26 UNL     1     -17.825   5.975  14.241  1.00  0.00     0.034 C 
HETATM   17  C27 UNL     1     -18.138   4.557  14.710  1.00  0.00     0.012 C 
HETATM   18  C28 UNL     1     -17.258   4.057  15.885  1.00  0.00    -0.035 C 
HETATM   19  C29 UNL     1     -17.646   4.826  17.182  1.00  0.00     0.016 C 
ENDROOT
BRANCH   4  20
HETATM   20  C5  UNL     1     -16.726  -2.029  17.976  1.00  0.00     0.283 C 
HETATM   21  O1  UNL     1     -16.384  -2.369  19.101  1.00  0.00    -0.260 OA
BRANCH  20  22
HETATM   22  O2  UNL     1     -16.241  -2.520  16.820  1.00  0.00    -0.316 OA
BRANCH  22  23
HETATM   23  C6  UNL     1     -16.415  -3.928  16.601  1.00  0.00     0.209 C 
BRANCH  23  24
HETATM   24  C7  UNL     1     -16.720  -4.270  15.127  1.00  0.00     0.298 C 
BRANCH  24  25
HETATM   25  N1  UNL     1     -15.552  -4.653  14.306  1.00  0.00     0.082 N 
HETATM   26  C8  UNL     1     -14.419  -5.001  15.165  1.00  0.00     0.309 C 
HETATM   27  C9  UNL     1     -15.853  -5.758  13.391  1.00  0.00     0.309 C 
ENDBRANCH  24  25
ENDBRANCH  23  24
ENDBRANCH  22  23
ENDBRANCH  20  22
ENDBRANCH   4  20
BRANCH   9  28
HETATM   28  O3  UNL     1     -14.900   0.961  13.962  1.00  0.00    -0.395 OA
HETATM   29  H23 UNL     1     -15.361   1.143  13.127  1.00  0.00     0.210 HD
ENDBRANCH   9  28
BRANCH  15  30
HETATM   30  O4  UNL     1     -16.150   7.556  13.543  1.00  0.00    -0.315 OA
BRANCH  30  31
HETATM   31  C21 UNL     1     -15.633   7.813  12.308  1.00  0.00     0.262 C 
HETATM   32  O5  UNL     1     -15.545   7.000  11.400  1.00  0.00    -0.265 OA
BRANCH  31  33
HETATM   33  C22 UNL     1     -15.223   9.262  12.217  1.00  0.00     0.148 C 
BRANCH  33  34
HETATM   34  C23 UNL     1     -13.869   9.592  12.865  1.00  0.00     0.059 C 
HETATM   35  C24 UNL     1     -14.019  10.046  14.319  1.00  0.00     0.045 C 
HETATM   36  C25 UNL     1     -12.854   8.452  12.756  1.00  0.00     0.045 C 
BRANCH  34  37
HETATM   37  O6  UNL     1     -13.325  10.717  12.151  1.00  0.00    -0.390 OA
HETATM   38  H42 UNL     1     -13.066  10.417  11.261  1.00  0.00     0.210 HD
ENDBRANCH  34  37
ENDBRANCH  33  34
ENDBRANCH  31  33
ENDBRANCH  30  31
ENDBRANCH  15  30
TORSDOF 11
ENDMDL
MODEL 6
REMARK minimizedAffinity -6.2799964
REMARK CNNscore 0.384170204
REMARK CNNaffinity 6.46973944
REMARK  11 active torsions:
REMARK  status: ('A' for Active; 'I' for Inactive)
REMARK    1  A    between atoms: C4_4  and  C5_5 
REMARK    2  A    between atoms: C5_5  and  O2_7 
REMARK    3  A    between atoms: O2_7  and  C6_8 
REMARK    4  A    between atoms: C6_8  and  C7_9 
REMARK    5  A    between atoms: C7_9  and  N1_10 
REMARK    6  A    between atoms: C14_17  and  O3_18 
REMARK    7  A    between atoms: C20_24  and  O4_25 
REMARK    8  A    between atoms: O4_25  and  C21_26 
REMARK    9  A    between atoms: C21_26  and  C22_28 
REMARK   10  A    between atoms: C22_28  and  C23_29 
REMARK   11  A    between atoms: C23_29  and  O6_32 
ROOT
HETATM    1  C1  UNL     1     -16.731   6.035  23.938  1.00  0.00     0.015 C 
HETATM    2  C2  UNL     1     -15.238   5.809  24.218  1.00  0.00     0.017 C 
HETATM    3  C3  UNL     1     -14.602   5.093  23.037  1.00  0.00    -0.070 C 
HETATM    4  C4  UNL     1     -13.861   5.664  22.060  1.00  0.00     0.085 C 
HETATM    5  C10 UNL     1     -14.812   3.596  22.999  1.00  0.00     0.035 C 
HETATM    6  C11 UNL     1     -14.803   2.933  24.382  1.00  0.00     0.010 C 
HETATM    7  C12 UNL     1     -14.145   3.815  25.469  1.00  0.00     0.001 C 
HETATM    8  C13 UNL     1     -15.032   5.076  25.586  1.00  0.00     0.027 C 
HETATM    9  C14 UNL     1     -14.450   6.030  26.629  1.00  0.00     0.123 C 
HETATM   10  C15 UNL     1     -14.311   5.349  27.981  1.00  0.00     0.038 C 
HETATM   11  C16 UNL     1     -13.408   4.094  27.966  1.00  0.00     0.007 C 
HETATM   12  C17 UNL     1     -13.295   3.477  29.428  1.00  0.00    -0.016 C 
HETATM   13  C18 UNL     1     -12.050   2.564  29.578  1.00  0.00     0.018 C 
HETATM   14  C19 UNL     1     -13.090   4.585  30.502  1.00  0.00     0.018 C 
HETATM   15  C20 UNL     1     -14.605   2.712  29.775  1.00  0.00     0.140 C 
HETATM   16  C26 UNL     1     -15.007   1.691  28.712  1.00  0.00     0.034 C 
HETATM   17  C27 UNL     1     -15.126   2.305  27.320  1.00  0.00     0.012 C 
HETATM   18  C28 UNL     1     -13.867   3.072  26.843  1.00  0.00    -0.035 C 
HETATM   19  C29 UNL     1     -12.721   2.057  26.556  1.00  0.00     0.016 C 
ENDROOT
BRANCH   4  20
HETATM   20  C5  UNL     1     -13.480   7.073  21.790  1.00  0.00     0.283 C 
HETATM   21  O1  UNL     1     -13.344   7.488  20.646  1.00  0.00    -0.260 OA
BRANCH  20  22
HETATM   22  O2  UNL     1     -13.352   7.802  22.915  1.00  0.00    -0.316 OA
BRANCH  22  23
HETATM   23  C6  UNL     1     -12.028   7.908  23.461  1.00  0.00     0.209 C 
BRANCH  23  24
HETATM   24  C7  UNL     1     -11.694   9.334  23.947  1.00  0.00     0.298 C 
BRANCH  24  25
HETATM   25  N1  UNL     1     -10.699  10.067  23.137  1.00  0.00     0.082 N 
HETATM   26  C8  UNL     1     -11.140  10.151  21.744  1.00  0.00     0.309 C 
HETATM   27  C9  UNL     1     -10.429  11.407  23.665  1.00  0.00     0.309 C 
ENDBRANCH  24  25
ENDBRANCH  23  24
ENDBRANCH  22  23
ENDBRANCH  20  22
ENDBRANCH   4  20
BRANCH   9  28
HETATM   28  O3  UNL     1     -15.299   7.170  26.797  1.00  0.00    -0.395 OA
HETATM   29  H23 UNL     1     -16.169   6.859  27.097  1.00  0.00     0.210 HD
ENDBRANCH   9  28
BRANCH  15  30
HETATM   30  O4  UNL     1     -14.436   2.014  31.028  1.00  0.00    -0.315 OA
BRANCH  30  31
HETATM   31  C21 UNL     1     -15.420   2.175  31.957  1.00  0.00     0.262 C 
HETATM   32  O5  UNL     1     -16.517   1.638  31.919  1.00  0.00    -0.265 OA
BRANCH  31  33
HETATM   33  C22 UNL     1     -14.937   3.085  33.060  1.00  0.00     0.148 C 
BRANCH  33  34
HETATM   34  C23 UNL     1     -13.941   2.442  34.037  1.00  0.00     0.059 C 
HETATM   35  C24 UNL     1     -13.589   3.372  35.201  1.00  0.00     0.045 C 
HETATM   36  C25 UNL     1     -14.400   1.077  34.557  1.00  0.00     0.045 C 
BRANCH  34  37
HETATM   37  O6  UNL     1     -12.716   2.231  33.311  1.00  0.00    -0.390 OA
HETATM   38  H42 UNL     1     -12.865   1.520  32.662  1.00  0.00     0.210 HD
ENDBRANCH  34  37
ENDBRANCH  33  34
ENDBRANCH  31  33
ENDBRANCH  30  31
ENDBRANCH  15  30
TORSDOF 11
ENDMDL
MODEL 7
REMARK minimizedAffinity -8.14961338
REMARK CNNscore 0.351841003
REMARK CNNaffinity 6.56369257
REMARK  11 active torsions:
REMARK  status: ('A' for Active; 'I' for Inactive)
REMARK    1  A    between atoms: C4_4  and  C5_5 
REMARK    2  A    between atoms: C5_5  and  O2_7 
REMARK    3  A    between atoms: O2_7  and  C6_8 
REMARK    4  A    between atoms: C6_8  and  C7_9 
REMARK    5  A    between atoms: C7_9  and  N1_10 
REMARK    6  A    between atoms: C14_17  and  O3_18 
REMARK    7  A    between atoms: C20_24  and  O4_25 
REMARK    8  A    between atoms: O4_25  and  C21_26 
REMARK    9  A    between atoms: C21_26  and  C22_28 
REMARK   10  A    between atoms: C22_28  and  C23_29 
REMARK   11  A    between atoms: C23_29  and  O6_32 
ROOT
HETATM    1  C1  UNL     1       0.642   5.624  13.214  1.00  0.00     0.015 C 
HETATM    2  C2  UNL     1      -0.443   6.119  12.245  1.00  0.00     0.017 C 
HETATM    3  C3  UNL     1      -0.141   7.550  11.831  1.00  0.00    -0.070 C 
HETATM    4  C4  UNL     1       0.426   7.944  10.668  1.00  0.00     0.085 C 
HETATM    5  C10 UNL     1      -0.557   8.612  12.824  1.00  0.00     0.035 C 
HETATM    6  C11 UNL     1      -1.865   8.295  13.560  1.00  0.00     0.010 C 
HETATM    7  C12 UNL     1      -2.716   7.221  12.842  1.00  0.00     0.001 C 
HETATM    8  C13 UNL     1      -1.870   5.927  12.862  1.00  0.00     0.027 C 
HETATM    9  C14 UNL     1      -2.620   4.801  12.152  1.00  0.00     0.123 C 
HETATM   10  C15 UNL     1      -3.979   4.559  12.788  1.00  0.00     0.038 C 
HETATM   11  C16 UNL     1      -4.910   5.794  12.780  1.00  0.00     0.007 C 
HETATM   12  C17 UNL     1      -6.315   5.431  13.429  1.00  0.00    -0.016 C 
HETATM   13  C18 UNL     1      -7.426   6.428  13.005  1.00  0.00     0.018 C 
HETATM   14  C19 UNL     1      -6.834   4.049  12.936  1.00  0.00     0.018 C 
HETATM   15  C20 UNL     1      -6.174   5.363  14.977  1.00  0.00     0.140 C 
HETATM   16  C26 UNL     1      -5.528   6.611  15.578  1.00  0.00     0.034 C 
HETATM   17  C27 UNL     1      -4.173   6.933  14.954  1.00  0.00     0.012 C 
HETATM   18  C28 UNL     1      -4.189   7.058  13.410  1.00  0.00    -0.035 C 
HETATM   19  C29 UNL     1      -4.950   8.355  13.004  1.00  0.00     0.016 C 
ENDROOT
BRANCH   4  20
HETATM   20  C5  UNL     1       0.955   7.183   9.507  1.00  0.00     0.283 C 
HETATM   21  O1  UNL     1       0.839   7.605   8.364  1.00  0.00    -0.260 OA
BRANCH  20  22
HETATM   22  O2  UNL     1       1.581   6.048   9.871  1.00  0.00    -0.316 OA
BRANCH  22  23
HETATM   23  C6  UNL     1       2.939   5.897   9.430  1.00  0.00     0.209 C 
BRANCH  23  24
HETATM   24  C7  UNL     1       3.959   6.019  10.582  1.00  0.00     0.298 C 
BRANCH  24  25
HETATM   25  N1  UNL     1       4.975   7.081  10.424  1.00  0.00     0.082 N 
HETATM   26  C8  UNL     1       4.332   8.394  10.355  1.00  0.00     0.309 C 
HETATM   27  C9  UNL     1       5.973   7.061  11.498  1.00  0.00     0.309 C 
ENDBRANCH  24  25
ENDBRANCH  23  24
ENDBRANCH  22  23
ENDBRANCH  20  22
ENDBRANCH   4  20
BRANCH   9  28
HETATM   28  O3  UNL     1      -1.877   3.579  12.224  1.00  0.00    -0.395 OA
HETATM   29  H23 UNL     1      -1.764   3.348  13.160  1.00  0.00     0.210 HD
ENDBRANCH   9  28
BRANCH  15  30
HETATM   30  O4  UNL     1      -7.480   5.202  15.572  1.00  0.00    -0.315 OA
BRANCH  30  31
HETATM   31  C21 UNL     1      -7.979   6.272  16.255  1.00  0.00     0.262 C 
HETATM   32  O5  UNL     1      -7.427   6.824  17.196  1.00  0.00    -0.265 OA
BRANCH  31  33
HETATM   33  C22 UNL     1      -9.294   6.696  15.650  1.00  0.00     0.148 C 
BRANCH  33  34
HETATM   34  C23 UNL     1      -9.508   8.215  15.572  1.00  0.00     0.059 C 
HETATM   35  C24 UNL     1     -10.351   8.619  14.359  1.00  0.00     0.045 C 
HETATM   36  C25 UNL     1     -10.090   8.811  16.856  1.00  0.00     0.045 C 
BRANCH  34  37
HETATM   37  O6  UNL     1      -8.213   8.813  15.373  1.00  0.00    -0.390 OA
HETATM   38  H42 UNL     1      -7.702   8.713  16.196  1.00  0.00     0.210 HD
ENDBRANCH  34  37
ENDBRANCH  33  34
ENDBRANCH  31  33
ENDBRANCH  30  31
ENDBRANCH  15  30
TORSDOF 11
ENDMDL
MODEL 8
REMARK minimizedAffinity -7.18416882
REMARK CNNscore 0.34124738
REMARK CNNaffinity 6.47568655
REMARK  11 active torsions:
REMARK  status: ('A' for Active; 'I' for Inactive)
REMARK    1  A    between atoms: C4_4  and  C5_5 
REMARK    2  A    between atoms: C5_5  and  O2_7 
REMARK    3  A    between atoms: O2_7  and  C6_8 
REMARK    4  A    between atoms: C6_8  and  C7_9 
REMARK    5  A    between atoms: C7_9  and  N1_10 
REMARK    6  A    between atoms: C14_17  and  O3_18 
REMARK    7  A    between atoms: C20_24  and  O4_25 
REMARK    8  A    between atoms: O4_25  and  C21_26 
REMARK    9  A    between atoms: C21_26  and  C22_28 
REMARK   10  A    between atoms: C22_28  and  C23_29 
REMARK   11  A    between atoms: C23_29  and  O6_32 
ROOT
HETATM    1  C1  UNL     1       1.342   7.251   8.768  1.00  0.00     0.015 C 
HETATM    2  C2  UNL     1       1.455   7.400  10.292  1.00  0.00     0.017 C 
HETATM    3  C3  UNL     1       2.514   6.445  10.819  1.00  0.00    -0.070 C 
HETATM    4  C4  UNL     1       3.784   6.764  11.156  1.00  0.00     0.085 C 
HETATM    5  C10 UNL     1       2.059   5.014  11.002  1.00  0.00     0.035 C 
HETATM    6  C11 UNL     1       0.609   4.880  11.484  1.00  0.00     0.010 C 
HETATM    7  C12 UNL     1       0.059   6.183  12.111  1.00  0.00     0.001 C 
HETATM    8  C13 UNL     1       0.056   7.231  10.974  1.00  0.00     0.027 C 
HETATM    9  C14 UNL     1      -0.456   8.572  11.500  1.00  0.00     0.123 C 
HETATM   10  C15 UNL     1      -1.845   8.433  12.102  1.00  0.00     0.038 C 
HETATM   11  C16 UNL     1      -1.928   7.428  13.274  1.00  0.00     0.007 C 
HETATM   12  C17 UNL     1      -3.407   7.382  13.859  1.00  0.00    -0.016 C 
HETATM   13  C18 UNL     1      -3.444   6.810  15.300  1.00  0.00     0.018 C 
HETATM   14  C19 UNL     1      -4.012   8.809  13.998  1.00  0.00     0.018 C 
HETATM   15  C20 UNL     1      -4.322   6.567  12.901  1.00  0.00     0.140 C 
HETATM   16  C26 UNL     1      -3.759   5.189  12.556  1.00  0.00     0.034 C 
HETATM   17  C27 UNL     1      -2.347   5.255  11.982  1.00  0.00     0.012 C 
HETATM   18  C28 UNL     1      -1.328   6.019  12.864  1.00  0.00    -0.035 C 
HETATM   19  C29 UNL     1      -1.023   5.184  14.143  1.00  0.00     0.016 C 
ENDROOT
BRANCH   4  20
HETATM   20  C5  UNL     1       4.544   8.038  11.090  1.00  0.00     0.283 C 
HETATM   21  O1  UNL     1       5.428   8.209  10.262  1.00  0.00    -0.260 OA
BRANCH  20  22
HETATM   22  O2  UNL     1       4.120   8.944  11.992  1.00  0.00    -0.316 OA
BRANCH  22  23
HETATM   23  C6  UNL     1       4.567   8.758  13.344  1.00  0.00     0.209 C 
BRANCH  23  24
HETATM   24  C7  UNL     1       3.457   8.219  14.271  1.00  0.00     0.298 C 
BRANCH  24  25
HETATM   25  N1  UNL     1       2.884   9.200  15.216  1.00  0.00     0.082 N 
HETATM   26  C8  UNL     1       2.046  10.164  14.501  1.00  0.00     0.309 C 
HETATM   27  C9  UNL     1       2.117   8.558  16.288  1.00  0.00     0.309 C 
ENDBRANCH  24  25
ENDBRANCH  23  24
ENDBRANCH  22  23
ENDBRANCH  20  22
ENDBRANCH   4  20
BRANCH   9  28
HETATM   28  O3  UNL     1      -0.529   9.532  10.442  1.00  0.00    -0.395 OA
HETATM   29  H23 UNL     1      -1.145   9.196   9.770  1.00  0.00     0.210 HD
ENDBRANCH   9  28
BRANCH  15  30
HETATM   30  O4  UNL     1      -5.617   6.383  13.514  1.00  0.00    -0.315 OA
BRANCH  30  31
HETATM   31  C21 UNL     1      -6.181   5.148  13.395  1.00  0.00     0.262 C 
HETATM   32  O5  UNL     1      -6.202   4.480  12.371  1.00  0.00    -0.265 OA
BRANCH  31  33
HETATM   33  C22 UNL     1      -6.742   4.712  14.726  1.00  0.00     0.148 C 
BRANCH  33  34
HETATM   34  C23 UNL     1      -7.725   5.703  15.368  1.00  0.00     0.059 C 
HETATM   35  C24 UNL     1      -7.013   6.744  16.236  1.00  0.00     0.045 C 
HETATM   36  C25 UNL     1      -8.646   6.384  14.353  1.00  0.00     0.045 C 
BRANCH  34  37
HETATM   37  O6  UNL     1      -8.562   4.945  16.262  1.00  0.00    -0.390 OA
HETATM   38  H42 UNL     1      -9.149   4.382  15.726  1.00  0.00     0.210 HD
ENDBRANCH  34  37
ENDBRANCH  33  34
ENDBRANCH  31  33
ENDBRANCH  30  31
ENDBRANCH  15  30
TORSDOF 11
ENDMDL
MODEL 9
REMARK minimizedAffinity -6.0721674
REMARK CNNscore 0.290405244
REMARK CNNaffinity 6.57661819
REMARK  11 active torsions:
REMARK  status: ('A' for Active; 'I' for Inactive)
REMARK    1  A    between atoms: C4_4  and  C5_5 
REMARK    2  A    between atoms: C5_5  and  O2_7 
REMARK    3  A    between atoms: O2_7  and  C6_8 
REMARK    4  A    between atoms: C6_8  and  C7_9 
REMARK    5  A    between atoms: C7_9  and  N1_10 
REMARK    6  A    between atoms: C14_17  and  O3_18 
REMARK    7  A    between atoms: C20_24  and  O4_25 
REMARK    8  A    between atoms: O4_25  and  C21_26 
REMARK    9  A    between atoms: C21_26  and  C22_28 
REMARK   10  A    between atoms: C22_28  and  C23_29 
REMARK   11  A    between atoms: C23_29  and  O6_32 
ROOT
HETATM    1  C1  UNL     1      -6.916   7.116  13.158  1.00  0.00     0.015 C 
HETATM    2  C2  UNL     1      -8.174   6.333  13.562  1.00  0.00     0.017 C 
HETATM    3  C3  UNL     1      -8.523   5.332  12.472  1.00  0.00    -0.070 C 
HETATM    4  C4  UNL     1      -8.254   4.007  12.486  1.00  0.00     0.085 C 
HETATM    5  C10 UNL     1      -9.270   5.903  11.287  1.00  0.00     0.035 C 
HETATM    6  C11 UNL     1     -10.273   7.003  11.657  1.00  0.00     0.010 C 
HETATM    7  C12 UNL     1     -10.650   6.995  13.158  1.00  0.00     0.001 C 
HETATM    8  C13 UNL     1      -9.344   7.307  13.924  1.00  0.00     0.027 C 
HETATM    9  C14 UNL     1      -9.607   7.302  15.430  1.00  0.00     0.123 C 
HETATM   10  C15 UNL     1     -10.695   8.298  15.801  1.00  0.00     0.038 C 
HETATM   11  C16 UNL     1     -12.052   8.039  15.106  1.00  0.00     0.007 C 
HETATM   12  C17 UNL     1     -13.131   9.105  15.587  1.00  0.00    -0.016 C 
HETATM   13  C18 UNL     1     -14.582   8.615  15.338  1.00  0.00     0.018 C 
HETATM   14  C19 UNL     1     -13.063   9.335  17.125  1.00  0.00     0.018 C 
HETATM   15  C20 UNL     1     -12.865  10.469  14.888  1.00  0.00     0.140 C 
HETATM   16  C26 UNL     1     -12.754  10.356  13.368  1.00  0.00     0.034 C 
HETATM   17  C27 UNL     1     -11.703   9.341  12.927  1.00  0.00     0.012 C 
HETATM   18  C28 UNL     1     -11.878   7.927  13.534  1.00  0.00    -0.035 C 
HETATM   19  C29 UNL     1     -13.135   7.250  12.912  1.00  0.00     0.016 C 
ENDROOT
BRANCH   4  20
HETATM   20  C5  UNL     1      -7.541   3.143  13.461  1.00  0.00     0.283 C 
HETATM   21  O1  UNL     1      -7.614   3.348  14.665  1.00  0.00    -0.260 OA
BRANCH  20  22
HETATM   22  O2  UNL     1      -6.873   2.134  12.870  1.00  0.00    -0.316 OA
BRANCH  22  23
HETATM   23  C6  UNL     1      -5.976   2.496  11.808  1.00  0.00     0.209 C 
BRANCH  23  24
HETATM   24  C7  UNL     1      -4.987   3.608  12.215  1.00  0.00     0.298 C 
BRANCH  24  25
HETATM   25  N1  UNL     1      -3.601   3.438  11.730  1.00  0.00     0.082 N 
HETATM   26  C8  UNL     1      -2.678   4.232  12.542  1.00  0.00     0.309 C 
HETATM   27  C9  UNL     1      -3.185   2.033  11.717  1.00  0.00     0.309 C 
ENDBRANCH  24  25
ENDBRANCH  23  24
ENDBRANCH  22  23
ENDBRANCH  20  22
ENDBRANCH   4  20
BRANCH   9  28
HETATM   28  O3  UNL     1      -8.422   7.658  16.149  1.00  0.00    -0.395 OA
HETATM   29  H23 UNL     1      -8.157   8.551  15.873  1.00  0.00     0.210 HD
ENDBRANCH   9  28
BRANCH  15  30
HETATM   30  O4  UNL     1     -13.941  11.383  15.193  1.00  0.00    -0.315 OA
BRANCH  30  31
HETATM   31  C21 UNL     1     -13.584  12.630  15.614  1.00  0.00     0.262 C 
HETATM   32  O5  UNL     1     -13.827  13.095  16.719  1.00  0.00    -0.265 OA
BRANCH  31  33
HETATM   33  C22 UNL     1     -12.811  13.335  14.527  1.00  0.00     0.148 C 
BRANCH  33  34
HETATM   34  C23 UNL     1     -11.426  13.847  14.949  1.00  0.00     0.059 C 
HETATM   35  C24 UNL     1     -11.484  15.262  15.531  1.00  0.00     0.045 C 
HETATM   36  C25 UNL     1     -10.696  12.899  15.904  1.00  0.00     0.045 C 
BRANCH  34  37
HETATM   37  O6  UNL     1     -10.631  13.942  13.752  1.00  0.00    -0.390 OA
HETATM   38  H42 UNL     1     -10.437  13.038  13.442  1.00  0.00     0.210 HD
ENDBRANCH  34  37
ENDBRANCH  33  34
ENDBRANCH  31  33
ENDBRANCH  30  31
ENDBRANCH  15  30
TORSDOF 11
ENDMDL
