MODEL 1
REMARK minimizedAffinity -7.17411947
REMARK CNNscore 0.730693102
REMARK CNNaffinity 6.89565802
REMARK  6 active torsions:
REMARK  status: ('A' for Active; 'I' for Inactive)
REMARK    1  A    between atoms: C4_4  and  C5_5 
REMARK    2  A    between atoms: C5_5  and  C6_6 
REMARK    3  A    between atoms: C6_6  and  C7_7 
REMARK    4  A    between atoms: C7_7  and  C9_9 
REMARK    5  A    between atoms: C12_12  and  C13_13 
REMARK    6  A    between atoms: C13_13  and  O2_15 
ROOT
HETATM    1  C9  UNL     1      -1.890  51.973 -10.413  1.00  0.00    -0.001 C 
HETATM    2  C10 UNL     1      -1.167  50.605 -10.565  1.00  0.00     0.007 C 
HETATM    3  C11 UNL     1       0.322  50.854 -10.256  1.00  0.00     0.026 C 
HETATM    4  C12 UNL     1       0.344  52.229  -9.554  1.00  0.00     0.076 C 
HETATM    5  C14 UNL     1       1.650  53.013  -9.468  1.00  0.00    -0.057 C 
HETATM    6  C15 UNL     1       1.629  54.370  -9.420  1.00  0.00    -0.067 C 
HETATM    7  C16 UNL     1       0.317  55.157  -9.526  1.00  0.00     0.036 C 
HETATM    8  C17 UNL     1      -0.984  54.375  -9.804  1.00  0.00     0.015 C 
HETATM    9  C18 UNL     1      -0.718  53.000 -10.429  1.00  0.00    -0.018 C 
HETATM   10  C19 UNL     1      -0.223  53.253 -11.887  1.00  0.00     0.017 C 
HETATM   11  C20 UNL     1       2.938  55.198  -9.293  1.00  0.00    -0.015 C 
HETATM   12  C21 UNL     1       3.303  55.621 -10.736  1.00  0.00     0.020 C 
HETATM   13  C22 UNL     1       2.735  56.463  -8.420  1.00  0.00     0.021 C 
HETATM   14  C23 UNL     1       4.014  57.247  -8.188  1.00  0.00     0.080 C 
HETATM   15  C24 UNL     1       5.080  56.392  -7.550  1.00  0.00     0.135 C 
HETATM   16  O3  UNL     1       5.761  56.855  -6.632  1.00  0.00    -0.297 OA
HETATM   17  C25 UNL     1       5.367  55.012  -8.165  1.00  0.00     0.018 C 
HETATM   18  C26 UNL     1       6.381  55.197  -9.301  1.00  0.00     0.023 C 
HETATM   19  C27 UNL     1       6.061  54.159  -7.070  1.00  0.00     0.023 C 
HETATM   20  C28 UNL     1       4.025  54.316  -8.573  1.00  0.00     0.013 C 
HETATM   21  C29 UNL     1       4.215  52.998  -9.342  1.00  0.00     0.011 C 
HETATM   22  C30 UNL     1       2.916  52.194  -9.380  1.00  0.00     0.036 C 
ENDROOT
BRANCH   1  23
HETATM   23  C7  UNL     1      -3.165  52.119 -11.297  1.00  0.00    -0.014 C 
HETATM   24  C8  UNL     1      -4.182  53.172 -10.846  1.00  0.00     0.010 C 
BRANCH  23  25
HETATM   25  C6  UNL     1      -3.836  50.743 -11.537  1.00  0.00     0.008 C 
BRANCH  25  26
HETATM   26  C5  UNL     1      -4.887  50.337 -10.492  1.00  0.00     0.028 C 
BRANCH  26  27
HETATM   27  C4  UNL     1      -5.869  49.306 -10.972  1.00  0.00    -0.025 C 
HETATM   28  C2  UNL     1      -7.138  49.109 -10.563  1.00  0.00    -0.091 C 
HETATM   29  C1  UNL     1      -7.839  49.890  -9.486  1.00  0.00     0.042 C 
HETATM   30  C3  UNL     1      -7.987  48.034 -11.193  1.00  0.00     0.042 C 
ENDBRANCH  26  27
ENDBRANCH  25  26
ENDBRANCH  23  25
ENDBRANCH   1  23
BRANCH   4  31
HETATM   31  C13 UNL     1      -0.058  52.025  -8.059  1.00  0.00     0.153 C 
HETATM   32  O1  UNL     1      -1.161  51.770  -7.605  1.00  0.00    -0.649 OA
BRANCH  31  33
HETATM   33  O2  UNL     1       0.952  52.234  -7.186  1.00  0.00    -0.776 OA
HETATM   34  H21 UNL     1       0.520  52.122  -6.312  1.00  0.00     0.167 HD
ENDBRANCH  31  33
ENDBRANCH   4  31
TORSDOF 6
ENDMDL
MODEL 2
REMARK minimizedAffinity -8.22638512
REMARK CNNscore 0.648700297
REMARK CNNaffinity 6.86266708
REMARK  6 active torsions:
REMARK  status: ('A' for Active; 'I' for Inactive)
REMARK    1  A    between atoms: C4_4  and  C5_5 
REMARK    2  A    between atoms: C5_5  and  C6_6 
REMARK    3  A    between atoms: C6_6  and  C7_7 
REMARK    4  A    between atoms: C7_7  and  C9_9 
REMARK    5  A    between atoms: C12_12  and  C13_13 
REMARK    6  A    between atoms: C13_13  and  O2_15 
ROOT
HETATM    1  C9  UNL     1      -1.648  51.236 -21.668  1.00  0.00    -0.001 C 
HETATM    2  C10 UNL     1      -2.989  51.908 -22.077  1.00  0.00     0.007 C 
HETATM    3  C11 UNL     1      -4.118  50.977 -21.590  1.00  0.00     0.026 C 
HETATM    4  C12 UNL     1      -3.429  50.032 -20.583  1.00  0.00     0.076 C 
HETATM    5  C14 UNL     1      -4.099  48.716 -20.201  1.00  0.00    -0.057 C 
HETATM    6  C15 UNL     1      -3.345  47.647 -19.835  1.00  0.00    -0.067 C 
HETATM    7  C16 UNL     1      -1.812  47.697 -19.865  1.00  0.00     0.036 C 
HETATM    8  C17 UNL     1      -1.134  48.963 -20.431  1.00  0.00     0.015 C 
HETATM    9  C18 UNL     1      -2.068  49.771 -21.339  1.00  0.00    -0.018 C 
HETATM   10  C19 UNL     1      -2.259  48.942 -22.648  1.00  0.00     0.017 C 
HETATM   11  C20 UNL     1      -3.997  46.305 -19.402  1.00  0.00    -0.015 C 
HETATM   12  C21 UNL     1      -3.987  45.413 -20.667  1.00  0.00     0.020 C 
HETATM   13  C22 UNL     1      -3.189  45.611 -18.276  1.00  0.00     0.021 C 
HETATM   14  C23 UNL     1      -3.845  44.344 -17.755  1.00  0.00     0.080 C 
HETATM   15  C24 UNL     1      -5.240  44.613 -17.248  1.00  0.00     0.135 C 
HETATM   16  O3  UNL     1      -5.612  44.097 -16.190  1.00  0.00    -0.297 OA
HETATM   17  C25 UNL     1      -6.195  45.417 -18.144  1.00  0.00     0.018 C 
HETATM   18  C26 UNL     1      -6.877  44.441 -19.113  1.00  0.00     0.023 C 
HETATM   19  C27 UNL     1      -7.305  45.996 -17.227  1.00  0.00     0.023 C 
HETATM   20  C28 UNL     1      -5.428  46.603 -18.821  1.00  0.00     0.013 C 
HETATM   21  C29 UNL     1      -6.261  47.371 -19.860  1.00  0.00     0.011 C 
HETATM   22  C30 UNL     1      -5.610  48.712 -20.200  1.00  0.00     0.036 C 
ENDROOT
BRANCH   1  23
HETATM   23  C7  UNL     1      -0.451  51.591 -22.600  1.00  0.00    -0.014 C 
HETATM   24  C8  UNL     1       0.728  52.310 -21.938  1.00  0.00     0.010 C 
BRANCH  23  25
HETATM   25  C6  UNL     1      -0.935  52.337 -23.868  1.00  0.00     0.008 C 
BRANCH  25  26
HETATM   26  C5  UNL     1      -0.714  51.589 -25.193  1.00  0.00     0.028 C 
BRANCH  26  27
HETATM   27  C4  UNL     1       0.718  51.535 -25.640  1.00  0.00    -0.025 C 
HETATM   28  C2  UNL     1       1.208  51.667 -26.889  1.00  0.00    -0.091 C 
HETATM   29  C1  UNL     1       0.386  51.874 -28.131  1.00  0.00     0.042 C 
HETATM   30  C3  UNL     1       2.693  51.615 -27.138  1.00  0.00     0.042 C 
ENDBRANCH  26  27
ENDBRANCH  25  26
ENDBRANCH  23  25
ENDBRANCH   1  23
BRANCH   4  31
HETATM   31  C13 UNL     1      -3.290  50.780 -19.220  1.00  0.00     0.153 C 
HETATM   32  O1  UNL     1      -2.940  51.933 -19.027  1.00  0.00    -0.649 OA
BRANCH  31  33
HETATM   33  O2  UNL     1      -3.530  50.003 -18.140  1.00  0.00    -0.776 OA
HETATM   34  H21 UNL     1      -3.347  50.603 -17.386  1.00  0.00     0.167 HD
ENDBRANCH  31  33
ENDBRANCH   4  31
TORSDOF 6
ENDMDL
MODEL 3
REMARK minimizedAffinity -6.66159725
REMARK CNNscore 0.564151764
REMARK CNNaffinity 6.70840073
REMARK  6 active torsions:
REMARK  status: ('A' for Active; 'I' for Inactive)
REMARK    1  A    between atoms: C4_4  and  C5_5 
REMARK    2  A    between atoms: C5_5  and  C6_6 
REMARK    3  A    between atoms: C6_6  and  C7_7 
REMARK    4  A    between atoms: C7_7  and  C9_9 
REMARK    5  A    between atoms: C12_12  and  C13_13 
REMARK    6  A    between atoms: C13_13  and  O2_15 
ROOT
HETATM    1  C9  UNL     1      -1.630  52.036 -10.693  1.00  0.00    -0.001 C 
HETATM    2  C10 UNL     1      -0.911  50.662 -10.799  1.00  0.00     0.007 C 
HETATM    3  C11 UNL     1       0.561  50.900 -10.409  1.00  0.00     0.026 C 
HETATM    4  C12 UNL     1       0.556  52.278  -9.714  1.00  0.00     0.076 C 
HETATM    5  C14 UNL     1       1.861  53.052  -9.559  1.00  0.00    -0.057 C 
HETATM    6  C15 UNL     1       1.850  54.409  -9.519  1.00  0.00    -0.067 C 
HETATM    7  C16 UNL     1       0.552  55.207  -9.701  1.00  0.00     0.036 C 
HETATM    8  C17 UNL     1      -0.738  54.433 -10.046  1.00  0.00     0.015 C 
HETATM    9  C18 UNL     1      -0.450  53.053 -10.649  1.00  0.00    -0.018 C 
HETATM   10  C19 UNL     1       0.127  53.295 -12.079  1.00  0.00     0.017 C 
HETATM   11  C20 UNL     1       3.157  55.227  -9.323  1.00  0.00    -0.015 C 
HETATM   12  C21 UNL     1       3.604  55.639 -10.746  1.00  0.00     0.020 C 
HETATM   13  C22 UNL     1       2.916  56.497  -8.469  1.00  0.00     0.021 C 
HETATM   14  C23 UNL     1       4.188  57.273  -8.171  1.00  0.00     0.080 C 
HETATM   15  C24 UNL     1       5.209  56.412  -7.471  1.00  0.00     0.135 C 
HETATM   16  O3  UNL     1       5.843  56.874  -6.519  1.00  0.00    -0.297 OA
HETATM   17  C25 UNL     1       5.518  55.027  -8.062  1.00  0.00     0.018 C 
HETATM   18  C26 UNL     1       6.594  55.197  -9.142  1.00  0.00     0.023 C 
HETATM   19  C27 UNL     1       6.144  54.174  -6.927  1.00  0.00     0.023 C 
HETATM   20  C28 UNL     1       4.194  54.339  -8.541  1.00  0.00     0.013 C 
HETATM   21  C29 UNL     1       4.416  53.016  -9.292  1.00  0.00     0.011 C 
HETATM   22  C30 UNL     1       3.114  52.222  -9.398  1.00  0.00     0.036 C 
ENDROOT
BRANCH   1  23
HETATM   23  C7  UNL     1      -2.852  52.188 -11.647  1.00  0.00    -0.014 C 
HETATM   24  C8  UNL     1      -4.201  52.468 -10.977  1.00  0.00     0.010 C 
BRANCH  23  25
HETATM   25  C6  UNL     1      -2.942  50.994 -12.631  1.00  0.00     0.008 C 
BRANCH  25  26
HETATM   26  C5  UNL     1      -2.525  51.305 -14.077  1.00  0.00     0.028 C 
BRANCH  26  27
HETATM   27  C4  UNL     1      -1.794  50.187 -14.763  1.00  0.00    -0.025 C 
HETATM   28  C2  UNL     1      -0.515  50.165 -15.191  1.00  0.00    -0.091 C 
HETATM   29  C1  UNL     1       0.458  51.307 -15.088  1.00  0.00     0.042 C 
HETATM   30  C3  UNL     1       0.056  48.927 -15.834  1.00  0.00     0.042 C 
ENDBRANCH  26  27
ENDBRANCH  25  26
ENDBRANCH  23  25
ENDBRANCH   1  23
BRANCH   4  31
HETATM   31  C13 UNL     1       0.070  52.085  -8.242  1.00  0.00     0.153 C 
HETATM   32  O1  UNL     1      -0.904  51.466  -7.847  1.00  0.00    -0.649 OA
BRANCH  31  33
HETATM   33  O2  UNL     1       0.805  52.759  -7.329  1.00  0.00    -0.776 OA
HETATM   34  H21 UNL     1       0.337  52.576  -6.486  1.00  0.00     0.167 HD
ENDBRANCH  31  33
ENDBRANCH   4  31
TORSDOF 6
ENDMDL
MODEL 4
REMARK minimizedAffinity -7.29112864
REMARK CNNscore 0.377341032
REMARK CNNaffinity 6.19864988
REMARK  6 active torsions:
REMARK  status: ('A' for Active; 'I' for Inactive)
REMARK    1  A    between atoms: C4_4  and  C5_5 
REMARK    2  A    between atoms: C5_5  and  C6_6 
REMARK    3  A    between atoms: C6_6  and  C7_7 
REMARK    4  A    between atoms: C7_7  and  C9_9 
REMARK    5  A    between atoms: C12_12  and  C13_13 
REMARK    6  A    between atoms: C13_13  and  O2_15 
ROOT
HETATM    1  C9  UNL     1      -1.157  52.920 -11.505  1.00  0.00    -0.001 C 
HETATM    2  C10 UNL     1      -0.236  52.013 -12.368  1.00  0.00     0.007 C 
HETATM    3  C11 UNL     1      -1.000  50.694 -12.597  1.00  0.00     0.026 C 
HETATM    4  C12 UNL     1      -2.460  51.025 -12.219  1.00  0.00     0.076 C 
HETATM    5  C14 UNL     1      -3.435  49.894 -11.910  1.00  0.00    -0.057 C 
HETATM    6  C15 UNL     1      -4.468  50.099 -11.052  1.00  0.00    -0.067 C 
HETATM    7  C16 UNL     1      -4.645  51.431 -10.313  1.00  0.00     0.036 C 
HETATM    8  C17 UNL     1      -3.553  52.510 -10.479  1.00  0.00     0.015 C 
HETATM    9  C18 UNL     1      -2.216  51.922 -10.945  1.00  0.00    -0.018 C 
HETATM   10  C19 UNL     1      -1.634  51.112  -9.744  1.00  0.00     0.017 C 
HETATM   11  C20 UNL     1      -5.503  48.981 -10.745  1.00  0.00    -0.015 C 
HETATM   12  C21 UNL     1      -5.022  48.322  -9.430  1.00  0.00     0.020 C 
HETATM   13  C22 UNL     1      -6.927  49.557 -10.543  1.00  0.00     0.021 C 
HETATM   14  C23 UNL     1      -7.987  48.488 -10.339  1.00  0.00     0.080 C 
HETATM   15  C24 UNL     1      -8.022  47.517 -11.492  1.00  0.00     0.135 C 
HETATM   16  O3  UNL     1      -9.110  47.154 -11.947  1.00  0.00    -0.297 OA
HETATM   17  C25 UNL     1      -6.693  46.912 -11.972  1.00  0.00     0.018 C 
HETATM   18  C26 UNL     1      -6.394  45.676 -11.113  1.00  0.00     0.023 C 
HETATM   19  C27 UNL     1      -6.915  46.412 -13.424  1.00  0.00     0.023 C 
HETATM   20  C28 UNL     1      -5.574  48.007 -11.979  1.00  0.00     0.013 C 
HETATM   21  C29 UNL     1      -4.171  47.463 -12.293  1.00  0.00     0.011 C 
HETATM   22  C30 UNL     1      -3.211  48.597 -12.651  1.00  0.00     0.036 C 
ENDROOT
BRANCH   1  23
HETATM   23  C7  UNL     1      -0.389  53.938 -10.610  1.00  0.00    -0.014 C 
HETATM   24  C8  UNL     1      -1.135  55.230 -10.264  1.00  0.00     0.010 C 
BRANCH  23  25
HETATM   25  C6  UNL     1       1.020  54.230 -11.186  1.00  0.00     0.008 C 
BRANCH  25  26
HETATM   26  C5  UNL     1       2.194  53.849 -10.270  1.00  0.00     0.028 C 
BRANCH  26  27
HETATM   27  C4  UNL     1       2.624  54.939  -9.331  1.00  0.00    -0.025 C 
HETATM   28  C2  UNL     1       3.221  56.110  -9.629  1.00  0.00    -0.091 C 
HETATM   29  C1  UNL     1       3.616  56.561 -11.009  1.00  0.00     0.042 C 
HETATM   30  C3  UNL     1       3.551  57.100  -8.542  1.00  0.00     0.042 C 
ENDBRANCH  26  27
ENDBRANCH  25  26
ENDBRANCH  23  25
ENDBRANCH   1  23
BRANCH   4  31
HETATM   31  C13 UNL     1      -3.125  51.761 -13.424  1.00  0.00     0.153 C 
HETATM   32  O1  UNL     1      -3.205  51.388 -14.583  1.00  0.00    -0.649 OA
BRANCH  31  33
HETATM   33  O2  UNL     1      -3.598  52.991 -13.123  1.00  0.00    -0.776 OA
HETATM   34  H21 UNL     1      -3.923  53.325 -13.986  1.00  0.00     0.167 HD
ENDBRANCH  31  33
ENDBRANCH   4  31
TORSDOF 6
ENDMDL
MODEL 5
REMARK minimizedAffinity -7.40950775
REMARK CNNscore 0.313058466
REMARK CNNaffinity 5.6688118
REMARK  6 active torsions:
REMARK  status: ('A' for Active; 'I' for Inactive)
REMARK    1  A    between atoms: C4_4  and  C5_5 
REMARK    2  A    between atoms: C5_5  and  C6_6 
REMARK    3  A    between atoms: C6_6  and  C7_7 
REMARK    4  A    between atoms: C7_7  and  C9_9 
REMARK    5  A    between atoms: C12_12  and  C13_13 
REMARK    6  A    between atoms: C13_13  and  O2_15 
ROOT
HETATM    1  C9  UNL     1     -14.513  45.272 -26.777  1.00  0.00    -0.001 C 
HETATM    2  C10 UNL     1     -13.796  44.656 -25.543  1.00  0.00     0.007 C 
HETATM    3  C11 UNL     1     -12.281  44.784 -25.801  1.00  0.00     0.026 C 
HETATM    4  C12 UNL     1     -12.173  45.809 -26.950  1.00  0.00     0.076 C 
HETATM    5  C14 UNL     1     -10.889  45.894 -27.769  1.00  0.00    -0.057 C 
HETATM    6  C15 UNL     1     -10.931  46.298 -29.065  1.00  0.00    -0.067 C 
HETATM    7  C16 UNL     1     -12.259  46.607 -29.766  1.00  0.00     0.036 C 
HETATM    8  C17 UNL     1     -13.571  46.340 -28.997  1.00  0.00     0.015 C 
HETATM    9  C18 UNL     1     -13.383  45.343 -27.848  1.00  0.00    -0.018 C 
HETATM   10  C19 UNL     1     -13.145  43.944 -28.496  1.00  0.00     0.017 C 
HETATM   11  C20 UNL     1      -9.638  46.433 -29.915  1.00  0.00    -0.015 C 
HETATM   12  C21 UNL     1      -9.529  45.112 -30.715  1.00  0.00     0.020 C 
HETATM   13  C22 UNL     1      -9.720  47.627 -30.900  1.00  0.00     0.021 C 
HETATM   14  C23 UNL     1      -8.437  47.854 -31.681  1.00  0.00     0.080 C 
HETATM   15  C24 UNL     1      -7.262  48.072 -30.762  1.00  0.00     0.135 C 
HETATM   16  O3  UNL     1      -6.447  48.962 -31.019  1.00  0.00    -0.297 OA
HETATM   17  C25 UNL     1      -7.051  47.081 -29.606  1.00  0.00     0.018 C 
HETATM   18  C26 UNL     1      -6.246  45.889 -30.139  1.00  0.00     0.023 C 
HETATM   19  C27 UNL     1      -6.165  47.791 -28.549  1.00  0.00     0.023 C 
HETATM   20  C28 UNL     1      -8.427  46.718 -28.951  1.00  0.00     0.013 C 
HETATM   21  C29 UNL     1      -8.339  45.611 -27.888  1.00  0.00     0.011 C 
HETATM   22  C30 UNL     1      -9.608  45.566 -27.038  1.00  0.00     0.036 C 
ENDROOT
BRANCH   1  23
HETATM   23  C7  UNL     1     -15.921  44.666 -27.061  1.00  0.00    -0.014 C 
HETATM   24  C8  UNL     1     -16.255  44.398 -28.531  1.00  0.00     0.010 C 
BRANCH  23  25
HETATM   25  C6  UNL     1     -17.032  45.490 -26.364  1.00  0.00     0.008 C 
BRANCH  25  26
HETATM   26  C5  UNL     1     -18.470  45.083 -26.719  1.00  0.00     0.028 C 
BRANCH  26  27
HETATM   27  C4  UNL     1     -19.265  44.549 -25.562  1.00  0.00    -0.025 C 
HETATM   28  C2  UNL     1     -19.662  45.201 -24.451  1.00  0.00    -0.091 C 
HETATM   29  C1  UNL     1     -19.351  46.636 -24.124  1.00  0.00     0.042 C 
HETATM   30  C3  UNL     1     -20.488  44.498 -23.405  1.00  0.00     0.042 C 
ENDBRANCH  26  27
ENDBRANCH  25  26
ENDBRANCH  23  25
ENDBRANCH   1  23
BRANCH   4  31
HETATM   31  C13 UNL     1     -12.315  47.242 -26.346  1.00  0.00     0.153 C 
HETATM   32  O1  UNL     1     -12.757  48.244 -26.884  1.00  0.00    -0.649 OA
BRANCH  31  33
HETATM   33  O2  UNL     1     -11.813  47.364 -25.097  1.00  0.00    -0.776 OA
HETATM   34  H21 UNL     1     -11.931  48.318 -24.899  1.00  0.00     0.167 HD
ENDBRANCH  31  33
ENDBRANCH   4  31
TORSDOF 6
ENDMDL
MODEL 6
REMARK minimizedAffinity -6.90777636
REMARK CNNscore 0.270607829
REMARK CNNaffinity 5.52058649
REMARK  6 active torsions:
REMARK  status: ('A' for Active; 'I' for Inactive)
REMARK    1  A    between atoms: C4_4  and  C5_5 
REMARK    2  A    between atoms: C5_5  and  C6_6 
REMARK    3  A    between atoms: C6_6  and  C7_7 
REMARK    4  A    between atoms: C7_7  and  C9_9 
REMARK    5  A    between atoms: C12_12  and  C13_13 
REMARK    6  A    between atoms: C13_13  and  O2_15 
ROOT
HETATM    1  C9  UNL     1     -10.296  45.756 -26.983  1.00  0.00    -0.001 C 
HETATM    2  C10 UNL     1     -10.401  44.542 -27.947  1.00  0.00     0.007 C 
HETATM    3  C11 UNL     1     -11.865  44.061 -27.897  1.00  0.00     0.026 C 
HETATM    4  C12 UNL     1     -12.631  45.230 -27.241  1.00  0.00     0.076 C 
HETATM    5  C14 UNL     1     -14.010  44.985 -26.637  1.00  0.00    -0.057 C 
HETATM    6  C15 UNL     1     -14.443  45.743 -25.596  1.00  0.00    -0.067 C 
HETATM    7  C16 UNL     1     -13.545  46.805 -24.948  1.00  0.00     0.036 C 
HETATM    8  C17 UNL     1     -12.085  46.922 -25.434  1.00  0.00     0.015 C 
HETATM    9  C18 UNL     1     -11.594  45.646 -26.127  1.00  0.00    -0.018 C 
HETATM   10  C19 UNL     1     -11.437  44.559 -25.019  1.00  0.00     0.017 C 
HETATM   11  C20 UNL     1     -15.857  45.546 -24.982  1.00  0.00    -0.015 C 
HETATM   12  C21 UNL     1     -15.651  44.630 -23.752  1.00  0.00     0.020 C 
HETATM   13  C22 UNL     1     -16.476  46.892 -24.525  1.00  0.00     0.021 C 
HETATM   14  C23 UNL     1     -17.898  46.757 -24.010  1.00  0.00     0.080 C 
HETATM   15  C24 UNL     1     -18.805  46.140 -25.045  1.00  0.00     0.135 C 
HETATM   16  O3  UNL     1     -19.932  46.610 -25.222  1.00  0.00    -0.297 OA
HETATM   17  C25 UNL     1     -18.335  44.857 -25.748  1.00  0.00     0.018 C 
HETATM   18  C26 UNL     1     -18.734  43.659 -24.876  1.00  0.00     0.023 C 
HETATM   19  C27 UNL     1     -19.136  44.741 -27.073  1.00  0.00     0.023 C 
HETATM   20  C28 UNL     1     -16.809  44.957 -26.087  1.00  0.00     0.013 C 
HETATM   21  C29 UNL     1     -16.209  43.658 -26.651  1.00  0.00     0.011 C 
HETATM   22  C30 UNL     1     -14.851  43.920 -27.300  1.00  0.00     0.036 C 
ENDROOT
BRANCH   1  23
HETATM   23  C7  UNL     1      -8.880  45.953 -26.362  1.00  0.00    -0.014 C 
HETATM   24  C8  UNL     1      -8.812  45.980 -24.833  1.00  0.00     0.010 C 
BRANCH  23  25
HETATM   25  C6  UNL     1      -8.165  47.178 -26.987  1.00  0.00     0.008 C 
BRANCH  25  26
HETATM   26  C5  UNL     1      -7.581  46.950 -28.390  1.00  0.00     0.028 C 
BRANCH  26  27
HETATM   27  C4  UNL     1      -7.696  48.134 -29.307  1.00  0.00    -0.025 C 
HETATM   28  C2  UNL     1      -8.751  48.509 -30.057  1.00  0.00    -0.091 C 
HETATM   29  C1  UNL     1     -10.060  47.773 -30.152  1.00  0.00     0.042 C 
HETATM   30  C3  UNL     1      -8.688  49.758 -30.897  1.00  0.00     0.042 C 
ENDBRANCH  26  27
ENDBRANCH  25  26
ENDBRANCH  23  25
ENDBRANCH   1  23
BRANCH   4  31
HETATM   31  C13 UNL     1     -12.898  46.316 -28.331  1.00  0.00     0.153 C 
HETATM   32  O1  UNL     1     -12.978  47.525 -28.184  1.00  0.00    -0.649 OA
BRANCH  31  33
HETATM   33  O2  UNL     1     -13.132  45.812 -29.563  1.00  0.00    -0.776 OA
HETATM   34  H21 UNL     1     -13.331  46.610 -30.098  1.00  0.00     0.167 HD
ENDBRANCH  31  33
ENDBRANCH   4  31
TORSDOF 6
ENDMDL
MODEL 7
REMARK minimizedAffinity -7.84426403
REMARK CNNscore 0.254937232
REMARK CNNaffinity 6.12217855
REMARK  6 active torsions:
REMARK  status: ('A' for Active; 'I' for Inactive)
REMARK    1  A    between atoms: C4_4  and  C5_5 
REMARK    2  A    between atoms: C5_5  and  C6_6 
REMARK    3  A    between atoms: C6_6  and  C7_7 
REMARK    4  A    between atoms: C7_7  and  C9_9 
REMARK    5  A    between atoms: C12_12  and  C13_13 
REMARK    6  A    between atoms: C13_13  and  O2_15 
ROOT
HETATM    1  C9  UNL     1      -3.077  50.183 -23.835  1.00  0.00    -0.001 C 
HETATM    2  C10 UNL     1      -3.552  49.472 -25.133  1.00  0.00     0.007 C 
HETATM    3  C11 UNL     1      -4.574  48.401 -24.703  1.00  0.00     0.026 C 
HETATM    4  C12 UNL     1      -4.955  48.790 -23.259  1.00  0.00     0.076 C 
HETATM    5  C14 UNL     1      -5.610  47.759 -22.346  1.00  0.00    -0.057 C 
HETATM    6  C15 UNL     1      -5.429  47.825 -21.001  1.00  0.00    -0.067 C 
HETATM    7  C16 UNL     1      -4.512  48.876 -20.365  1.00  0.00     0.036 C 
HETATM    8  C17 UNL     1      -3.700  49.799 -21.300  1.00  0.00     0.015 C 
HETATM    9  C18 UNL     1      -3.538  49.211 -22.706  1.00  0.00    -0.018 C 
HETATM   10  C19 UNL     1      -2.560  48.001 -22.583  1.00  0.00     0.017 C 
HETATM   11  C20 UNL     1      -6.114  46.814 -20.040  1.00  0.00    -0.015 C 
HETATM   12  C21 UNL     1      -5.052  45.725 -19.760  1.00  0.00     0.020 C 
HETATM   13  C22 UNL     1      -6.531  47.484 -18.706  1.00  0.00     0.021 C 
HETATM   14  C23 UNL     1      -7.293  46.554 -17.777  1.00  0.00     0.080 C 
HETATM   15  C24 UNL     1      -8.528  46.000 -18.441  1.00  0.00     0.135 C 
HETATM   16  O3  UNL     1      -9.585  45.941 -17.806  1.00  0.00    -0.297 OA
HETATM   17  C25 UNL     1      -8.387  45.400 -19.849  1.00  0.00     0.018 C 
HETATM   18  C26 UNL     1      -7.966  43.932 -19.704  1.00  0.00     0.023 C 
HETATM   19  C27 UNL     1      -9.800  45.406 -20.493  1.00  0.00     0.023 C 
HETATM   20  C28 UNL     1      -7.432  46.286 -20.719  1.00  0.00     0.013 C 
HETATM   21  C29 UNL     1      -7.102  45.684 -22.094  1.00  0.00     0.011 C 
HETATM   22  C30 UNL     1      -6.493  46.735 -23.020  1.00  0.00     0.036 C 
ENDROOT
BRANCH   1  23
HETATM   23  C7  UNL     1      -1.634  50.765 -23.921  1.00  0.00    -0.014 C 
HETATM   24  C8  UNL     1      -1.152  51.557 -22.702  1.00  0.00     0.010 C 
BRANCH  23  25
HETATM   25  C6  UNL     1      -1.435  51.562 -25.235  1.00  0.00     0.008 C 
BRANCH  25  26
HETATM   26  C5  UNL     1      -0.366  52.666 -25.175  1.00  0.00     0.028 C 
BRANCH  26  27
HETATM   27  C4  UNL     1       0.985  52.244 -25.675  1.00  0.00    -0.025 C 
HETATM   28  C2  UNL     1       1.367  52.000 -26.945  1.00  0.00    -0.091 C 
HETATM   29  C1  UNL     1       0.475  52.076 -28.153  1.00  0.00     0.042 C 
HETATM   30  C3  UNL     1       2.790  51.614 -27.255  1.00  0.00     0.042 C 
ENDBRANCH  26  27
ENDBRANCH  25  26
ENDBRANCH  23  25
ENDBRANCH   1  23
BRANCH   4  31
HETATM   31  C13 UNL     1      -6.006  49.943 -23.320  1.00  0.00     0.153 C 
HETATM   32  O1  UNL     1      -6.210  50.820 -22.496  1.00  0.00    -0.649 OA
BRANCH  31  33
HETATM   33  O2  UNL     1      -6.816  49.891 -24.401  1.00  0.00    -0.776 OA
HETATM   34  H21 UNL     1      -7.436  50.637 -24.254  1.00  0.00     0.167 HD
ENDBRANCH  31  33
ENDBRANCH   4  31
TORSDOF 6
ENDMDL
MODEL 8
REMARK minimizedAffinity -6.67868233
REMARK CNNscore 0.253901273
REMARK CNNaffinity 5.1193862
REMARK  6 active torsions:
REMARK  status: ('A' for Active; 'I' for Inactive)
REMARK    1  A    between atoms: C4_4  and  C5_5 
REMARK    2  A    between atoms: C5_5  and  C6_6 
REMARK    3  A    between atoms: C6_6  and  C7_7 
REMARK    4  A    between atoms: C7_7  and  C9_9 
REMARK    5  A    between atoms: C12_12  and  C13_13 
REMARK    6  A    between atoms: C13_13  and  O2_15 
ROOT
HETATM    1  C9  UNL     1     -11.873  45.540 -27.584  1.00  0.00    -0.001 C 
HETATM    2  C10 UNL     1     -11.755  46.946 -26.932  1.00  0.00     0.007 C 
HETATM    3  C11 UNL     1     -13.079  47.200 -26.183  1.00  0.00     0.026 C 
HETATM    4  C12 UNL     1     -13.737  45.807 -26.083  1.00  0.00     0.076 C 
HETATM    5  C14 UNL     1     -15.230  45.696 -25.791  1.00  0.00    -0.057 C 
HETATM    6  C15 UNL     1     -15.940  44.635 -26.254  1.00  0.00    -0.067 C 
HETATM    7  C16 UNL     1     -15.294  43.563 -27.142  1.00  0.00     0.036 C 
HETATM    8  C17 UNL     1     -13.833  43.773 -27.595  1.00  0.00     0.015 C 
HETATM    9  C18 UNL     1     -13.402  45.243 -27.518  1.00  0.00    -0.018 C 
HETATM   10  C19 UNL     1     -14.162  45.999 -28.652  1.00  0.00     0.017 C 
HETATM   11  C20 UNL     1     -17.453  44.471 -25.941  1.00  0.00    -0.015 C 
HETATM   12  C21 UNL     1     -18.195  45.038 -27.175  1.00  0.00     0.020 C 
HETATM   13  C22 UNL     1     -17.840  42.983 -25.744  1.00  0.00     0.021 C 
HETATM   14  C23 UNL     1     -19.291  42.786 -25.339  1.00  0.00     0.080 C 
HETATM   15  C24 UNL     1     -19.617  43.538 -24.073  1.00  0.00     0.135 C 
HETATM   16  O3  UNL     1     -20.298  42.991 -23.201  1.00  0.00    -0.297 OA
HETATM   17  C25 UNL     1     -19.199  45.014 -23.977  1.00  0.00     0.018 C 
HETATM   18  C26 UNL     1     -20.305  45.866 -24.612  1.00  0.00     0.023 C 
HETATM   19  C27 UNL     1     -19.153  45.379 -22.469  1.00  0.00     0.023 C 
HETATM   20  C28 UNL     1     -17.771  45.209 -24.588  1.00  0.00     0.013 C 
HETATM   21  C29 UNL     1     -17.329  46.679 -24.683  1.00  0.00     0.011 C 
HETATM   22  C30 UNL     1     -15.824  46.783 -24.925  1.00  0.00     0.036 C 
ENDROOT
BRANCH   1  23
HETATM   23  C7  UNL     1     -11.026  45.368 -28.880  1.00  0.00    -0.014 C 
HETATM   24  C8  UNL     1      -9.965  44.264 -28.851  1.00  0.00     0.010 C 
BRANCH  23  25
HETATM   25  C6  UNL     1     -10.427  46.722 -29.336  1.00  0.00     0.008 C 
BRANCH  25  26
HETATM   26  C5  UNL     1     -10.954  47.251 -30.679  1.00  0.00     0.028 C 
BRANCH  26  27
HETATM   27  C4  UNL     1      -9.962  47.178 -31.804  1.00  0.00    -0.025 C 
HETATM   28  C2  UNL     1      -8.896  47.971 -32.030  1.00  0.00    -0.091 C 
HETATM   29  C1  UNL     1      -8.491  49.149 -31.186  1.00  0.00     0.042 C 
HETATM   30  C3  UNL     1      -7.989  47.718 -33.207  1.00  0.00     0.042 C 
ENDBRANCH  26  27
ENDBRANCH  25  26
ENDBRANCH  23  25
ENDBRANCH   1  23
BRANCH   4  31
HETATM   31  C13 UNL     1     -13.075  45.033 -24.901  1.00  0.00     0.153 C 
HETATM   32  O1  UNL     1     -11.886  44.897 -24.662  1.00  0.00    -0.649 OA
BRANCH  31  33
HETATM   33  O2  UNL     1     -13.957  44.389 -24.103  1.00  0.00    -0.776 OA
HETATM   34  H21 UNL     1     -13.380  43.920 -23.463  1.00  0.00     0.167 HD
ENDBRANCH  31  33
ENDBRANCH   4  31
TORSDOF 6
ENDMDL
MODEL 9
REMARK minimizedAffinity -7.22792387
REMARK CNNscore 0.229297563
REMARK CNNaffinity 5.96460772
REMARK  6 active torsions:
REMARK  status: ('A' for Active; 'I' for Inactive)
REMARK    1  A    between atoms: C4_4  and  C5_5 
REMARK    2  A    between atoms: C5_5  and  C6_6 
REMARK    3  A    between atoms: C6_6  and  C7_7 
REMARK    4  A    between atoms: C7_7  and  C9_9 
REMARK    5  A    between atoms: C12_12  and  C13_13 
REMARK    6  A    between atoms: C13_13  and  O2_15 
ROOT
HETATM    1  C9  UNL     1      -4.881  49.357 -23.561  1.00  0.00    -0.001 C 
HETATM    2  C10 UNL     1      -5.239  48.308 -24.650  1.00  0.00     0.007 C 
HETATM    3  C11 UNL     1      -6.421  47.484 -24.101  1.00  0.00     0.026 C 
HETATM    4  C12 UNL     1      -6.961  48.323 -22.924  1.00  0.00     0.076 C 
HETATM    5  C14 UNL     1      -7.846  47.666 -21.870  1.00  0.00    -0.057 C 
HETATM    6  C15 UNL     1      -7.854  48.135 -20.596  1.00  0.00    -0.067 C 
HETATM    7  C16 UNL     1      -6.929  49.277 -20.155  1.00  0.00     0.036 C 
HETATM    8  C17 UNL     1      -5.898  49.815 -21.170  1.00  0.00     0.015 C 
HETATM    9  C18 UNL     1      -5.601  48.811 -22.290  1.00  0.00    -0.018 C 
HETATM   10  C19 UNL     1      -4.785  47.645 -21.650  1.00  0.00     0.017 C 
HETATM   11  C20 UNL     1      -8.773  47.514 -19.508  1.00  0.00    -0.015 C 
HETATM   12  C21 UNL     1      -7.885  46.506 -18.741  1.00  0.00     0.020 C 
HETATM   13  C22 UNL     1      -9.303  48.588 -18.523  1.00  0.00     0.021 C 
HETATM   14  C23 UNL     1     -10.285  48.038 -17.503  1.00  0.00     0.080 C 
HETATM   15  C24 UNL     1     -11.465  47.378 -18.171  1.00  0.00     0.135 C 
HETATM   16  O3  UNL     1     -12.601  47.581 -17.736  1.00  0.00    -0.297 OA
HETATM   17  C25 UNL     1     -11.189  46.364 -19.293  1.00  0.00     0.018 C 
HETATM   18  C26 UNL     1     -10.953  44.991 -18.650  1.00  0.00     0.023 C 
HETATM   19  C27 UNL     1     -12.486  46.252 -20.138  1.00  0.00     0.023 C 
HETATM   20  C28 UNL     1     -10.030  46.880 -20.212  1.00  0.00     0.013 C 
HETATM   21  C29 UNL     1      -9.573  45.862 -21.270  1.00  0.00     0.011 C 
HETATM   22  C30 UNL     1      -8.729  46.537 -22.349  1.00  0.00     0.036 C 
ENDROOT
BRANCH   1  23
HETATM   23  C7  UNL     1      -3.387  49.799 -23.572  1.00  0.00    -0.014 C 
HETATM   24  C8  UNL     1      -2.351  48.672 -23.536  1.00  0.00     0.010 C 
BRANCH  23  25
HETATM   25  C6  UNL     1      -3.114  50.860 -22.476  1.00  0.00     0.008 C 
BRANCH  25  26
HETATM   26  C5  UNL     1      -2.788  52.269 -22.997  1.00  0.00     0.028 C 
BRANCH  26  27
HETATM   27  C4  UNL     1      -1.646  52.319 -23.971  1.00  0.00    -0.025 C 
HETATM   28  C2  UNL     1      -0.324  52.328 -23.707  1.00  0.00    -0.091 C 
HETATM   29  C1  UNL     1       0.291  52.319 -22.334  1.00  0.00     0.042 C 
HETATM   30  C3  UNL     1       0.681  52.349 -24.829  1.00  0.00     0.042 C 
ENDBRANCH  26  27
ENDBRANCH  25  26
ENDBRANCH  23  25
ENDBRANCH   1  23
BRANCH   4  31
HETATM   31  C13 UNL     1      -7.862  49.460 -23.501  1.00  0.00     0.153 C 
HETATM   32  O1  UNL     1      -8.710  49.376 -24.375  1.00  0.00    -0.649 OA
BRANCH  31  33
HETATM   33  O2  UNL     1      -7.593  50.684 -22.996  1.00  0.00    -0.776 OA
HETATM   34  H21 UNL     1      -8.197  51.272 -23.498  1.00  0.00     0.167 HD
ENDBRANCH  31  33
ENDBRANCH   4  31
TORSDOF 6
ENDMDL
