MODEL 1
REMARK minimizedAffinity -8.46430969
REMARK CNNscore 0.432314783
REMARK CNNaffinity 6.55942345
REMARK  9 active torsions:
REMARK  status: ('A' for Active; 'I' for Inactive)
REMARK    1  A    between atoms: C2_2  and  C3_3 
REMARK    2  A    between atoms: C2_2  and  C9_12 
REMARK    3  A    between atoms: C3_3  and  C4_4 
REMARK    4  A    between atoms: C4_4  and  O1_5 
REMARK    5  A    between atoms: C4_4  and  C5_6 
REMARK    6  A    between atoms: C5_6  and  O2_7 
REMARK    7  A    between atoms: C5_6  and  C6_8 
REMARK    8  A    between atoms: C6_8  and  O3_11 
REMARK    9  A    between atoms: C16_19  and  O4_20 
ROOT
HETATM    1  C9  UNL     1      -0.416  12.780  18.881  1.00  0.00     0.097 A 
HETATM    2  C10 UNL     1      -1.733  13.434  19.171  1.00  0.00     0.042 C 
HETATM    3  C11 UNL     1      -2.690  12.974  18.062  1.00  0.00     0.016 C 
HETATM    4  C12 UNL     1      -1.859  12.279  16.918  1.00  0.00    -0.002 C 
HETATM    5  C13 UNL     1      -1.785  13.266  15.726  1.00  0.00     0.019 C 
HETATM    6  C14 UNL     1      -0.466  12.114  17.523  1.00  0.00     0.104 A 
HETATM    7  C15 UNL     1       0.500  11.132  16.936  1.00  0.00     0.074 C 
HETATM    8  C16 UNL     1      -0.114   9.831  16.401  1.00  0.00     0.126 C 
HETATM    9  C17 UNL     1      -1.445  10.056  15.619  1.00  0.00     0.032 C 
HETATM   10  C18 UNL     1      -2.084   8.805  14.788  1.00  0.00    -0.032 C 
HETATM   11  C19 UNL     1      -1.971   9.188  13.284  1.00  0.00     0.016 C 
HETATM   12  C20 UNL     1      -1.318   7.481  15.028  1.00  0.00     0.017 C 
HETATM   13  C21 UNL     1      -1.901   6.218  14.406  1.00  0.00     0.080 C 
HETATM   14  C22 UNL     1      -3.253   6.356  13.765  1.00  0.00     0.135 C 
HETATM   15  O5  UNL     1      -3.546   5.616  12.821  1.00  0.00    -0.297 OA
HETATM   16  C23 UNL     1      -4.273   7.322  14.371  1.00  0.00     0.017 C 
HETATM   17  C24 UNL     1      -5.210   7.792  13.236  1.00  0.00     0.023 C 
HETATM   18  C25 UNL     1      -5.127   6.481  15.348  1.00  0.00     0.023 C 
HETATM   19  C26 UNL     1      -3.580   8.502  15.163  1.00  0.00     0.009 C 
HETATM   20  C27 UNL     1      -4.462   9.756  15.272  1.00  0.00     0.007 C 
HETATM   21  C28 UNL     1      -3.763  11.027  15.726  1.00  0.00     0.011 C 
HETATM   22  C29 UNL     1      -2.462  10.838  16.531  1.00  0.00    -0.027 C 
HETATM   23  C30 UNL     1      -2.744  10.021  17.831  1.00  0.00     0.016 C 
HETATM   24  O6  UNL     1       0.219  13.370  17.747  1.00  0.00    -0.362 OA
ENDROOT
BRANCH   1  25
HETATM   25  C2  UNL     1       0.565  12.472  19.993  1.00  0.00     0.022 C 
HETATM   26  C1  UNL     1       1.922  13.119  19.709  1.00  0.00     0.013 C 
BRANCH  25  27
HETATM   27  C3  UNL     1       0.676  10.946  20.199  1.00  0.00     0.041 C 
BRANCH  27  28
HETATM   28  C4  UNL     1       2.036  10.416  20.683  1.00  0.00     0.150 C 
BRANCH  28  29
HETATM   29  O1  UNL     1       2.531   9.522  19.671  1.00  0.00    -0.393 OA
HETATM   30  H8  UNL     1       2.629  10.027  18.842  1.00  0.00     0.210 HD
ENDBRANCH  28  29
BRANCH  28  31
HETATM   31  C5  UNL     1       1.990   9.667  22.044  1.00  0.00     0.180 C 
BRANCH  31  32
HETATM   32  O2  UNL     1       2.104   8.255  21.819  1.00  0.00    -0.390 OA
HETATM   33  H10 UNL     1       1.255   7.931  21.466  1.00  0.00     0.210 HD
ENDBRANCH  31  32
BRANCH  31  34
HETATM   34  C6  UNL     1       3.108  10.106  23.051  1.00  0.00     0.079 C 
HETATM   35  C7  UNL     1       3.168  11.632  23.158  1.00  0.00     0.048 C 
HETATM   36  C8  UNL     1       4.483   9.570  22.637  1.00  0.00     0.048 C 
BRANCH  34  37
HETATM   37  O3  UNL     1       2.856   9.618  24.375  1.00  0.00    -0.388 OA
HETATM   38  H17 UNL     1       2.173   8.916  24.290  1.00  0.00     0.210 HD
ENDBRANCH  34  37
ENDBRANCH  31  34
ENDBRANCH  28  31
ENDBRANCH  27  28
ENDBRANCH  25  27
ENDBRANCH   1  25
BRANCH   8  39
HETATM   39  O4  UNL     1       0.865   9.258  15.540  1.00  0.00    -0.395 OA
HETATM   40  H28 UNL     1       1.675   9.107  16.054  1.00  0.00     0.210 HD
ENDBRANCH   8  39
TORSDOF 9
ENDMDL
MODEL 2
REMARK minimizedAffinity -8.94089794
REMARK CNNscore 0.351833165
REMARK CNNaffinity 7.04285955
REMARK  9 active torsions:
REMARK  status: ('A' for Active; 'I' for Inactive)
REMARK    1  A    between atoms: C2_2  and  C3_3 
REMARK    2  A    between atoms: C2_2  and  C9_12 
REMARK    3  A    between atoms: C3_3  and  C4_4 
REMARK    4  A    between atoms: C4_4  and  O1_5 
REMARK    5  A    between atoms: C4_4  and  C5_6 
REMARK    6  A    between atoms: C5_6  and  O2_7 
REMARK    7  A    between atoms: C5_6  and  C6_8 
REMARK    8  A    between atoms: C6_8  and  O3_11 
REMARK    9  A    between atoms: C16_19  and  O4_20 
ROOT
HETATM    1  C9  UNL     1      -9.023   6.816  14.060  1.00  0.00     0.097 A 
HETATM    2  C10 UNL     1      -9.052   8.170  14.705  1.00  0.00     0.042 C 
HETATM    3  C11 UNL     1      -7.627   8.428  15.216  1.00  0.00     0.016 C 
HETATM    4  C12 UNL     1      -6.804   7.086  15.151  1.00  0.00    -0.002 C 
HETATM    5  C13 UNL     1      -6.667   6.549  16.598  1.00  0.00     0.019 C 
HETATM    6  C14 UNL     1      -7.698   6.144  14.347  1.00  0.00     0.104 A 
HETATM    7  C15 UNL     1      -7.120   4.922  13.701  1.00  0.00     0.074 C 
HETATM    8  C16 UNL     1      -5.698   5.072  13.144  1.00  0.00     0.126 C 
HETATM    9  C17 UNL     1      -4.752   5.881  14.084  1.00  0.00     0.032 C 
HETATM   10  C18 UNL     1      -3.156   5.916  13.744  1.00  0.00    -0.032 C 
HETATM   11  C19 UNL     1      -2.456   5.135  14.894  1.00  0.00     0.016 C 
HETATM   12  C20 UNL     1      -2.822   5.230  12.396  1.00  0.00     0.017 C 
HETATM   13  C21 UNL     1      -1.380   5.315  11.911  1.00  0.00     0.080 C 
HETATM   14  C22 UNL     1      -0.463   6.202  12.707  1.00  0.00     0.135 C 
HETATM   15  O5  UNL     1       0.741   5.932  12.750  1.00  0.00    -0.297 OA
HETATM   16  C23 UNL     1      -1.020   7.478  13.340  1.00  0.00     0.017 C 
HETATM   17  C24 UNL     1      -0.164   7.799  14.586  1.00  0.00     0.023 C 
HETATM   18  C25 UNL     1      -0.771   8.607  12.313  1.00  0.00     0.023 C 
HETATM   19  C26 UNL     1      -2.570   7.370  13.635  1.00  0.00     0.009 C 
HETATM   20  C27 UNL     1      -3.039   8.316  14.752  1.00  0.00     0.007 C 
HETATM   21  C28 UNL     1      -4.426   8.051  15.314  1.00  0.00     0.011 C 
HETATM   22  C29 UNL     1      -5.397   7.282  14.396  1.00  0.00    -0.027 C 
HETATM   23  C30 UNL     1      -5.621   8.069  13.066  1.00  0.00     0.016 C 
HETATM   24  O6  UNL     1      -8.919   5.778  15.035  1.00  0.00    -0.362 OA
ENDROOT
BRANCH   1  25
HETATM   25  C2  UNL     1      -9.984   6.462  12.944  1.00  0.00     0.022 C 
HETATM   26  C1  UNL     1      -9.244   6.350  11.610  1.00  0.00     0.013 C 
BRANCH  25  27
HETATM   27  C3  UNL     1     -11.138   7.487  12.890  1.00  0.00     0.041 C 
BRANCH  27  28
HETATM   28  C4  UNL     1     -12.355   7.198  13.783  1.00  0.00     0.150 C 
BRANCH  28  29
HETATM   29  O1  UNL     1     -12.074   5.992  14.513  1.00  0.00    -0.393 OA
HETATM   30  H8  UNL     1     -11.275   6.143  15.052  1.00  0.00     0.210 HD
ENDBRANCH  28  29
BRANCH  28  31
HETATM   31  C5  UNL     1     -13.695   7.025  13.013  1.00  0.00     0.180 C 
BRANCH  31  32
HETATM   32  O2  UNL     1     -14.524   6.077  13.700  1.00  0.00    -0.390 OA
HETATM   33  H10 UNL     1     -14.168   5.184  13.538  1.00  0.00     0.210 HD
ENDBRANCH  31  32
BRANCH  31  34
HETATM   34  C6  UNL     1     -14.501   8.357  12.830  1.00  0.00     0.079 C 
HETATM   35  C7  UNL     1     -14.748   9.029  14.184  1.00  0.00     0.048 C 
HETATM   36  C8  UNL     1     -15.841   8.114  12.129  1.00  0.00     0.048 C 
BRANCH  34  37
HETATM   37  O3  UNL     1     -13.784   9.309  12.033  1.00  0.00    -0.388 OA
HETATM   38  H17 UNL     1     -13.065   8.813  11.582  1.00  0.00     0.210 HD
ENDBRANCH  34  37
ENDBRANCH  31  34
ENDBRANCH  28  31
ENDBRANCH  27  28
ENDBRANCH  25  27
ENDBRANCH   1  25
BRANCH   8  39
HETATM   39  O4  UNL     1      -5.200   3.749  12.974  1.00  0.00    -0.395 OA
HETATM   40  H28 UNL     1      -5.792   3.273  12.369  1.00  0.00     0.210 HD
ENDBRANCH   8  39
TORSDOF 9
ENDMDL
MODEL 3
REMARK minimizedAffinity -6.70260811
REMARK CNNscore 0.347089678
REMARK CNNaffinity 6.54391098
REMARK  9 active torsions:
REMARK  status: ('A' for Active; 'I' for Inactive)
REMARK    1  A    between atoms: C2_2  and  C3_3 
REMARK    2  A    between atoms: C2_2  and  C9_12 
REMARK    3  A    between atoms: C3_3  and  C4_4 
REMARK    4  A    between atoms: C4_4  and  O1_5 
REMARK    5  A    between atoms: C4_4  and  C5_6 
REMARK    6  A    between atoms: C5_6  and  O2_7 
REMARK    7  A    between atoms: C5_6  and  C6_8 
REMARK    8  A    between atoms: C6_8  and  O3_11 
REMARK    9  A    between atoms: C16_19  and  O4_20 
ROOT
HETATM    1  C9  UNL     1      -2.854   9.204  15.229  1.00  0.00     0.097 A 
HETATM    2  C10 UNL     1      -4.036  10.111  15.403  1.00  0.00     0.042 C 
HETATM    3  C11 UNL     1      -3.704  11.017  16.598  1.00  0.00     0.016 C 
HETATM    4  C12 UNL     1      -2.440  10.446  17.343  1.00  0.00    -0.002 C 
HETATM    5  C13 UNL     1      -2.930   9.778  18.654  1.00  0.00     0.019 C 
HETATM    6  C14 UNL     1      -1.909   9.370  16.398  1.00  0.00     0.104 A 
HETATM    7  C15 UNL     1      -0.498   8.882  16.525  1.00  0.00     0.074 C 
HETATM    8  C16 UNL     1       0.540   9.940  16.924  1.00  0.00     0.126 C 
HETATM    9  C17 UNL     1       0.031  10.911  18.036  1.00  0.00     0.032 C 
HETATM   10  C18 UNL     1       1.100  11.929  18.731  1.00  0.00    -0.032 C 
HETATM   11  C19 UNL     1       1.240  11.459  20.208  1.00  0.00     0.016 C 
HETATM   12  C20 UNL     1       2.492  11.881  18.054  1.00  0.00     0.017 C 
HETATM   13  C21 UNL     1       3.534  12.883  18.535  1.00  0.00     0.080 C 
HETATM   14  C22 UNL     1       3.053  13.931  19.501  1.00  0.00     0.135 C 
HETATM   15  O5  UNL     1       3.848  14.399  20.321  1.00  0.00    -0.297 OA
HETATM   16  C23 UNL     1       1.630  14.476  19.364  1.00  0.00     0.017 C 
HETATM   17  C24 UNL     1       1.168  14.941  20.764  1.00  0.00     0.023 C 
HETATM   18  C25 UNL     1       1.741  15.738  18.478  1.00  0.00     0.023 C 
HETATM   19  C26 UNL     1       0.656  13.436  18.678  1.00  0.00     0.009 C 
HETATM   20  C27 UNL     1      -0.821  13.663  19.038  1.00  0.00     0.007 C 
HETATM   21  C28 UNL     1      -1.776  12.533  18.690  1.00  0.00     0.011 C 
HETATM   22  C29 UNL     1      -1.318  11.576  17.572  1.00  0.00    -0.027 C 
HETATM   23  C30 UNL     1      -1.090  12.364  16.244  1.00  0.00     0.016 C 
HETATM   24  O6  UNL     1      -2.790   8.228  16.268  1.00  0.00    -0.362 OA
ENDROOT
BRANCH   1  25
HETATM   25  C2  UNL     1      -2.509   8.623  13.874  1.00  0.00     0.022 C 
HETATM   26  C1  UNL     1      -3.670   8.811  12.895  1.00  0.00     0.013 C 
BRANCH  25  27
HETATM   27  C3  UNL     1      -2.099   7.141  14.018  1.00  0.00     0.041 C 
BRANCH  27  28
HETATM   28  C4  UNL     1      -1.539   6.458  12.758  1.00  0.00     0.150 C 
BRANCH  28  29
HETATM   29  O1  UNL     1      -2.338   5.287  12.516  1.00  0.00    -0.393 OA
HETATM   30  H8  UNL     1      -3.260   5.573  12.375  1.00  0.00     0.210 HD
ENDBRANCH  28  29
BRANCH  28  31
HETATM   31  C5  UNL     1      -0.045   6.043  12.860  1.00  0.00     0.180 C 
BRANCH  31  32
HETATM   32  O2  UNL     1       0.052   4.751  13.477  1.00  0.00    -0.390 OA
HETATM   33  H10 UNL     1      -0.117   4.853  14.432  1.00  0.00     0.210 HD
ENDBRANCH  31  32
BRANCH  31  34
HETATM   34  C6  UNL     1       0.699   5.998  11.481  1.00  0.00     0.079 C 
HETATM   35  C7  UNL     1       2.195   6.267  11.665  1.00  0.00     0.048 C 
HETATM   36  C8  UNL     1       0.116   7.013  10.492  1.00  0.00     0.048 C 
BRANCH  34  37
HETATM   37  O3  UNL     1       0.594   4.710  10.860  1.00  0.00    -0.388 OA
HETATM   38  H17 UNL     1      -0.127   4.231  11.326  1.00  0.00     0.210 HD
ENDBRANCH  34  37
ENDBRANCH  31  34
ENDBRANCH  28  31
ENDBRANCH  27  28
ENDBRANCH  25  27
ENDBRANCH   1  25
BRANCH   8  39
HETATM   39  O4  UNL     1       1.676   9.221  17.390  1.00  0.00    -0.395 OA
HETATM   40  H28 UNL     1       1.987   8.641  16.676  1.00  0.00     0.210 HD
ENDBRANCH   8  39
TORSDOF 9
ENDMDL
MODEL 4
REMARK minimizedAffinity -8.36415577
REMARK CNNscore 0.329346299
REMARK CNNaffinity 6.4173317
REMARK  9 active torsions:
REMARK  status: ('A' for Active; 'I' for Inactive)
REMARK    1  A    between atoms: C2_2  and  C3_3 
REMARK    2  A    between atoms: C2_2  and  C9_12 
REMARK    3  A    between atoms: C3_3  and  C4_4 
REMARK    4  A    between atoms: C4_4  and  O1_5 
REMARK    5  A    between atoms: C4_4  and  C5_6 
REMARK    6  A    between atoms: C5_6  and  O2_7 
REMARK    7  A    between atoms: C5_6  and  C6_8 
REMARK    8  A    between atoms: C6_8  and  O3_11 
REMARK    9  A    between atoms: C16_19  and  O4_20 
ROOT
HETATM    1  C9  UNL     1       1.056  10.131  16.018  1.00  0.00     0.097 A 
HETATM    2  C10 UNL     1       0.472  10.996  17.095  1.00  0.00     0.042 C 
HETATM    3  C11 UNL     1      -1.045  11.012  16.851  1.00  0.00     0.016 C 
HETATM    4  C12 UNL     1      -1.346  10.401  15.432  1.00  0.00    -0.002 C 
HETATM    5  C13 UNL     1      -1.708  11.572  14.483  1.00  0.00     0.019 C 
HETATM    6  C14 UNL     1      -0.012   9.795  15.000  1.00  0.00     0.104 A 
HETATM    7  C15 UNL     1       0.033   8.762  13.916  1.00  0.00     0.074 C 
HETATM    8  C16 UNL     1      -1.146   7.780  13.882  1.00  0.00     0.126 C 
HETATM    9  C17 UNL     1      -2.524   8.466  14.139  1.00  0.00     0.032 C 
HETATM   10  C18 UNL     1      -3.885   7.599  13.894  1.00  0.00    -0.032 C 
HETATM   11  C19 UNL     1      -4.595   8.252  12.673  1.00  0.00     0.016 C 
HETATM   12  C20 UNL     1      -3.592   6.113  13.569  1.00  0.00     0.017 C 
HETATM   13  C21 UNL     1      -4.788   5.178  13.449  1.00  0.00     0.080 C 
HETATM   14  C22 UNL     1      -6.124   5.756  13.826  1.00  0.00     0.135 C 
HETATM   15  O5  UNL     1      -7.141   5.319  13.280  1.00  0.00    -0.297 OA
HETATM   16  C23 UNL     1      -6.201   6.782  14.959  1.00  0.00     0.017 C 
HETATM   17  C24 UNL     1      -7.429   7.683  14.695  1.00  0.00     0.023 C 
HETATM   18  C25 UNL     1      -6.496   5.975  16.244  1.00  0.00     0.023 C 
HETATM   19  C26 UNL     1      -4.846   7.577  15.137  1.00  0.00     0.009 C 
HETATM   20  C27 UNL     1      -5.035   8.949  15.804  1.00  0.00     0.007 C 
HETATM   21  C28 UNL     1      -3.852   9.901  15.721  1.00  0.00     0.011 C 
HETATM   22  C29 UNL     1      -2.471   9.252  15.501  1.00  0.00    -0.027 C 
HETATM   23  C30 UNL     1      -2.144   8.268  16.668  1.00  0.00     0.016 C 
HETATM   24  O6  UNL     1       1.016  10.784  14.748  1.00  0.00    -0.362 OA
ENDROOT
BRANCH   1  25
HETATM   25  C2  UNL     1       2.352   9.380  16.237  1.00  0.00     0.022 C 
HETATM   26  C1  UNL     1       3.552  10.313  16.068  1.00  0.00     0.013 C 
BRANCH  25  27
HETATM   27  C3  UNL     1       2.424   8.156  15.297  1.00  0.00     0.041 C 
BRANCH  27  28
HETATM   28  C4  UNL     1       3.567   8.148  14.268  1.00  0.00     0.150 C 
BRANCH  28  29
HETATM   29  O1  UNL     1       3.275   7.114  13.313  1.00  0.00    -0.393 OA
HETATM   30  H8  UNL     1       2.425   7.328  12.886  1.00  0.00     0.210 HD
ENDBRANCH  28  29
BRANCH  28  31
HETATM   31  C5  UNL     1       4.978   7.899  14.872  1.00  0.00     0.180 C 
BRANCH  31  32
HETATM   32  O2  UNL     1       4.958   6.698  15.656  1.00  0.00    -0.390 OA
HETATM   33  H10 UNL     1       4.493   6.884  16.492  1.00  0.00     0.210 HD
ENDBRANCH  31  32
BRANCH  31  34
HETATM   34  C6  UNL     1       6.117   7.782  13.802  1.00  0.00     0.079 C 
HETATM   35  C7  UNL     1       7.487   7.695  14.479  1.00  0.00     0.048 C 
HETATM   36  C8  UNL     1       6.103   8.968  12.830  1.00  0.00     0.048 C 
BRANCH  34  37
HETATM   37  O3  UNL     1       5.983   6.596  13.008  1.00  0.00    -0.388 OA
HETATM   38  H17 UNL     1       5.070   6.261  13.155  1.00  0.00     0.210 HD
ENDBRANCH  34  37
ENDBRANCH  31  34
ENDBRANCH  28  31
ENDBRANCH  27  28
ENDBRANCH  25  27
ENDBRANCH   1  25
BRANCH   8  39
HETATM   39  O4  UNL     1      -1.130   7.191  12.586  1.00  0.00    -0.395 OA
HETATM   40  H28 UNL     1      -0.273   6.753  12.458  1.00  0.00     0.210 HD
ENDBRANCH   8  39
TORSDOF 9
ENDMDL
MODEL 5
REMARK minimizedAffinity -8.63127422
REMARK CNNscore 0.321569741
REMARK CNNaffinity 6.83066177
REMARK  9 active torsions:
REMARK  status: ('A' for Active; 'I' for Inactive)
REMARK    1  A    between atoms: C2_2  and  C3_3 
REMARK    2  A    between atoms: C2_2  and  C9_12 
REMARK    3  A    between atoms: C3_3  and  C4_4 
REMARK    4  A    between atoms: C4_4  and  O1_5 
REMARK    5  A    between atoms: C4_4  and  C5_6 
REMARK    6  A    between atoms: C5_6  and  O2_7 
REMARK    7  A    between atoms: C5_6  and  C6_8 
REMARK    8  A    between atoms: C6_8  and  O3_11 
REMARK    9  A    between atoms: C16_19  and  O4_20 
ROOT
HETATM    1  C9  UNL     1      -1.513   6.368  13.109  1.00  0.00     0.097 A 
HETATM    2  C10 UNL     1      -2.880   6.465  12.498  1.00  0.00     0.042 C 
HETATM    3  C11 UNL     1      -3.706   7.348  13.445  1.00  0.00     0.016 C 
HETATM    4  C12 UNL     1      -2.921   7.532  14.797  1.00  0.00    -0.002 C 
HETATM    5  C13 UNL     1      -3.609   6.645  15.865  1.00  0.00     0.019 C 
HETATM    6  C14 UNL     1      -1.532   6.972  14.496  1.00  0.00     0.104 A 
HETATM    7  C15 UNL     1      -0.366   7.335  15.364  1.00  0.00     0.074 C 
HETATM    8  C16 UNL     1      -0.363   8.770  15.910  1.00  0.00     0.126 C 
HETATM    9  C17 UNL     1      -1.769   9.247  16.389  1.00  0.00     0.032 C 
HETATM   10  C18 UNL     1      -1.878  10.652  17.213  1.00  0.00    -0.032 C 
HETATM   11  C19 UNL     1      -2.306  10.268  18.659  1.00  0.00     0.016 C 
HETATM   12  C20 UNL     1      -0.528  11.410  17.274  1.00  0.00     0.017 C 
HETATM   13  C21 UNL     1      -0.537  12.796  17.905  1.00  0.00     0.080 C 
HETATM   14  C22 UNL     1      -1.887  13.360  18.253  1.00  0.00     0.135 C 
HETATM   15  O5  UNL     1      -1.981  14.149  19.198  1.00  0.00    -0.297 OA
HETATM   16  C23 UNL     1      -3.085  13.037  17.358  1.00  0.00     0.017 C 
HETATM   17  C24 UNL     1      -4.358  13.106  18.231  1.00  0.00     0.023 C 
HETATM   18  C25 UNL     1      -3.173  14.192  16.333  1.00  0.00     0.023 C 
HETATM   19  C26 UNL     1      -2.904  11.666  16.590  1.00  0.00     0.009 C 
HETATM   20  C27 UNL     1      -4.239  11.027  16.175  1.00  0.00     0.007 C 
HETATM   21  C28 UNL     1      -4.174   9.575  15.728  1.00  0.00     0.011 C 
HETATM   22  C29 UNL     1      -2.806   9.081  15.217  1.00  0.00    -0.027 C 
HETATM   23  C30 UNL     1      -2.352   9.926  13.985  1.00  0.00     0.016 C 
HETATM   24  O6  UNL     1      -1.522   5.541  14.273  1.00  0.00    -0.362 OA
ENDROOT
BRANCH   1  25
HETATM   25  C2  UNL     1      -0.289   6.136  12.249  1.00  0.00     0.022 C 
HETATM   26  C1  UNL     1       0.221   7.457  11.670  1.00  0.00     0.013 C 
BRANCH  25  27
HETATM   27  C3  UNL     1      -0.597   5.095  11.151  1.00  0.00     0.041 C 
BRANCH  27  28
HETATM   28  C4  UNL     1      -1.207   3.763  11.620  1.00  0.00     0.150 C 
BRANCH  28  29
HETATM   29  O1  UNL     1      -0.125   2.831  11.784  1.00  0.00    -0.393 OA
HETATM   30  H8  UNL     1       0.484   3.190  12.456  1.00  0.00     0.210 HD
ENDBRANCH  28  29
BRANCH  28  31
HETATM   31  C5  UNL     1      -2.258   3.157  10.648  1.00  0.00     0.180 C 
BRANCH  31  32
HETATM   32  O2  UNL     1      -1.687   2.030   9.968  1.00  0.00    -0.390 OA
HETATM   33  H10 UNL     1      -1.065   2.361   9.294  1.00  0.00     0.210 HD
ENDBRANCH  31  32
BRANCH  31  34
HETATM   34  C6  UNL     1      -3.585   2.702  11.347  1.00  0.00     0.079 C 
HETATM   35  C7  UNL     1      -4.804   3.161  10.542  1.00  0.00     0.048 C 
HETATM   36  C8  UNL     1      -3.684   3.245  12.777  1.00  0.00     0.048 C 
BRANCH  34  37
HETATM   37  O3  UNL     1      -3.676   1.275  11.440  1.00  0.00    -0.388 OA
HETATM   38  H17 UNL     1      -2.775   0.923  11.268  1.00  0.00     0.210 HD
ENDBRANCH  34  37
ENDBRANCH  31  34
ENDBRANCH  28  31
ENDBRANCH  27  28
ENDBRANCH  25  27
ENDBRANCH   1  25
BRANCH   8  39
HETATM   39  O4  UNL     1       0.550   8.774  17.002  1.00  0.00    -0.395 OA
HETATM   40  H28 UNL     1       1.421   8.495  16.675  1.00  0.00     0.210 HD
ENDBRANCH   8  39
TORSDOF 9
ENDMDL
MODEL 6
REMARK minimizedAffinity -7.66919899
REMARK CNNscore 0.309193254
REMARK CNNaffinity 5.66328049
REMARK  9 active torsions:
REMARK  status: ('A' for Active; 'I' for Inactive)
REMARK    1  A    between atoms: C2_2  and  C3_3 
REMARK    2  A    between atoms: C2_2  and  C9_12 
REMARK    3  A    between atoms: C3_3  and  C4_4 
REMARK    4  A    between atoms: C4_4  and  O1_5 
REMARK    5  A    between atoms: C4_4  and  C5_6 
REMARK    6  A    between atoms: C5_6  and  O2_7 
REMARK    7  A    between atoms: C5_6  and  C6_8 
REMARK    8  A    between atoms: C6_8  and  O3_11 
REMARK    9  A    between atoms: C16_19  and  O4_20 
ROOT
HETATM    1  C9  UNL     1      -5.280 -10.630   6.563  1.00  0.00     0.097 A 
HETATM    2  C10 UNL     1      -4.298 -11.759   6.463  1.00  0.00     0.042 C 
HETATM    3  C11 UNL     1      -4.608 -12.476   5.140  1.00  0.00     0.016 C 
HETATM    4  C12 UNL     1      -5.989 -11.961   4.586  1.00  0.00    -0.002 C 
HETATM    5  C13 UNL     1      -7.038 -13.075   4.832  1.00  0.00     0.019 C 
HETATM    6  C14 UNL     1      -6.315 -10.757   5.467  1.00  0.00     0.104 A 
HETATM    7  C15 UNL     1      -7.315  -9.738   5.014  1.00  0.00     0.074 C 
HETATM    8  C16 UNL     1      -7.326  -9.439   3.509  1.00  0.00     0.126 C 
HETATM    9  C17 UNL     1      -7.182 -10.719   2.627  1.00  0.00     0.032 C 
HETATM   10  C18 UNL     1      -7.420 -10.589   1.018  1.00  0.00    -0.032 C 
HETATM   11  C19 UNL     1      -8.716 -11.393   0.711  1.00  0.00     0.016 C 
HETATM   12  C20 UNL     1      -7.619  -9.122   0.564  1.00  0.00     0.017 C 
HETATM   13  C21 UNL     1      -7.721  -8.865  -0.934  1.00  0.00     0.080 C 
HETATM   14  C22 UNL     1      -7.446 -10.041  -1.830  1.00  0.00     0.135 C 
HETATM   15  O5  UNL     1      -8.001 -10.097  -2.931  1.00  0.00    -0.297 OA
HETATM   16  C23 UNL     1      -6.399 -11.074  -1.409  1.00  0.00     0.017 C 
HETATM   17  C24 UNL     1      -6.783 -12.424  -2.054  1.00  0.00     0.023 C 
HETATM   18  C25 UNL     1      -5.070 -10.621  -2.057  1.00  0.00     0.023 C 
HETATM   19  C26 UNL     1      -6.222 -11.137   0.161  1.00  0.00     0.009 C 
HETATM   20  C27 UNL     1      -5.670 -12.485   0.652  1.00  0.00     0.007 C 
HETATM   21  C28 UNL     1      -5.772 -12.746   2.146  1.00  0.00     0.011 C 
HETATM   22  C29 UNL     1      -5.882 -11.500   3.048  1.00  0.00    -0.027 C 
HETATM   23  C30 UNL     1      -4.631 -10.585   2.861  1.00  0.00     0.016 C 
HETATM   24  O6  UNL     1      -6.595 -11.109   6.844  1.00  0.00    -0.362 OA
ENDROOT
BRANCH   1  25
HETATM   25  C2  UNL     1      -4.948  -9.374   7.340  1.00  0.00     0.022 C 
HETATM   26  C1  UNL     1      -3.441  -9.272   7.583  1.00  0.00     0.013 C 
BRANCH  25  27
HETATM   27  C3  UNL     1      -5.757  -9.330   8.654  1.00  0.00     0.041 C 
BRANCH  27  28
HETATM   28  C4  UNL     1      -5.325 -10.309   9.759  1.00  0.00     0.150 C 
BRANCH  28  29
HETATM   29  O1  UNL     1      -6.339 -11.324   9.851  1.00  0.00    -0.393 OA
HETATM   30  H8  UNL     1      -6.394 -11.776   8.989  1.00  0.00     0.210 HD
ENDBRANCH  28  29
BRANCH  28  31
HETATM   31  C5  UNL     1      -5.129  -9.658  11.157  1.00  0.00     0.180 C 
BRANCH  31  32
HETATM   32  O2  UNL     1      -3.986  -8.792  11.127  1.00  0.00    -0.390 OA
HETATM   33  H10 UNL     1      -3.182  -9.344  11.129  1.00  0.00     0.210 HD
ENDBRANCH  31  32
BRANCH  31  34
HETATM   34  C6  UNL     1      -6.368  -8.838  11.657  1.00  0.00     0.079 C 
HETATM   35  C7  UNL     1      -7.088  -9.580  12.786  1.00  0.00     0.048 C 
HETATM   36  C8  UNL     1      -7.356  -8.558  10.520  1.00  0.00     0.048 C 
BRANCH  34  37
HETATM   37  O3  UNL     1      -5.983  -7.565  12.192  1.00  0.00    -0.388 OA
HETATM   38  H17 UNL     1      -5.061  -7.402  11.894  1.00  0.00     0.210 HD
ENDBRANCH  34  37
ENDBRANCH  31  34
ENDBRANCH  28  31
ENDBRANCH  27  28
ENDBRANCH  25  27
ENDBRANCH   1  25
BRANCH   8  39
HETATM   39  O4  UNL     1      -8.572  -8.804   3.243  1.00  0.00    -0.395 OA
HETATM   40  H28 UNL     1      -8.629  -8.000   3.786  1.00  0.00     0.210 HD
ENDBRANCH   8  39
TORSDOF 9
ENDMDL
MODEL 7
REMARK minimizedAffinity -7.34485435
REMARK CNNscore 0.301730931
REMARK CNNaffinity 6.34076071
REMARK  9 active torsions:
REMARK  status: ('A' for Active; 'I' for Inactive)
REMARK    1  A    between atoms: C2_2  and  C3_3 
REMARK    2  A    between atoms: C2_2  and  C9_12 
REMARK    3  A    between atoms: C3_3  and  C4_4 
REMARK    4  A    between atoms: C4_4  and  O1_5 
REMARK    5  A    between atoms: C4_4  and  C5_6 
REMARK    6  A    between atoms: C5_6  and  O2_7 
REMARK    7  A    between atoms: C5_6  and  C6_8 
REMARK    8  A    between atoms: C6_8  and  O3_11 
REMARK    9  A    between atoms: C16_19  and  O4_20 
ROOT
HETATM    1  C9  UNL     1      -0.588   7.764  13.426  1.00  0.00     0.097 A 
HETATM    2  C10 UNL     1      -1.751   7.848  12.483  1.00  0.00     0.042 C 
HETATM    3  C11 UNL     1      -2.878   8.546  13.259  1.00  0.00     0.016 C 
HETATM    4  C12 UNL     1      -2.493   8.608  14.785  1.00  0.00    -0.002 C 
HETATM    5  C13 UNL     1      -3.345   7.548  15.528  1.00  0.00     0.019 C 
HETATM    6  C14 UNL     1      -1.025   8.183  14.812  1.00  0.00     0.104 A 
HETATM    7  C15 UNL     1      -0.167   8.509  15.996  1.00  0.00     0.074 C 
HETATM    8  C16 UNL     1      -0.446   9.859  16.671  1.00  0.00     0.126 C 
HETATM    9  C17 UNL     1      -1.968  10.177  16.801  1.00  0.00     0.032 C 
HETATM   10  C18 UNL     1      -2.424  11.455  17.708  1.00  0.00    -0.032 C 
HETATM   11  C19 UNL     1      -3.174  10.862  18.936  1.00  0.00     0.016 C 
HETATM   12  C20 UNL     1      -1.218  12.286  18.211  1.00  0.00     0.017 C 
HETATM   13  C21 UNL     1      -1.526  13.577  18.960  1.00  0.00     0.080 C 
HETATM   14  C22 UNL     1      -2.968  14.001  18.987  1.00  0.00     0.135 C 
HETATM   15  O5  UNL     1      -3.381  14.655  19.950  1.00  0.00    -0.297 OA
HETATM   16  C23 UNL     1      -3.854  13.717  17.773  1.00  0.00     0.017 C 
HETATM   17  C24 UNL     1      -5.311  13.589  18.273  1.00  0.00     0.023 C 
HETATM   18  C25 UNL     1      -3.785  14.985  16.891  1.00  0.00     0.023 C 
HETATM   19  C26 UNL     1      -3.347  12.470  16.943  1.00  0.00     0.009 C 
HETATM   20  C27 UNL     1      -4.459  11.802  16.117  1.00  0.00     0.007 C 
HETATM   21  C28 UNL     1      -4.139  10.428  15.554  1.00  0.00     0.011 C 
HETATM   22  C29 UNL     1      -2.643  10.095  15.381  1.00  0.00    -0.027 C 
HETATM   23  C30 UNL     1      -1.969  11.118  14.414  1.00  0.00     0.016 C 
HETATM   24  O6  UNL     1      -0.818   6.797  14.450  1.00  0.00    -0.362 OA
ENDROOT
BRANCH   1  25
HETATM   25  C2  UNL     1       0.835   7.726  12.909  1.00  0.00     0.022 C 
HETATM   26  C1  UNL     1       1.280   6.283  12.662  1.00  0.00     0.013 C 
BRANCH  25  27
HETATM   27  C3  UNL     1       1.775   8.471  13.882  1.00  0.00     0.041 C 
BRANCH  27  28
HETATM   28  C4  UNL     1       3.079   7.749  14.263  1.00  0.00     0.150 C 
BRANCH  28  29
HETATM   29  O1  UNL     1       2.780   6.883  15.371  1.00  0.00    -0.393 OA
HETATM   30  H8  UNL     1       2.101   6.244  15.081  1.00  0.00     0.210 HD
ENDBRANCH  28  29
BRANCH  28  31
HETATM   31  C5  UNL     1       4.248   8.695  14.659  1.00  0.00     0.180 C 
BRANCH  31  32
HETATM   32  O2  UNL     1       4.071   9.134  16.013  1.00  0.00    -0.390 OA
HETATM   33  H10 UNL     1       3.358   9.799  16.030  1.00  0.00     0.210 HD
ENDBRANCH  31  32
BRANCH  31  34
HETATM   34  C6  UNL     1       5.667   8.044  14.524  1.00  0.00     0.079 C 
HETATM   35  C7  UNL     1       6.734   8.936  15.165  1.00  0.00     0.048 C 
HETATM   36  C8  UNL     1       6.032   7.785  13.058  1.00  0.00     0.048 C 
BRANCH  34  37
HETATM   37  O3  UNL     1       5.740   6.780  15.196  1.00  0.00    -0.388 OA
HETATM   38  H17 UNL     1       4.814   6.502  15.374  1.00  0.00     0.210 HD
ENDBRANCH  34  37
ENDBRANCH  31  34
ENDBRANCH  28  31
ENDBRANCH  27  28
ENDBRANCH  25  27
ENDBRANCH   1  25
BRANCH   8  39
HETATM   39  O4  UNL     1       0.147   9.784  17.963  1.00  0.00    -0.395 OA
HETATM   40  H28 UNL     1       1.096   9.607  17.856  1.00  0.00     0.210 HD
ENDBRANCH   8  39
TORSDOF 9
ENDMDL
MODEL 8
REMARK minimizedAffinity -7.35622454
REMARK CNNscore 0.294629663
REMARK CNNaffinity 6.11499405
REMARK  9 active torsions:
REMARK  status: ('A' for Active; 'I' for Inactive)
REMARK    1  A    between atoms: C2_2  and  C3_3 
REMARK    2  A    between atoms: C2_2  and  C9_12 
REMARK    3  A    between atoms: C3_3  and  C4_4 
REMARK    4  A    between atoms: C4_4  and  O1_5 
REMARK    5  A    between atoms: C4_4  and  C5_6 
REMARK    6  A    between atoms: C5_6  and  O2_7 
REMARK    7  A    between atoms: C5_6  and  C6_8 
REMARK    8  A    between atoms: C6_8  and  O3_11 
REMARK    9  A    between atoms: C16_19  and  O4_20 
ROOT
HETATM    1  C9  UNL     1      -1.281   8.146  14.501  1.00  0.00     0.097 A 
HETATM    2  C10 UNL     1      -1.708   7.285  15.652  1.00  0.00     0.042 C 
HETATM    3  C11 UNL     1      -2.046   8.248  16.800  1.00  0.00     0.016 C 
HETATM    4  C12 UNL     1      -1.523   9.688  16.437  1.00  0.00    -0.002 C 
HETATM    5  C13 UNL     1      -0.252   9.954  17.283  1.00  0.00     0.019 C 
HETATM    6  C14 UNL     1      -1.135   9.579  14.964  1.00  0.00     0.104 A 
HETATM    7  C15 UNL     1      -0.992  10.813  14.127  1.00  0.00     0.074 C 
HETATM    8  C16 UNL     1      -1.979  11.947  14.437  1.00  0.00     0.126 C 
HETATM    9  C17 UNL     1      -2.209  12.160  15.966  1.00  0.00     0.032 C 
HETATM   10  C18 UNL     1      -3.039  13.478  16.454  1.00  0.00    -0.032 C 
HETATM   11  C19 UNL     1      -2.015  14.372  17.211  1.00  0.00     0.016 C 
HETATM   12  C20 UNL     1      -3.627  14.282  15.268  1.00  0.00     0.017 C 
HETATM   13  C21 UNL     1      -4.530  15.461  15.607  1.00  0.00     0.080 C 
HETATM   14  C22 UNL     1      -4.898  15.622  17.056  1.00  0.00     0.135 C 
HETATM   15  O5  UNL     1      -5.131  16.752  17.492  1.00  0.00    -0.297 OA
HETATM   16  C23 UNL     1      -5.091  14.375  17.921  1.00  0.00     0.017 C 
HETATM   17  C24 UNL     1      -4.768  14.760  19.382  1.00  0.00     0.023 C 
HETATM   18  C25 UNL     1      -6.600  14.044  17.859  1.00  0.00     0.023 C 
HETATM   19  C26 UNL     1      -4.261  13.141  17.383  1.00  0.00     0.009 C 
HETATM   20  C27 UNL     1      -3.948  12.102  18.472  1.00  0.00     0.007 C 
HETATM   21  C28 UNL     1      -2.896  11.063  18.122  1.00  0.00     0.011 C 
HETATM   22  C29 UNL     1      -2.668  10.804  16.619  1.00  0.00    -0.027 C 
HETATM   23  C30 UNL     1      -3.990  10.314  15.948  1.00  0.00     0.016 C 
HETATM   24  O6  UNL     1       0.006   8.719  14.730  1.00  0.00    -0.362 OA
ENDROOT
BRANCH   1  25
HETATM   25  C2  UNL     1      -1.457   7.681  13.071  1.00  0.00     0.022 C 
HETATM   26  C1  UNL     1      -2.532   6.596  12.985  1.00  0.00     0.013 C 
BRANCH  25  27
HETATM   27  C3  UNL     1      -0.104   7.211  12.493  1.00  0.00     0.041 C 
BRANCH  27  28
HETATM   28  C4  UNL     1       0.355   5.796  12.882  1.00  0.00     0.150 C 
BRANCH  28  29
HETATM   29  O1  UNL     1       1.355   5.937  13.905  1.00  0.00    -0.393 OA
HETATM   30  H8  UNL     1       0.948   6.392  14.666  1.00  0.00     0.210 HD
ENDBRANCH  28  29
BRANCH  28  31
HETATM   31  C5  UNL     1       0.942   4.962  11.709  1.00  0.00     0.180 C 
BRANCH  31  32
HETATM   32  O2  UNL     1      -0.129   4.384  10.949  1.00  0.00    -0.390 OA
HETATM   33  H10 UNL     1      -0.502   3.642  11.460  1.00  0.00     0.210 HD
ENDBRANCH  31  32
BRANCH  31  34
HETATM   34  C6  UNL     1       1.858   5.785  10.739  1.00  0.00     0.079 C 
HETATM   35  C7  UNL     1       2.934   6.541  11.524  1.00  0.00     0.048 C 
HETATM   36  C8  UNL     1       1.046   6.778   9.901  1.00  0.00     0.048 C 
BRANCH  34  37
HETATM   37  O3  UNL     1       2.554   4.937   9.816  1.00  0.00    -0.388 OA
HETATM   38  H17 UNL     1       2.105   4.063   9.844  1.00  0.00     0.210 HD
ENDBRANCH  34  37
ENDBRANCH  31  34
ENDBRANCH  28  31
ENDBRANCH  27  28
ENDBRANCH  25  27
ENDBRANCH   1  25
BRANCH   8  39
HETATM   39  O4  UNL     1      -1.422  13.123  13.861  1.00  0.00    -0.395 OA
HETATM   40  H28 UNL     1      -1.308  12.974  12.908  1.00  0.00     0.210 HD
ENDBRANCH   8  39
TORSDOF 9
ENDMDL
MODEL 9
REMARK minimizedAffinity -6.69625139
REMARK CNNscore 0.280091971
REMARK CNNaffinity 5.88732862
REMARK  9 active torsions:
REMARK  status: ('A' for Active; 'I' for Inactive)
REMARK    1  A    between atoms: C2_2  and  C3_3 
REMARK    2  A    between atoms: C2_2  and  C9_12 
REMARK    3  A    between atoms: C3_3  and  C4_4 
REMARK    4  A    between atoms: C4_4  and  O1_5 
REMARK    5  A    between atoms: C4_4  and  C5_6 
REMARK    6  A    between atoms: C5_6  and  O2_7 
REMARK    7  A    between atoms: C5_6  and  C6_8 
REMARK    8  A    between atoms: C6_8  and  O3_11 
REMARK    9  A    between atoms: C16_19  and  O4_20 
ROOT
HETATM    1  C9  UNL     1     -15.523  -2.951  13.054  1.00  0.00     0.097 A 
HETATM    2  C10 UNL     1     -16.639  -3.171  12.075  1.00  0.00     0.042 C 
HETATM    3  C11 UNL     1     -17.648  -2.039  12.320  1.00  0.00     0.016 C 
HETATM    4  C12 UNL     1     -17.286  -1.307  13.666  1.00  0.00    -0.002 C 
HETATM    5  C13 UNL     1     -18.317  -1.752  14.735  1.00  0.00     0.019 C 
HETATM    6  C14 UNL     1     -15.911  -1.863  14.031  1.00  0.00     0.104 A 
HETATM    7  C15 UNL     1     -15.032  -1.130  14.998  1.00  0.00     0.074 C 
HETATM    8  C16 UNL     1     -15.095   0.401  14.927  1.00  0.00     0.126 C 
HETATM    9  C17 UNL     1     -16.545   0.949  14.746  1.00  0.00     0.032 C 
HETATM   10  C18 UNL     1     -16.799   2.554  14.897  1.00  0.00    -0.032 C 
HETATM   11  C19 UNL     1     -17.659   2.731  16.181  1.00  0.00     0.016 C 
HETATM   12  C20 UNL     1     -15.481   3.349  15.062  1.00  0.00     0.017 C 
HETATM   13  C21 UNL     1     -15.583   4.869  15.083  1.00  0.00     0.080 C 
HETATM   14  C22 UNL     1     -16.935   5.448  14.769  1.00  0.00     0.135 C 
HETATM   15  O5  UNL     1     -17.251   6.533  15.266  1.00  0.00    -0.297 OA
HETATM   16  C23 UNL     1     -17.834   4.741  13.753  1.00  0.00     0.017 C 
HETATM   17  C24 UNL     1     -19.301   5.070  14.112  1.00  0.00     0.023 C 
HETATM   18  C25 UNL     1     -17.539   5.407  12.389  1.00  0.00     0.023 C 
HETATM   19  C26 UNL     1     -17.526   3.193  13.660  1.00  0.00     0.009 C 
HETATM   20  C27 UNL     1     -18.718   2.371  13.144  1.00  0.00     0.007 C 
HETATM   21  C28 UNL     1     -18.620   0.865  13.327  1.00  0.00     0.011 C 
HETATM   22  C29 UNL     1     -17.198   0.288  13.476  1.00  0.00    -0.027 C 
HETATM   23  C30 UNL     1     -16.346   0.619  12.210  1.00  0.00     0.016 C 
HETATM   24  O6  UNL     1     -15.930  -3.267  14.385  1.00  0.00    -0.362 OA
ENDROOT
BRANCH   1  25
HETATM   25  C2  UNL     1     -14.118  -3.428  12.755  1.00  0.00     0.022 C 
HETATM   26  C1  UNL     1     -13.803  -3.278  11.265  1.00  0.00     0.013 C 
BRANCH  25  27
HETATM   27  C3  UNL     1     -13.929  -4.878  13.250  1.00  0.00     0.041 C 
BRANCH  27  28
HETATM   28  C4  UNL     1     -12.950  -5.082  14.418  1.00  0.00     0.150 C 
BRANCH  28  29
HETATM   29  O1  UNL     1     -11.817  -4.230  14.181  1.00  0.00    -0.393 OA
HETATM   30  H8  UNL     1     -12.133  -3.308  14.149  1.00  0.00     0.210 HD
ENDBRANCH  28  29
BRANCH  28  31
HETATM   31  C5  UNL     1     -12.456  -6.545  14.599  1.00  0.00     0.180 C 
BRANCH  31  32
HETATM   32  O2  UNL     1     -11.227  -6.728  13.883  1.00  0.00    -0.390 OA
HETATM   33  H10 UNL     1     -11.430  -6.778  12.931  1.00  0.00     0.210 HD
ENDBRANCH  31  32
BRANCH  31  34
HETATM   34  C6  UNL     1     -12.235  -6.963  16.093  1.00  0.00     0.079 C 
HETATM   35  C7  UNL     1     -11.353  -8.212  16.180  1.00  0.00     0.048 C 
HETATM   36  C8  UNL     1     -13.564  -7.227  16.809  1.00  0.00     0.048 C 
BRANCH  34  37
HETATM   37  O3  UNL     1     -11.561  -5.940  16.838  1.00  0.00    -0.388 OA
HETATM   38  H17 UNL     1     -11.616  -5.119  16.301  1.00  0.00     0.210 HD
ENDBRANCH  34  37
ENDBRANCH  31  34
ENDBRANCH  28  31
ENDBRANCH  27  28
ENDBRANCH  25  27
ENDBRANCH   1  25
BRANCH   8  39
HETATM   39  O4  UNL     1     -14.547   0.875  16.153  1.00  0.00    -0.395 OA
HETATM   40  H28 UNL     1     -13.639   0.540  16.233  1.00  0.00     0.210 HD
ENDBRANCH   8  39
TORSDOF 9
ENDMDL
