MODEL 1
REMARK minimizedAffinity -9.33052635
REMARK  9 active torsions:
REMARK  status: ('A' for Active; 'I' for Inactive)
REMARK    1  A    between atoms: C3_3  and  O1_4 
REMARK    2  A    between atoms: C14_15  and  O2_16 
REMARK    3  A    between atoms: C18_20  and  C19_21 
REMARK    4  A    between atoms: C19_21  and  C20_22 
REMARK    5  A    between atoms: C20_22  and  C21_23 
REMARK    6  A    between atoms: C22_24  and  C23_25 
REMARK    7  A    between atoms: C22_24  and  C24_27 
REMARK    8  A    between atoms: C23_25  and  O3_26 
REMARK    9  A    between atoms: C24_27  and  O4_28 
ROOT
HETATM    1  C1  UNL     1       1.242  12.589  16.759  1.00  0.00     0.013 C 
HETATM    2  C2  UNL     1      -0.169  11.982  16.757  1.00  0.00     0.015 C 
HETATM    3  C3  UNL     1      -0.663  11.792  18.214  1.00  0.00     0.122 C 
HETATM    4  C4  UNL     1      -2.025  11.096  18.308  1.00  0.00     0.033 C 
HETATM    5  C5  UNL     1      -2.133   9.825  17.446  1.00  0.00     0.012 C 
HETATM    6  C6  UNL     1      -1.692  10.041  15.975  1.00  0.00    -0.033 C 
HETATM    7  C7  UNL     1      -2.692  11.064  15.337  1.00  0.00     0.016 C 
HETATM    8  C8  UNL     1      -0.235  10.617  16.020  1.00  0.00     0.000 C 
HETATM    9  C9  UNL     1       0.408  10.540  14.639  1.00  0.00     0.007 C 
HETATM   10  C10 UNL     1       0.680   9.078  14.248  1.00  0.00     0.011 C 
HETATM   11  C11 UNL     1      -0.390   8.028  14.715  1.00  0.00    -0.029 C 
HETATM   12  C12 UNL     1       0.181   7.332  15.990  1.00  0.00     0.016 C 
HETATM   13  C13 UNL     1      -1.767   8.750  15.036  1.00  0.00     0.032 C 
HETATM   14  C14 UNL     1      -2.949   7.772  15.336  1.00  0.00     0.124 C 
HETATM   15  C15 UNL     1      -3.113   6.671  14.268  1.00  0.00     0.042 C 
HETATM   16  C16 UNL     1      -1.785   5.961  14.056  1.00  0.00     0.029 C 
HETATM   17  C17 UNL     1      -1.591   4.877  13.067  1.00  0.00    -0.033 C 
HETATM   18  C18 UNL     1      -2.295   4.216  12.155  1.00  0.00     0.023 C 
HETATM   19  C25 UNL     1      -1.266   3.615  11.277  1.00  0.00     0.290 C 
HETATM   20  O5  UNL     1      -1.484   2.914  10.302  1.00  0.00    -0.260 OA
HETATM   21  O6  UNL     1      -0.020   4.041  11.663  1.00  0.00    -0.308 OA
HETATM   22  C26 UNL     1      -0.145   4.604  12.951  1.00  0.00     0.163 C 
HETATM   23  C27 UNL     1       0.511   5.973  13.199  1.00  0.00     0.047 C 
HETATM   24  C28 UNL     1      -0.665   6.944  13.566  1.00  0.00    -0.026 C 
HETATM   25  C29 UNL     1      -1.080   7.619  12.203  1.00  0.00     0.016 C 
ENDROOT
BRANCH  18  26
HETATM   26  C19 UNL     1      -3.743   4.196  11.827  1.00  0.00     0.049 C 
BRANCH  26  27
HETATM   27  C20 UNL     1      -4.626   4.378  13.070  1.00  0.00     0.032 C 
BRANCH  27  28
HETATM   28  C21 UNL     1      -6.089   4.485  12.736  1.00  0.00    -0.019 C 
HETATM   29  C22 UNL     1      -7.094   4.873  13.550  1.00  0.00    -0.037 C 
BRANCH  29  30
HETATM   30  C23 UNL     1      -8.516   4.859  13.057  1.00  0.00     0.200 C 
BRANCH  30  31
HETATM   31  O3  UNL     1      -8.988   3.520  13.069  1.00  0.00    -0.397 OA
HETATM   32  H35 UNL     1      -9.930   3.557  12.838  1.00  0.00     0.209 HD
ENDBRANCH  30  31
ENDBRANCH  29  30
BRANCH  29  33
HETATM   33  C24 UNL     1      -6.913   5.305  14.979  1.00  0.00     0.200 C 
BRANCH  33  34
HETATM   34  O4  UNL     1      -7.788   4.559  15.817  1.00  0.00    -0.397 OA
HETATM   35  H38 UNL     1      -8.670   4.598  15.410  1.00  0.00     0.209 HD
ENDBRANCH  33  34
ENDBRANCH  29  33
ENDBRANCH  27  28
ENDBRANCH  26  27
ENDBRANCH  18  26
BRANCH  14  36
HETATM   36  O2  UNL     1      -2.775   7.142  16.601  1.00  0.00    -0.395 OA
HETATM   37  H24 UNL     1      -3.572   6.616  16.787  1.00  0.00     0.210 HD
ENDBRANCH  14  36
BRANCH   3  38
HETATM   38  O1  UNL     1       0.295  11.024  18.946  1.00  0.00    -0.395 OA
HETATM   39  H6  UNL     1      -0.042  10.912  19.851  1.00  0.00     0.210 HD
ENDBRANCH   3  38
TORSDOF 9
ENDMDL
MODEL 2
REMARK minimizedAffinity -9.21481991
REMARK  9 active torsions:
REMARK  status: ('A' for Active; 'I' for Inactive)
REMARK    1  A    between atoms: C3_3  and  O1_4 
REMARK    2  A    between atoms: C14_15  and  O2_16 
REMARK    3  A    between atoms: C18_20  and  C19_21 
REMARK    4  A    between atoms: C19_21  and  C20_22 
REMARK    5  A    between atoms: C20_22  and  C21_23 
REMARK    6  A    between atoms: C22_24  and  C23_25 
REMARK    7  A    between atoms: C22_24  and  C24_27 
REMARK    8  A    between atoms: C23_25  and  O3_26 
REMARK    9  A    between atoms: C24_27  and  O4_28 
ROOT
HETATM    1  C1  UNL     1       3.486   7.737  11.343  1.00  0.00     0.013 C 
HETATM    2  C2  UNL     1       2.147   8.239  11.901  1.00  0.00     0.015 C 
HETATM    3  C3  UNL     1       2.349   8.803  13.331  1.00  0.00     0.122 C 
HETATM    4  C4  UNL     1       1.042   9.235  14.005  1.00  0.00     0.033 C 
HETATM    5  C5  UNL     1      -0.082   8.189  13.904  1.00  0.00     0.012 C 
HETATM    6  C6  UNL     1      -0.317   7.676  12.460  1.00  0.00    -0.033 C 
HETATM    7  C7  UNL     1      -0.805   8.897  11.608  1.00  0.00     0.016 C 
HETATM    8  C8  UNL     1       1.059   7.132  11.946  1.00  0.00     0.000 C 
HETATM    9  C9  UNL     1       0.861   6.301  10.681  1.00  0.00     0.007 C 
HETATM   10  C10 UNL     1       0.127   4.989  11.004  1.00  0.00     0.011 C 
HETATM   11  C11 UNL     1      -0.982   5.074  12.112  1.00  0.00    -0.029 C 
HETATM   12  C12 UNL     1      -0.348   4.529  13.432  1.00  0.00     0.016 C 
HETATM   13  C13 UNL     1      -1.464   6.575  12.297  1.00  0.00     0.032 C 
HETATM   14  C14 UNL     1      -2.692   6.741  13.249  1.00  0.00     0.124 C 
HETATM   15  C15 UNL     1      -3.863   5.800  12.901  1.00  0.00     0.042 C 
HETATM   16  C16 UNL     1      -3.361   4.367  12.813  1.00  0.00     0.029 C 
HETATM   17  C17 UNL     1      -4.228   3.222  12.457  1.00  0.00    -0.033 C 
HETATM   18  C18 UNL     1      -5.494   2.988  12.130  1.00  0.00     0.023 C 
HETATM   19  C25 UNL     1      -5.454   1.660  11.477  1.00  0.00     0.290 C 
HETATM   20  O5  UNL     1      -6.416   1.061  11.025  1.00  0.00    -0.260 OA
HETATM   21  O6  UNL     1      -4.154   1.236  11.366  1.00  0.00    -0.308 OA
HETATM   22  C26 UNL     1      -3.371   2.045  12.218  1.00  0.00     0.163 C 
HETATM   23  C27 UNL     1      -2.075   2.640  11.643  1.00  0.00     0.047 C 
HETATM   24  C28 UNL     1      -2.262   4.197  11.708  1.00  0.00    -0.026 C 
HETATM   25  C29 UNL     1      -2.832   4.601  10.294  1.00  0.00     0.016 C 
ENDROOT
BRANCH  18  26
HETATM   26  C19 UNL     1      -6.705   3.847  12.132  1.00  0.00     0.049 C 
BRANCH  26  27
HETATM   27  C20 UNL     1      -7.536   3.681  13.413  1.00  0.00     0.032 C 
BRANCH  27  28
HETATM   28  C21 UNL     1      -7.227   4.729  14.447  1.00  0.00    -0.019 C 
HETATM   29  C22 UNL     1      -7.835   5.923  14.617  1.00  0.00    -0.037 C 
BRANCH  29  30
HETATM   30  C23 UNL     1      -7.348   6.878  15.674  1.00  0.00     0.200 C 
BRANCH  30  31
HETATM   31  O3  UNL     1      -6.714   6.131  16.701  1.00  0.00    -0.397 OA
HETATM   32  H35 UNL     1      -6.330   6.778  17.316  1.00  0.00     0.209 HD
ENDBRANCH  30  31
ENDBRANCH  29  30
BRANCH  29  33
HETATM   33  C24 UNL     1      -8.985   6.419  13.783  1.00  0.00     0.200 C 
BRANCH  33  34
HETATM   34  O4  UNL     1     -10.187   6.345  14.540  1.00  0.00    -0.397 OA
HETATM   35  H38 UNL     1     -10.222   5.454  14.928  1.00  0.00     0.209 HD
ENDBRANCH  33  34
ENDBRANCH  29  33
ENDBRANCH  27  28
ENDBRANCH  26  27
ENDBRANCH  18  26
BRANCH  14  36
HETATM   36  O2  UNL     1      -2.318   6.504  14.602  1.00  0.00    -0.395 OA
HETATM   37  H24 UNL     1      -3.084   6.706  15.166  1.00  0.00     0.210 HD
ENDBRANCH  14  36
BRANCH   3  38
HETATM   38  O1  UNL     1       2.980   7.814  14.148  1.00  0.00    -0.395 OA
HETATM   39  H6  UNL     1       3.087   8.188  15.039  1.00  0.00     0.210 HD
ENDBRANCH   3  38
TORSDOF 9
ENDMDL
MODEL 3
REMARK minimizedAffinity -9.17854595
REMARK  9 active torsions:
REMARK  status: ('A' for Active; 'I' for Inactive)
REMARK    1  A    between atoms: C3_3  and  O1_4 
REMARK    2  A    between atoms: C14_15  and  O2_16 
REMARK    3  A    between atoms: C18_20  and  C19_21 
REMARK    4  A    between atoms: C19_21  and  C20_22 
REMARK    5  A    between atoms: C20_22  and  C21_23 
REMARK    6  A    between atoms: C22_24  and  C23_25 
REMARK    7  A    between atoms: C22_24  and  C24_27 
REMARK    8  A    between atoms: C23_25  and  O3_26 
REMARK    9  A    between atoms: C24_27  and  O4_28 
ROOT
HETATM    1  C1  UNL     1       2.674   7.918  12.719  1.00  0.00     0.013 C 
HETATM    2  C2  UNL     1       1.802   8.579  13.796  1.00  0.00     0.015 C 
HETATM    3  C3  UNL     1       2.432   8.359  15.195  1.00  0.00     0.122 C 
HETATM    4  C4  UNL     1       1.572   8.900  16.341  1.00  0.00     0.033 C 
HETATM    5  C5  UNL     1       0.092   8.486  16.256  1.00  0.00     0.012 C 
HETATM    6  C6  UNL     1      -0.545   8.766  14.870  1.00  0.00    -0.033 C 
HETATM    7  C7  UNL     1      -0.534  10.319  14.662  1.00  0.00     0.016 C 
HETATM    8  C8  UNL     1       0.346   8.038  13.808  1.00  0.00     0.000 C 
HETATM    9  C9  UNL     1      -0.379   7.966  12.467  1.00  0.00     0.007 C 
HETATM   10  C10 UNL     1      -1.579   7.008  12.552  1.00  0.00     0.011 C 
HETATM   11  C11 UNL     1      -2.364   7.003  13.912  1.00  0.00    -0.029 C 
HETATM   12  C12 UNL     1      -1.875   5.757  14.715  1.00  0.00     0.016 C 
HETATM   13  C13 UNL     1      -2.078   8.341  14.718  1.00  0.00     0.032 C 
HETATM   14  C14 UNL     1      -2.953   8.514  16.002  1.00  0.00     0.124 C 
HETATM   15  C15 UNL     1      -4.459   8.310  15.744  1.00  0.00     0.042 C 
HETATM   16  C16 UNL     1      -4.683   6.980  15.040  1.00  0.00     0.029 C 
HETATM   17  C17 UNL     1      -6.016   6.500  14.614  1.00  0.00    -0.033 C 
HETATM   18  C18 UNL     1      -7.281   6.905  14.637  1.00  0.00     0.023 C 
HETATM   19  C25 UNL     1      -7.941   6.073  13.605  1.00  0.00     0.290 C 
HETATM   20  O5  UNL     1      -9.122   6.121  13.303  1.00  0.00    -0.260 OA
HETATM   21  O6  UNL     1      -7.006   5.299  12.966  1.00  0.00    -0.308 OA
HETATM   22  C26 UNL     1      -5.832   5.318  13.750  1.00  0.00     0.163 C 
HETATM   23  C27 UNL     1      -4.499   5.588  13.031  1.00  0.00     0.047 C 
HETATM   24  C28 UNL     1      -3.945   6.916  13.658  1.00  0.00    -0.026 C 
HETATM   25  C29 UNL     1      -4.455   8.064  12.705  1.00  0.00     0.016 C 
ENDROOT
BRANCH  18  26
HETATM   26  C19 UNL     1      -7.954   8.054  15.295  1.00  0.00     0.049 C 
BRANCH  26  27
HETATM   27  C20 UNL     1      -9.464   7.830  15.458  1.00  0.00     0.032 C 
BRANCH  27  28
HETATM   28  C21 UNL     1     -10.287   8.833  14.696  1.00  0.00    -0.019 C 
HETATM   29  C22 UNL     1     -11.499   8.645  14.131  1.00  0.00    -0.037 C 
BRANCH  29  30
HETATM   30  C23 UNL     1     -12.151   9.753  13.348  1.00  0.00     0.200 C 
BRANCH  30  31
HETATM   31  O3  UNL     1     -11.924   9.526  11.966  1.00  0.00    -0.397 OA
HETATM   32  H35 UNL     1     -12.433  10.201  11.487  1.00  0.00     0.209 HD
ENDBRANCH  30  31
ENDBRANCH  29  30
BRANCH  29  33
HETATM   33  C24 UNL     1     -12.275   7.357  14.190  1.00  0.00     0.200 C 
BRANCH  33  34
HETATM   34  O4  UNL     1     -12.974   7.279  15.426  1.00  0.00    -0.397 OA
HETATM   35  H38 UNL     1     -12.334   7.488  16.127  1.00  0.00     0.209 HD
ENDBRANCH  33  34
ENDBRANCH  29  33
ENDBRANCH  27  28
ENDBRANCH  26  27
ENDBRANCH  18  26
BRANCH  14  36
HETATM   36  O2  UNL     1      -2.547   7.601  17.016  1.00  0.00    -0.395 OA
HETATM   37  H24 UNL     1      -3.052   7.804  17.823  1.00  0.00     0.210 HD
ENDBRANCH  14  36
BRANCH   3  38
HETATM   38  O1  UNL     1       2.647   6.961  15.404  1.00  0.00    -0.395 OA
HETATM   39  H6  UNL     1       3.034   6.849  16.289  1.00  0.00     0.210 HD
ENDBRANCH   3  38
TORSDOF 9
ENDMDL
MODEL 4
REMARK minimizedAffinity -9.04957867
REMARK  9 active torsions:
REMARK  status: ('A' for Active; 'I' for Inactive)
REMARK    1  A    between atoms: C3_3  and  O1_4 
REMARK    2  A    between atoms: C14_15  and  O2_16 
REMARK    3  A    between atoms: C18_20  and  C19_21 
REMARK    4  A    between atoms: C19_21  and  C20_22 
REMARK    5  A    between atoms: C20_22  and  C21_23 
REMARK    6  A    between atoms: C22_24  and  C23_25 
REMARK    7  A    between atoms: C22_24  and  C24_27 
REMARK    8  A    between atoms: C23_25  and  O3_26 
REMARK    9  A    between atoms: C24_27  and  O4_28 
ROOT
HETATM    1  C1  UNL     1      -0.949  12.272  17.766  1.00  0.00     0.013 C 
HETATM    2  C2  UNL     1      -0.301  11.203  16.874  1.00  0.00     0.015 C 
HETATM    3  C3  UNL     1       0.517  11.882  15.746  1.00  0.00     0.122 C 
HETATM    4  C4  UNL     1       1.116  10.888  14.747  1.00  0.00     0.033 C 
HETATM    5  C5  UNL     1       0.113   9.838  14.239  1.00  0.00     0.012 C 
HETATM    6  C6  UNL     1      -0.657   9.122  15.378  1.00  0.00    -0.033 C 
HETATM    7  C7  UNL     1       0.396   8.321  16.216  1.00  0.00     0.016 C 
HETATM    8  C8  UNL     1      -1.339  10.242  16.235  1.00  0.00     0.000 C 
HETATM    9  C9  UNL     1      -2.388   9.635  17.163  1.00  0.00     0.007 C 
HETATM   10  C10 UNL     1      -3.586   9.110  16.355  1.00  0.00     0.011 C 
HETATM   11  C11 UNL     1      -3.252   8.467  14.963  1.00  0.00    -0.029 C 
HETATM   12  C12 UNL     1      -3.558   9.547  13.878  1.00  0.00     0.016 C 
HETATM   13  C13 UNL     1      -1.726   8.031  14.909  1.00  0.00     0.032 C 
HETATM   14  C14 UNL     1      -1.337   7.218  13.631  1.00  0.00     0.124 C 
HETATM   15  C15 UNL     1      -2.283   6.032  13.353  1.00  0.00     0.042 C 
HETATM   16  C16 UNL     1      -3.725   6.519  13.339  1.00  0.00     0.029 C 
HETATM   17  C17 UNL     1      -4.884   5.622  13.138  1.00  0.00    -0.033 C 
HETATM   18  C18 UNL     1      -5.130   4.332  12.941  1.00  0.00     0.023 C 
HETATM   19  C25 UNL     1      -6.558   4.181  13.299  1.00  0.00     0.290 C 
HETATM   20  O5  UNL     1      -7.196   3.143  13.256  1.00  0.00    -0.260 OA
HETATM   21  O6  UNL     1      -7.042   5.371  13.783  1.00  0.00    -0.308 OA
HETATM   22  C26 UNL     1      -6.116   6.378  13.437  1.00  0.00     0.163 C 
HETATM   23  C27 UNL     1      -5.689   7.362  14.539  1.00  0.00     0.047 C 
HETATM   24  C28 UNL     1      -4.142   7.158  14.709  1.00  0.00    -0.026 C 
HETATM   25  C29 UNL     1      -3.994   6.107  15.876  1.00  0.00     0.016 C 
ENDROOT
BRANCH  18  26
HETATM   26  C19 UNL     1      -4.242   3.172  12.671  1.00  0.00     0.049 C 
BRANCH  26  27
HETATM   27  C20 UNL     1      -3.499   3.304  11.333  1.00  0.00     0.032 C 
BRANCH  27  28
HETATM   28  C21 UNL     1      -2.694   2.080  10.991  1.00  0.00    -0.019 C 
HETATM   29  C22 UNL     1      -1.353   1.934  11.049  1.00  0.00    -0.037 C 
BRANCH  29  30
HETATM   30  C23 UNL     1      -0.711   0.647  10.607  1.00  0.00     0.200 C 
BRANCH  30  31
HETATM   31  O3  UNL     1      -0.595   0.661   9.192  1.00  0.00    -0.397 OA
HETATM   32  H35 UNL     1      -0.095  -0.135   8.947  1.00  0.00     0.209 HD
ENDBRANCH  30  31
ENDBRANCH  29  30
BRANCH  29  33
HETATM   33  C24 UNL     1      -0.399   3.004  11.507  1.00  0.00     0.200 C 
BRANCH  33  34
HETATM   34  O4  UNL     1       0.908   2.712  11.030  1.00  0.00    -0.397 OA
HETATM   35  H38 UNL     1       1.088   1.782  11.247  1.00  0.00     0.209 HD
ENDBRANCH  33  34
ENDBRANCH  29  33
ENDBRANCH  27  28
ENDBRANCH  26  27
ENDBRANCH  18  26
BRANCH  14  36
HETATM   36  O2  UNL     1      -1.326   8.058  12.482  1.00  0.00    -0.395 OA
HETATM   37  H24 UNL     1      -0.992   7.536  11.732  1.00  0.00     0.210 HD
ENDBRANCH  14  36
BRANCH   3  38
HETATM   38  O1  UNL     1      -0.321  12.797  15.035  1.00  0.00    -0.395 OA
HETATM   39  H6  UNL     1       0.212  13.202  14.330  1.00  0.00     0.210 HD
ENDBRANCH   3  38
TORSDOF 9
ENDMDL
MODEL 5
REMARK minimizedAffinity -8.96477032
REMARK  9 active torsions:
REMARK  status: ('A' for Active; 'I' for Inactive)
REMARK    1  A    between atoms: C3_3  and  O1_4 
REMARK    2  A    between atoms: C14_15  and  O2_16 
REMARK    3  A    between atoms: C18_20  and  C19_21 
REMARK    4  A    between atoms: C19_21  and  C20_22 
REMARK    5  A    between atoms: C20_22  and  C21_23 
REMARK    6  A    between atoms: C22_24  and  C23_25 
REMARK    7  A    between atoms: C22_24  and  C24_27 
REMARK    8  A    between atoms: C23_25  and  O3_26 
REMARK    9  A    between atoms: C24_27  and  O4_28 
ROOT
HETATM    1  C1  UNL     1       4.544   8.813  11.697  1.00  0.00     0.013 C 
HETATM    2  C2  UNL     1       3.728   9.090  12.967  1.00  0.00     0.015 C 
HETATM    3  C3  UNL     1       4.560   8.715  14.221  1.00  0.00     0.122 C 
HETATM    4  C4  UNL     1       3.783   8.864  15.533  1.00  0.00     0.033 C 
HETATM    5  C5  UNL     1       2.384   8.222  15.502  1.00  0.00     0.012 C 
HETATM    6  C6  UNL     1       1.538   8.651  14.275  1.00  0.00    -0.033 C 
HETATM    7  C7  UNL     1       1.288  10.192  14.402  1.00  0.00     0.016 C 
HETATM    8  C8  UNL     1       2.386   8.311  13.002  1.00  0.00     0.000 C 
HETATM    9  C9  UNL     1       1.512   8.375  11.752  1.00  0.00     0.007 C 
HETATM   10  C10 UNL     1       0.492   7.224  11.744  1.00  0.00     0.011 C 
HETATM   11  C11 UNL     1      -0.101   6.818  13.140  1.00  0.00    -0.029 C 
HETATM   12  C12 UNL     1       0.671   5.544  13.609  1.00  0.00     0.016 C 
HETATM   13  C13 UNL     1       0.081   8.003  14.182  1.00  0.00     0.032 C 
HETATM   14  C14 UNL     1      -0.637   7.767  15.551  1.00  0.00     0.124 C 
HETATM   15  C15 UNL     1      -2.116   7.357  15.399  1.00  0.00     0.042 C 
HETATM   16  C16 UNL     1      -2.224   6.171  14.453  1.00  0.00     0.029 C 
HETATM   17  C17 UNL     1      -3.513   5.557  14.063  1.00  0.00    -0.033 C 
HETATM   18  C18 UNL     1      -4.811   5.723  14.291  1.00  0.00     0.023 C 
HETATM   19  C25 UNL     1      -5.465   5.005  13.174  1.00  0.00     0.290 C 
HETATM   20  O5  UNL     1      -6.668   4.903  13.002  1.00  0.00    -0.260 OA
HETATM   21  O6  UNL     1      -4.514   4.546  12.298  1.00  0.00    -0.308 OA
HETATM   22  C26 UNL     1      -3.265   4.617  12.953  1.00  0.00     0.163 C 
HETATM   23  C27 UNL     1      -2.093   5.250  12.186  1.00  0.00     0.047 C 
HETATM   24  C28 UNL     1      -1.669   6.507  13.025  1.00  0.00    -0.026 C 
HETATM   25  C29 UNL     1      -2.466   7.711  12.391  1.00  0.00     0.016 C 
ENDROOT
BRANCH  18  26
HETATM   26  C19 UNL     1      -5.560   6.586  15.240  1.00  0.00     0.049 C 
BRANCH  26  27
HETATM   27  C20 UNL     1      -6.031   7.895  14.591  1.00  0.00     0.032 C 
BRANCH  27  28
HETATM   28  C21 UNL     1      -7.214   8.502  15.297  1.00  0.00    -0.019 C 
HETATM   29  C22 UNL     1      -8.496   8.079  15.268  1.00  0.00    -0.037 C 
BRANCH  29  30
HETATM   30  C23 UNL     1      -9.565   8.852  15.992  1.00  0.00     0.200 C 
BRANCH  30  31
HETATM   31  O3  UNL     1      -9.831   8.209  17.229  1.00  0.00    -0.397 OA
HETATM   32  H35 UNL     1     -10.452   8.781  17.710  1.00  0.00     0.209 HD
ENDBRANCH  30  31
ENDBRANCH  29  30
BRANCH  29  33
HETATM   33  C24 UNL     1      -8.976   6.867  14.516  1.00  0.00     0.200 C 
BRANCH  33  34
HETATM   34  O4  UNL     1     -10.140   6.347  15.146  1.00  0.00    -0.397 OA
HETATM   35  H38 UNL     1      -9.941   6.278  16.095  1.00  0.00     0.209 HD
ENDBRANCH  33  34
ENDBRANCH  29  33
ENDBRANCH  27  28
ENDBRANCH  26  27
ENDBRANCH  18  26
BRANCH  14  36
HETATM   36  O2  UNL     1       0.030   6.760  16.304  1.00  0.00    -0.395 OA
HETATM   37  H24 UNL     1      -0.391   6.710  17.179  1.00  0.00     0.210 HD
ENDBRANCH  14  36
BRANCH   3  38
HETATM   38  O1  UNL     1       5.009   7.363  14.106  1.00  0.00    -0.395 OA
HETATM   39  H6  UNL     1       5.520   7.150  14.906  1.00  0.00     0.210 HD
ENDBRANCH   3  38
TORSDOF 9
ENDMDL
MODEL 6
REMARK minimizedAffinity -8.90587711
REMARK  9 active torsions:
REMARK  status: ('A' for Active; 'I' for Inactive)
REMARK    1  A    between atoms: C3_3  and  O1_4 
REMARK    2  A    between atoms: C14_15  and  O2_16 
REMARK    3  A    between atoms: C18_20  and  C19_21 
REMARK    4  A    between atoms: C19_21  and  C20_22 
REMARK    5  A    between atoms: C20_22  and  C21_23 
REMARK    6  A    between atoms: C22_24  and  C23_25 
REMARK    7  A    between atoms: C22_24  and  C24_27 
REMARK    8  A    between atoms: C23_25  and  O3_26 
REMARK    9  A    between atoms: C24_27  and  O4_28 
ROOT
HETATM    1  C1  UNL     1      -6.693   3.490  12.214  1.00  0.00     0.013 C 
HETATM    2  C2  UNL     1      -7.007   4.441  13.378  1.00  0.00     0.015 C 
HETATM    3  C3  UNL     1      -8.368   5.142  13.135  1.00  0.00     0.122 C 
HETATM    4  C4  UNL     1      -8.713   6.187  14.201  1.00  0.00     0.033 C 
HETATM    5  C5  UNL     1      -7.561   7.159  14.512  1.00  0.00     0.012 C 
HETATM    6  C6  UNL     1      -6.218   6.445  14.813  1.00  0.00    -0.033 C 
HETATM    7  C7  UNL     1      -6.422   5.609  16.121  1.00  0.00     0.016 C 
HETATM    8  C8  UNL     1      -5.913   5.523  13.584  1.00  0.00     0.000 C 
HETATM    9  C9  UNL     1      -4.463   5.047  13.627  1.00  0.00     0.007 C 
HETATM   10  C10 UNL     1      -3.501   6.217  13.364  1.00  0.00     0.011 C 
HETATM   11  C11 UNL     1      -3.926   7.607  13.958  1.00  0.00    -0.029 C 
HETATM   12  C12 UNL     1      -4.546   8.431  12.786  1.00  0.00     0.016 C 
HETATM   13  C13 UNL     1      -4.981   7.407  15.127  1.00  0.00     0.032 C 
HETATM   14  C14 UNL     1      -5.332   8.718  15.904  1.00  0.00     0.124 C 
HETATM   15  C15 UNL     1      -4.088   9.494  16.380  1.00  0.00     0.042 C 
HETATM   16  C16 UNL     1      -3.147   9.725  15.206  1.00  0.00     0.029 C 
HETATM   17  C17 UNL     1      -1.841  10.408  15.333  1.00  0.00    -0.033 C 
HETATM   18  C18 UNL     1      -1.092  10.970  16.275  1.00  0.00     0.023 C 
HETATM   19  C25 UNL     1       0.263  11.005  15.680  1.00  0.00     0.290 C 
HETATM   20  O5  UNL     1       1.263  11.453  16.216  1.00  0.00    -0.260 OA
HETATM   21  O6  UNL     1       0.252  10.370  14.464  1.00  0.00    -0.308 OA
HETATM   22  C26 UNL     1      -1.096  10.229  14.071  1.00  0.00     0.163 C 
HETATM   23  C27 UNL     1      -1.551   8.850  13.565  1.00  0.00     0.047 C 
HETATM   24  C28 UNL     1      -2.660   8.377  14.570  1.00  0.00    -0.026 C 
HETATM   25  C29 UNL     1      -1.898   7.505  15.641  1.00  0.00     0.016 C 
ENDROOT
BRANCH  18  26
HETATM   26  C19 UNL     1      -1.354  11.302  17.699  1.00  0.00     0.049 C 
BRANCH  26  27
HETATM   27  C20 UNL     1      -0.165  12.014  18.360  1.00  0.00     0.032 C 
BRANCH  27  28
HETATM   28  C21 UNL     1       0.273  11.351  19.638  1.00  0.00    -0.019 C 
HETATM   29  C22 UNL     1       1.469  10.784  19.904  1.00  0.00    -0.037 C 
BRANCH  29  30
HETATM   30  C23 UNL     1       1.710  10.109  21.227  1.00  0.00     0.200 C 
BRANCH  30  31
HETATM   31  O3  UNL     1       2.802   9.213  21.087  1.00  0.00    -0.397 OA
HETATM   32  H35 UNL     1       2.992   8.867  21.974  1.00  0.00     0.209 HD
ENDBRANCH  30  31
ENDBRANCH  29  30
BRANCH  29  33
HETATM   33  C24 UNL     1       2.622  10.738  18.939  1.00  0.00     0.200 C 
BRANCH  33  34
HETATM   34  O4  UNL     1       2.503   9.588  18.109  1.00  0.00    -0.397 OA
HETATM   35  H38 UNL     1       2.335   8.832  18.697  1.00  0.00     0.209 HD
ENDBRANCH  33  34
ENDBRANCH  29  33
ENDBRANCH  27  28
ENDBRANCH  26  27
ENDBRANCH  18  26
BRANCH  14  36
HETATM   36  O2  UNL     1      -6.118   9.588  15.096  1.00  0.00    -0.395 OA
HETATM   37  H24 UNL     1      -6.389  10.345  15.645  1.00  0.00     0.210 HD
ENDBRANCH  14  36
BRANCH   3  38
HETATM   38  O1  UNL     1      -8.352   5.781  11.856  1.00  0.00    -0.395 OA
HETATM   39  H6  UNL     1      -9.211   6.219  11.732  1.00  0.00     0.210 HD
ENDBRANCH   3  38
TORSDOF 9
ENDMDL
MODEL 7
REMARK minimizedAffinity -8.7006216
REMARK  9 active torsions:
REMARK  status: ('A' for Active; 'I' for Inactive)
REMARK    1  A    between atoms: C3_3  and  O1_4 
REMARK    2  A    between atoms: C14_15  and  O2_16 
REMARK    3  A    between atoms: C18_20  and  C19_21 
REMARK    4  A    between atoms: C19_21  and  C20_22 
REMARK    5  A    between atoms: C20_22  and  C21_23 
REMARK    6  A    between atoms: C22_24  and  C23_25 
REMARK    7  A    between atoms: C22_24  and  C24_27 
REMARK    8  A    between atoms: C23_25  and  O3_26 
REMARK    9  A    between atoms: C24_27  and  O4_28 
ROOT
HETATM    1  C1  UNL     1      -5.729   6.158  15.078  1.00  0.00     0.013 C 
HETATM    2  C2  UNL     1      -4.718   7.228  15.517  1.00  0.00     0.015 C 
HETATM    3  C3  UNL     1      -5.393   8.623  15.520  1.00  0.00     0.122 C 
HETATM    4  C4  UNL     1      -4.427   9.766  15.848  1.00  0.00     0.033 C 
HETATM    5  C5  UNL     1      -3.112   9.715  15.051  1.00  0.00     0.012 C 
HETATM    6  C6  UNL     1      -2.414   8.332  15.104  1.00  0.00    -0.033 C 
HETATM    7  C7  UNL     1      -2.007   8.076  16.595  1.00  0.00     0.016 C 
HETATM    8  C8  UNL     1      -3.461   7.278  14.606  1.00  0.00     0.000 C 
HETATM    9  C9  UNL     1      -2.773   5.951  14.298  1.00  0.00     0.007 C 
HETATM   10  C10 UNL     1      -1.874   6.084  13.057  1.00  0.00     0.011 C 
HETATM   11  C11 UNL     1      -1.128   7.455  12.888  1.00  0.00    -0.029 C 
HETATM   12  C12 UNL     1      -1.939   8.288  11.845  1.00  0.00     0.016 C 
HETATM   13  C13 UNL     1      -1.050   8.215  14.279  1.00  0.00     0.032 C 
HETATM   14  C14 UNL     1      -0.170   9.507  14.254  1.00  0.00     0.124 C 
HETATM   15  C15 UNL     1       1.229   9.278  13.646  1.00  0.00     0.042 C 
HETATM   16  C16 UNL     1       1.092   8.618  12.282  1.00  0.00     0.029 C 
HETATM   17  C17 UNL     1       2.251   8.228  11.449  1.00  0.00    -0.033 C 
HETATM   18  C18 UNL     1       3.577   8.257  11.501  1.00  0.00     0.023 C 
HETATM   19  C25 UNL     1       3.997   7.262  10.488  1.00  0.00     0.290 C 
HETATM   20  O5  UNL     1       5.149   6.976  10.208  1.00  0.00    -0.260 OA
HETATM   21  O6  UNL     1       2.893   6.632   9.972  1.00  0.00    -0.308 OA
HETATM   22  C26 UNL     1       1.762   7.397  10.331  1.00  0.00     0.163 C 
HETATM   23  C27 UNL     1       0.555   6.650  10.924  1.00  0.00     0.047 C 
HETATM   24  C28 UNL     1       0.373   7.228  12.372  1.00  0.00    -0.026 C 
HETATM   25  C29 UNL     1       1.179   6.248  13.309  1.00  0.00     0.016 C 
ENDROOT
BRANCH  18  26
HETATM   26  C19 UNL     1       4.530   8.890  12.449  1.00  0.00     0.049 C 
BRANCH  26  27
HETATM   27  C20 UNL     1       5.045   7.903  13.505  1.00  0.00     0.032 C 
BRANCH  27  28
HETATM   28  C21 UNL     1       6.531   7.680  13.418  1.00  0.00    -0.019 C 
HETATM   29  C22 UNL     1       7.485   8.154  14.248  1.00  0.00    -0.037 C 
BRANCH  29  30
HETATM   30  C23 UNL     1       8.938   7.878  13.968  1.00  0.00     0.200 C 
BRANCH  30  31
HETATM   31  O3  UNL     1       9.477   8.973  13.244  1.00  0.00    -0.397 OA
HETATM   32  H35 UNL     1      10.430   8.809  13.163  1.00  0.00     0.209 HD
ENDBRANCH  30  31
ENDBRANCH  29  30
BRANCH  29  33
HETATM   33  C24 UNL     1       7.213   8.998  15.463  1.00  0.00     0.200 C 
BRANCH  33  34
HETATM   34  O4  UNL     1       7.169   8.169  16.618  1.00  0.00    -0.397 OA
HETATM   35  H38 UNL     1       6.582   7.423  16.409  1.00  0.00     0.209 HD
ENDBRANCH  33  34
ENDBRANCH  29  33
ENDBRANCH  27  28
ENDBRANCH  26  27
ENDBRANCH  18  26
BRANCH  14  36
HETATM   36  O2  UNL     1      -0.812  10.542  13.518  1.00  0.00    -0.395 OA
HETATM   37  H24 UNL     1      -0.277  11.350  13.605  1.00  0.00     0.210 HD
ENDBRANCH  14  36
BRANCH   3  38
HETATM   38  O1  UNL     1      -5.977   8.871  14.238  1.00  0.00    -0.395 OA
HETATM   39  H6  UNL     1      -6.386   9.753  14.263  1.00  0.00     0.210 HD
ENDBRANCH   3  38
TORSDOF 9
ENDMDL
MODEL 8
REMARK minimizedAffinity -8.67296314
REMARK  9 active torsions:
REMARK  status: ('A' for Active; 'I' for Inactive)
REMARK    1  A    between atoms: C3_3  and  O1_4 
REMARK    2  A    between atoms: C14_15  and  O2_16 
REMARK    3  A    between atoms: C18_20  and  C19_21 
REMARK    4  A    between atoms: C19_21  and  C20_22 
REMARK    5  A    between atoms: C20_22  and  C21_23 
REMARK    6  A    between atoms: C22_24  and  C23_25 
REMARK    7  A    between atoms: C22_24  and  C24_27 
REMARK    8  A    between atoms: C23_25  and  O3_26 
REMARK    9  A    between atoms: C24_27  and  O4_28 
ROOT
HETATM    1  C1  UNL     1      -8.238   8.765  15.372  1.00  0.00     0.013 C 
HETATM    2  C2  UNL     1      -7.473   7.472  15.056  1.00  0.00     0.015 C 
HETATM    3  C3  UNL     1      -7.672   6.447  16.202  1.00  0.00     0.122 C 
HETATM    4  C4  UNL     1      -6.860   5.162  16.016  1.00  0.00     0.033 C 
HETATM    5  C5  UNL     1      -5.385   5.407  15.653  1.00  0.00     0.012 C 
HETATM    6  C6  UNL     1      -5.199   6.387  14.465  1.00  0.00    -0.033 C 
HETATM    7  C7  UNL     1      -5.833   5.710  13.203  1.00  0.00     0.016 C 
HETATM    8  C8  UNL     1      -5.953   7.706  14.847  1.00  0.00     0.000 C 
HETATM    9  C9  UNL     1      -5.546   8.840  13.910  1.00  0.00     0.007 C 
HETATM   10  C10 UNL     1      -4.086   9.251  14.159  1.00  0.00     0.011 C 
HETATM   11  C11 UNL     1      -3.094   8.090  14.521  1.00  0.00    -0.029 C 
HETATM   12  C12 UNL     1      -2.904   8.120  16.071  1.00  0.00     0.016 C 
HETATM   13  C13 UNL     1      -3.686   6.692  14.053  1.00  0.00     0.032 C 
HETATM   14  C14 UNL     1      -2.694   5.493  14.207  1.00  0.00     0.124 C 
HETATM   15  C15 UNL     1      -1.309   5.766  13.587  1.00  0.00     0.042 C 
HETATM   16  C16 UNL     1      -0.755   7.076  14.128  1.00  0.00     0.029 C 
HETATM   17  C17 UNL     1       0.542   7.647  13.703  1.00  0.00    -0.033 C 
HETATM   18  C18 UNL     1       1.539   7.361  12.873  1.00  0.00     0.023 C 
HETATM   19  C25 UNL     1       2.234   8.655  12.689  1.00  0.00     0.290 C 
HETATM   20  O5  UNL     1       3.222   8.839  11.997  1.00  0.00    -0.260 OA
HETATM   21  O6  UNL     1       1.545   9.647  13.340  1.00  0.00    -0.308 OA
HETATM   22  C26 UNL     1       0.639   9.025  14.224  1.00  0.00     0.163 C 
HETATM   23  C27 UNL     1      -0.816   9.524  14.223  1.00  0.00     0.047 C 
HETATM   24  C28 UNL     1      -1.684   8.292  13.786  1.00  0.00    -0.026 C 
HETATM   25  C29 UNL     1      -1.848   8.440  12.224  1.00  0.00     0.016 C 
ENDROOT
BRANCH  18  26
HETATM   26  C19 UNL     1       1.855   6.156  12.063  1.00  0.00     0.049 C 
BRANCH  26  27
HETATM   27  C20 UNL     1       0.871   5.961  10.900  1.00  0.00     0.032 C 
BRANCH  27  28
HETATM   28  C21 UNL     1       1.150   6.879   9.742  1.00  0.00    -0.019 C 
HETATM   29  C22 UNL     1       2.189   6.827   8.881  1.00  0.00    -0.037 C 
BRANCH  29  30
HETATM   30  C23 UNL     1       2.340   7.875   7.811  1.00  0.00     0.200 C 
BRANCH  30  31
HETATM   31  O3  UNL     1       1.961   7.309   6.566  1.00  0.00    -0.397 OA
HETATM   32  H35 UNL     1       1.978   8.032   5.917  1.00  0.00     0.209 HD
ENDBRANCH  30  31
ENDBRANCH  29  30
BRANCH  29  33
HETATM   33  C24 UNL     1       3.275   5.786   8.919  1.00  0.00     0.200 C 
BRANCH  33  34
HETATM   34  O4  UNL     1       3.156   4.934   7.787  1.00  0.00    -0.397 OA
HETATM   35  H38 UNL     1       2.225   4.657   7.737  1.00  0.00     0.209 HD
ENDBRANCH  33  34
ENDBRANCH  29  33
ENDBRANCH  27  28
ENDBRANCH  26  27
ENDBRANCH  18  26
BRANCH  14  36
HETATM   36  O2  UNL     1      -2.511   5.162  15.580  1.00  0.00    -0.395 OA
HETATM   37  H24 UNL     1      -1.964   4.359  15.624  1.00  0.00     0.210 HD
ENDBRANCH  14  36
BRANCH   3  38
HETATM   38  O1  UNL     1      -7.301   7.047  17.446  1.00  0.00    -0.395 OA
HETATM   39  H6  UNL     1      -7.427   6.384  18.145  1.00  0.00     0.210 HD
ENDBRANCH   3  38
TORSDOF 9
ENDMDL
MODEL 9
REMARK minimizedAffinity -8.64642429
REMARK  9 active torsions:
REMARK  status: ('A' for Active; 'I' for Inactive)
REMARK    1  A    between atoms: C3_3  and  O1_4 
REMARK    2  A    between atoms: C14_15  and  O2_16 
REMARK    3  A    between atoms: C18_20  and  C19_21 
REMARK    4  A    between atoms: C19_21  and  C20_22 
REMARK    5  A    between atoms: C20_22  and  C21_23 
REMARK    6  A    between atoms: C22_24  and  C23_25 
REMARK    7  A    between atoms: C22_24  and  C24_27 
REMARK    8  A    between atoms: C23_25  and  O3_26 
REMARK    9  A    between atoms: C24_27  and  O4_28 
ROOT
HETATM    1  C1  UNL     1       0.786   4.914  11.933  1.00  0.00     0.013 C 
HETATM    2  C2  UNL     1       0.298   6.332  12.266  1.00  0.00     0.015 C 
HETATM    3  C3  UNL     1       1.301   7.024  13.223  1.00  0.00     0.122 C 
HETATM    4  C4  UNL     1       0.840   8.409  13.689  1.00  0.00     0.033 C 
HETATM    5  C5  UNL     1      -0.616   8.444  14.185  1.00  0.00     0.012 C 
HETATM    6  C6  UNL     1      -1.619   7.803  13.192  1.00  0.00    -0.033 C 
HETATM    7  C7  UNL     1      -1.601   8.673  11.889  1.00  0.00     0.016 C 
HETATM    8  C8  UNL     1      -1.112   6.347  12.916  1.00  0.00     0.000 C 
HETATM    9  C9  UNL     1      -2.202   5.527  12.231  1.00  0.00     0.007 C 
HETATM   10  C10 UNL     1      -3.365   5.256  13.200  1.00  0.00     0.011 C 
HETATM   11  C11 UNL     1      -3.715   6.415  14.199  1.00  0.00    -0.029 C 
HETATM   12  C12 UNL     1      -3.067   6.044  15.571  1.00  0.00     0.016 C 
HETATM   13  C13 UNL     1      -3.147   7.797  13.662  1.00  0.00     0.032 C 
HETATM   14  C14 UNL     1      -3.597   9.041  14.494  1.00  0.00     0.124 C 
HETATM   15  C15 UNL     1      -5.120   9.098  14.727  1.00  0.00     0.042 C 
HETATM   16  C16 UNL     1      -5.599   7.779  15.313  1.00  0.00     0.029 C 
HETATM   17  C17 UNL     1      -7.018   7.493  15.618  1.00  0.00    -0.033 C 
HETATM   18  C18 UNL     1      -8.202   8.090  15.532  1.00  0.00     0.023 C 
HETATM   19  C25 UNL     1      -9.172   6.973  15.606  1.00  0.00     0.290 C 
HETATM   20  O5  UNL     1     -10.386   7.084  15.568  1.00  0.00    -0.260 OA
HETATM   21  O6  UNL     1      -8.500   5.777  15.627  1.00  0.00    -0.308 OA
HETATM   22  C26 UNL     1      -7.149   6.054  15.924  1.00  0.00     0.163 C 
HETATM   23  C27 UNL     1      -6.075   5.390  15.046  1.00  0.00     0.047 C 
HETATM   24  C28 UNL     1      -5.303   6.571  14.359  1.00  0.00    -0.026 C 
HETATM   25  C29 UNL     1      -6.020   6.775  12.969  1.00  0.00     0.016 C 
ENDROOT
BRANCH  18  26
HETATM   26  C19 UNL     1      -8.600   9.481  15.198  1.00  0.00     0.049 C 
BRANCH  26  27
HETATM   27  C20 UNL     1     -10.090   9.741  15.467  1.00  0.00     0.032 C 
BRANCH  27  28
HETATM   28  C21 UNL     1     -10.866  10.031  14.211  1.00  0.00    -0.019 C 
HETATM   29  C22 UNL     1     -12.173   9.786  13.976  1.00  0.00    -0.037 C 
BRANCH  29  30
HETATM   30  C23 UNL     1     -12.770  10.088  12.628  1.00  0.00     0.200 C 
BRANCH  30  31
HETATM   31  O3  UNL     1     -11.863   9.658  11.623  1.00  0.00    -0.397 OA
HETATM   32  H35 UNL     1     -12.315   9.779  10.772  1.00  0.00     0.209 HD
ENDBRANCH  30  31
ENDBRANCH  29  30
BRANCH  29  33
HETATM   33  C24 UNL     1     -13.119   9.180  14.976  1.00  0.00     0.200 C 
BRANCH  33  34
HETATM   34  O4  UNL     1     -14.024   8.309  14.309  1.00  0.00    -0.397 OA
HETATM   35  H38 UNL     1     -14.378   8.800  13.547  1.00  0.00     0.209 HD
ENDBRANCH  33  34
ENDBRANCH  29  33
ENDBRANCH  27  28
ENDBRANCH  26  27
ENDBRANCH  18  26
BRANCH  14  36
HETATM   36  O2  UNL     1      -2.951   9.060  15.763  1.00  0.00    -0.395 OA
HETATM   37  H24 UNL     1      -3.188   9.893  16.208  1.00  0.00     0.210 HD
ENDBRANCH  14  36
BRANCH   3  38
HETATM   38  O1  UNL     1       1.506   6.200  14.374  1.00  0.00    -0.395 OA
HETATM   39  H6  UNL     1       2.131   6.659  14.961  1.00  0.00     0.210 HD
ENDBRANCH   3  38
TORSDOF 9
ENDMDL
