MODEL 1
REMARK minimizedAffinity -9.1550684
REMARK CNNscore 0.555417359
REMARK CNNaffinity 7.00422287
REMARK  6 active torsions:
REMARK  status: ('A' for Active; 'I' for Inactive)
REMARK    1  A    between atoms: C4_4  and  C5_5 
REMARK    2  A    between atoms: C5_5  and  C6_6 
REMARK    3  A    between atoms: C6_6  and  C7_7 
REMARK    4  A    between atoms: C7_7  and  C9_9 
REMARK    5  A    between atoms: C16_16  and  O1_17 
REMARK    6  A    between atoms: C19_20  and  O2_21 
ROOT
HETATM    1  C9  UNL     1      -3.401  50.181 -24.521  1.00  0.00    -0.002 C 
HETATM    2  C10 UNL     1      -4.751  49.455 -24.274  1.00  0.00     0.006 C 
HETATM    3  C11 UNL     1      -4.965  49.400 -22.745  1.00  0.00     0.011 C 
HETATM    4  C12 UNL     1      -3.539  49.336 -22.185  1.00  0.00    -0.032 C 
HETATM    5  C13 UNL     1      -3.055  47.870 -22.393  1.00  0.00     0.016 C 
HETATM    6  C14 UNL     1      -3.336  49.719 -20.693  1.00  0.00     0.006 C 
HETATM    7  C15 UNL     1      -4.177  48.924 -19.691  1.00  0.00     0.038 C 
HETATM    8  C16 UNL     1      -3.963  49.492 -18.289  1.00  0.00     0.123 C 
HETATM    9  C17 UNL     1      -2.512  49.338 -17.791  1.00  0.00     0.026 C 
HETATM   10  C18 UNL     1      -2.306  50.233 -16.556  1.00  0.00     0.039 C 
HETATM   11  C19 UNL     1      -0.917  50.054 -15.942  1.00  0.00     0.118 C 
HETATM   12  C20 UNL     1       0.191  49.897 -16.985  1.00  0.00     0.032 C 
HETATM   13  C21 UNL     1      -0.244  50.409 -18.357  1.00  0.00     0.013 C 
HETATM   14  C22 UNL     1      -1.445  49.624 -18.866  1.00  0.00    -0.025 A 
HETATM   15  C23 UNL     1      -1.159  48.467 -19.800  1.00  0.00     0.021 A 
HETATM   16  C24 UNL     1      -1.828  49.705 -20.361  1.00  0.00    -0.027 A 
HETATM   17  C25 UNL     1      -0.968  50.544 -21.324  1.00  0.00     0.011 C 
HETATM   18  C26 UNL     1      -1.308  50.346 -22.821  1.00  0.00     0.011 C 
HETATM   19  C27 UNL     1      -2.823  50.419 -23.079  1.00  0.00    -0.032 C 
HETATM   20  C28 UNL     1      -3.248  51.902 -22.752  1.00  0.00     0.016 C 
ENDROOT
BRANCH   1  21
HETATM   21  C7  UNL     1      -2.455  49.649 -25.636  1.00  0.00    -0.014 C 
HETATM   22  C8  UNL     1      -2.939  48.451 -26.451  1.00  0.00     0.010 C 
BRANCH  21  23
HETATM   23  C6  UNL     1      -1.962  50.778 -26.585  1.00  0.00     0.008 C 
BRANCH  23  24
HETATM   24  C5  UNL     1      -1.234  51.951 -25.925  1.00  0.00     0.028 C 
BRANCH  24  25
HETATM   25  C4  UNL     1       0.246  51.686 -25.837  1.00  0.00    -0.025 C 
HETATM   26  C2  UNL     1       1.145  51.712 -26.839  1.00  0.00    -0.091 C 
HETATM   27  C1  UNL     1       0.838  52.072 -28.268  1.00  0.00     0.042 C 
HETATM   28  C3  UNL     1       2.592  51.377 -26.582  1.00  0.00     0.042 C 
ENDBRANCH  24  25
ENDBRANCH  23  24
ENDBRANCH  21  23
ENDBRANCH   1  21
BRANCH   8  29
HETATM   29  O1  UNL     1      -4.854  48.826 -17.389  1.00  0.00    -0.395 OA
HETATM   30  H28 UNL     1      -4.672  47.872 -17.439  1.00  0.00     0.210 HD
ENDBRANCH   8  29
BRANCH  11  31
HETATM   31  O2  UNL     1      -0.653  51.193 -15.122  1.00  0.00    -0.396 OA
HETATM   32  H33 UNL     1       0.206  51.052 -14.689  1.00  0.00     0.210 HD
ENDBRANCH  11  31
TORSDOF 6
ENDMDL
MODEL 2
REMARK minimizedAffinity -7.61514187
REMARK CNNscore 0.53335762
REMARK CNNaffinity 5.88346148
REMARK  6 active torsions:
REMARK  status: ('A' for Active; 'I' for Inactive)
REMARK    1  A    between atoms: C4_4  and  C5_5 
REMARK    2  A    between atoms: C5_5  and  C6_6 
REMARK    3  A    between atoms: C6_6  and  C7_7 
REMARK    4  A    between atoms: C7_7  and  C9_9 
REMARK    5  A    between atoms: C16_16  and  O1_17 
REMARK    6  A    between atoms: C19_20  and  O2_21 
ROOT
HETATM    1  C9  UNL     1      -5.943  46.358 -30.837  1.00  0.00    -0.002 C 
HETATM    2  C10 UNL     1      -5.485  47.644 -30.097  1.00  0.00     0.006 C 
HETATM    3  C11 UNL     1      -6.578  47.988 -29.062  1.00  0.00     0.011 C 
HETATM    4  C12 UNL     1      -7.865  47.469 -29.713  1.00  0.00    -0.032 C 
HETATM    5  C13 UNL     1      -8.255  48.514 -30.801  1.00  0.00     0.016 C 
HETATM    6  C14 UNL     1      -9.093  47.232 -28.790  1.00  0.00     0.006 C 
HETATM    7  C15 UNL     1      -9.540  48.446 -27.970  1.00  0.00     0.038 C 
HETATM    8  C16 UNL     1     -10.669  48.029 -27.028  1.00  0.00     0.123 C 
HETATM    9  C17 UNL     1     -11.938  47.570 -27.772  1.00  0.00     0.026 C 
HETATM   10  C18 UNL     1     -12.869  46.848 -26.783  1.00  0.00     0.039 C 
HETATM   11  C19 UNL     1     -14.198  46.454 -27.426  1.00  0.00     0.118 C 
HETATM   12  C20 UNL     1     -14.050  45.953 -28.865  1.00  0.00     0.032 C 
HETATM   13  C21 UNL     1     -12.617  45.522 -29.171  1.00  0.00     0.013 C 
HETATM   14  C22 UNL     1     -11.658  46.694 -29.009  1.00  0.00    -0.025 A 
HETATM   15  C23 UNL     1     -11.301  47.462 -30.264  1.00  0.00     0.021 A 
HETATM   16  C24 UNL     1     -10.238  46.602 -29.612  1.00  0.00    -0.027 A 
HETATM   17  C25 UNL     1      -9.825  45.347 -30.402  1.00  0.00     0.011 C 
HETATM   18  C26 UNL     1      -8.479  45.482 -31.155  1.00  0.00     0.011 C 
HETATM   19  C27 UNL     1      -7.377  46.073 -30.259  1.00  0.00    -0.032 C 
HETATM   20  C28 UNL     1      -7.113  45.002 -29.132  1.00  0.00     0.016 C 
ENDROOT
BRANCH   1  21
HETATM   21  C7  UNL     1      -5.713  46.252 -32.372  1.00  0.00    -0.014 C 
HETATM   22  C8  UNL     1      -5.787  47.546 -33.181  1.00  0.00     0.010 C 
BRANCH  21  23
HETATM   23  C6  UNL     1      -4.415  45.474 -32.725  1.00  0.00     0.008 C 
BRANCH  23  24
HETATM   24  C5  UNL     1      -4.302  44.051 -32.172  1.00  0.00     0.028 C 
BRANCH  24  25
HETATM   25  C4  UNL     1      -4.914  43.055 -33.120  1.00  0.00    -0.025 C 
HETATM   26  C2  UNL     1      -4.321  41.981 -33.677  1.00  0.00    -0.091 C 
HETATM   27  C1  UNL     1      -2.910  41.536 -33.408  1.00  0.00     0.042 C 
HETATM   28  C3  UNL     1      -5.074  41.105 -34.646  1.00  0.00     0.042 C 
ENDBRANCH  24  25
ENDBRANCH  23  24
ENDBRANCH  21  23
ENDBRANCH   1  21
BRANCH   8  29
HETATM   29  O1  UNL     1     -10.983  49.138 -26.179  1.00  0.00    -0.395 OA
HETATM   30  H28 UNL     1     -11.225  49.890 -26.747  1.00  0.00     0.210 HD
ENDBRANCH   8  29
BRANCH  11  31
HETATM   31  O2  UNL     1     -14.790  45.437 -26.618  1.00  0.00    -0.396 OA
HETATM   32  H33 UNL     1     -15.660  45.227 -26.998  1.00  0.00     0.210 HD
ENDBRANCH  11  31
TORSDOF 6
ENDMDL
MODEL 3
REMARK minimizedAffinity -7.68631268
REMARK CNNscore 0.525014639
REMARK CNNaffinity 6.63542175
REMARK  6 active torsions:
REMARK  status: ('A' for Active; 'I' for Inactive)
REMARK    1  A    between atoms: C4_4  and  C5_5 
REMARK    2  A    between atoms: C5_5  and  C6_6 
REMARK    3  A    between atoms: C6_6  and  C7_7 
REMARK    4  A    between atoms: C7_7  and  C9_9 
REMARK    5  A    between atoms: C16_16  and  O1_17 
REMARK    6  A    between atoms: C19_20  and  O2_21 
ROOT
HETATM    1  C9  UNL     1      -1.421  50.880 -21.846  1.00  0.00    -0.002 C 
HETATM    2  C10 UNL     1      -1.599  51.815 -20.619  1.00  0.00     0.006 C 
HETATM    3  C11 UNL     1      -2.026  50.927 -19.429  1.00  0.00     0.011 C 
HETATM    4  C12 UNL     1      -2.809  49.788 -20.093  1.00  0.00    -0.032 C 
HETATM    5  C13 UNL     1      -4.210  50.372 -20.447  1.00  0.00     0.016 C 
HETATM    6  C14 UNL     1      -3.008  48.482 -19.276  1.00  0.00     0.006 C 
HETATM    7  C15 UNL     1      -3.674  48.658 -17.909  1.00  0.00     0.038 C 
HETATM    8  C16 UNL     1      -3.688  47.316 -17.178  1.00  0.00     0.123 C 
HETATM    9  C17 UNL     1      -4.541  46.249 -17.893  1.00  0.00     0.026 C 
HETATM   10  C18 UNL     1      -4.218  44.866 -17.301  1.00  0.00     0.039 C 
HETATM   11  C19 UNL     1      -5.102  43.767 -17.890  1.00  0.00     0.118 C 
HETATM   12  C20 UNL     1      -5.356  43.933 -19.390  1.00  0.00     0.032 C 
HETATM   13  C21 UNL     1      -4.325  44.853 -20.042  1.00  0.00     0.013 C 
HETATM   14  C22 UNL     1      -4.384  46.245 -19.427  1.00  0.00    -0.025 A 
HETATM   15  C23 UNL     1      -5.218  47.278 -20.154  1.00  0.00     0.021 A 
HETATM   16  C24 UNL     1      -3.711  47.428 -20.159  1.00  0.00    -0.027 A 
HETATM   17  C25 UNL     1      -3.026  47.193 -21.518  1.00  0.00     0.011 C 
HETATM   18  C26 UNL     1      -2.611  48.490 -22.255  1.00  0.00     0.011 C 
HETATM   19  C27 UNL     1      -1.878  49.469 -21.324  1.00  0.00    -0.032 C 
HETATM   20  C28 UNL     1      -0.521  48.764 -20.934  1.00  0.00     0.016 C 
ENDROOT
BRANCH   1  21
HETATM   21  C7  UNL     1      -1.915  51.366 -23.238  1.00  0.00    -0.014 C 
HETATM   22  C8  UNL     1      -3.092  52.340 -23.262  1.00  0.00     0.010 C 
BRANCH  21  23
HETATM   23  C6  UNL     1      -0.757  51.905 -24.125  1.00  0.00     0.008 C 
BRANCH  23  24
HETATM   24  C5  UNL     1      -0.559  51.216 -25.477  1.00  0.00     0.028 C 
BRANCH  24  25
HETATM   25  C4  UNL     1       0.868  51.341 -25.941  1.00  0.00    -0.025 C 
HETATM   26  C2  UNL     1       1.305  51.644 -27.179  1.00  0.00    -0.091 C 
HETATM   27  C1  UNL     1       0.421  51.975 -28.351  1.00  0.00     0.042 C 
HETATM   28  C3  UNL     1       2.780  51.687 -27.483  1.00  0.00     0.042 C 
ENDBRANCH  24  25
ENDBRANCH  23  24
ENDBRANCH  21  23
ENDBRANCH   1  21
BRANCH   8  29
HETATM   29  O1  UNL     1      -4.192  47.525 -15.855  1.00  0.00    -0.395 OA
HETATM   30  H28 UNL     1      -5.076  47.922 -15.931  1.00  0.00     0.210 HD
ENDBRANCH   8  29
BRANCH  11  31
HETATM   31  O2  UNL     1      -4.465  42.514 -17.642  1.00  0.00    -0.396 OA
HETATM   32  H33 UNL     1      -5.054  41.813 -17.969  1.00  0.00     0.210 HD
ENDBRANCH  11  31
TORSDOF 6
ENDMDL
MODEL 4
REMARK minimizedAffinity -7.98871899
REMARK CNNscore 0.396505028
REMARK CNNaffinity 6.66987848
REMARK  6 active torsions:
REMARK  status: ('A' for Active; 'I' for Inactive)
REMARK    1  A    between atoms: C4_4  and  C5_5 
REMARK    2  A    between atoms: C5_5  and  C6_6 
REMARK    3  A    between atoms: C6_6  and  C7_7 
REMARK    4  A    between atoms: C7_7  and  C9_9 
REMARK    5  A    between atoms: C16_16  and  O1_17 
REMARK    6  A    between atoms: C19_20  and  O2_21 
ROOT
HETATM    1  C9  UNL     1      -3.278  51.637 -23.366  1.00  0.00    -0.002 C 
HETATM    2  C10 UNL     1      -4.483  51.322 -24.295  1.00  0.00     0.006 C 
HETATM    3  C11 UNL     1      -5.340  50.253 -23.582  1.00  0.00     0.011 C 
HETATM    4  C12 UNL     1      -4.314  49.455 -22.768  1.00  0.00    -0.032 C 
HETATM    5  C13 UNL     1      -3.589  48.518 -23.779  1.00  0.00     0.016 C 
HETATM    6  C14 UNL     1      -4.846  48.595 -21.588  1.00  0.00     0.006 C 
HETATM    7  C15 UNL     1      -5.923  47.571 -21.957  1.00  0.00     0.038 C 
HETATM    8  C16 UNL     1      -6.432  46.894 -20.685  1.00  0.00     0.123 C 
HETATM    9  C17 UNL     1      -5.344  46.074 -19.962  1.00  0.00     0.026 C 
HETATM   10  C18 UNL     1      -5.831  45.733 -18.543  1.00  0.00     0.039 C 
HETATM   11  C19 UNL     1      -4.847  44.831 -17.798  1.00  0.00     0.118 C 
HETATM   12  C20 UNL     1      -3.382  45.191 -18.054  1.00  0.00     0.032 C 
HETATM   13  C21 UNL     1      -3.233  46.612 -18.595  1.00  0.00     0.013 C 
HETATM   14  C22 UNL     1      -3.964  46.759 -19.923  1.00  0.00    -0.025 A 
HETATM   15  C23 UNL     1      -3.136  46.592 -21.180  1.00  0.00     0.021 A 
HETATM   16  C24 UNL     1      -3.654  47.971 -20.830  1.00  0.00    -0.027 A 
HETATM   17  C25 UNL     1      -2.584  48.991 -20.401  1.00  0.00     0.011 C 
HETATM   18  C26 UNL     1      -2.197  50.011 -21.499  1.00  0.00     0.011 C 
HETATM   19  C27 UNL     1      -3.436  50.622 -22.176  1.00  0.00    -0.032 C 
HETATM   20  C28 UNL     1      -4.164  51.471 -21.063  1.00  0.00     0.016 C 
ENDROOT
BRANCH   1  21
HETATM   21  C7  UNL     1      -1.874  51.842 -24.002  1.00  0.00    -0.014 C 
HETATM   22  C8  UNL     1      -0.785  52.443 -23.115  1.00  0.00     0.010 C 
BRANCH  21  23
HETATM   23  C6  UNL     1      -1.345  50.559 -24.702  1.00  0.00     0.008 C 
BRANCH  23  24
HETATM   24  C5  UNL     1      -0.988  50.691 -26.185  1.00  0.00     0.028 C 
BRANCH  24  25
HETATM   25  C4  UNL     1       0.495  50.872 -26.368  1.00  0.00    -0.025 C 
HETATM   26  C2  UNL     1       1.121  51.658 -27.266  1.00  0.00    -0.091 C 
HETATM   27  C1  UNL     1       0.433  52.567 -28.248  1.00  0.00     0.042 C 
HETATM   28  C3  UNL     1       2.626  51.689 -27.342  1.00  0.00     0.042 C 
ENDBRANCH  24  25
ENDBRANCH  23  24
ENDBRANCH  21  23
ENDBRANCH   1  21
BRANCH   8  29
HETATM   29  O1  UNL     1      -7.526  46.039 -21.032  1.00  0.00    -0.395 OA
HETATM   30  H28 UNL     1      -7.210  45.403 -21.696  1.00  0.00     0.210 HD
ENDBRANCH   8  29
BRANCH  11  31
HETATM   31  O2  UNL     1      -5.134  44.929 -16.403  1.00  0.00    -0.396 OA
HETATM   32  H33 UNL     1      -4.544  44.314 -15.936  1.00  0.00     0.210 HD
ENDBRANCH  11  31
TORSDOF 6
ENDMDL
MODEL 5
REMARK minimizedAffinity -8.34302807
REMARK CNNscore 0.375269979
REMARK CNNaffinity 6.53454828
REMARK  6 active torsions:
REMARK  status: ('A' for Active; 'I' for Inactive)
REMARK    1  A    between atoms: C4_4  and  C5_5 
REMARK    2  A    between atoms: C5_5  and  C6_6 
REMARK    3  A    between atoms: C6_6  and  C7_7 
REMARK    4  A    between atoms: C7_7  and  C9_9 
REMARK    5  A    between atoms: C16_16  and  O1_17 
REMARK    6  A    between atoms: C19_20  and  O2_21 
ROOT
HETATM    1  C9  UNL     1      -2.731  50.800 -24.912  1.00  0.00    -0.002 C 
HETATM    2  C10 UNL     1      -4.022  51.650 -25.061  1.00  0.00     0.006 C 
HETATM    3  C11 UNL     1      -4.856  51.440 -23.778  1.00  0.00     0.011 C 
HETATM    4  C12 UNL     1      -4.497  50.013 -23.346  1.00  0.00    -0.032 C 
HETATM    5  C13 UNL     1      -5.295  49.060 -24.286  1.00  0.00     0.016 C 
HETATM    6  C14 UNL     1      -4.788  49.614 -21.873  1.00  0.00     0.006 C 
HETATM    7  C15 UNL     1      -6.238  49.800 -21.417  1.00  0.00     0.038 C 
HETATM    8  C16 UNL     1      -6.342  49.486 -19.925  1.00  0.00     0.123 C 
HETATM    9  C17 UNL     1      -6.013  48.017 -19.593  1.00  0.00     0.026 C 
HETATM   10  C18 UNL     1      -5.795  47.880 -18.076  1.00  0.00     0.039 C 
HETATM   11  C19 UNL     1      -5.566  46.428 -17.656  1.00  0.00     0.118 C 
HETATM   12  C20 UNL     1      -4.698  45.643 -18.642  1.00  0.00     0.032 C 
HETATM   13  C21 UNL     1      -3.888  46.568 -19.548  1.00  0.00     0.013 C 
HETATM   14  C22 UNL     1      -4.812  47.450 -20.377  1.00  0.00    -0.025 A 
HETATM   15  C23 UNL     1      -5.136  46.973 -21.777  1.00  0.00     0.021 A 
HETATM   16  C24 UNL     1      -4.250  48.190 -21.612  1.00  0.00    -0.027 A 
HETATM   17  C25 UNL     1      -2.776  47.996 -22.012  1.00  0.00     0.011 C 
HETATM   18  C26 UNL     1      -2.406  48.590 -23.392  1.00  0.00     0.011 C 
HETATM   19  C27 UNL     1      -2.936  50.024 -23.560  1.00  0.00    -0.032 C 
HETATM   20  C28 UNL     1      -2.152  50.902 -22.509  1.00  0.00     0.016 C 
ENDROOT
BRANCH   1  21
HETATM   21  C7  UNL     1      -2.192  50.029 -26.150  1.00  0.00    -0.014 C 
HETATM   22  C8  UNL     1      -2.812  48.665 -26.450  1.00  0.00     0.010 C 
BRANCH  21  23
HETATM   23  C6  UNL     1      -2.178  50.904 -27.435  1.00  0.00     0.008 C 
BRANCH  23  24
HETATM   24  C5  UNL     1      -1.153  52.040 -27.474  1.00  0.00     0.028 C 
BRANCH  24  25
HETATM   25  C4  UNL     1       0.246  51.507 -27.317  1.00  0.00    -0.025 C 
HETATM   26  C2  UNL     1       1.071  51.664 -26.263  1.00  0.00    -0.091 C 
HETATM   27  C1  UNL     1       0.717  52.378 -24.987  1.00  0.00     0.042 C 
HETATM   28  C3  UNL     1       2.467  51.095 -26.289  1.00  0.00     0.042 C 
ENDBRANCH  24  25
ENDBRANCH  23  24
ENDBRANCH  21  23
ENDBRANCH   1  21
BRANCH   8  29
HETATM   29  O1  UNL     1      -7.670  49.791 -19.489  1.00  0.00    -0.395 OA
HETATM   30  H28 UNL     1      -8.289  49.269 -20.027  1.00  0.00     0.210 HD
ENDBRANCH   8  29
BRANCH  11  31
HETATM   31  O2  UNL     1      -4.949  46.438 -16.369  1.00  0.00    -0.396 OA
HETATM   32  H33 UNL     1      -4.854  45.515 -16.080  1.00  0.00     0.210 HD
ENDBRANCH  11  31
TORSDOF 6
ENDMDL
MODEL 6
REMARK minimizedAffinity -9.35112953
REMARK CNNscore 0.366431475
REMARK CNNaffinity 6.68889093
REMARK  6 active torsions:
REMARK  status: ('A' for Active; 'I' for Inactive)
REMARK    1  A    between atoms: C4_4  and  C5_5 
REMARK    2  A    between atoms: C5_5  and  C6_6 
REMARK    3  A    between atoms: C6_6  and  C7_7 
REMARK    4  A    between atoms: C7_7  and  C9_9 
REMARK    5  A    between atoms: C16_16  and  O1_17 
REMARK    6  A    between atoms: C19_20  and  O2_21 
ROOT
HETATM    1  C9  UNL     1      -2.715  48.332 -22.142  1.00  0.00    -0.002 C 
HETATM    2  C10 UNL     1      -2.550  49.487 -23.167  1.00  0.00     0.006 C 
HETATM    3  C11 UNL     1      -1.537  50.487 -22.566  1.00  0.00     0.011 C 
HETATM    4  C12 UNL     1      -1.754  50.352 -21.054  1.00  0.00    -0.032 C 
HETATM    5  C13 UNL     1      -3.060  51.139 -20.730  1.00  0.00     0.016 C 
HETATM    6  C14 UNL     1      -0.624  50.862 -20.118  1.00  0.00     0.006 C 
HETATM    7  C15 UNL     1      -0.215  52.324 -20.319  1.00  0.00     0.038 C 
HETATM    8  C16 UNL     1       0.981  52.641 -19.422  1.00  0.00     0.123 C 
HETATM    9  C17 UNL     1       0.654  52.528 -17.919  1.00  0.00     0.026 C 
HETATM   10  C18 UNL     1       1.967  52.511 -17.118  1.00  0.00     0.039 C 
HETATM   11  C19 UNL     1       1.721  52.506 -15.609  1.00  0.00     0.118 C 
HETATM   12  C20 UNL     1       0.541  51.625 -15.191  1.00  0.00     0.032 C 
HETATM   13  C21 UNL     1       0.179  50.610 -16.273  1.00  0.00     0.013 C 
HETATM   14  C22 UNL     1      -0.230  51.318 -17.558  1.00  0.00    -0.025 A 
HETATM   15  C23 UNL     1      -1.714  51.527 -17.779  1.00  0.00     0.021 A 
HETATM   16  C24 UNL     1      -0.982  50.530 -18.654  1.00  0.00    -0.027 A 
HETATM   17  C25 UNL     1      -1.343  49.052 -18.418  1.00  0.00     0.011 C 
HETATM   18  C26 UNL     1      -2.301  48.452 -19.476  1.00  0.00     0.011 C 
HETATM   19  C27 UNL     1      -1.853  48.786 -20.909  1.00  0.00    -0.032 C 
HETATM   20  C28 UNL     1      -0.482  48.036 -21.121  1.00  0.00     0.016 C 
ENDROOT
BRANCH   1  21
HETATM   21  C7  UNL     1      -4.134  47.743 -21.897  1.00  0.00    -0.014 C 
HETATM   22  C8  UNL     1      -4.918  48.283 -20.702  1.00  0.00     0.010 C 
BRANCH  21  23
HETATM   23  C6  UNL     1      -5.019  47.773 -23.175  1.00  0.00     0.008 C 
BRANCH  23  24
HETATM   24  C5  UNL     1      -4.682  48.850 -24.209  1.00  0.00     0.028 C 
BRANCH  24  25
HETATM   25  C4  UNL     1      -5.144  48.440 -25.583  1.00  0.00    -0.025 C 
HETATM   26  C2  UNL     1      -4.410  48.380 -26.711  1.00  0.00    -0.091 C 
HETATM   27  C1  UNL     1      -2.937  48.672 -26.801  1.00  0.00     0.042 C 
HETATM   28  C3  UNL     1      -5.045  47.986 -28.020  1.00  0.00     0.042 C 
ENDBRANCH  24  25
ENDBRANCH  23  24
ENDBRANCH  21  23
ENDBRANCH   1  21
BRANCH   8  29
HETATM   29  O1  UNL     1       1.431  53.966 -19.717  1.00  0.00    -0.395 OA
HETATM   30  H28 UNL     1       0.685  54.574 -19.578  1.00  0.00     0.210 HD
ENDBRANCH   8  29
BRANCH  11  31
HETATM   31  O2  UNL     1       2.915  52.050 -14.973  1.00  0.00    -0.396 OA
HETATM   32  H33 UNL     1       2.776  52.099 -14.013  1.00  0.00     0.210 HD
ENDBRANCH  11  31
TORSDOF 6
ENDMDL
MODEL 7
REMARK minimizedAffinity -9.2217617
REMARK CNNscore 0.347807825
REMARK CNNaffinity 6.51600409
REMARK  6 active torsions:
REMARK  status: ('A' for Active; 'I' for Inactive)
REMARK    1  A    between atoms: C4_4  and  C5_5 
REMARK    2  A    between atoms: C5_5  and  C6_6 
REMARK    3  A    between atoms: C6_6  and  C7_7 
REMARK    4  A    between atoms: C7_7  and  C9_9 
REMARK    5  A    between atoms: C16_16  and  O1_17 
REMARK    6  A    between atoms: C19_20  and  O2_21 
ROOT
HETATM    1  C9  UNL     1      -5.818  49.197 -24.275  1.00  0.00    -0.002 C 
HETATM    2  C10 UNL     1      -6.616  48.855 -22.987  1.00  0.00     0.006 C 
HETATM    3  C11 UNL     1      -5.916  49.575 -21.813  1.00  0.00     0.011 C 
HETATM    4  C12 UNL     1      -4.445  49.615 -22.243  1.00  0.00    -0.032 C 
HETATM    5  C13 UNL     1      -3.879  48.185 -21.992  1.00  0.00     0.016 C 
HETATM    6  C14 UNL     1      -3.519  50.645 -21.539  1.00  0.00     0.006 C 
HETATM    7  C15 UNL     1      -3.470  50.547 -20.012  1.00  0.00     0.038 C 
HETATM    8  C16 UNL     1      -2.623  51.692 -19.459  1.00  0.00     0.123 C 
HETATM    9  C17 UNL     1      -1.148  51.621 -19.903  1.00  0.00     0.026 C 
HETATM   10  C18 UNL     1      -0.467  52.969 -19.608  1.00  0.00     0.039 C 
HETATM   11  C19 UNL     1       1.027  52.940 -19.927  1.00  0.00     0.118 C 
HETATM   12  C20 UNL     1       1.361  52.161 -21.201  1.00  0.00     0.032 C 
HETATM   13  C21 UNL     1       0.137  51.993 -22.100  1.00  0.00     0.013 C 
HETATM   14  C22 UNL     1      -0.955  51.215 -21.378  1.00  0.00    -0.025 A 
HETATM   15  C23 UNL     1      -1.019  49.725 -21.640  1.00  0.00     0.021 A 
HETATM   16  C24 UNL     1      -2.120  50.607 -22.192  1.00  0.00    -0.027 A 
HETATM   17  C25 UNL     1      -2.140  50.760 -23.724  1.00  0.00     0.011 C 
HETATM   18  C26 UNL     1      -3.216  49.905 -24.436  1.00  0.00     0.011 C 
HETATM   19  C27 UNL     1      -4.590  50.030 -23.757  1.00  0.00    -0.032 C 
HETATM   20  C28 UNL     1      -5.045  51.526 -23.969  1.00  0.00     0.016 C 
ENDROOT
BRANCH   1  21
HETATM   21  C7  UNL     1      -5.581  48.078 -25.330  1.00  0.00    -0.014 C 
HETATM   22  C8  UNL     1      -6.782  47.637 -26.164  1.00  0.00     0.010 C 
BRANCH  21  23
HETATM   23  C6  UNL     1      -4.370  48.383 -26.256  1.00  0.00     0.008 C 
BRANCH  23  24
HETATM   24  C5  UNL     1      -4.700  48.817 -27.686  1.00  0.00     0.028 C 
BRANCH  24  25
HETATM   25  C4  UNL     1      -5.237  47.662 -28.489  1.00  0.00    -0.025 C 
HETATM   26  C2  UNL     1      -5.545  47.646 -29.800  1.00  0.00    -0.091 C 
HETATM   27  C1  UNL     1      -5.356  48.801 -30.746  1.00  0.00     0.042 C 
HETATM   28  C3  UNL     1      -6.116  46.407 -30.440  1.00  0.00     0.042 C 
ENDBRANCH  24  25
ENDBRANCH  23  24
ENDBRANCH  21  23
ENDBRANCH   1  21
BRANCH   8  29
HETATM   29  O1  UNL     1      -2.696  51.663 -18.030  1.00  0.00    -0.395 OA
HETATM   30  H28 UNL     1      -2.388  50.790 -17.733  1.00  0.00     0.210 HD
ENDBRANCH   8  29
BRANCH  11  31
HETATM   31  O2  UNL     1       1.473  54.291 -20.055  1.00  0.00    -0.396 OA
HETATM   32  H33 UNL     1       2.433  54.272 -20.203  1.00  0.00     0.210 HD
ENDBRANCH  11  31
TORSDOF 6
ENDMDL
MODEL 8
REMARK minimizedAffinity -8.16349792
REMARK CNNscore 0.337228417
REMARK CNNaffinity 6.22494936
REMARK  6 active torsions:
REMARK  status: ('A' for Active; 'I' for Inactive)
REMARK    1  A    between atoms: C4_4  and  C5_5 
REMARK    2  A    between atoms: C5_5  and  C6_6 
REMARK    3  A    between atoms: C6_6  and  C7_7 
REMARK    4  A    between atoms: C7_7  and  C9_9 
REMARK    5  A    between atoms: C16_16  and  O1_17 
REMARK    6  A    between atoms: C19_20  and  O2_21 
ROOT
HETATM    1  C9  UNL     1      -6.063  48.233 -21.303  1.00  0.00    -0.002 C 
HETATM    2  C10 UNL     1      -6.001  47.538 -19.916  1.00  0.00     0.006 C 
HETATM    3  C11 UNL     1      -4.910  48.260 -19.094  1.00  0.00     0.011 C 
HETATM    4  C12 UNL     1      -3.910  48.729 -20.158  1.00  0.00    -0.032 C 
HETATM    5  C13 UNL     1      -3.085  47.471 -20.564  1.00  0.00     0.016 C 
HETATM    6  C14 UNL     1      -2.924  49.864 -19.766  1.00  0.00     0.006 C 
HETATM    7  C15 UNL     1      -2.066  49.589 -18.528  1.00  0.00     0.038 C 
HETATM    8  C16 UNL     1      -1.243  50.834 -18.198  1.00  0.00     0.123 C 
HETATM    9  C17 UNL     1      -0.232  51.198 -19.303  1.00  0.00     0.026 C 
HETATM   10  C18 UNL     1       0.286  52.627 -19.060  1.00  0.00     0.039 C 
HETATM   11  C19 UNL     1       1.374  53.023 -20.058  1.00  0.00     0.118 C 
HETATM   12  C20 UNL     1       1.103  52.522 -21.479  1.00  0.00     0.032 C 
HETATM   13  C21 UNL     1      -0.367  52.161 -21.683  1.00  0.00     0.013 C 
HETATM   14  C22 UNL     1      -0.782  51.045 -20.734  1.00  0.00    -0.025 A 
HETATM   15  C23 UNL     1      -0.744  49.634 -21.282  1.00  0.00     0.021 A 
HETATM   16  C24 UNL     1      -2.091  50.268 -21.002  1.00  0.00    -0.027 A 
HETATM   17  C25 UNL     1      -2.936  50.602 -22.244  1.00  0.00     0.011 C 
HETATM   18  C26 UNL     1      -4.079  49.598 -22.528  1.00  0.00     0.011 C 
HETATM   19  C27 UNL     1      -4.891  49.281 -21.261  1.00  0.00    -0.032 C 
HETATM   20  C28 UNL     1      -5.614  50.625 -20.861  1.00  0.00     0.016 C 
ENDROOT
BRANCH   1  21
HETATM   21  C7  UNL     1      -6.245  47.356 -22.575  1.00  0.00    -0.014 C 
HETATM   22  C8  UNL     1      -6.913  45.993 -22.395  1.00  0.00     0.010 C 
BRANCH  21  23
HETATM   23  C6  UNL     1      -6.921  48.132 -23.740  1.00  0.00     0.008 C 
BRANCH  23  24
HETATM   24  C5  UNL     1      -6.199  48.095 -25.089  1.00  0.00     0.028 C 
BRANCH  24  25
HETATM   25  C4  UNL     1      -7.073  47.484 -26.152  1.00  0.00    -0.025 C 
HETATM   26  C2  UNL     1      -6.811  47.376 -27.469  1.00  0.00    -0.091 C 
HETATM   27  C1  UNL     1      -5.535  47.814 -28.135  1.00  0.00     0.042 C 
HETATM   28  C3  UNL     1      -7.823  46.769 -28.406  1.00  0.00     0.042 C 
ENDBRANCH  24  25
ENDBRANCH  23  24
ENDBRANCH  21  23
ENDBRANCH   1  21
BRANCH   8  29
HETATM   29  O1  UNL     1      -0.550  50.606 -16.967  1.00  0.00    -0.395 OA
HETATM   30  H28 UNL     1      -0.001  49.811 -17.076  1.00  0.00     0.210 HD
ENDBRANCH   8  29
BRANCH  11  31
HETATM   31  O2  UNL     1       1.471  54.447 -20.057  1.00  0.00    -0.396 OA
HETATM   32  H33 UNL     1       2.200  54.694 -20.651  1.00  0.00     0.210 HD
ENDBRANCH  11  31
TORSDOF 6
ENDMDL
MODEL 9
REMARK minimizedAffinity -7.72168589
REMARK CNNscore 0.336169779
REMARK CNNaffinity 6.21433687
REMARK  6 active torsions:
REMARK  status: ('A' for Active; 'I' for Inactive)
REMARK    1  A    between atoms: C4_4  and  C5_5 
REMARK    2  A    between atoms: C5_5  and  C6_6 
REMARK    3  A    between atoms: C6_6  and  C7_7 
REMARK    4  A    between atoms: C7_7  and  C9_9 
REMARK    5  A    between atoms: C16_16  and  O1_17 
REMARK    6  A    between atoms: C19_20  and  O2_21 
ROOT
HETATM    1  C9  UNL     1       0.088  53.409  -9.696  1.00  0.00    -0.002 C 
HETATM    2  C10 UNL     1       0.875  52.951 -10.955  1.00  0.00     0.006 C 
HETATM    3  C11 UNL     1       2.375  53.155 -10.653  1.00  0.00     0.011 C 
HETATM    4  C12 UNL     1       2.390  54.354  -9.698  1.00  0.00    -0.032 C 
HETATM    5  C13 UNL     1       2.169  55.618 -10.582  1.00  0.00     0.016 C 
HETATM    6  C14 UNL     1       3.663  54.570  -8.834  1.00  0.00     0.006 C 
HETATM    7  C15 UNL     1       4.974  54.688  -9.617  1.00  0.00     0.038 C 
HETATM    8  C16 UNL     1       6.142  54.771  -8.635  1.00  0.00     0.123 C 
HETATM    9  C17 UNL     1       6.098  56.035  -7.753  1.00  0.00     0.026 C 
HETATM   10  C18 UNL     1       7.081  55.865  -6.581  1.00  0.00     0.039 C 
HETATM   11  C19 UNL     1       7.171  57.123  -5.718  1.00  0.00     0.118 C 
HETATM   12  C20 UNL     1       5.820  57.812  -5.508  1.00  0.00     0.032 C 
HETATM   13  C21 UNL     1       4.652  56.870  -5.797  1.00  0.00     0.013 C 
HETATM   14  C22 UNL     1       4.689  56.398  -7.244  1.00  0.00    -0.025 A 
HETATM   15  C23 UNL     1       3.834  57.161  -8.233  1.00  0.00     0.021 A 
HETATM   16  C24 UNL     1       3.431  55.749  -7.864  1.00  0.00    -0.027 A 
HETATM   17  C25 UNL     1       2.145  55.625  -7.026  1.00  0.00     0.011 C 
HETATM   18  C26 UNL     1       0.898  55.188  -7.832  1.00  0.00     0.011 C 
HETATM   19  C27 UNL     1       1.195  53.982  -8.739  1.00  0.00    -0.032 C 
HETATM   20  C28 UNL     1       1.505  52.776  -7.770  1.00  0.00     0.016 C 
ENDROOT
BRANCH   1  21
HETATM   21  C7  UNL     1      -1.233  54.208  -9.886  1.00  0.00    -0.014 C 
HETATM   22  C8  UNL     1      -1.111  55.689 -10.240  1.00  0.00     0.010 C 
BRANCH  21  23
HETATM   23  C6  UNL     1      -2.217  53.505 -10.863  1.00  0.00     0.008 C 
BRANCH  23  24
HETATM   24  C5  UNL     1      -3.688  53.476 -10.443  1.00  0.00     0.028 C 
BRANCH  24  25
HETATM   25  C4  UNL     1      -4.337  52.176 -10.838  1.00  0.00    -0.025 C 
HETATM   26  C2  UNL     1      -4.102  50.953 -10.326  1.00  0.00    -0.091 C 
HETATM   27  C1  UNL     1      -3.157  50.657  -9.194  1.00  0.00     0.042 C 
HETATM   28  C3  UNL     1      -4.814  49.742 -10.872  1.00  0.00     0.042 C 
ENDBRANCH  24  25
ENDBRANCH  23  24
ENDBRANCH  21  23
ENDBRANCH   1  21
BRANCH   8  29
HETATM   29  O1  UNL     1       7.363  54.747  -9.380  1.00  0.00    -0.395 OA
HETATM   30  H28 UNL     1       7.346  55.490 -10.008  1.00  0.00     0.210 HD
ENDBRANCH   8  29
BRANCH  11  31
HETATM   31  O2  UNL     1       7.724  56.749  -4.456  1.00  0.00    -0.396 OA
HETATM   32  H33 UNL     1       7.831  57.558  -3.928  1.00  0.00     0.210 HD
ENDBRANCH  11  31
TORSDOF 6
ENDMDL
