MODEL 1
REMARK minimizedAffinity -8.95636272
REMARK CNNscore 0.432238162
REMARK CNNaffinity 6.72878599
REMARK  9 active torsions:
REMARK  status: ('A' for Active; 'I' for Inactive)
REMARK    1  A    between atoms: C3_3  and  O1_4 
REMARK    2  A    between atoms: N1_14  and  O2_16 
REMARK    3  A    between atoms: O2_16  and  C13_17 
REMARK    4  A    between atoms: C13_17  and  C14_18 
REMARK       I    between atoms: C14_18  and  N2_20 
REMARK    5  A    between atoms: N2_20  and  C15_21 
REMARK    6  A    between atoms: C15_21  and  C16_22 
REMARK    7  A    between atoms: C15_21  and  C18_26 
REMARK    8  A    between atoms: C16_22  and  C17_23 
REMARK    9  A    between atoms: C17_23  and  O5_25 
ROOT
HETATM    1  C1  UNL     1      -3.388  48.449 -27.319  1.00  0.00     0.015 C 
HETATM    2  C2  UNL     1      -3.243  49.352 -26.539  1.00  0.00    -0.078 C 
HETATM    3  C3  UNL     1      -3.073  50.460 -25.585  1.00  0.00     0.128 C 
HETATM    4  C4  UNL     1      -1.611  50.888 -25.451  1.00  0.00     0.052 C 
HETATM    5  C5  UNL     1      -1.495  51.528 -24.063  1.00  0.00     0.010 C 
HETATM    6  C6  UNL     1      -2.838  51.289 -23.336  1.00  0.00     0.002 C 
HETATM    7  C7  UNL     1      -2.645  51.083 -21.814  1.00  0.00    -0.004 C 
HETATM    8  C8  UNL     1      -3.926  51.469 -21.033  1.00  0.00     0.010 C 
HETATM    9  C9  UNL     1      -4.166  50.669 -19.757  1.00  0.00     0.035 C 
HETATM   10  C10 UNL     1      -2.859  50.373 -19.085  1.00  0.00    -0.069 C 
HETATM   11  C11 UNL     1      -2.573  50.887 -17.876  1.00  0.00     0.030 C 
HETATM   12  C12 UNL     1      -1.262  50.645 -17.222  1.00  0.00     0.032 C 
HETATM   13  N1  UNL     1      -1.156  50.932 -15.955  1.00  0.00    -0.271 N 
ATOM     14  H1  UNL     1      -1.911  51.323 -15.391  1.00  0.00     0.194 HD
HETATM   15  C25 UNL     1      -0.138  50.041 -18.047  1.00  0.00     0.060 C 
HETATM   16  C26 UNL     1      -0.446  50.020 -19.543  1.00  0.00     0.020 C 
HETATM   17  C27 UNL     1      -1.880  49.518 -19.883  1.00  0.00    -0.016 C 
HETATM   18  C28 UNL     1      -2.023  48.049 -19.427  1.00  0.00     0.020 C 
HETATM   19  C29 UNL     1      -2.099  49.677 -21.446  1.00  0.00     0.002 C 
HETATM   20  C30 UNL     1      -2.946  48.584 -22.124  1.00  0.00     0.007 C 
HETATM   21  C31 UNL     1      -2.956  48.752 -23.644  1.00  0.00     0.014 C 
HETATM   22  C32 UNL     1      -3.502  50.121 -24.121  1.00  0.00     0.003 C 
HETATM   23  C33 UNL     1      -5.038  50.123 -23.990  1.00  0.00     0.020 C 
ENDROOT
BRANCH   3  24
HETATM   24  O1  UNL     1      -3.808  51.593 -26.059  1.00  0.00    -0.377 OA
HETATM   25  H2  UNL     1      -3.796  51.555 -27.030  1.00  0.00     0.211 HD
ENDBRANCH   3  24
BRANCH  13  26
HETATM   26  O2  UNL     1       0.124  50.638 -15.463  1.00  0.00    -0.271 OA
BRANCH  26  27
HETATM   27  C13 UNL     1       0.622  51.773 -14.769  1.00  0.00     0.303 C 
BRANCH  27  28
HETATM   28  C14 UNL     1       0.768  51.453 -13.288  1.00  0.00     0.244 C 
HETATM   29  O3  UNL     1      -0.194  51.367 -12.530  1.00  0.00    -0.271 OA
HETATM   30  N2  UNL     1       2.079  51.347 -12.864  1.00  0.00    -0.354 N 
HETATM   31  H16 UNL     1       2.798  51.453 -13.573  1.00  0.00     0.162 HD
BRANCH  30  32
HETATM   32  C15 UNL     1       2.450  51.207 -11.457  1.00  0.00     0.098 C 
BRANCH  32  33
HETATM   33  C16 UNL     1       3.161  49.870 -11.219  1.00  0.00     0.135 C 
BRANCH  33  34
HETATM   34  C17 UNL     1       4.213  49.614 -12.258  1.00  0.00     0.141 C 
HETATM   35  O4  UNL     1       5.413  49.784 -12.123  1.00  0.00    -0.650 OA
BRANCH  34  36
HETATM   36  O5  UNL     1       3.710  49.124 -13.407  1.00  0.00    -0.776 OA
HETATM   37  H20 UNL     1       4.493  49.030 -13.993  1.00  0.00     0.167 HD
ENDBRANCH  34  36
ENDBRANCH  33  34
ENDBRANCH  32  33
BRANCH  32  38
HETATM   38  C18 UNL     1       3.312  52.403 -10.955  1.00  0.00     0.014 C 
HETATM   39  C19 UNL     1       4.179  52.033  -9.743  1.00  0.00     0.033 C 
HETATM   40  C20 UNL     1       5.009  53.220  -9.278  1.00  0.00     0.169 C 
HETATM   41  O6  UNL     1       4.175  54.336  -8.972  1.00  0.00    -0.381 OA
HETATM   42  C21 UNL     1       3.364  54.807 -10.058  1.00  0.00     0.054 C 
HETATM   43  C22 UNL     1       2.448  55.886  -9.459  1.00  0.00     0.045 C 
HETATM   44  C23 UNL     1       4.233  55.464 -11.141  1.00  0.00     0.045 C 
HETATM   45  C24 UNL     1       2.494  53.663 -10.622  1.00  0.00     0.044 C 
ENDBRANCH  32  38
ENDBRANCH  30  32
ENDBRANCH  27  28
ENDBRANCH  26  27
ENDBRANCH  13  26
TORSDOF 9
ENDMDL
MODEL 2
REMARK minimizedAffinity -8.88600826
REMARK CNNscore 0.389030069
REMARK CNNaffinity 6.04309416
REMARK  9 active torsions:
REMARK  status: ('A' for Active; 'I' for Inactive)
REMARK    1  A    between atoms: C3_3  and  O1_4 
REMARK    2  A    between atoms: N1_14  and  O2_16 
REMARK    3  A    between atoms: O2_16  and  C13_17 
REMARK    4  A    between atoms: C13_17  and  C14_18 
REMARK       I    between atoms: C14_18  and  N2_20 
REMARK    5  A    between atoms: N2_20  and  C15_21 
REMARK    6  A    between atoms: C15_21  and  C16_22 
REMARK    7  A    between atoms: C15_21  and  C18_26 
REMARK    8  A    between atoms: C16_22  and  C17_23 
REMARK    9  A    between atoms: C17_23  and  O5_25 
ROOT
HETATM    1  C1  UNL     1      -4.193  46.515 -32.135  1.00  0.00     0.015 C 
HETATM    2  C2  UNL     1      -4.983  47.071 -31.420  1.00  0.00    -0.078 C 
HETATM    3  C3  UNL     1      -5.952  47.757 -30.549  1.00  0.00     0.128 C 
HETATM    4  C4  UNL     1      -5.765  47.391 -29.076  1.00  0.00     0.052 C 
HETATM    5  C5  UNL     1      -7.129  47.621 -28.418  1.00  0.00     0.010 C 
HETATM    6  C6  UNL     1      -8.136  47.930 -29.550  1.00  0.00     0.002 C 
HETATM    7  C7  UNL     1      -9.547  47.375 -29.238  1.00  0.00    -0.004 C 
HETATM    8  C8  UNL     1     -10.639  48.178 -29.988  1.00  0.00     0.010 C 
HETATM    9  C9  UNL     1     -11.870  47.370 -30.386  1.00  0.00     0.035 C 
HETATM   10  C10 UNL     1     -12.185  46.358 -29.326  1.00  0.00    -0.069 C 
HETATM   11  C11 UNL     1     -13.326  46.433 -28.619  1.00  0.00     0.030 C 
HETATM   12  C12 UNL     1     -13.626  45.469 -27.530  1.00  0.00     0.032 C 
HETATM   13  N1  UNL     1     -14.850  45.425 -27.081  1.00  0.00    -0.271 N 
ATOM     14  H1  UNL     1     -15.606  46.019 -27.422  1.00  0.00     0.194 HD
HETATM   15  C25 UNL     1     -12.513  44.564 -27.031  1.00  0.00     0.060 C 
HETATM   16  C26 UNL     1     -11.137  44.976 -27.551  1.00  0.00     0.020 C 
HETATM   17  C27 UNL     1     -11.112  45.304 -29.073  1.00  0.00    -0.016 C 
HETATM   18  C28 UNL     1     -11.474  44.032 -29.871  1.00  0.00     0.020 C 
HETATM   19  C29 UNL     1      -9.664  45.840 -29.438  1.00  0.00     0.002 C 
HETATM   20  C30 UNL     1      -9.126  45.442 -30.825  1.00  0.00     0.007 C 
HETATM   21  C31 UNL     1      -7.671  45.876 -31.001  1.00  0.00     0.014 C 
HETATM   22  C32 UNL     1      -7.445  47.399 -30.839  1.00  0.00     0.003 C 
HETATM   23  C33 UNL     1      -7.939  48.120 -32.109  1.00  0.00     0.020 C 
ENDROOT
BRANCH   3  24
HETATM   24  O1  UNL     1      -5.756  49.170 -30.666  1.00  0.00    -0.377 OA
HETATM   25  H2  UNL     1      -4.811  49.314 -30.837  1.00  0.00     0.211 HD
ENDBRANCH   3  24
BRANCH  13  26
HETATM   26  O2  UNL     1     -14.997  44.462 -26.072  1.00  0.00    -0.271 OA
BRANCH  26  27
HETATM   27  C13 UNL     1     -14.618  45.037 -24.829  1.00  0.00     0.303 C 
BRANCH  27  28
HETATM   28  C14 UNL     1     -15.685  46.020 -24.366  1.00  0.00     0.244 C 
HETATM   29  O3  UNL     1     -15.591  47.232 -24.542  1.00  0.00    -0.271 OA
HETATM   30  N2  UNL     1     -16.721  45.433 -23.666  1.00  0.00    -0.354 N 
HETATM   31  H16 UNL     1     -16.689  44.424 -23.563  1.00  0.00     0.162 HD
BRANCH  30  32
HETATM   32  C15 UNL     1     -17.763  46.207 -22.992  1.00  0.00     0.098 C 
BRANCH  32  33
HETATM   33  C16 UNL     1     -19.153  45.707 -23.400  1.00  0.00     0.135 C 
BRANCH  33  34
HETATM   34  C17 UNL     1     -19.480  46.087 -24.815  1.00  0.00     0.141 C 
HETATM   35  O4  UNL     1     -19.857  45.329 -25.694  1.00  0.00    -0.650 OA
BRANCH  34  36
HETATM   36  O5  UNL     1     -19.353  47.407 -25.049  1.00  0.00    -0.776 OA
HETATM   37  H20 UNL     1     -19.570  47.505 -26.003  1.00  0.00     0.167 HD
ENDBRANCH  34  36
ENDBRANCH  33  34
ENDBRANCH  32  33
BRANCH  32  38
HETATM   38  C18 UNL     1     -17.592  46.200 -21.444  1.00  0.00     0.014 C 
HETATM   39  C19 UNL     1     -18.760  46.888 -20.722  1.00  0.00     0.033 C 
HETATM   40  C20 UNL     1     -18.564  46.863 -19.214  1.00  0.00     0.169 C 
HETATM   41  O6  UNL     1     -17.326  47.471 -18.850  1.00  0.00    -0.381 OA
HETATM   42  C21 UNL     1     -16.158  46.865 -19.423  1.00  0.00     0.054 C 
HETATM   43  C22 UNL     1     -14.981  47.772 -19.030  1.00  0.00     0.045 C 
HETATM   44  C23 UNL     1     -15.914  45.476 -18.815  1.00  0.00     0.045 C 
HETATM   45  C24 UNL     1     -16.268  46.819 -20.961  1.00  0.00     0.044 C 
ENDBRANCH  32  38
ENDBRANCH  30  32
ENDBRANCH  27  28
ENDBRANCH  26  27
ENDBRANCH  13  26
TORSDOF 9
ENDMDL
MODEL 3
REMARK minimizedAffinity -8.53422165
REMARK CNNscore 0.273269355
REMARK CNNaffinity 5.62301874
REMARK  9 active torsions:
REMARK  status: ('A' for Active; 'I' for Inactive)
REMARK    1  A    between atoms: C3_3  and  O1_4 
REMARK    2  A    between atoms: N1_14  and  O2_16 
REMARK    3  A    between atoms: O2_16  and  C13_17 
REMARK    4  A    between atoms: C13_17  and  C14_18 
REMARK       I    between atoms: C14_18  and  N2_20 
REMARK    5  A    between atoms: N2_20  and  C15_21 
REMARK    6  A    between atoms: C15_21  and  C16_22 
REMARK    7  A    between atoms: C15_21  and  C18_26 
REMARK    8  A    between atoms: C16_22  and  C17_23 
REMARK    9  A    between atoms: C17_23  and  O5_25 
ROOT
HETATM    1  C1  UNL     1      -4.069  43.635 -32.738  1.00  0.00     0.015 C 
HETATM    2  C2  UNL     1      -4.782  44.574 -32.504  1.00  0.00    -0.078 C 
HETATM    3  C3  UNL     1      -5.658  45.723 -32.224  1.00  0.00     0.128 C 
HETATM    4  C4  UNL     1      -5.133  46.583 -31.074  1.00  0.00     0.052 C 
HETATM    5  C5  UNL     1      -6.363  47.291 -30.494  1.00  0.00     0.010 C 
HETATM    6  C6  UNL     1      -7.606  46.687 -31.187  1.00  0.00     0.002 C 
HETATM    7  C7  UNL     1      -8.825  46.620 -30.236  1.00  0.00    -0.004 C 
HETATM    8  C8  UNL     1     -10.154  46.632 -31.032  1.00  0.00     0.010 C 
HETATM    9  C9  UNL     1     -11.297  45.856 -30.384  1.00  0.00     0.035 C 
HETATM   10  C10 UNL     1     -11.238  46.004 -28.894  1.00  0.00    -0.069 C 
HETATM   11  C11 UNL     1     -12.217  46.636 -28.224  1.00  0.00     0.030 C 
HETATM   12  C12 UNL     1     -12.146  46.836 -26.755  1.00  0.00     0.032 C 
HETATM   13  N1  UNL     1     -13.236  47.199 -26.140  1.00  0.00    -0.271 N 
ATOM     14  H1  UNL     1     -14.128  47.367 -26.607  1.00  0.00     0.194 HD
HETATM   15  C25 UNL     1     -10.829  46.567 -26.047  1.00  0.00     0.060 C 
HETATM   16  C26 UNL     1      -9.662  46.385 -27.016  1.00  0.00     0.020 C 
HETATM   17  C27 UNL     1      -9.985  45.454 -28.221  1.00  0.00    -0.016 C 
HETATM   18  C28 UNL     1     -10.291  44.034 -27.696  1.00  0.00     0.020 C 
HETATM   19  C29 UNL     1      -8.737  45.466 -29.200  1.00  0.00     0.002 C 
HETATM   20  C30 UNL     1      -8.423  44.136 -29.912  1.00  0.00     0.007 C 
HETATM   21  C31 UNL     1      -7.116  44.224 -30.700  1.00  0.00     0.014 C 
HETATM   22  C32 UNL     1      -7.104  45.337 -31.777  1.00  0.00     0.003 C 
HETATM   23  C33 UNL     1      -7.942  44.876 -32.986  1.00  0.00     0.020 C 
ENDROOT
BRANCH   3  24
HETATM   24  O1  UNL     1      -5.712  46.555 -33.388  1.00  0.00    -0.377 OA
HETATM   25  H2  UNL     1      -4.852  46.478 -33.834  1.00  0.00     0.211 HD
ENDBRANCH   3  24
BRANCH  13  26
HETATM   26  O2  UNL     1     -13.033  47.333 -24.759  1.00  0.00    -0.271 OA
BRANCH  26  27
HETATM   27  C13 UNL     1     -13.847  46.387 -24.080  1.00  0.00     0.303 C 
BRANCH  27  28
HETATM   28  C14 UNL     1     -15.257  46.936 -23.920  1.00  0.00     0.244 C 
HETATM   29  O3  UNL     1     -15.557  48.089 -24.219  1.00  0.00    -0.271 OA
HETATM   30  N2  UNL     1     -16.142  46.049 -23.337  1.00  0.00    -0.354 N 
HETATM   31  H16 UNL     1     -15.782  45.126 -23.113  1.00  0.00     0.162 HD
BRANCH  30  32
HETATM   32  C15 UNL     1     -17.498  46.424 -22.942  1.00  0.00     0.098 C 
BRANCH  32  33
HETATM   33  C16 UNL     1     -18.532  45.617 -23.736  1.00  0.00     0.135 C 
BRANCH  33  34
HETATM   34  C17 UNL     1     -18.892  46.299 -25.022  1.00  0.00     0.141 C 
HETATM   35  O4  UNL     1     -19.063  45.756 -26.101  1.00  0.00    -0.650 OA
BRANCH  34  36
HETATM   36  O5  UNL     1     -19.056  47.629 -24.886  1.00  0.00    -0.776 OA
HETATM   37  H20 UNL     1     -19.261  47.942 -25.795  1.00  0.00     0.167 HD
ENDBRANCH  34  36
ENDBRANCH  33  34
ENDBRANCH  32  33
BRANCH  32  38
HETATM   38  C18 UNL     1     -17.725  46.279 -21.408  1.00  0.00     0.014 C 
HETATM   39  C19 UNL     1     -16.426  45.972 -20.650  1.00  0.00     0.033 C 
HETATM   40  C20 UNL     1     -16.681  45.838 -19.156  1.00  0.00     0.169 C 
HETATM   41  O6  UNL     1     -17.659  44.834 -18.894  1.00  0.00    -0.381 OA
HETATM   42  C21 UNL     1     -18.938  45.054 -19.507  1.00  0.00     0.054 C 
HETATM   43  C22 UNL     1     -19.761  43.787 -19.225  1.00  0.00     0.045 C 
HETATM   44  C23 UNL     1     -19.655  46.246 -18.854  1.00  0.00     0.045 C 
HETATM   45  C24 UNL     1     -18.786  45.230 -21.033  1.00  0.00     0.044 C 
ENDBRANCH  32  38
ENDBRANCH  30  32
ENDBRANCH  27  28
ENDBRANCH  26  27
ENDBRANCH  13  26
TORSDOF 9
ENDMDL
MODEL 4
REMARK minimizedAffinity -8.56683159
REMARK CNNscore 0.270732343
REMARK CNNaffinity 5.89450216
REMARK  9 active torsions:
REMARK  status: ('A' for Active; 'I' for Inactive)
REMARK    1  A    between atoms: C3_3  and  O1_4 
REMARK    2  A    between atoms: N1_14  and  O2_16 
REMARK    3  A    between atoms: O2_16  and  C13_17 
REMARK    4  A    between atoms: C13_17  and  C14_18 
REMARK       I    between atoms: C14_18  and  N2_20 
REMARK    5  A    between atoms: N2_20  and  C15_21 
REMARK    6  A    between atoms: C15_21  and  C16_22 
REMARK    7  A    between atoms: C15_21  and  C18_26 
REMARK    8  A    between atoms: C16_22  and  C17_23 
REMARK    9  A    between atoms: C17_23  and  O5_25 
ROOT
HETATM    1  C1  UNL     1      -4.951  48.076 -34.363  1.00  0.00     0.015 C 
HETATM    2  C2  UNL     1      -5.079  47.467 -33.335  1.00  0.00    -0.078 C 
HETATM    3  C3  UNL     1      -5.231  46.725 -32.072  1.00  0.00     0.128 C 
HETATM    4  C4  UNL     1      -5.799  45.322 -32.291  1.00  0.00     0.052 C 
HETATM    5  C5  UNL     1      -6.477  44.942 -30.970  1.00  0.00     0.010 C 
HETATM    6  C6  UNL     1      -6.461  46.199 -30.070  1.00  0.00     0.002 C 
HETATM    7  C7  UNL     1      -7.720  46.286 -29.174  1.00  0.00    -0.004 C 
HETATM    8  C8  UNL     1      -7.437  47.115 -27.896  1.00  0.00     0.010 C 
HETATM    9  C9  UNL     1      -8.635  47.889 -27.355  1.00  0.00     0.035 C 
HETATM   10  C10 UNL     1      -9.891  47.093 -27.550  1.00  0.00    -0.069 C 
HETATM   11  C11 UNL     1     -10.592  46.643 -26.495  1.00  0.00     0.030 C 
HETATM   12  C12 UNL     1     -11.807  45.808 -26.673  1.00  0.00     0.032 C 
HETATM   13  N1  UNL     1     -12.584  45.643 -25.639  1.00  0.00    -0.271 N 
ATOM     14  H1  UNL     1     -12.402  46.039 -24.717  1.00  0.00     0.194 HD
HETATM   15  C25 UNL     1     -12.100  45.233 -28.048  1.00  0.00     0.060 C 
HETATM   16  C26 UNL     1     -10.925  45.377 -29.013  1.00  0.00     0.020 C 
HETATM   17  C27 UNL     1     -10.266  46.787 -28.996  1.00  0.00    -0.016 C 
HETATM   18  C28 UNL     1     -11.299  47.834 -29.468  1.00  0.00     0.020 C 
HETATM   19  C29 UNL     1      -8.991  46.746 -29.938  1.00  0.00     0.002 C 
HETATM   20  C30 UNL     1      -8.696  48.032 -30.734  1.00  0.00     0.007 C 
HETATM   21  C31 UNL     1      -7.547  47.824 -31.720  1.00  0.00     0.014 C 
HETATM   22  C32 UNL     1      -6.221  47.379 -31.056  1.00  0.00     0.003 C 
HETATM   23  C33 UNL     1      -5.569  48.596 -30.368  1.00  0.00     0.020 C 
ENDROOT
BRANCH   3  24
HETATM   24  O1  UNL     1      -3.941  46.573 -31.470  1.00  0.00    -0.377 OA
HETATM   25  H2  UNL     1      -3.294  46.515 -32.192  1.00  0.00     0.211 HD
ENDBRANCH   3  24
BRANCH  13  26
HETATM   26  O2  UNL     1     -13.701  44.853 -25.951  1.00  0.00    -0.271 OA
BRANCH  26  27
HETATM   27  C13 UNL     1     -13.913  43.921 -24.900  1.00  0.00     0.303 C 
BRANCH  27  28
HETATM   28  C14 UNL     1     -15.362  43.978 -24.441  1.00  0.00     0.244 C 
HETATM   29  O3  UNL     1     -16.042  42.970 -24.263  1.00  0.00    -0.271 OA
HETATM   30  N2  UNL     1     -15.862  45.261 -24.320  1.00  0.00    -0.354 N 
HETATM   31  H16 UNL     1     -15.217  46.021 -24.509  1.00  0.00     0.162 HD
BRANCH  30  32
HETATM   32  C15 UNL     1     -17.272  45.542 -24.052  1.00  0.00     0.098 C 
BRANCH  32  33
HETATM   33  C16 UNL     1     -18.169  44.740 -25.001  1.00  0.00     0.135 C 
BRANCH  33  34
HETATM   34  C17 UNL     1     -19.046  45.641 -25.821  1.00  0.00     0.141 C 
HETATM   35  O4  UNL     1     -19.867  46.433 -25.388  1.00  0.00    -0.650 OA
BRANCH  34  36
HETATM   36  O5  UNL     1     -18.824  45.530 -27.144  1.00  0.00    -0.776 OA
HETATM   37  H20 UNL     1     -19.473  46.146 -27.551  1.00  0.00     0.167 HD
ENDBRANCH  34  36
ENDBRANCH  33  34
ENDBRANCH  32  33
BRANCH  32  38
HETATM   38  C18 UNL     1     -17.650  45.283 -22.564  1.00  0.00     0.014 C 
HETATM   39  C19 UNL     1     -18.755  44.228 -22.414  1.00  0.00     0.033 C 
HETATM   40  C20 UNL     1     -19.100  43.998 -20.950  1.00  0.00     0.169 C 
HETATM   41  O6  UNL     1     -19.488  45.217 -20.320  1.00  0.00    -0.381 OA
HETATM   42  C21 UNL     1     -18.500  46.258 -20.347  1.00  0.00     0.054 C 
HETATM   43  C22 UNL     1     -19.189  47.504 -19.767  1.00  0.00     0.045 C 
HETATM   44  C23 UNL     1     -17.312  45.903 -19.441  1.00  0.00     0.045 C 
HETATM   45  C24 UNL     1     -18.061  46.553 -21.797  1.00  0.00     0.044 C 
ENDBRANCH  32  38
ENDBRANCH  30  32
ENDBRANCH  27  28
ENDBRANCH  26  27
ENDBRANCH  13  26
TORSDOF 9
ENDMDL
MODEL 5
REMARK minimizedAffinity -8.01235008
REMARK CNNscore 0.256623656
REMARK CNNaffinity 6.64204931
REMARK  9 active torsions:
REMARK  status: ('A' for Active; 'I' for Inactive)
REMARK    1  A    between atoms: C3_3  and  O1_4 
REMARK    2  A    between atoms: N1_14  and  O2_16 
REMARK    3  A    between atoms: O2_16  and  C13_17 
REMARK    4  A    between atoms: C13_17  and  C14_18 
REMARK       I    between atoms: C14_18  and  N2_20 
REMARK    5  A    between atoms: N2_20  and  C15_21 
REMARK    6  A    between atoms: C15_21  and  C16_22 
REMARK    7  A    between atoms: C15_21  and  C18_26 
REMARK    8  A    between atoms: C16_22  and  C17_23 
REMARK    9  A    between atoms: C17_23  and  O5_25 
ROOT
HETATM    1  C1  UNL     1       0.223  51.806 -28.313  1.00  0.00     0.015 C 
HETATM    2  C2  UNL     1       0.012  52.218 -27.204  1.00  0.00    -0.078 C 
HETATM    3  C3  UNL     1      -0.253  52.726 -25.848  1.00  0.00     0.128 C 
HETATM    4  C4  UNL     1       0.969  52.604 -24.936  1.00  0.00     0.052 C 
HETATM    5  C5  UNL     1       0.413  52.546 -23.509  1.00  0.00     0.010 C 
HETATM    6  C6  UNL     1      -1.125  52.440 -23.621  1.00  0.00     0.002 C 
HETATM    7  C7  UNL     1      -1.730  51.577 -22.488  1.00  0.00    -0.004 C 
HETATM    8  C8  UNL     1      -3.205  51.968 -22.218  1.00  0.00     0.010 C 
HETATM    9  C9  UNL     1      -4.097  50.823 -21.748  1.00  0.00     0.035 C 
HETATM   10  C10 UNL     1      -3.321  49.901 -20.857  1.00  0.00    -0.069 C 
HETATM   11  C11 UNL     1      -3.648  49.759 -19.560  1.00  0.00     0.030 C 
HETATM   12  C12 UNL     1      -2.856  48.890 -18.653  1.00  0.00     0.032 C 
HETATM   13  N1  UNL     1      -3.380  48.582 -17.501  1.00  0.00    -0.271 N 
ATOM     14  H1  UNL     1      -4.291  48.910 -17.180  1.00  0.00     0.194 HD
HETATM   15  C25 UNL     1      -1.508  48.377 -19.131  1.00  0.00     0.060 C 
HETATM   16  C26 UNL     1      -1.028  49.069 -20.405  1.00  0.00     0.020 C 
HETATM   17  C27 UNL     1      -2.127  49.204 -21.499  1.00  0.00    -0.016 C 
HETATM   18  C28 UNL     1      -2.564  47.794 -21.953  1.00  0.00     0.020 C 
HETATM   19  C29 UNL     1      -1.526  50.052 -22.697  1.00  0.00     0.002 C 
HETATM   20  C30 UNL     1      -1.983  49.644 -24.111  1.00  0.00     0.007 C 
HETATM   21  C31 UNL     1      -1.222  50.419 -25.186  1.00  0.00     0.014 C 
HETATM   22  C32 UNL     1      -1.375  51.957 -25.079  1.00  0.00     0.003 C 
HETATM   23  C33 UNL     1      -2.768  52.363 -25.601  1.00  0.00     0.020 C 
ENDROOT
BRANCH   3  24
HETATM   24  O1  UNL     1      -0.584  54.116 -25.934  1.00  0.00    -0.377 OA
HETATM   25  H2  UNL     1      -0.091  54.481 -26.687  1.00  0.00     0.211 HD
ENDBRANCH   3  24
BRANCH  13  26
HETATM   26  O2  UNL     1      -2.537  47.744 -16.755  1.00  0.00    -0.271 OA
BRANCH  26  27
HETATM   27  C13 UNL     1      -3.286  46.624 -16.303  1.00  0.00     0.303 C 
BRANCH  27  28
HETATM   28  C14 UNL     1      -2.603  45.998 -15.095  1.00  0.00     0.244 C 
HETATM   29  O3  UNL     1      -3.115  45.981 -13.979  1.00  0.00    -0.271 OA
HETATM   30  N2  UNL     1      -1.330  45.525 -15.353  1.00  0.00    -0.354 N 
HETATM   31  H16 UNL     1      -0.998  45.606 -16.309  1.00  0.00     0.162 HD
BRANCH  30  32
HETATM   32  C15 UNL     1      -0.437  45.037 -14.304  1.00  0.00     0.098 C 
BRANCH  32  33
HETATM   33  C16 UNL     1       0.248  43.738 -14.743  1.00  0.00     0.135 C 
BRANCH  33  34
HETATM   34  C17 UNL     1      -0.750  42.725 -15.222  1.00  0.00     0.141 C 
HETATM   35  O4  UNL     1      -1.881  42.570 -14.790  1.00  0.00    -0.650 OA
BRANCH  34  36
HETATM   36  O5  UNL     1      -0.294  41.979 -16.246  1.00  0.00    -0.776 OA
HETATM   37  H20 UNL     1      -1.028  41.355 -16.437  1.00  0.00     0.167 HD
ENDBRANCH  34  36
ENDBRANCH  33  34
ENDBRANCH  32  33
BRANCH  32  38
HETATM   38  C18 UNL     1       0.608  46.110 -13.876  1.00  0.00     0.014 C 
HETATM   39  C19 UNL     1       1.887  46.053 -14.722  1.00  0.00     0.033 C 
HETATM   40  C20 UNL     1       2.886  47.113 -14.281  1.00  0.00     0.169 C 
HETATM   41  O6  UNL     1       3.199  46.972 -12.896  1.00  0.00    -0.381 OA
HETATM   42  C21 UNL     1       2.078  47.072 -12.005  1.00  0.00     0.054 C 
HETATM   43  C22 UNL     1       2.623  46.731 -10.609  1.00  0.00     0.045 C 
HETATM   44  C23 UNL     1       1.538  48.509 -11.970  1.00  0.00     0.045 C 
HETATM   45  C24 UNL     1       0.989  46.047 -12.385  1.00  0.00     0.044 C 
ENDBRANCH  32  38
ENDBRANCH  30  32
ENDBRANCH  27  28
ENDBRANCH  26  27
ENDBRANCH  13  26
TORSDOF 9
ENDMDL
MODEL 6
REMARK minimizedAffinity -9.1097765
REMARK CNNscore 0.248108432
REMARK CNNaffinity 6.71437025
REMARK  9 active torsions:
REMARK  status: ('A' for Active; 'I' for Inactive)
REMARK    1  A    between atoms: C3_3  and  O1_4 
REMARK    2  A    between atoms: N1_14  and  O2_16 
REMARK    3  A    between atoms: O2_16  and  C13_17 
REMARK    4  A    between atoms: C13_17  and  C14_18 
REMARK       I    between atoms: C14_18  and  N2_20 
REMARK    5  A    between atoms: N2_20  and  C15_21 
REMARK    6  A    between atoms: C15_21  and  C16_22 
REMARK    7  A    between atoms: C15_21  and  C18_26 
REMARK    8  A    between atoms: C16_22  and  C17_23 
REMARK    9  A    between atoms: C17_23  and  O5_25 
ROOT
HETATM    1  C1  UNL     1      -5.693  48.046 -23.028  1.00  0.00     0.015 C 
HETATM    2  C2  UNL     1      -4.520  48.263 -22.885  1.00  0.00    -0.078 C 
HETATM    3  C3  UNL     1      -3.083  48.535 -22.715  1.00  0.00     0.128 C 
HETATM    4  C4  UNL     1      -2.340  47.349 -22.098  1.00  0.00     0.052 C 
HETATM    5  C5  UNL     1      -1.105  47.948 -21.416  1.00  0.00     0.010 C 
HETATM    6  C6  UNL     1      -1.248  49.486 -21.478  1.00  0.00     0.002 C 
HETATM    7  C7  UNL     1      -0.651  50.175 -20.228  1.00  0.00    -0.004 C 
HETATM    8  C8  UNL     1      -0.224  51.630 -20.545  1.00  0.00     0.010 C 
HETATM    9  C9  UNL     1      -0.343  52.603 -19.377  1.00  0.00     0.035 C 
HETATM   10  C10 UNL     1       0.008  51.911 -18.094  1.00  0.00    -0.069 C 
HETATM   11  C11 UNL     1       1.087  52.282 -17.384  1.00  0.00     0.030 C 
HETATM   12  C12 UNL     1       1.477  51.571 -16.140  1.00  0.00     0.032 C 
HETATM   13  N1  UNL     1       2.352  52.146 -15.363  1.00  0.00    -0.271 N 
ATOM     14  H1  UNL     1       2.792  53.045 -15.563  1.00  0.00     0.194 HD
HETATM   15  C25 UNL     1       0.809  50.245 -15.821  1.00  0.00     0.060 C 
HETATM   16  C26 UNL     1       0.007  49.687 -16.995  1.00  0.00     0.020 C 
HETATM   17  C27 UNL     1      -0.891  50.744 -17.701  1.00  0.00    -0.016 C 
HETATM   18  C28 UNL     1      -1.952  51.254 -16.702  1.00  0.00     0.020 C 
HETATM   19  C29 UNL     1      -1.553  50.058 -18.969  1.00  0.00     0.002 C 
HETATM   20  C30 UNL     1      -2.991  50.500 -19.303  1.00  0.00     0.007 C 
HETATM   21  C31 UNL     1      -3.579  49.662 -20.439  1.00  0.00     0.014 C 
HETATM   22  C32 UNL     1      -2.762  49.724 -21.753  1.00  0.00     0.003 C 
HETATM   23  C33 UNL     1      -3.027  51.073 -22.449  1.00  0.00     0.020 C 
ENDROOT
BRANCH   3  24
HETATM   24  O1  UNL     1      -2.505  48.778 -24.002  1.00  0.00    -0.377 OA
HETATM   25  H2  UNL     1      -3.000  48.241 -24.643  1.00  0.00     0.211 HD
ENDBRANCH   3  24
BRANCH  13  26
HETATM   26  O2  UNL     1       2.613  51.378 -14.219  1.00  0.00    -0.271 OA
BRANCH  26  27
HETATM   27  C13 UNL     1       1.743  51.795 -13.176  1.00  0.00     0.303 C 
BRANCH  27  28
HETATM   28  C14 UNL     1       2.554  52.198 -11.954  1.00  0.00     0.244 C 
HETATM   29  O3  UNL     1       3.455  51.500 -11.496  1.00  0.00    -0.271 OA
HETATM   30  N2  UNL     1       2.134  53.376 -11.366  1.00  0.00    -0.354 N 
HETATM   31  H16 UNL     1       1.367  53.864 -11.818  1.00  0.00     0.162 HD
BRANCH  30  32
HETATM   32  C15 UNL     1       2.664  53.861 -10.092  1.00  0.00     0.098 C 
BRANCH  32  33
HETATM   33  C16 UNL     1       3.759  54.907 -10.329  1.00  0.00     0.135 C 
BRANCH  33  34
HETATM   34  C17 UNL     1       5.067  54.478  -9.732  1.00  0.00     0.141 C 
HETATM   35  O4  UNL     1       5.244  53.514  -9.004  1.00  0.00    -0.650 OA
BRANCH  34  36
HETATM   36  O5  UNL     1       6.098  55.259 -10.106  1.00  0.00    -0.776 OA
HETATM   37  H20 UNL     1       6.871  54.883  -9.629  1.00  0.00     0.167 HD
ENDBRANCH  34  36
ENDBRANCH  33  34
ENDBRANCH  32  33
BRANCH  32  38
HETATM   38  C18 UNL     1       1.545  54.416  -9.163  1.00  0.00     0.014 C 
HETATM   39  C19 UNL     1       0.333  54.935  -9.949  1.00  0.00     0.033 C 
HETATM   40  C20 UNL     1      -0.742  55.468  -9.014  1.00  0.00     0.169 C 
HETATM   41  O6  UNL     1      -0.220  56.493  -8.170  1.00  0.00    -0.381 OA
HETATM   42  C21 UNL     1       0.882  56.097  -7.340  1.00  0.00     0.054 C 
HETATM   43  C22 UNL     1       1.372  57.382  -6.654  1.00  0.00     0.045 C 
HETATM   44  C23 UNL     1       0.417  55.120  -6.250  1.00  0.00     0.045 C 
HETATM   45  C24 UNL     1       2.025  55.514  -8.197  1.00  0.00     0.044 C 
ENDBRANCH  32  38
ENDBRANCH  30  32
ENDBRANCH  27  28
ENDBRANCH  26  27
ENDBRANCH  13  26
TORSDOF 9
ENDMDL
MODEL 7
REMARK minimizedAffinity -8.22195053
REMARK CNNscore 0.226113573
REMARK CNNaffinity 6.11060953
REMARK  9 active torsions:
REMARK  status: ('A' for Active; 'I' for Inactive)
REMARK    1  A    between atoms: C3_3  and  O1_4 
REMARK    2  A    between atoms: N1_14  and  O2_16 
REMARK    3  A    between atoms: O2_16  and  C13_17 
REMARK    4  A    between atoms: C13_17  and  C14_18 
REMARK       I    between atoms: C14_18  and  N2_20 
REMARK    5  A    between atoms: N2_20  and  C15_21 
REMARK    6  A    between atoms: C15_21  and  C16_22 
REMARK    7  A    between atoms: C15_21  and  C18_26 
REMARK    8  A    between atoms: C16_22  and  C17_23 
REMARK    9  A    between atoms: C17_23  and  O5_25 
ROOT
HETATM    1  C1  UNL     1       0.716  53.710 -20.048  1.00  0.00     0.015 C 
HETATM    2  C2  UNL     1       0.346  52.990 -20.936  1.00  0.00    -0.078 C 
HETATM    3  C3  UNL     1      -0.103  52.102 -22.022  1.00  0.00     0.128 C 
HETATM    4  C4  UNL     1      -0.825  52.867 -23.132  1.00  0.00     0.052 C 
HETATM    5  C5  UNL     1      -1.744  51.842 -23.806  1.00  0.00     0.010 C 
HETATM    6  C6  UNL     1      -1.688  50.550 -22.958  1.00  0.00     0.002 C 
HETATM    7  C7  UNL     1      -3.044  49.805 -22.947  1.00  0.00    -0.004 C 
HETATM    8  C8  UNL     1      -2.846  48.293 -22.673  1.00  0.00     0.010 C 
HETATM    9  C9  UNL     1      -3.990  47.622 -21.920  1.00  0.00     0.035 C 
HETATM   10  C10 UNL     1      -5.301  48.208 -22.351  1.00  0.00    -0.069 C 
HETATM   11  C11 UNL     1      -6.213  47.458 -22.994  1.00  0.00     0.030 C 
HETATM   12  C12 UNL     1      -7.493  48.039 -23.473  1.00  0.00     0.032 C 
HETATM   13  N1  UNL     1      -8.435  47.212 -23.832  1.00  0.00    -0.271 N 
ATOM     14  H1  UNL     1      -8.343  46.196 -23.816  1.00  0.00     0.194 HD
HETATM   15  C25 UNL     1      -7.650  49.549 -23.478  1.00  0.00     0.060 C 
HETATM   16  C26 UNL     1      -6.332  50.283 -23.237  1.00  0.00     0.020 C 
HETATM   17  C27 UNL     1      -5.490  49.694 -22.068  1.00  0.00    -0.016 C 
HETATM   18  C28 UNL     1      -6.278  49.849 -20.749  1.00  0.00     0.020 C 
HETATM   19  C29 UNL     1      -4.104  50.465 -22.024  1.00  0.00     0.002 C 
HETATM   20  C30 UNL     1      -3.510  50.709 -20.623  1.00  0.00     0.007 C 
HETATM   21  C31 UNL     1      -2.265  51.593 -20.695  1.00  0.00     0.014 C 
HETATM   22  C32 UNL     1      -1.133  51.014 -21.580  1.00  0.00     0.003 C 
HETATM   23  C33 UNL     1      -0.428  49.875 -20.817  1.00  0.00     0.020 C 
ENDROOT
BRANCH   3  24
HETATM   24  O1  UNL     1       1.044  51.479 -22.610  1.00  0.00    -0.377 OA
HETATM   25  H2  UNL     1       1.780  52.110 -22.539  1.00  0.00     0.211 HD
ENDBRANCH   3  24
BRANCH  13  26
HETATM   26  O2  UNL     1      -9.592  47.891 -24.243  1.00  0.00    -0.271 OA
BRANCH  26  27
HETATM   27  C13 UNL     1     -10.058  47.314 -25.455  1.00  0.00     0.303 C 
BRANCH  27  28
HETATM   28  C14 UNL     1     -10.849  46.049 -25.155  1.00  0.00     0.244 C 
HETATM   29  O3  UNL     1     -10.338  44.931 -25.155  1.00  0.00    -0.271 OA
HETATM   30  N2  UNL     1     -12.200  46.265 -24.960  1.00  0.00    -0.354 N 
HETATM   31  H16 UNL     1     -12.518  47.228 -24.999  1.00  0.00     0.162 HD
BRANCH  30  32
HETATM   32  C15 UNL     1     -13.166  45.177 -24.822  1.00  0.00     0.098 C 
BRANCH  32  33
HETATM   33  C16 UNL     1     -14.198  45.509 -23.738  1.00  0.00     0.135 C 
BRANCH  33  34
HETATM   34  C17 UNL     1     -14.182  46.969 -23.393  1.00  0.00     0.141 C 
HETATM   35  O4  UNL     1     -13.542  47.488 -22.493  1.00  0.00    -0.650 OA
BRANCH  34  36
HETATM   36  O5  UNL     1     -14.943  47.714 -24.218  1.00  0.00    -0.776 OA
HETATM   37  H20 UNL     1     -14.859  48.628 -23.865  1.00  0.00     0.167 HD
ENDBRANCH  34  36
ENDBRANCH  33  34
ENDBRANCH  32  33
BRANCH  32  38
HETATM   38  C18 UNL     1     -13.858  44.830 -26.173  1.00  0.00     0.014 C 
HETATM   39  C19 UNL     1     -13.875  46.018 -27.145  1.00  0.00     0.033 C 
HETATM   40  C20 UNL     1     -14.555  45.647 -28.454  1.00  0.00     0.169 C 
HETATM   41  O6  UNL     1     -15.881  45.174 -28.224  1.00  0.00    -0.381 OA
HETATM   42  C21 UNL     1     -15.978  44.022 -27.374  1.00  0.00     0.054 C 
HETATM   43  C22 UNL     1     -17.481  43.799 -27.141  1.00  0.00     0.045 C 
HETATM   44  C23 UNL     1     -15.414  42.779 -28.077  1.00  0.00     0.045 C 
HETATM   45  C24 UNL     1     -15.291  44.288 -26.018  1.00  0.00     0.044 C 
ENDBRANCH  32  38
ENDBRANCH  30  32
ENDBRANCH  27  28
ENDBRANCH  26  27
ENDBRANCH  13  26
TORSDOF 9
ENDMDL
MODEL 8
REMARK minimizedAffinity -8.27103424
REMARK CNNscore 0.219991922
REMARK CNNaffinity 5.86741495
REMARK  9 active torsions:
REMARK  status: ('A' for Active; 'I' for Inactive)
REMARK    1  A    between atoms: C3_3  and  O1_4 
REMARK    2  A    between atoms: N1_14  and  O2_16 
REMARK    3  A    between atoms: O2_16  and  C13_17 
REMARK    4  A    between atoms: C13_17  and  C14_18 
REMARK       I    between atoms: C14_18  and  N2_20 
REMARK    5  A    between atoms: N2_20  and  C15_21 
REMARK    6  A    between atoms: C15_21  and  C16_22 
REMARK    7  A    between atoms: C15_21  and  C18_26 
REMARK    8  A    between atoms: C16_22  and  C17_23 
REMARK    9  A    between atoms: C17_23  and  O5_25 
ROOT
HETATM    1  C1  UNL     1      -0.296  54.287 -25.772  1.00  0.00     0.015 C 
HETATM    2  C2  UNL     1      -0.460  53.097 -25.742  1.00  0.00    -0.078 C 
HETATM    3  C3  UNL     1      -0.655  51.638 -25.700  1.00  0.00     0.128 C 
HETATM    4  C4  UNL     1      -1.296  51.104 -26.982  1.00  0.00     0.052 C 
HETATM    5  C5  UNL     1      -1.997  49.802 -26.580  1.00  0.00     0.010 C 
HETATM    6  C6  UNL     1      -1.919  49.698 -25.039  1.00  0.00     0.002 C 
HETATM    7  C7  UNL     1      -3.174  49.021 -24.439  1.00  0.00    -0.004 C 
HETATM    8  C8  UNL     1      -2.853  48.362 -23.075  1.00  0.00     0.010 C 
HETATM    9  C9  UNL     1      -4.011  48.346 -22.081  1.00  0.00     0.035 C 
HETATM   10  C10 UNL     1      -5.306  48.132 -22.806  1.00  0.00    -0.069 C 
HETATM   11  C11 UNL     1      -6.034  47.020 -22.603  1.00  0.00     0.030 C 
HETATM   12  C12 UNL     1      -7.291  46.770 -23.353  1.00  0.00     0.032 C 
HETATM   13  N1  UNL     1      -8.079  45.829 -22.915  1.00  0.00    -0.271 N 
ATOM     14  H1  UNL     1      -7.880  45.248 -22.101  1.00  0.00     0.194 HD
HETATM   15  C25 UNL     1      -7.608  47.646 -24.553  1.00  0.00     0.060 C 
HETATM   16  C26 UNL     1      -6.423  48.505 -24.989  1.00  0.00     0.020 C 
HETATM   17  C27 UNL     1      -5.691  49.212 -23.811  1.00  0.00    -0.016 C 
HETATM   18  C28 UNL     1      -6.666  50.196 -23.127  1.00  0.00     0.020 C 
HETATM   19  C29 UNL     1      -4.417  49.952 -24.397  1.00  0.00     0.002 C 
HETATM   20  C30 UNL     1      -4.052  51.295 -23.737  1.00  0.00     0.007 C 
HETATM   21  C31 UNL     1      -2.912  51.989 -24.483  1.00  0.00     0.014 C 
HETATM   22  C32 UNL     1      -1.613  51.149 -24.567  1.00  0.00     0.003 C 
HETATM   23  C33 UNL     1      -0.900  51.184 -23.200  1.00  0.00     0.020 C 
ENDROOT
BRANCH   3  24
HETATM   24  O1  UNL     1       0.623  51.007 -25.567  1.00  0.00    -0.377 OA
HETATM   25  H2  UNL     1       1.269  51.570 -26.025  1.00  0.00     0.211 HD
ENDBRANCH   3  24
BRANCH  13  26
HETATM   26  O2  UNL     1      -9.234  45.713 -23.702  1.00  0.00    -0.271 OA
BRANCH  26  27
HETATM   27  C13 UNL     1     -10.317  46.336 -23.024  1.00  0.00     0.303 C 
BRANCH  27  28
HETATM   28  C14 UNL     1     -11.506  46.472 -23.964  1.00  0.00     0.244 C 
HETATM   29  O3  UNL     1     -11.582  47.355 -24.814  1.00  0.00    -0.271 OA
HETATM   30  N2  UNL     1     -12.520  45.566 -23.719  1.00  0.00    -0.354 N 
HETATM   31  H16 UNL     1     -12.360  44.890 -22.979  1.00  0.00     0.162 HD
BRANCH  30  32
HETATM   32  C15 UNL     1     -13.817  45.624 -24.393  1.00  0.00     0.098 C 
BRANCH  32  33
HETATM   33  C16 UNL     1     -14.491  46.978 -24.145  1.00  0.00     0.135 C 
BRANCH  33  34
HETATM   34  C17 UNL     1     -14.769  47.194 -22.686  1.00  0.00     0.141 C 
HETATM   35  O4  UNL     1     -14.043  47.771 -21.893  1.00  0.00    -0.650 OA
BRANCH  34  36
HETATM   36  O5  UNL     1     -15.963  46.707 -22.300  1.00  0.00    -0.776 OA
HETATM   37  H20 UNL     1     -16.000  46.893 -21.335  1.00  0.00     0.167 HD
ENDBRANCH  34  36
ENDBRANCH  33  34
ENDBRANCH  32  33
BRANCH  32  38
HETATM   38  C18 UNL     1     -13.702  45.321 -25.916  1.00  0.00     0.014 C 
HETATM   39  C19 UNL     1     -14.530  46.291 -26.771  1.00  0.00     0.033 C 
HETATM   40  C20 UNL     1     -14.395  45.970 -28.252  1.00  0.00     0.169 C 
HETATM   41  O6  UNL     1     -14.778  44.622 -28.518  1.00  0.00    -0.381 OA
HETATM   42  C21 UNL     1     -14.024  43.624 -27.814  1.00  0.00     0.054 C 
HETATM   43  C22 UNL     1     -14.709  42.284 -28.126  1.00  0.00     0.045 C 
HETATM   44  C23 UNL     1     -12.583  43.559 -28.344  1.00  0.00     0.045 C 
HETATM   45  C24 UNL     1     -14.075  43.876 -26.293  1.00  0.00     0.044 C 
ENDBRANCH  32  38
ENDBRANCH  30  32
ENDBRANCH  27  28
ENDBRANCH  26  27
ENDBRANCH  13  26
TORSDOF 9
ENDMDL
MODEL 9
REMARK minimizedAffinity -8.93799973
REMARK CNNscore 0.202960774
REMARK CNNaffinity 5.90917778
REMARK  9 active torsions:
REMARK  status: ('A' for Active; 'I' for Inactive)
REMARK    1  A    between atoms: C3_3  and  O1_4 
REMARK    2  A    between atoms: N1_14  and  O2_16 
REMARK    3  A    between atoms: O2_16  and  C13_17 
REMARK    4  A    between atoms: C13_17  and  C14_18 
REMARK       I    between atoms: C14_18  and  N2_20 
REMARK    5  A    between atoms: N2_20  and  C15_21 
REMARK    6  A    between atoms: C15_21  and  C16_22 
REMARK    7  A    between atoms: C15_21  and  C18_26 
REMARK    8  A    between atoms: C16_22  and  C17_23 
REMARK    9  A    between atoms: C17_23  and  O5_25 
ROOT
HETATM    1  C1  UNL     1       0.253  49.320 -16.548  1.00  0.00     0.015 C 
HETATM    2  C2  UNL     1      -0.255  49.924 -17.454  1.00  0.00    -0.078 C 
HETATM    3  C3  UNL     1      -0.872  50.663 -18.568  1.00  0.00     0.128 C 
HETATM    4  C4  UNL     1      -2.149  51.389 -18.144  1.00  0.00     0.052 C 
HETATM    5  C5  UNL     1      -2.977  51.547 -19.424  1.00  0.00     0.010 C 
HETATM    6  C6  UNL     1      -2.261  50.743 -20.534  1.00  0.00     0.002 C 
HETATM    7  C7  UNL     1      -3.263  50.109 -21.529  1.00  0.00    -0.004 C 
HETATM    8  C8  UNL     1      -2.601  49.872 -22.909  1.00  0.00     0.010 C 
HETATM    9  C9  UNL     1      -3.133  48.666 -23.677  1.00  0.00     0.035 C 
HETATM   10  C10 UNL     1      -4.605  48.517 -23.442  1.00  0.00    -0.069 C 
HETATM   11  C11 UNL     1      -5.483  48.664 -24.450  1.00  0.00     0.030 C 
HETATM   12  C12 UNL     1      -6.947  48.571 -24.222  1.00  0.00     0.032 C 
HETATM   13  N1  UNL     1      -7.716  48.445 -25.267  1.00  0.00    -0.271 N 
ATOM     14  H1  UNL     1      -7.375  48.420 -26.228  1.00  0.00     0.194 HD
HETATM   15  C25 UNL     1      -7.462  48.584 -22.793  1.00  0.00     0.060 C 
HETATM   16  C26 UNL     1      -6.389  48.973 -21.778  1.00  0.00     0.020 C 
HETATM   17  C27 UNL     1      -5.025  48.255 -22.000  1.00  0.00    -0.016 C 
HETATM   18  C28 UNL     1      -5.217  46.735 -21.811  1.00  0.00     0.020 C 
HETATM   19  C29 UNL     1      -3.981  48.853 -20.966  1.00  0.00     0.002 C 
HETATM   20  C30 UNL     1      -2.948  47.861 -20.397  1.00  0.00     0.007 C 
HETATM   21  C31 UNL     1      -2.103  48.508 -19.300  1.00  0.00     0.014 C 
HETATM   22  C32 UNL     1      -1.327  49.765 -19.763  1.00  0.00     0.003 C 
HETATM   23  C33 UNL     1      -0.113  49.326 -20.606  1.00  0.00     0.020 C 
ENDROOT
BRANCH   3  24
HETATM   24  O1  UNL     1       0.051  51.657 -19.027  1.00  0.00    -0.377 OA
HETATM   25  H2  UNL     1       0.569  51.943 -18.257  1.00  0.00     0.211 HD
ENDBRANCH   3  24
BRANCH  13  26
HETATM   26  O2  UNL     1      -9.068  48.350 -24.907  1.00  0.00    -0.271 OA
BRANCH  26  27
HETATM   27  C13 UNL     1      -9.657  47.267 -25.614  1.00  0.00     0.303 C 
BRANCH  27  28
HETATM   28  C14 UNL     1     -10.846  47.761 -26.423  1.00  0.00     0.244 C 
HETATM   29  O3  UNL     1     -11.306  48.894 -26.302  1.00  0.00    -0.271 OA
HETATM   30  N2  UNL     1     -11.405  46.800 -27.243  1.00  0.00    -0.354 N 
HETATM   31  H16 UNL     1     -10.955  45.890 -27.253  1.00  0.00     0.162 HD
BRANCH  30  32
HETATM   32  C15 UNL     1     -12.650  47.012 -27.982  1.00  0.00     0.098 C 
BRANCH  32  33
HETATM   33  C16 UNL     1     -12.390  46.981 -29.492  1.00  0.00     0.135 C 
BRANCH  33  34
HETATM   34  C17 UNL     1     -10.957  47.289 -29.810  1.00  0.00     0.141 C 
HETATM   35  O4  UNL     1     -10.090  46.475 -30.085  1.00  0.00    -0.650 OA
BRANCH  34  36
HETATM   36  O5  UNL     1     -10.687  48.608 -29.802  1.00  0.00    -0.776 OA
HETATM   37  H20 UNL     1      -9.725  48.659 -29.998  1.00  0.00     0.167 HD
ENDBRANCH  34  36
ENDBRANCH  33  34
ENDBRANCH  32  33
BRANCH  32  38
HETATM   38  C18 UNL     1     -13.754  45.990 -27.577  1.00  0.00     0.014 C 
HETATM   39  C19 UNL     1     -14.650  45.596 -28.760  1.00  0.00     0.033 C 
HETATM   40  C20 UNL     1     -15.716  44.598 -28.333  1.00  0.00     0.169 C 
HETATM   41  O6  UNL     1     -16.503  45.119 -27.264  1.00  0.00    -0.381 OA
HETATM   42  C21 UNL     1     -15.770  45.464 -26.079  1.00  0.00     0.054 C 
HETATM   43  C22 UNL     1     -16.783  46.144 -25.144  1.00  0.00     0.045 C 
HETATM   44  C23 UNL     1     -15.245  44.202 -25.379  1.00  0.00     0.045 C 
HETATM   45  C24 UNL     1     -14.640  46.462 -26.410  1.00  0.00     0.044 C 
ENDBRANCH  32  38
ENDBRANCH  30  32
ENDBRANCH  27  28
ENDBRANCH  26  27
ENDBRANCH  13  26
TORSDOF 9
ENDMDL
