MODEL 1
REMARK minimizedAffinity -7.04045439
REMARK CNNscore 0.523793817
REMARK CNNaffinity 5.94836664
REMARK  4 active torsions:
REMARK  status: ('A' for Active; 'I' for Inactive)
REMARK    1  A    between atoms: C2_2  and  C3_3 
REMARK    2  A    between atoms: C7_7  and  C8_8 
REMARK    3  A    between atoms: C8_8  and  C9_9 
REMARK    4  A    between atoms: C26_31  and  O5_32 
ROOT
HETATM    1  C3  UNL     1       4.276  55.368  -8.964  1.00  0.00     0.008 C 
HETATM    2  C4  UNL     1       4.158  54.363  -7.844  1.00  0.00    -0.026 C 
HETATM    3  C5  UNL     1       3.035  53.737  -7.449  1.00  0.00    -0.028 C 
HETATM    4  C6  UNL     1       1.651  53.934  -8.009  1.00  0.00     0.059 C 
HETATM    5  C7  UNL     1       0.553  53.964  -6.930  1.00  0.00     0.135 C 
HETATM    6  O1  UNL     1       0.642  55.187  -6.150  1.00  0.00    -0.315 OA
HETATM    7  C12 UNL     1       1.055  55.057  -4.852  1.00  0.00     0.276 C 
HETATM    8  O2  UNL     1       1.531  54.026  -4.384  1.00  0.00    -0.264 OA
HETATM    9  C13 UNL     1       0.754  56.349  -3.995  1.00  0.00     0.095 C 
HETATM   10  C14 UNL     1       0.617  55.790  -2.544  1.00  0.00     0.036 C 
HETATM   11  C15 UNL     1      -0.607  56.897  -4.406  1.00  0.00     0.003 C 
HETATM   12  C16 UNL     1      -1.230  57.975  -3.912  1.00  0.00     0.072 C 
HETATM   13  C17 UNL     1      -0.740  58.875  -2.855  1.00  0.00     0.245 C 
HETATM   14  O3  UNL     1      -1.561  59.515  -2.199  1.00  0.00    -0.268 OA
HETATM   15  N1  UNL     1       0.589  59.070  -2.661  1.00  0.00    -0.320 N 
HETATM   16  C18 UNL     1       1.720  58.592  -3.286  1.00  0.00     0.098 C 
HETATM   17  C19 UNL     1       1.832  57.448  -3.990  1.00  0.00     0.045 C 
HETATM   18  C20 UNL     1       3.113  57.200  -4.719  1.00  0.00     0.194 C 
HETATM   19  O4  UNL     1       3.249  56.223  -5.436  1.00  0.00    -0.287 OA
HETATM   20  C21 UNL     1       4.262  58.113  -4.576  1.00  0.00     0.046 A 
HETATM   21  C22 UNL     1       4.183  59.156  -3.665  1.00  0.00     0.032 A 
HETATM   22  C23 UNL     1       5.306  59.947  -3.368  1.00  0.00     0.026 A 
HETATM   23  C24 UNL     1       6.540  59.688  -3.972  1.00  0.00    -0.027 A 
HETATM   24  C25 UNL     1       7.747  60.512  -3.624  1.00  0.00     0.051 C 
HETATM   25  C26 UNL     1       6.610  58.668  -4.923  1.00  0.00     0.086 A 
HETATM   26  C27 UNL     1       5.470  57.919  -5.264  1.00  0.00     0.059 A 
HETATM   27  C28 UNL     1       5.610  57.053  -6.455  1.00  0.00     0.163 C 
HETATM   28  O6  UNL     1       6.392  56.109  -6.381  1.00  0.00    -0.292 OA
HETATM   29  C29 UNL     1       5.049  57.591  -7.763  1.00  0.00     0.084 C 
HETATM   30  C30 UNL     1       3.960  56.796  -8.476  1.00  0.00     0.016 C 
HETATM   31  C31 UNL     1       2.903  59.474  -3.028  1.00  0.00     0.210 C 
HETATM   32  O7  UNL     1       2.793  60.450  -2.291  1.00  0.00    -0.285 OA
HETATM   33  H26 UNL     1       0.757  59.862  -2.036  1.00  0.00     0.169 HD
ENDROOT
BRANCH   5  34
HETATM   34  C8  UNL     1      -0.863  53.989  -7.542  1.00  0.00     0.037 C 
BRANCH  34  35
HETATM   35  C9  UNL     1      -0.961  53.794  -9.065  1.00  0.00    -0.020 C 
HETATM   36  C10 UNL     1      -2.067  52.816  -9.461  1.00  0.00     0.009 C 
HETATM   37  C11 UNL     1      -1.201  55.147  -9.743  1.00  0.00     0.009 C 
ENDBRANCH  34  35
ENDBRANCH   5  34
BRANCH   1  38
HETATM   38  C2  UNL     1       5.622  55.212  -9.697  1.00  0.00     0.004 C 
HETATM   39  C1  UNL     1       6.420  53.997  -9.239  1.00  0.00     0.006 C 
ENDBRANCH   1  38
BRANCH  25  40
HETATM   40  O5  UNL     1       7.826  58.430  -5.512  1.00  0.00    -0.359 OA
HETATM   41  H31 UNL     1       7.837  57.510  -5.853  1.00  0.00     0.217 HD
ENDBRANCH  25  40
TORSDOF 4
ENDMDL
MODEL 2
REMARK minimizedAffinity -10.883522
REMARK CNNscore 0.503809929
REMARK CNNaffinity 7.67397356
REMARK  4 active torsions:
REMARK  status: ('A' for Active; 'I' for Inactive)
REMARK    1  A    between atoms: C2_2  and  C3_3 
REMARK    2  A    between atoms: C7_7  and  C8_8 
REMARK    3  A    between atoms: C8_8  and  C9_9 
REMARK    4  A    between atoms: C26_31  and  O5_32 
ROOT
HETATM    1  C3  UNL     1      -4.175  47.135 -19.936  1.00  0.00     0.008 C 
HETATM    2  C4  UNL     1      -5.012  48.334 -20.314  1.00  0.00    -0.026 C 
HETATM    3  C5  UNL     1      -5.431  48.657 -21.550  1.00  0.00    -0.028 C 
HETATM    4  C6  UNL     1      -5.123  47.918 -22.826  1.00  0.00     0.059 C 
HETATM    5  C7  UNL     1      -4.817  48.849 -24.014  1.00  0.00     0.135 C 
HETATM    6  O1  UNL     1      -3.531  49.499 -23.829  1.00  0.00    -0.315 OA
HETATM    7  C12 UNL     1      -3.555  50.844 -23.576  1.00  0.00     0.276 C 
HETATM    8  O2  UNL     1      -4.574  51.472 -23.304  1.00  0.00    -0.264 OA
HETATM    9  C13 UNL     1      -2.140  51.516 -23.773  1.00  0.00     0.095 C 
HETATM   10  C14 UNL     1      -2.494  52.992 -24.138  1.00  0.00     0.036 C 
HETATM   11  C15 UNL     1      -1.471  50.891 -24.991  1.00  0.00     0.003 C 
HETATM   12  C16 UNL     1      -0.268  51.189 -25.498  1.00  0.00     0.072 C 
HETATM   13  C17 UNL     1       0.682  52.196 -24.995  1.00  0.00     0.245 C 
HETATM   14  O3  UNL     1       1.500  52.678 -25.778  1.00  0.00    -0.268 OA
HETATM   15  N1  UNL     1       0.722  52.525 -23.679  1.00  0.00    -0.320 N 
HETATM   16  C18 UNL     1       0.026  52.093 -22.570  1.00  0.00     0.098 C 
HETATM   17  C19 UNL     1      -1.200  51.533 -22.554  1.00  0.00     0.045 C 
HETATM   18  C20 UNL     1      -1.703  50.993 -21.253  1.00  0.00     0.194 C 
HETATM   19  O4  UNL     1      -2.768  50.405 -21.188  1.00  0.00    -0.287 OA
HETATM   20  C21 UNL     1      -0.938  51.174 -20.006  1.00  0.00     0.046 A 
HETATM   21  C22 UNL     1       0.209  51.953 -20.026  1.00  0.00     0.032 A 
HETATM   22  C23 UNL     1       0.875  52.296 -18.837  1.00  0.00     0.026 A 
HETATM   23  C24 UNL     1       0.384  51.874 -17.598  1.00  0.00    -0.027 A 
HETATM   24  C25 UNL     1       1.078  52.274 -16.327  1.00  0.00     0.051 C 
HETATM   25  C26 UNL     1      -0.744  51.052 -17.579  1.00  0.00     0.086 A 
HETATM   26  C27 UNL     1      -1.372  50.659 -18.773  1.00  0.00     0.059 A 
HETATM   27  C28 UNL     1      -2.387  49.593 -18.639  1.00  0.00     0.163 C 
HETATM   28  O6  UNL     1      -3.410  49.859 -18.013  1.00  0.00    -0.292 OA
HETATM   29  C29 UNL     1      -1.944  48.177 -18.978  1.00  0.00     0.084 C 
HETATM   30  C30 UNL     1      -2.669  47.428 -20.091  1.00  0.00     0.016 C 
HETATM   31  C31 UNL     1       0.769  52.396 -21.305  1.00  0.00     0.210 C 
HETATM   32  O7  UNL     1       1.833  53.006 -21.348  1.00  0.00    -0.285 OA
HETATM   33  H26 UNL     1       1.555  53.078 -23.463  1.00  0.00     0.169 HD
ENDROOT
BRANCH   5  34
HETATM   34  C8  UNL     1      -4.680  48.074 -25.340  1.00  0.00     0.037 C 
BRANCH  34  35
HETATM   35  C9  UNL     1      -4.023  48.822 -26.514  1.00  0.00    -0.020 C 
HETATM   36  C10 UNL     1      -2.557  48.436 -26.709  1.00  0.00     0.009 C 
HETATM   37  C11 UNL     1      -4.806  48.548 -27.802  1.00  0.00     0.009 C 
ENDBRANCH  34  35
ENDBRANCH   5  34
BRANCH   1  38
HETATM   38  C2  UNL     1      -4.595  46.589 -18.558  1.00  0.00     0.004 C 
HETATM   39  C1  UNL     1      -5.828  47.280 -17.988  1.00  0.00     0.006 C 
ENDBRANCH   1  38
BRANCH  25  40
HETATM   40  O5  UNL     1      -1.211  50.641 -16.356  1.00  0.00    -0.359 OA
HETATM   41  H31 UNL     1      -2.159  50.404 -16.443  1.00  0.00     0.217 HD
ENDBRANCH  25  40
TORSDOF 4
ENDMDL
MODEL 3
REMARK minimizedAffinity -10.2918777
REMARK CNNscore 0.495951802
REMARK CNNaffinity 7.36935806
REMARK  4 active torsions:
REMARK  status: ('A' for Active; 'I' for Inactive)
REMARK    1  A    between atoms: C2_2  and  C3_3 
REMARK    2  A    between atoms: C7_7  and  C8_8 
REMARK    3  A    between atoms: C8_8  and  C9_9 
REMARK    4  A    between atoms: C26_31  and  O5_32 
ROOT
HETATM    1  C3  UNL     1      -2.462  48.798 -17.678  1.00  0.00     0.008 C 
HETATM    2  C4  UNL     1      -3.686  49.616 -18.009  1.00  0.00    -0.026 C 
HETATM    3  C5  UNL     1      -4.788  49.181 -18.648  1.00  0.00    -0.028 C 
HETATM    4  C6  UNL     1      -5.019  47.802 -19.205  1.00  0.00     0.059 C 
HETATM    5  C7  UNL     1      -5.713  47.805 -20.579  1.00  0.00     0.135 C 
HETATM    6  O1  UNL     1      -4.807  48.298 -21.602  1.00  0.00    -0.315 OA
HETATM    7  C12 UNL     1      -5.098  49.522 -22.140  1.00  0.00     0.276 C 
HETATM    8  O2  UNL     1      -5.937  50.291 -21.678  1.00  0.00    -0.264 OA
HETATM    9  C13 UNL     1      -4.307  49.792 -23.480  1.00  0.00     0.095 C 
HETATM   10  C14 UNL     1      -5.234  50.788 -24.245  1.00  0.00     0.036 C 
HETATM   11  C15 UNL     1      -4.259  48.499 -24.284  1.00  0.00     0.003 C 
HETATM   12  C16 UNL     1      -3.690  48.309 -25.480  1.00  0.00     0.072 C 
HETATM   13  C17 UNL     1      -2.981  49.311 -26.295  1.00  0.00     0.245 C 
HETATM   14  O3  UNL     1      -2.918  49.143 -27.512  1.00  0.00    -0.268 OA
HETATM   15  N1  UNL     1      -2.332  50.352 -25.716  1.00  0.00    -0.320 N 
HETATM   16  C18 UNL     1      -2.137  50.741 -24.407  1.00  0.00     0.098 C 
HETATM   17  C19 UNL     1      -2.914  50.432 -23.349  1.00  0.00     0.045 C 
HETATM   18  C20 UNL     1      -2.430  50.829 -21.991  1.00  0.00     0.194 C 
HETATM   19  O4  UNL     1      -3.046  50.511 -20.988  1.00  0.00    -0.287 OA
HETATM   20  C21 UNL     1      -1.208  51.635 -21.821  1.00  0.00     0.046 A 
HETATM   21  C22 UNL     1      -0.562  52.124 -22.948  1.00  0.00     0.032 A 
HETATM   22  C23 UNL     1       0.502  53.035 -22.837  1.00  0.00     0.026 A 
HETATM   23  C24 UNL     1       0.925  53.487 -21.583  1.00  0.00    -0.027 A 
HETATM   24  C25 UNL     1       2.039  54.490 -21.470  1.00  0.00     0.051 C 
HETATM   25  C26 UNL     1       0.307  52.962 -20.447  1.00  0.00     0.086 A 
HETATM   26  C27 UNL     1      -0.716  52.004 -20.559  1.00  0.00     0.059 A 
HETATM   27  C28 UNL     1      -1.109  51.341 -19.297  1.00  0.00     0.163 C 
HETATM   28  O6  UNL     1      -1.646  52.032 -18.436  1.00  0.00    -0.292 OA
HETATM   29  C29 UNL     1      -0.516  49.964 -19.032  1.00  0.00     0.084 C 
HETATM   30  C30 UNL     1      -1.460  48.781 -18.851  1.00  0.00     0.016 C 
HETATM   31  C31 UNL     1      -0.959  51.657 -24.278  1.00  0.00     0.210 C 
HETATM   32  O7  UNL     1      -0.338  52.006 -25.278  1.00  0.00    -0.285 OA
HETATM   33  H26 UNL     1      -1.733  50.833 -26.391  1.00  0.00     0.169 HD
ENDROOT
BRANCH   5  34
HETATM   34  C8  UNL     1      -6.094  46.383 -21.041  1.00  0.00     0.037 C 
BRANCH  34  35
HETATM   35  C9  UNL     1      -5.011  45.298 -20.902  1.00  0.00    -0.020 C 
HETATM   36  C10 UNL     1      -3.596  45.859 -21.045  1.00  0.00     0.009 C 
HETATM   37  C11 UNL     1      -5.155  44.599 -19.546  1.00  0.00     0.009 C 
ENDBRANCH  34  35
ENDBRANCH   5  34
BRANCH   1  38
HETATM   38  C2  UNL     1      -1.870  49.227 -16.321  1.00  0.00     0.004 C 
HETATM   39  C1  UNL     1      -0.762  48.304 -15.829  1.00  0.00     0.006 C 
ENDBRANCH   1  38
BRANCH  25  40
HETATM   40  O5  UNL     1       0.736  53.412 -19.224  1.00  0.00    -0.359 OA
HETATM   41  H31 UNL     1       0.021  53.270 -18.566  1.00  0.00     0.217 HD
ENDBRANCH  25  40
TORSDOF 4
ENDMDL
MODEL 4
REMARK minimizedAffinity -8.48570824
REMARK CNNscore 0.431005418
REMARK CNNaffinity 7.00555849
REMARK  4 active torsions:
REMARK  status: ('A' for Active; 'I' for Inactive)
REMARK    1  A    between atoms: C2_2  and  C3_3 
REMARK    2  A    between atoms: C7_7  and  C8_8 
REMARK    3  A    between atoms: C8_8  and  C9_9 
REMARK    4  A    between atoms: C26_31  and  O5_32 
ROOT
HETATM    1  C3  UNL     1       6.268  49.971  -8.749  1.00  0.00     0.008 C 
HETATM    2  C4  UNL     1       6.775  51.177  -9.504  1.00  0.00    -0.026 C 
HETATM    3  C5  UNL     1       6.834  52.439  -9.044  1.00  0.00    -0.028 C 
HETATM    4  C6  UNL     1       6.370  52.928  -7.697  1.00  0.00     0.059 C 
HETATM    5  C7  UNL     1       5.641  54.283  -7.756  1.00  0.00     0.135 C 
HETATM    6  O1  UNL     1       4.341  54.132  -8.386  1.00  0.00    -0.315 OA
HETATM    7  C12 UNL     1       4.191  54.694  -9.624  1.00  0.00     0.276 C 
HETATM    8  O2  UNL     1       5.122  55.129 -10.297  1.00  0.00    -0.264 OA
HETATM    9  C13 UNL     1       2.675  54.815 -10.048  1.00  0.00     0.095 C 
HETATM   10  C14 UNL     1       2.676  56.026 -11.033  1.00  0.00     0.036 C 
HETATM   11  C15 UNL     1       1.860  55.218  -8.826  1.00  0.00     0.003 C 
HETATM   12  C16 UNL     1       0.540  55.432  -8.766  1.00  0.00     0.072 C 
HETATM   13  C17 UNL     1      -0.427  55.330  -9.873  1.00  0.00     0.245 C 
HETATM   14  O3  UNL     1      -1.474  55.971  -9.802  1.00  0.00    -0.268 OA
HETATM   15  N1  UNL     1      -0.217  54.480 -10.910  1.00  0.00    -0.320 N 
HETATM   16  C18 UNL     1       0.781  53.578 -11.211  1.00  0.00     0.098 C 
HETATM   17  C19 UNL     1       2.055  53.605 -10.771  1.00  0.00     0.045 C 
HETATM   18  C20 UNL     1       2.931  52.438 -11.097  1.00  0.00     0.194 C 
HETATM   19  O4  UNL     1       4.068  52.366 -10.663  1.00  0.00    -0.287 OA
HETATM   20  C21 UNL     1       2.457  51.349 -11.970  1.00  0.00     0.046 A 
HETATM   21  C22 UNL     1       1.219  51.469 -12.585  1.00  0.00     0.032 A 
HETATM   22  C23 UNL     1       0.799  50.545 -13.557  1.00  0.00     0.026 A 
HETATM   23  C24 UNL     1       1.629  49.487 -13.942  1.00  0.00    -0.027 A 
HETATM   24  C25 UNL     1       1.191  48.523 -15.007  1.00  0.00     0.051 C 
HETATM   25  C26 UNL     1       2.855  49.339 -13.291  1.00  0.00     0.086 A 
HETATM   26  C27 UNL     1       3.247  50.229 -12.276  1.00  0.00     0.059 A 
HETATM   27  C28 UNL     1       4.434  49.821 -11.494  1.00  0.00     0.163 C 
HETATM   28  O6  UNL     1       5.512  49.779 -12.080  1.00  0.00    -0.292 OA
HETATM   29  C29 UNL     1       4.175  49.165 -10.146  1.00  0.00     0.084 C 
HETATM   30  C30 UNL     1       4.739  49.820  -8.890  1.00  0.00     0.016 C 
HETATM   31  C31 UNL     1       0.311  52.549 -12.194  1.00  0.00     0.210 C 
HETATM   32  O7  UNL     1      -0.823  52.616 -12.659  1.00  0.00    -0.285 OA
HETATM   33  H26 UNL     1      -1.059  54.381 -11.481  1.00  0.00     0.169 HD
ENDROOT
BRANCH   5  34
HETATM   34  C8  UNL     1       5.336  54.841  -6.350  1.00  0.00     0.037 C 
BRANCH  34  35
HETATM   35  C9  UNL     1       5.866  56.251  -6.036  1.00  0.00    -0.020 C 
HETATM   36  C10 UNL     1       7.392  56.328  -6.083  1.00  0.00     0.009 C 
HETATM   37  C11 UNL     1       5.266  57.258  -7.023  1.00  0.00     0.009 C 
ENDBRANCH  34  35
ENDBRANCH   5  34
BRANCH   1  38
HETATM   38  C2  UNL     1       7.084  48.716  -9.115  1.00  0.00     0.004 C 
HETATM   39  C1  UNL     1       8.536  48.790  -8.659  1.00  0.00     0.006 C 
ENDBRANCH   1  38
BRANCH  25  40
HETATM   40  O5  UNL     1       3.656  48.294 -13.675  1.00  0.00    -0.359 OA
HETATM   41  H31 UNL     1       4.585  48.502 -13.436  1.00  0.00     0.217 HD
ENDBRANCH  25  40
TORSDOF 4
ENDMDL
MODEL 5
REMARK minimizedAffinity -6.79486322
REMARK CNNscore 0.327135712
REMARK CNNaffinity 5.62851191
REMARK  4 active torsions:
REMARK  status: ('A' for Active; 'I' for Inactive)
REMARK    1  A    between atoms: C2_2  and  C3_3 
REMARK    2  A    between atoms: C7_7  and  C8_8 
REMARK    3  A    between atoms: C8_8  and  C9_9 
REMARK    4  A    between atoms: C26_31  and  O5_32 
ROOT
HETATM    1  C3  UNL     1     -12.739  45.798 -22.077  1.00  0.00     0.008 C 
HETATM    2  C4  UNL     1     -13.599  46.860 -22.719  1.00  0.00    -0.026 C 
HETATM    3  C5  UNL     1     -14.850  47.199 -22.356  1.00  0.00    -0.028 C 
HETATM    4  C6  UNL     1     -15.672  46.569 -21.265  1.00  0.00     0.059 C 
HETATM    5  C7  UNL     1     -17.150  46.371 -21.649  1.00  0.00     0.135 C 
HETATM    6  O1  UNL     1     -17.278  45.320 -22.644  1.00  0.00    -0.315 OA
HETATM    7  C12 UNL     1     -17.641  45.711 -23.904  1.00  0.00     0.276 C 
HETATM    8  O2  UNL     1     -17.667  46.880 -24.278  1.00  0.00    -0.264 OA
HETATM    9  C13 UNL     1     -18.123  44.498 -24.793  1.00  0.00     0.095 C 
HETATM   10  C14 UNL     1     -19.097  45.167 -25.812  1.00  0.00     0.036 C 
HETATM   11  C15 UNL     1     -18.946  43.556 -23.923  1.00  0.00     0.003 C 
HETATM   12  C16 UNL     1     -19.540  42.416 -24.298  1.00  0.00     0.072 C 
HETATM   13  C17 UNL     1     -19.537  41.816 -25.644  1.00  0.00     0.245 C 
HETATM   14  O3  UNL     1     -20.456  41.060 -25.954  1.00  0.00    -0.268 OA
HETATM   15  N1  UNL     1     -18.500  42.014 -26.496  1.00  0.00    -0.320 N 
HETATM   16  C18 UNL     1     -17.310  42.703 -26.401  1.00  0.00     0.098 C 
HETATM   17  C19 UNL     1     -17.041  43.742 -25.584  1.00  0.00     0.045 C 
HETATM   18  C20 UNL     1     -15.633  44.240 -25.531  1.00  0.00     0.194 C 
HETATM   19  O4  UNL     1     -15.308  45.124 -24.756  1.00  0.00    -0.287 OA
HETATM   20  C21 UNL     1     -14.596  43.696 -26.427  1.00  0.00     0.046 A 
HETATM   21  C22 UNL     1     -14.964  42.788 -27.409  1.00  0.00     0.032 A 
HETATM   22  C23 UNL     1     -14.051  42.373 -28.393  1.00  0.00     0.026 A 
HETATM   23  C24 UNL     1     -12.749  42.883 -28.418  1.00  0.00    -0.027 A 
HETATM   24  C25 UNL     1     -11.788  42.465 -29.495  1.00  0.00     0.051 C 
HETATM   25  C26 UNL     1     -12.364  43.763 -27.405  1.00  0.00     0.086 A 
HETATM   26  C27 UNL     1     -13.260  44.127 -26.386  1.00  0.00     0.059 A 
HETATM   27  C28 UNL     1     -12.664  44.850 -25.242  1.00  0.00     0.163 C 
HETATM   28  O6  UNL     1     -12.213  45.973 -25.453  1.00  0.00    -0.292 OA
HETATM   29  C29 UNL     1     -12.349  44.029 -24.000  1.00  0.00     0.084 C 
HETATM   30  C30 UNL     1     -13.015  44.406 -22.682  1.00  0.00     0.016 C 
HETATM   31  C31 UNL     1     -16.311  42.213 -27.404  1.00  0.00     0.210 C 
HETATM   32  O7  UNL     1     -16.624  41.339 -28.207  1.00  0.00    -0.285 OA
HETATM   33  H26 UNL     1     -18.554  41.377 -27.295  1.00  0.00     0.169 HD
ENDROOT
BRANCH   5  34
HETATM   34  C8  UNL     1     -18.002  45.889 -20.456  1.00  0.00     0.037 C 
BRANCH  34  35
HETATM   35  C9  UNL     1     -18.217  46.894 -19.310  1.00  0.00    -0.020 C 
HETATM   36  C10 UNL     1     -16.939  47.649 -18.945  1.00  0.00     0.009 C 
HETATM   37  C11 UNL     1     -19.313  47.891 -19.699  1.00  0.00     0.009 C 
ENDBRANCH  34  35
ENDBRANCH   5  34
BRANCH   1  38
HETATM   38  C2  UNL     1     -11.258  46.225 -22.073  1.00  0.00     0.004 C 
HETATM   39  C1  UNL     1     -10.821  46.868 -20.763  1.00  0.00     0.006 C 
ENDBRANCH   1  38
BRANCH  25  40
HETATM   40  O5  UNL     1     -11.082  44.250 -27.440  1.00  0.00    -0.359 OA
HETATM   41  H31 UNL     1     -11.050  45.091 -26.935  1.00  0.00     0.217 HD
ENDBRANCH  25  40
TORSDOF 4
ENDMDL
MODEL 6
REMARK minimizedAffinity -7.80502224
REMARK CNNscore 0.323884368
REMARK CNNaffinity 6.15193605
REMARK  4 active torsions:
REMARK  status: ('A' for Active; 'I' for Inactive)
REMARK    1  A    between atoms: C2_2  and  C3_3 
REMARK    2  A    between atoms: C7_7  and  C8_8 
REMARK    3  A    between atoms: C8_8  and  C9_9 
REMARK    4  A    between atoms: C26_31  and  O5_32 
ROOT
HETATM    1  C3  UNL     1       4.036  71.685 -37.594  1.00  0.00     0.008 C 
HETATM    2  C4  UNL     1       4.836  70.695 -38.406  1.00  0.00    -0.026 C 
HETATM    3  C5  UNL     1       4.392  69.526 -38.902  1.00  0.00    -0.028 C 
HETATM    4  C6  UNL     1       3.019  68.936 -38.721  1.00  0.00     0.059 C 
HETATM    5  C7  UNL     1       3.034  67.417 -38.465  1.00  0.00     0.135 C 
HETATM    6  O1  UNL     1       3.565  67.132 -37.143  1.00  0.00    -0.315 OA
HETATM    7  C12 UNL     1       4.793  66.531 -37.092  1.00  0.00     0.276 C 
HETATM    8  O2  UNL     1       5.536  66.408 -38.061  1.00  0.00    -0.264 OA
HETATM    9  C13 UNL     1       5.104  65.922 -35.668  1.00  0.00     0.095 C 
HETATM   10  C14 UNL     1       6.095  64.760 -35.987  1.00  0.00     0.036 C 
HETATM   11  C15 UNL     1       3.827  65.298 -35.118  1.00  0.00     0.003 C 
HETATM   12  C16 UNL     1       3.671  64.671 -33.946  1.00  0.00     0.072 C 
HETATM   13  C17 UNL     1       4.702  64.439 -32.920  1.00  0.00     0.245 C 
HETATM   14  O3  UNL     1       4.559  63.496 -32.143  1.00  0.00    -0.268 OA
HETATM   15  N1  UNL     1       5.745  65.294 -32.768  1.00  0.00    -0.320 N 
HETATM   16  C18 UNL     1       6.112  66.465 -33.397  1.00  0.00     0.098 C 
HETATM   17  C19 UNL     1       5.769  66.856 -34.641  1.00  0.00     0.045 C 
HETATM   18  C20 UNL     1       6.149  68.237 -35.068  1.00  0.00     0.194 C 
HETATM   19  O4  UNL     1       5.800  68.678 -36.149  1.00  0.00    -0.287 OA
HETATM   20  C21 UNL     1       6.975  69.102 -34.206  1.00  0.00     0.046 A 
HETATM   21  C22 UNL     1       7.498  68.579 -33.032  1.00  0.00     0.032 A 
HETATM   22  C23 UNL     1       8.428  69.303 -32.266  1.00  0.00     0.026 A 
HETATM   23  C24 UNL     1       8.865  70.565 -32.680  1.00  0.00    -0.027 A 
HETATM   24  C25 UNL     1       9.886  71.319 -31.878  1.00  0.00     0.051 C 
HETATM   25  C26 UNL     1       8.306  71.111 -33.837  1.00  0.00     0.086 A 
HETATM   26  C27 UNL     1       7.330  70.411 -34.568  1.00  0.00     0.059 A 
HETATM   27  C28 UNL     1       6.635  71.192 -35.614  1.00  0.00     0.163 C 
HETATM   28  O6  UNL     1       7.300  71.569 -36.576  1.00  0.00    -0.292 OA
HETATM   29  C29 UNL     1       5.266  71.752 -35.257  1.00  0.00     0.084 C 
HETATM   30  C30 UNL     1       4.061  71.334 -36.092  1.00  0.00     0.016 C 
HETATM   31  C31 UNL     1       7.049  67.271 -32.551  1.00  0.00     0.210 C 
HETATM   32  O7  UNL     1       7.429  66.835 -31.468  1.00  0.00    -0.285 OA
HETATM   33  H26 UNL     1       6.251  65.108 -31.899  1.00  0.00     0.169 HD
ENDROOT
BRANCH   5  34
HETATM   34  C8  UNL     1       1.614  66.814 -38.459  1.00  0.00     0.037 C 
BRANCH  34  35
HETATM   35  C9  UNL     1       0.804  66.940 -39.762  1.00  0.00    -0.020 C 
HETATM   36  C10 UNL     1      -0.159  68.127 -39.740  1.00  0.00     0.009 C 
HETATM   37  C11 UNL     1       1.761  67.072 -40.951  1.00  0.00     0.009 C 
ENDBRANCH  34  35
ENDBRANCH   5  34
BRANCH   1  38
HETATM   38  C2  UNL     1       4.451  73.129 -37.933  1.00  0.00     0.004 C 
HETATM   39  C1  UNL     1       5.418  73.218 -39.108  1.00  0.00     0.006 C 
ENDBRANCH   1  38
BRANCH  25  40
HETATM   40  O5  UNL     1       8.740  72.352 -34.229  1.00  0.00    -0.359 OA
HETATM   41  H31 UNL     1       8.572  72.457 -35.190  1.00  0.00     0.217 HD
ENDBRANCH  25  40
TORSDOF 4
ENDMDL
MODEL 7
REMARK minimizedAffinity -6.89155817
REMARK CNNscore 0.305722654
REMARK CNNaffinity 5.94766188
REMARK  4 active torsions:
REMARK  status: ('A' for Active; 'I' for Inactive)
REMARK    1  A    between atoms: C2_2  and  C3_3 
REMARK    2  A    between atoms: C7_7  and  C8_8 
REMARK    3  A    between atoms: C8_8  and  C9_9 
REMARK    4  A    between atoms: C26_31  and  O5_32 
ROOT
HETATM    1  C3  UNL     1       4.457  57.785  -5.299  1.00  0.00     0.008 C 
HETATM    2  C4  UNL     1       4.185  56.569  -4.447  1.00  0.00    -0.026 C 
HETATM    3  C5  UNL     1       5.087  55.649  -4.058  1.00  0.00    -0.028 C 
HETATM    4  C6  UNL     1       6.547  55.612  -4.423  1.00  0.00     0.059 C 
HETATM    5  C7  UNL     1       7.062  54.196  -4.744  1.00  0.00     0.135 C 
HETATM    6  O1  UNL     1       6.515  53.734  -6.008  1.00  0.00    -0.315 OA
HETATM    7  C12 UNL     1       5.599  52.720  -5.945  1.00  0.00     0.276 C 
HETATM    8  O2  UNL     1       5.080  52.329  -4.903  1.00  0.00    -0.264 OA
HETATM    9  C13 UNL     1       5.362  52.038  -7.350  1.00  0.00     0.095 C 
HETATM   10  C14 UNL     1       4.917  50.590  -6.972  1.00  0.00     0.036 C 
HETATM   11  C15 UNL     1       6.700  51.933  -8.070  1.00  0.00     0.003 C 
HETATM   12  C16 UNL     1       6.931  51.409  -9.280  1.00  0.00     0.072 C 
HETATM   13  C17 UNL     1       5.940  50.809 -10.191  1.00  0.00     0.245 C 
HETATM   14  O3  UNL     1       6.324  49.987 -11.021  1.00  0.00    -0.268 OA
HETATM   15  N1  UNL     1       4.645  51.216 -10.182  1.00  0.00    -0.320 N 
HETATM   16  C18 UNL     1       3.952  52.166  -9.463  1.00  0.00     0.098 C 
HETATM   17  C19 UNL     1       4.278  52.657  -8.250  1.00  0.00     0.045 C 
HETATM   18  C20 UNL     1       3.471  53.798  -7.720  1.00  0.00     0.194 C 
HETATM   19  O4  UNL     1       3.763  54.338  -6.667  1.00  0.00    -0.287 OA
HETATM   20  C21 UNL     1       2.284  54.293  -8.441  1.00  0.00     0.046 A 
HETATM   21  C22 UNL     1       1.850  53.613  -9.571  1.00  0.00     0.032 A 
HETATM   22  C23 UNL     1       0.632  53.939 -10.191  1.00  0.00     0.026 A 
HETATM   23  C24 UNL     1      -0.185  54.948  -9.672  1.00  0.00    -0.027 A 
HETATM   24  C25 UNL     1      -1.503  55.268 -10.316  1.00  0.00     0.051 C 
HETATM   25  C26 UNL     1       0.271  55.663  -8.563  1.00  0.00     0.086 A 
HETATM   26  C27 UNL     1       1.519  55.377  -7.982  1.00  0.00     0.059 A 
HETATM   27  C28 UNL     1       2.000  56.360  -6.988  1.00  0.00     0.163 C 
HETATM   28  O6  UNL     1       1.367  56.464  -5.940  1.00  0.00    -0.292 OA
HETATM   29  C29 UNL     1       3.010  57.389  -7.474  1.00  0.00     0.084 C 
HETATM   30  C30 UNL     1       4.378  57.449  -6.802  1.00  0.00     0.016 C 
HETATM   31  C31 UNL     1       2.688  52.566 -10.159  1.00  0.00     0.210 C 
HETATM   32  O7  UNL     1       2.365  52.019 -11.209  1.00  0.00    -0.285 OA
HETATM   33  H26 UNL     1       4.141  50.854 -10.995  1.00  0.00     0.169 HD
ENDROOT
BRANCH   5  34
HETATM   34  C8  UNL     1       8.592  54.165  -4.940  1.00  0.00     0.037 C 
BRANCH  34  35
HETATM   35  C9  UNL     1       9.396  55.302  -4.286  1.00  0.00    -0.020 C 
HETATM   36  C10 UNL     1      10.427  54.789  -3.281  1.00  0.00     0.009 C 
HETATM   37  C11 UNL     1      10.098  56.126  -5.371  1.00  0.00     0.009 C 
ENDBRANCH  34  35
ENDBRANCH   5  34
BRANCH   1  38
HETATM   38  C2  UNL     1       3.583  58.972  -4.849  1.00  0.00     0.004 C 
HETATM   39  C1  UNL     1       4.208  59.785  -3.721  1.00  0.00     0.006 C 
ENDBRANCH   1  38
BRANCH  25  40
HETATM   40  O5  UNL     1      -0.539  56.654  -8.068  1.00  0.00    -0.359 OA
HETATM   41  H31 UNL     1      -0.304  56.815  -7.129  1.00  0.00     0.217 HD
ENDBRANCH  25  40
TORSDOF 4
ENDMDL
MODEL 8
REMARK minimizedAffinity -6.99839544
REMARK CNNscore 0.250733614
REMARK CNNaffinity 6.11969757
REMARK  4 active torsions:
REMARK  status: ('A' for Active; 'I' for Inactive)
REMARK    1  A    between atoms: C2_2  and  C3_3 
REMARK    2  A    between atoms: C7_7  and  C8_8 
REMARK    3  A    between atoms: C8_8  and  C9_9 
REMARK    4  A    between atoms: C26_31  and  O5_32 
ROOT
HETATM    1  C3  UNL     1       1.675  49.236 -13.627  1.00  0.00     0.008 C 
HETATM    2  C4  UNL     1       0.860  48.730 -12.461  1.00  0.00    -0.026 C 
HETATM    3  C5  UNL     1      -0.351  49.176 -12.081  1.00  0.00    -0.028 C 
HETATM    4  C6  UNL     1      -1.133  50.300 -12.707  1.00  0.00     0.059 C 
HETATM    5  C7  UNL     1      -1.830  51.209 -11.678  1.00  0.00     0.135 C 
HETATM    6  O1  UNL     1      -0.850  52.006 -10.961  1.00  0.00    -0.315 OA
HETATM    7  C12 UNL     1      -0.657  51.699  -9.642  1.00  0.00     0.276 C 
HETATM    8  O2  UNL     1      -1.102  50.690  -9.101  1.00  0.00    -0.264 OA
HETATM    9  C13 UNL     1       0.115  52.838  -8.867  1.00  0.00     0.095 C 
HETATM   10  C14 UNL     1      -0.376  52.664  -7.396  1.00  0.00     0.036 C 
HETATM   11  C15 UNL     1      -0.388  54.188  -9.363  1.00  0.00     0.003 C 
HETATM   12  C16 UNL     1       0.006  55.400  -8.953  1.00  0.00     0.072 C 
HETATM   13  C17 UNL     1       1.016  55.704  -7.924  1.00  0.00     0.245 C 
HETATM   14  O3  UNL     1       0.953  56.784  -7.338  1.00  0.00    -0.268 OA
HETATM   15  N1  UNL     1       2.049  54.858  -7.685  1.00  0.00    -0.320 N 
HETATM   16  C18 UNL     1       2.439  53.656  -8.237  1.00  0.00     0.098 C 
HETATM   17  C19 UNL     1       1.653  52.766  -8.875  1.00  0.00     0.045 C 
HETATM   18  C20 UNL     1       2.314  51.599  -9.535  1.00  0.00     0.194 C 
HETATM   19  O4  UNL     1       1.668  50.802 -10.194  1.00  0.00    -0.287 OA
HETATM   20  C21 UNL     1       3.761  51.361  -9.393  1.00  0.00     0.046 A 
HETATM   21  C22 UNL     1       4.497  52.173  -8.541  1.00  0.00     0.032 A 
HETATM   22  C23 UNL     1       5.838  51.882  -8.239  1.00  0.00     0.026 A 
HETATM   23  C24 UNL     1       6.461  50.752  -8.778  1.00  0.00    -0.027 A 
HETATM   24  C25 UNL     1       7.883  50.424  -8.423  1.00  0.00     0.051 C 
HETATM   25  C26 UNL     1       5.737  49.959  -9.670  1.00  0.00     0.086 A 
HETATM   26  C27 UNL     1       4.415  50.287 -10.019  1.00  0.00     0.059 A 
HETATM   27  C28 UNL     1       3.849  49.529 -11.155  1.00  0.00     0.163 C 
HETATM   28  O6  UNL     1       3.667  48.324 -10.999  1.00  0.00    -0.292 OA
HETATM   29  C29 UNL     1       3.861  50.217 -12.512  1.00  0.00     0.084 C 
HETATM   30  C30 UNL     1       2.535  50.453 -13.227  1.00  0.00     0.016 C 
HETATM   31  C31 UNL     1       3.888  53.379  -7.976  1.00  0.00     0.210 C 
HETATM   32  O7  UNL     1       4.551  54.158  -7.297  1.00  0.00    -0.285 OA
HETATM   33  H26 UNL     1       2.758  55.300  -7.096  1.00  0.00     0.169 HD
ENDROOT
BRANCH   5  34
HETATM   34  C8  UNL     1      -2.762  52.239 -12.349  1.00  0.00     0.037 C 
BRANCH  34  35
HETATM   35  C9  UNL     1      -4.019  52.649 -11.562  1.00  0.00    -0.020 C 
HETATM   36  C10 UNL     1      -4.499  51.553 -10.610  1.00  0.00     0.009 C 
HETATM   37  C11 UNL     1      -3.737  53.932 -10.774  1.00  0.00     0.009 C 
ENDBRANCH  34  35
ENDBRANCH   5  34
BRANCH   1  38
HETATM   38  C2  UNL     1       2.448  48.082 -14.293  1.00  0.00     0.004 C 
HETATM   39  C1  UNL     1       1.554  46.921 -14.711  1.00  0.00     0.006 C 
ENDBRANCH   1  38
BRANCH  25  40
HETATM   40  O5  UNL     1       6.363  48.857 -10.194  1.00  0.00    -0.359 OA
HETATM   41  H31 UNL     1       5.681  48.214 -10.485  1.00  0.00     0.217 HD
ENDBRANCH  25  40
TORSDOF 4
ENDMDL
MODEL 9
REMARK minimizedAffinity -7.78600359
REMARK CNNscore 0.250141501
REMARK CNNaffinity 6.3826251
REMARK  4 active torsions:
REMARK  status: ('A' for Active; 'I' for Inactive)
REMARK    1  A    between atoms: C2_2  and  C3_3 
REMARK    2  A    between atoms: C7_7  and  C8_8 
REMARK    3  A    between atoms: C8_8  and  C9_9 
REMARK    4  A    between atoms: C26_31  and  O5_32 
ROOT
HETATM    1  C3  UNL     1      -1.329  53.561  -9.851  1.00  0.00     0.008 C 
HETATM    2  C4  UNL     1      -0.450  54.459 -10.688  1.00  0.00    -0.026 C 
HETATM    3  C5  UNL     1       0.542  54.066 -11.507  1.00  0.00    -0.028 C 
HETATM    4  C6  UNL     1       1.014  52.655 -11.734  1.00  0.00     0.059 C 
HETATM    5  C7  UNL     1       2.547  52.529 -11.823  1.00  0.00     0.135 C 
HETATM    6  O1  UNL     1       3.148  52.748 -10.519  1.00  0.00    -0.315 OA
HETATM    7  C12 UNL     1       3.868  53.901 -10.361  1.00  0.00     0.276 C 
HETATM    8  O2  UNL     1       3.865  54.826 -11.169  1.00  0.00    -0.264 OA
HETATM    9  C13 UNL     1       4.784  53.866  -9.076  1.00  0.00     0.095 C 
HETATM   10  C14 UNL     1       5.951  54.835  -9.442  1.00  0.00     0.036 C 
HETATM   11  C15 UNL     1       5.374  52.468  -8.939  1.00  0.00     0.003 C 
HETATM   12  C16 UNL     1       6.209  52.029  -7.988  1.00  0.00     0.072 C 
HETATM   13  C17 UNL     1       6.749  52.803  -6.856  1.00  0.00     0.245 C 
HETATM   14  O3  UNL     1       7.811  52.444  -6.351  1.00  0.00    -0.268 OA
HETATM   15  N1  UNL     1       6.053  53.836  -6.318  1.00  0.00    -0.320 N 
HETATM   16  C18 UNL     1       4.822  54.395  -6.588  1.00  0.00     0.098 C 
HETATM   17  C19 UNL     1       4.152  54.348  -7.757  1.00  0.00     0.045 C 
HETATM   18  C20 UNL     1       2.758  54.887  -7.785  1.00  0.00     0.194 C 
HETATM   19  O4  UNL     1       2.072  54.803  -8.789  1.00  0.00    -0.287 OA
HETATM   20  C21 UNL     1       2.177  55.559  -6.608  1.00  0.00     0.046 A 
HETATM   21  C22 UNL     1       2.978  55.788  -5.499  1.00  0.00     0.032 A 
HETATM   22  C23 UNL     1       2.525  56.572  -4.425  1.00  0.00     0.026 A 
HETATM   23  C24 UNL     1       1.255  57.158  -4.456  1.00  0.00    -0.027 A 
HETATM   24  C25 UNL     1       0.788  58.026  -3.322  1.00  0.00     0.051 C 
HETATM   25  C26 UNL     1       0.430  56.891  -5.550  1.00  0.00     0.086 A 
HETATM   26  C27 UNL     1       0.863  56.056  -6.595  1.00  0.00     0.059 A 
HETATM   27  C28 UNL     1      -0.181  55.646  -7.558  1.00  0.00     0.163 C 
HETATM   28  O6  UNL     1      -0.678  56.521  -8.263  1.00  0.00    -0.292 OA
HETATM   29  C29 UNL     1      -0.792  54.266  -7.361  1.00  0.00     0.084 C 
HETATM   30  C30 UNL     1      -0.677  53.245  -8.489  1.00  0.00     0.016 C 
HETATM   31  C31 UNL     1       4.305  55.173  -5.417  1.00  0.00     0.210 C 
HETATM   32  O7  UNL     1       4.989  55.288  -4.405  1.00  0.00    -0.285 OA
HETATM   33  H26 UNL     1       6.463  54.133  -5.430  1.00  0.00     0.169 HD
ENDROOT
BRANCH   5  34
HETATM   34  C8  UNL     1       2.991  51.109 -12.229  1.00  0.00     0.037 C 
BRANCH  34  35
HETATM   35  C9  UNL     1       3.387  50.904 -13.702  1.00  0.00    -0.020 C 
HETATM   36  C10 UNL     1       4.332  49.717 -13.896  1.00  0.00     0.009 C 
HETATM   37  C11 UNL     1       2.127  50.704 -14.551  1.00  0.00     0.009 C 
ENDBRANCH  34  35
ENDBRANCH   5  34
BRANCH   1  38
HETATM   38  C2  UNL     1      -2.763  54.120  -9.774  1.00  0.00     0.004 C 
HETATM   39  C1  UNL     1      -3.659  53.635 -10.907  1.00  0.00     0.006 C 
ENDBRANCH   1  38
BRANCH  25  40
HETATM   40  O5  UNL     1      -0.814  57.468  -5.565  1.00  0.00    -0.359 OA
HETATM   41  H31 UNL     1      -1.130  57.516  -6.492  1.00  0.00     0.217 HD
ENDBRANCH  25  40
TORSDOF 4
ENDMDL
