MODEL 1
REMARK minimizedAffinity -9.12836838
REMARK CNNscore 0.439875007
REMARK CNNaffinity 6.91192198
REMARK  15 active torsions:
REMARK  status: ('A' for Active; 'I' for Inactive)
REMARK    1  A    between atoms: O1_2  and  C2_3 
REMARK    2  A    between atoms: C6_8  and  C7_9 
REMARK    3  A    between atoms: C7_9  and  O3_11 
REMARK    4  A    between atoms: C8_12  and  C9_13 
REMARK    5  A    between atoms: C9_13  and  C10_14 
REMARK    6  A    between atoms: C10_14  and  N2_15 
REMARK       I    between atoms: N2_15  and  C11_16 
REMARK    7  A    between atoms: C11_16  and  C12_18 
REMARK    8  A    between atoms: C12_18  and  C13_19 
REMARK    9  A    between atoms: C13_19  and  C14_20 
REMARK   10  A    between atoms: C14_20  and  O6_22 
REMARK   11  A    between atoms: O6_22  and  C15_23 
REMARK   12  A    between atoms: C15_23  and  C16_24 
REMARK   13  A    between atoms: C16_24  and  C17_26 
REMARK   14  A    between atoms: C17_26  and  O8_27 
REMARK   15  A    between atoms: C32_43  and  O10_44 
ROOT
HETATM    1  O6  UNL     1       1.563   8.851  13.055  1.00  0.00    -0.314 OA
ENDROOT
BRANCH   1   2
HETATM    2  C14 UNL     1       2.832   9.159  13.417  1.00  0.00     0.259 C 
HETATM    3  O5  UNL     1       3.207  10.303  13.665  1.00  0.00    -0.265 OA
BRANCH   2   4
HETATM    4  C13 UNL     1       3.749   7.957  13.460  1.00  0.00     0.120 C 
BRANCH   4   5
HETATM    5  C12 UNL     1       4.729   7.958  14.629  1.00  0.00     0.112 C 
BRANCH   5   6
HETATM    6  C11 UNL     1       6.157   7.728  14.172  1.00  0.00     0.218 C 
HETATM    7  N2  UNL     1       7.051   7.673  15.219  1.00  0.00    -0.361 N 
HETATM    8  H12 UNL     1       6.760   8.076  16.102  1.00  0.00     0.162 HD
HETATM    9  O4  UNL     1       6.470   7.572  12.999  1.00  0.00    -0.274 OA
BRANCH   7  10
HETATM   10  C10 UNL     1       8.483   7.612  14.972  1.00  0.00     0.127 C 
BRANCH  10  11
HETATM   11  C9  UNL     1       9.312   8.077  16.170  1.00  0.00     0.061 C 
BRANCH  11  12
HETATM   12  C8  UNL     1       9.832   9.482  16.027  1.00  0.00    -0.011 A 
HETATM   13  C6  UNL     1      10.337  10.091  14.879  1.00  0.00     0.114 A 
HETATM   14  N1  UNL     1      10.687  11.376  15.232  1.00  0.00    -0.350 N 
HETATM   15  C5  UNL     1      10.440  11.616  16.558  1.00  0.00     0.043 A 
HETATM   16  H6  UNL     1      11.084  12.047  14.586  1.00  0.00     0.166 HD
HETATM   17  C4  UNL     1      10.653  12.769  17.322  1.00  0.00     0.033 A 
HETATM   18  C36 UNL     1       9.906  10.447  17.089  1.00  0.00     0.002 A 
HETATM   19  C3  UNL     1      10.310  12.727  18.679  1.00  0.00     0.039 A 
HETATM   20  C2  UNL     1       9.774  11.573  19.249  1.00  0.00     0.069 A 
HETATM   21  C37 UNL     1       9.565  10.433  18.458  1.00  0.00     0.051 A 
BRANCH  13  22
HETATM   22  C7  UNL     1      10.530   9.639  13.530  1.00  0.00     0.194 C 
HETATM   23  O2  UNL     1      11.139  10.228  12.651  1.00  0.00    -0.645 OA
BRANCH  22  24
HETATM   24  O3  UNL     1       9.952   8.448  13.289  1.00  0.00    -0.772 OA
HETATM   25  H7  UNL     1      10.173   8.281  12.350  1.00  0.00     0.167 HD
ENDBRANCH  22  24
ENDBRANCH  13  22
BRANCH  20  26
HETATM   26  O1  UNL     1       9.406  11.423  20.560  1.00  0.00    -0.356 OA
HETATM   27  C1  UNL     1       9.669  12.516  21.432  1.00  0.00     0.210 C 
ENDBRANCH  20  26
ENDBRANCH  11  12
ENDBRANCH  10  11
ENDBRANCH   7  10
ENDBRANCH   5   6
ENDBRANCH   4   5
ENDBRANCH   2   4
ENDBRANCH   1   2
BRANCH   1  28
HETATM   28  C15 UNL     1       1.376   7.606  12.395  1.00  0.00     0.260 C 
BRANCH  28  29
HETATM   29  C16 UNL     1       0.422   6.696  13.146  1.00  0.00     0.185 C 
HETATM   30  O7  UNL     1       0.720   6.312  14.283  1.00  0.00    -0.292 OA
BRANCH  29  31
HETATM   31  C17 UNL     1      -0.954   6.367  12.495  1.00  0.00     0.128 C 
HETATM   32  C18 UNL     1      -0.965   4.913  11.922  1.00  0.00     0.047 C 
HETATM   33  C19 UNL     1      -2.364   4.329  12.200  1.00  0.00     0.009 C 
HETATM   34  C20 UNL     1      -3.180   5.511  12.713  1.00  0.00     0.002 C 
HETATM   35  C21 UNL     1      -4.476   5.220  13.485  1.00  0.00    -0.002 C 
HETATM   36  C34 UNL     1      -2.149   6.342  13.515  1.00  0.00     0.001 C 
HETATM   37  C22 UNL     1      -5.438   4.377  12.632  1.00  0.00     0.010 C 
HETATM   38  C31 UNL     1      -5.153   6.574  13.881  1.00  0.00     0.031 C 
HETATM   39  C23 UNL     1      -6.758   4.131  13.349  1.00  0.00     0.035 C 
HETATM   40  C24 UNL     1      -7.409   5.422  13.784  1.00  0.00    -0.068 C 
HETATM   41  C25 UNL     1      -8.688   5.672  13.454  1.00  0.00     0.053 C 
HETATM   42  C29 UNL     1      -6.538   6.375  14.618  1.00  0.00    -0.014 C 
HETATM   43  C26 UNL     1      -9.400   6.866  13.962  1.00  0.00     0.149 C 
HETATM   44  O9  UNL     1     -10.533   7.113  13.559  1.00  0.00    -0.293 OA
HETATM   45  C27 UNL     1      -8.718   7.688  15.025  1.00  0.00     0.084 C 
HETATM   46  C28 UNL     1      -7.228   7.770  14.734  1.00  0.00     0.022 C 
HETATM   47  C30 UNL     1      -6.416   5.763  16.034  1.00  0.00     0.020 C 
HETATM   48  C32 UNL     1      -4.166   7.560  14.572  1.00  0.00     0.124 C 
HETATM   49  C33 UNL     1      -2.817   7.699  13.836  1.00  0.00     0.045 C 
HETATM   50  C35 UNL     1      -1.702   5.639  14.827  1.00  0.00     0.019 C 
BRANCH  31  51
HETATM   51  O8  UNL     1      -1.243   7.199  11.372  1.00  0.00    -0.381 OA
HETATM   52  H19 UNL     1      -1.398   8.120  11.664  1.00  0.00     0.211 HD
ENDBRANCH  31  51
BRANCH  48  53
HETATM   53  O10 UNL     1      -3.921   7.189  15.920  1.00  0.00    -0.395 OA
HETATM   54  H40 UNL     1      -3.426   7.908  16.347  1.00  0.00     0.210 HD
ENDBRANCH  48  53
ENDBRANCH  29  31
ENDBRANCH  28  29
ENDBRANCH   1  28
TORSDOF 15
ENDMDL
MODEL 2
REMARK minimizedAffinity -9.70956707
REMARK CNNscore 0.409670562
REMARK CNNaffinity 6.41611338
REMARK  15 active torsions:
REMARK  status: ('A' for Active; 'I' for Inactive)
REMARK    1  A    between atoms: O1_2  and  C2_3 
REMARK    2  A    between atoms: C6_8  and  C7_9 
REMARK    3  A    between atoms: C7_9  and  O3_11 
REMARK    4  A    between atoms: C8_12  and  C9_13 
REMARK    5  A    between atoms: C9_13  and  C10_14 
REMARK    6  A    between atoms: C10_14  and  N2_15 
REMARK       I    between atoms: N2_15  and  C11_16 
REMARK    7  A    between atoms: C11_16  and  C12_18 
REMARK    8  A    between atoms: C12_18  and  C13_19 
REMARK    9  A    between atoms: C13_19  and  C14_20 
REMARK   10  A    between atoms: C14_20  and  O6_22 
REMARK   11  A    between atoms: O6_22  and  C15_23 
REMARK   12  A    between atoms: C15_23  and  C16_24 
REMARK   13  A    between atoms: C16_24  and  C17_26 
REMARK   14  A    between atoms: C17_26  and  O8_27 
REMARK   15  A    between atoms: C32_43  and  O10_44 
ROOT
HETATM    1  O6  UNL     1       4.149   8.031  13.725  1.00  0.00    -0.314 OA
ENDROOT
BRANCH   1   2
HETATM    2  C14 UNL     1       3.046   7.667  14.422  1.00  0.00     0.259 C 
HETATM    3  O5  UNL     1       2.979   7.695  15.648  1.00  0.00    -0.265 OA
BRANCH   2   4
HETATM    4  C13 UNL     1       1.911   7.196  13.540  1.00  0.00     0.120 C 
BRANCH   4   5
HETATM    5  C12 UNL     1       2.352   6.656  12.183  1.00  0.00     0.112 C 
BRANCH   5   6
HETATM    6  C11 UNL     1       1.254   5.857  11.506  1.00  0.00     0.218 C 
HETATM    7  N2  UNL     1      -0.007   6.231  11.912  1.00  0.00    -0.361 N 
HETATM    8  H12 UNL     1      -0.084   6.737  12.787  1.00  0.00     0.162 HD
HETATM    9  O4  UNL     1       1.473   4.998  10.661  1.00  0.00    -0.274 OA
BRANCH   7  10
HETATM   10  C10 UNL     1      -1.179   5.479  11.490  1.00  0.00     0.127 C 
BRANCH  10  11
HETATM   11  C9  UNL     1      -1.747   4.595  12.600  1.00  0.00     0.061 C 
BRANCH  11  12
HETATM   12  C8  UNL     1      -2.678   3.527  12.094  1.00  0.00    -0.011 A 
HETATM   13  C6  UNL     1      -2.350   2.384  11.366  1.00  0.00     0.114 A 
HETATM   14  N1  UNL     1      -3.528   1.709  11.131  1.00  0.00    -0.350 N 
HETATM   15  C5  UNL     1      -4.601   2.374  11.666  1.00  0.00     0.043 A 
HETATM   16  H6  UNL     1      -3.583   0.838  10.619  1.00  0.00     0.166 HD
HETATM   17  C4  UNL     1      -5.962   2.050  11.651  1.00  0.00     0.033 A 
HETATM   18  C36 UNL     1      -4.104   3.521  12.275  1.00  0.00     0.002 A 
HETATM   19  C3  UNL     1      -6.851   2.930  12.280  1.00  0.00     0.039 A 
HETATM   20  C2  UNL     1      -6.392   4.092  12.899  1.00  0.00     0.069 A 
HETATM   21  C37 UNL     1      -5.021   4.389  12.905  1.00  0.00     0.051 A 
BRANCH  13  22
HETATM   22  C7  UNL     1      -1.109   1.854  10.874  1.00  0.00     0.194 C 
HETATM   23  O2  UNL     1       0.002   2.073  11.329  1.00  0.00    -0.645 OA
BRANCH  22  24
HETATM   24  O3  UNL     1      -1.271   1.053   9.804  1.00  0.00    -0.772 OA
HETATM   25  H7  UNL     1      -0.355   0.776   9.595  1.00  0.00     0.167 HD
ENDBRANCH  22  24
ENDBRANCH  13  22
BRANCH  20  26
HETATM   26  O1  UNL     1      -7.171   5.020  13.540  1.00  0.00    -0.356 OA
HETATM   27  C1  UNL     1      -8.346   5.451  12.865  1.00  0.00     0.210 C 
ENDBRANCH  20  26
ENDBRANCH  11  12
ENDBRANCH  10  11
ENDBRANCH   7  10
ENDBRANCH   5   6
ENDBRANCH   4   5
ENDBRANCH   2   4
ENDBRANCH   1   2
BRANCH   1  28
HETATM   28  C15 UNL     1       5.377   8.046  14.441  1.00  0.00     0.260 C 
BRANCH  28  29
HETATM   29  C16 UNL     1       6.565   7.734  13.550  1.00  0.00     0.185 C 
HETATM   30  O7  UNL     1       6.475   6.825  12.718  1.00  0.00    -0.292 OA
BRANCH  29  31
HETATM   31  C17 UNL     1       7.822   8.649  13.647  1.00  0.00     0.128 C 
HETATM   32  C18 UNL     1       7.730   9.830  12.627  1.00  0.00     0.047 C 
HETATM   33  C19 UNL     1       8.309  11.076  13.325  1.00  0.00     0.009 C 
HETATM   34  C20 UNL     1       8.916  10.544  14.620  1.00  0.00     0.002 C 
HETATM   35  C21 UNL     1       9.198  11.541  15.755  1.00  0.00    -0.002 C 
HETATM   36  C34 UNL     1       7.959   9.395  15.023  1.00  0.00     0.001 C 
HETATM   37  C22 UNL     1      10.137  12.659  15.273  1.00  0.00     0.010 C 
HETATM   38  C31 UNL     1       9.842  10.779  16.959  1.00  0.00     0.031 C 
HETATM   39  C23 UNL     1      10.486  13.625  16.397  1.00  0.00     0.035 C 
HETATM   40  C24 UNL     1      11.066  12.907  17.592  1.00  0.00    -0.068 C 
HETATM   41  C25 UNL     1      12.235  13.314  18.116  1.00  0.00     0.053 C 
HETATM   42  C29 UNL     1      10.238  11.740  18.152  1.00  0.00    -0.014 C 
HETATM   43  C26 UNL     1      12.777  12.719  19.357  1.00  0.00     0.149 C 
HETATM   44  O9  UNL     1      13.894  13.046  19.748  1.00  0.00    -0.293 OA
HETATM   45  C27 UNL     1      11.885  11.785  20.134  1.00  0.00     0.084 C 
HETATM   46  C28 UNL     1      11.087  10.919  19.172  1.00  0.00     0.022 C 
HETATM   47  C30 UNL     1       9.027  12.353  18.895  1.00  0.00     0.020 C 
HETATM   48  C32 UNL     1       9.039   9.509  17.366  1.00  0.00     0.124 C 
HETATM   49  C33 UNL     1       8.647   8.618  16.168  1.00  0.00     0.045 C 
HETATM   50  C35 UNL     1       6.565   9.908  15.481  1.00  0.00     0.019 C 
BRANCH  31  51
HETATM   51  O8  UNL     1       9.026   7.967  13.300  1.00  0.00    -0.381 OA
HETATM   52  H19 UNL     1       9.241   7.294  13.976  1.00  0.00     0.211 HD
ENDBRANCH  31  51
BRANCH  48  53
HETATM   53  O10 UNL     1       7.868   9.847  18.093  1.00  0.00    -0.395 OA
HETATM   54  H40 UNL     1       7.485   9.027  18.450  1.00  0.00     0.210 HD
ENDBRANCH  48  53
ENDBRANCH  29  31
ENDBRANCH  28  29
ENDBRANCH   1  28
TORSDOF 15
ENDMDL
MODEL 3
REMARK minimizedAffinity -9.99034214
REMARK CNNscore 0.369581014
REMARK CNNaffinity 6.90602493
REMARK  15 active torsions:
REMARK  status: ('A' for Active; 'I' for Inactive)
REMARK    1  A    between atoms: O1_2  and  C2_3 
REMARK    2  A    between atoms: C6_8  and  C7_9 
REMARK    3  A    between atoms: C7_9  and  O3_11 
REMARK    4  A    between atoms: C8_12  and  C9_13 
REMARK    5  A    between atoms: C9_13  and  C10_14 
REMARK    6  A    between atoms: C10_14  and  N2_15 
REMARK       I    between atoms: N2_15  and  C11_16 
REMARK    7  A    between atoms: C11_16  and  C12_18 
REMARK    8  A    between atoms: C12_18  and  C13_19 
REMARK    9  A    between atoms: C13_19  and  C14_20 
REMARK   10  A    between atoms: C14_20  and  O6_22 
REMARK   11  A    between atoms: O6_22  and  C15_23 
REMARK   12  A    between atoms: C15_23  and  C16_24 
REMARK   13  A    between atoms: C16_24  and  C17_26 
REMARK   14  A    between atoms: C17_26  and  O8_27 
REMARK   15  A    between atoms: C32_43  and  O10_44 
ROOT
HETATM    1  O6  UNL     1       4.191   6.866   9.588  1.00  0.00    -0.314 OA
ENDROOT
BRANCH   1   2
HETATM    2  C14 UNL     1       3.018   6.622   8.958  1.00  0.00     0.259 C 
HETATM    3  O5  UNL     1       2.657   5.501   8.606  1.00  0.00    -0.265 OA
BRANCH   2   4
HETATM    4  C13 UNL     1       2.203   7.872   8.706  1.00  0.00     0.120 C 
BRANCH   4   5
HETATM    5  C12 UNL     1       0.719   7.728   9.025  1.00  0.00     0.112 C 
BRANCH   5   6
HETATM    6  C11 UNL     1       0.485   7.308  10.464  1.00  0.00     0.218 C 
HETATM    7  N2  UNL     1       0.087   5.994  10.579  1.00  0.00    -0.361 N 
HETATM    8  H12 UNL     1      -0.295   5.549   9.753  1.00  0.00     0.162 HD
HETATM    9  O4  UNL     1       0.669   8.052  11.419  1.00  0.00    -0.274 OA
BRANCH   7  10
HETATM   10  C10 UNL     1      -0.331   5.453  11.862  1.00  0.00     0.127 C 
BRANCH  10  11
HETATM   11  C9  UNL     1      -0.215   3.930  11.930  1.00  0.00     0.061 C 
BRANCH  11  12
HETATM   12  C8  UNL     1      -1.528   3.222  11.736  1.00  0.00    -0.011 A 
HETATM   13  C6  UNL     1      -1.747   1.979  11.145  1.00  0.00     0.114 A 
HETATM   14  N1  UNL     1      -3.104   1.747  11.194  1.00  0.00    -0.350 N 
HETATM   15  C5  UNL     1      -3.769   2.792  11.781  1.00  0.00     0.043 A 
HETATM   16  H6  UNL     1      -3.545   0.911  10.832  1.00  0.00     0.166 HD
HETATM   17  C4  UNL     1      -5.135   2.971  12.022  1.00  0.00     0.033 A 
HETATM   18  C36 UNL     1      -2.810   3.737  12.131  1.00  0.00     0.002 A 
HETATM   19  C3  UNL     1      -5.540   4.160  12.642  1.00  0.00     0.039 A 
HETATM   20  C2  UNL     1      -4.610   5.133  13.004  1.00  0.00     0.069 A 
HETATM   21  C37 UNL     1      -3.245   4.925  12.758  1.00  0.00     0.051 A 
BRANCH  13  22
HETATM   22  C7  UNL     1      -0.874   1.004  10.553  1.00  0.00     0.194 C 
HETATM   23  O2  UNL     1      -0.115   0.256  11.149  1.00  0.00    -0.645 OA
BRANCH  22  24
HETATM   24  O3  UNL     1      -0.956   0.976   9.209  1.00  0.00    -0.772 OA
HETATM   25  H7  UNL     1      -0.318   0.274   8.964  1.00  0.00     0.167 HD
ENDBRANCH  22  24
ENDBRANCH  13  22
BRANCH  20  26
HETATM   26  O1  UNL     1      -4.895   6.328  13.611  1.00  0.00    -0.356 OA
HETATM   27  C1  UNL     1      -5.879   6.311  14.639  1.00  0.00     0.210 C 
ENDBRANCH  20  26
ENDBRANCH  11  12
ENDBRANCH  10  11
ENDBRANCH   7  10
ENDBRANCH   5   6
ENDBRANCH   4   5
ENDBRANCH   2   4
ENDBRANCH   1   2
BRANCH   1  28
HETATM   28  C15 UNL     1       4.123   7.112  10.986  1.00  0.00     0.260 C 
BRANCH  28  29
HETATM   29  C16 UNL     1       5.490   7.076  11.644  1.00  0.00     0.185 C 
HETATM   30  O7  UNL     1       6.045   5.987  11.827  1.00  0.00    -0.292 OA
BRANCH  29  31
HETATM   31  C17 UNL     1       6.192   8.429  11.964  1.00  0.00     0.128 C 
HETATM   32  C18 UNL     1       5.289   9.636  11.552  1.00  0.00     0.047 C 
HETATM   33  C19 UNL     1       5.463  10.720  12.634  1.00  0.00     0.009 C 
HETATM   34  C20 UNL     1       6.610  10.215  13.504  1.00  0.00     0.002 C 
HETATM   35  C21 UNL     1       6.774  10.813  14.910  1.00  0.00    -0.002 C 
HETATM   36  C34 UNL     1       6.418   8.678  13.499  1.00  0.00     0.001 C 
HETATM   37  C22 UNL     1       6.940  12.340  14.833  1.00  0.00     0.010 C 
HETATM   38  C31 UNL     1       8.023  10.170  15.598  1.00  0.00     0.031 C 
HETATM   39  C23 UNL     1       7.172  12.951  16.208  1.00  0.00     0.035 C 
HETATM   40  C24 UNL     1       8.345  12.314  16.914  1.00  0.00    -0.068 C 
HETATM   41  C25 UNL     1       9.324  13.084  17.417  1.00  0.00     0.053 C 
HETATM   42  C29 UNL     1       8.319  10.781  17.028  1.00  0.00    -0.014 C 
HETATM   43  C26 UNL     1      10.426  12.511  18.221  1.00  0.00     0.149 C 
HETATM   44  O9  UNL     1      11.354  13.231  18.577  1.00  0.00    -0.293 OA
HETATM   45  C27 UNL     1      10.313  11.066  18.634  1.00  0.00     0.084 C 
HETATM   46  C28 UNL     1       9.709  10.253  17.500  1.00  0.00     0.022 C 
HETATM   47  C30 UNL     1       7.260  10.419  18.097  1.00  0.00     0.020 C 
HETATM   48  C32 UNL     1       8.015   8.615  15.528  1.00  0.00     0.124 C 
HETATM   49  C33 UNL     1       7.692   8.064  14.122  1.00  0.00     0.045 C 
HETATM   50  C35 UNL     1       5.159   8.228  14.292  1.00  0.00     0.019 C 
BRANCH  31  51
HETATM   51  O8  UNL     1       7.398   8.611  11.223  1.00  0.00    -0.381 OA
HETATM   52  H19 UNL     1       8.080   7.979  11.524  1.00  0.00     0.211 HD
ENDBRANCH  31  51
BRANCH  48  53
HETATM   53  O10 UNL     1       7.104   8.058  16.463  1.00  0.00    -0.395 OA
HETATM   54  H40 UNL     1       7.243   7.096  16.486  1.00  0.00     0.210 HD
ENDBRANCH  48  53
ENDBRANCH  29  31
ENDBRANCH  28  29
ENDBRANCH   1  28
TORSDOF 15
ENDMDL
MODEL 4
REMARK minimizedAffinity -9.6172905
REMARK CNNscore 0.359255821
REMARK CNNaffinity 6.52214098
REMARK  15 active torsions:
REMARK  status: ('A' for Active; 'I' for Inactive)
REMARK    1  A    between atoms: O1_2  and  C2_3 
REMARK    2  A    between atoms: C6_8  and  C7_9 
REMARK    3  A    between atoms: C7_9  and  O3_11 
REMARK    4  A    between atoms: C8_12  and  C9_13 
REMARK    5  A    between atoms: C9_13  and  C10_14 
REMARK    6  A    between atoms: C10_14  and  N2_15 
REMARK       I    between atoms: N2_15  and  C11_16 
REMARK    7  A    between atoms: C11_16  and  C12_18 
REMARK    8  A    between atoms: C12_18  and  C13_19 
REMARK    9  A    between atoms: C13_19  and  C14_20 
REMARK   10  A    between atoms: C14_20  and  O6_22 
REMARK   11  A    between atoms: O6_22  and  C15_23 
REMARK   12  A    between atoms: C15_23  and  C16_24 
REMARK   13  A    between atoms: C16_24  and  C17_26 
REMARK   14  A    between atoms: C17_26  and  O8_27 
REMARK   15  A    between atoms: C32_43  and  O10_44 
ROOT
HETATM    1  O6  UNL     1       5.030   7.353  12.670  1.00  0.00    -0.314 OA
ENDROOT
BRANCH   1   2
HETATM    2  C14 UNL     1       4.631   6.935  11.446  1.00  0.00     0.259 C 
HETATM    3  O5  UNL     1       5.392   6.812  10.489  1.00  0.00    -0.265 OA
BRANCH   2   4
HETATM    4  C13 UNL     1       3.146   6.657  11.365  1.00  0.00     0.120 C 
BRANCH   4   5
HETATM    5  C12 UNL     1       2.293   7.535  12.276  1.00  0.00     0.112 C 
BRANCH   5   6
HETATM    6  C11 UNL     1       0.822   7.169  12.202  1.00  0.00     0.218 C 
HETATM    7  N2  UNL     1       0.607   5.934  11.632  1.00  0.00    -0.361 N 
HETATM    8  H12 UNL     1       1.352   5.546  11.065  1.00  0.00     0.162 HD
HETATM    9  O4  UNL     1      -0.071   7.884  12.639  1.00  0.00    -0.274 OA
BRANCH   7  10
HETATM   10  C10 UNL     1      -0.742   5.476  11.335  1.00  0.00     0.127 C 
BRANCH  10  11
HETATM   11  C9  UNL     1      -1.365   4.682  12.483  1.00  0.00     0.061 C 
BRANCH  11  12
HETATM   12  C8  UNL     1      -2.380   3.670  12.027  1.00  0.00    -0.011 A 
HETATM   13  C6  UNL     1      -2.150   2.489  11.322  1.00  0.00     0.114 A 
HETATM   14  N1  UNL     1      -3.377   1.893  11.132  1.00  0.00    -0.350 N 
HETATM   15  C5  UNL     1      -4.388   2.644  11.674  1.00  0.00     0.043 A 
HETATM   16  H6  UNL     1      -3.506   1.016  10.644  1.00  0.00     0.166 HD
HETATM   17  C4  UNL     1      -5.768   2.416  11.699  1.00  0.00     0.033 A 
HETATM   18  C36 UNL     1      -3.798   3.768  12.241  1.00  0.00     0.002 A 
HETATM   19  C3  UNL     1      -6.578   3.372  12.325  1.00  0.00     0.039 A 
HETATM   20  C2  UNL     1      -6.024   4.513  12.903  1.00  0.00     0.069 A 
HETATM   21  C37 UNL     1      -4.636   4.714  12.869  1.00  0.00     0.051 A 
BRANCH  13  22
HETATM   22  C7  UNL     1      -0.962   1.862  10.815  1.00  0.00     0.194 C 
HETATM   23  O2  UNL     1       0.178   2.041  11.216  1.00  0.00    -0.645 OA
BRANCH  22  24
HETATM   24  O3  UNL     1      -1.210   1.014   9.799  1.00  0.00    -0.772 OA
HETATM   25  H7  UNL     1      -0.321   0.674   9.572  1.00  0.00     0.167 HD
ENDBRANCH  22  24
ENDBRANCH  13  22
BRANCH  20  26
HETATM   26  O1  UNL     1      -6.720   5.509  13.537  1.00  0.00    -0.356 OA
HETATM   27  C1  UNL     1      -7.649   5.109  14.538  1.00  0.00     0.210 C 
ENDBRANCH  20  26
ENDBRANCH  11  12
ENDBRANCH  10  11
ENDBRANCH   7  10
ENDBRANCH   5   6
ENDBRANCH   4   5
ENDBRANCH   2   4
ENDBRANCH   1   2
BRANCH   1  28
HETATM   28  C15 UNL     1       5.554   8.673  12.751  1.00  0.00     0.260 C 
BRANCH  28  29
HETATM   29  C16 UNL     1       7.067   8.683  12.875  1.00  0.00     0.185 C 
HETATM   30  O7  UNL     1       7.755   8.893  11.870  1.00  0.00    -0.292 OA
BRANCH  29  31
HETATM   31  C17 UNL     1       7.694   8.537  14.293  1.00  0.00     0.128 C 
HETATM   32  C18 UNL     1       9.228   8.254  14.197  1.00  0.00     0.047 C 
HETATM   33  C19 UNL     1       9.903   9.032  15.343  1.00  0.00     0.009 C 
HETATM   34  C20 UNL     1       8.745   9.550  16.191  1.00  0.00     0.002 C 
HETATM   35  C21 UNL     1       9.016  10.711  17.161  1.00  0.00    -0.002 C 
HETATM   36  C34 UNL     1       7.641   9.854  15.149  1.00  0.00     0.001 C 
HETATM   37  C22 UNL     1      10.135  10.341  18.150  1.00  0.00     0.010 C 
HETATM   38  C31 UNL     1       7.701  11.047  17.939  1.00  0.00     0.031 C 
HETATM   39  C23 UNL     1      10.377  11.449  19.165  1.00  0.00     0.035 C 
HETATM   40  C24 UNL     1       9.111  11.826  19.896  1.00  0.00    -0.068 C 
HETATM   41  C25 UNL     1       9.095  11.852  21.240  1.00  0.00     0.053 C 
HETATM   42  C29 UNL     1       7.901  12.185  19.019  1.00  0.00    -0.014 C 
HETATM   43  C26 UNL     1       7.916  12.333  21.992  1.00  0.00     0.149 C 
HETATM   44  O9  UNL     1       7.901  12.247  23.217  1.00  0.00    -0.293 OA
HETATM   45  C27 UNL     1       6.805  12.986  21.210  1.00  0.00     0.084 C 
HETATM   46  C28 UNL     1       6.608  12.256  19.890  1.00  0.00     0.022 C 
HETATM   47  C30 UNL     1       8.171  13.585  18.417  1.00  0.00     0.020 C 
HETATM   48  C32 UNL     1       6.476  11.233  16.996  1.00  0.00     0.124 C 
HETATM   49  C33 UNL     1       6.339  10.117  15.938  1.00  0.00     0.045 C 
HETATM   50  C35 UNL     1       7.982  11.075  14.251  1.00  0.00     0.019 C 
BRANCH  31  51
HETATM   51  O8  UNL     1       7.167   7.424  15.014  1.00  0.00    -0.381 OA
HETATM   52  H19 UNL     1       6.231   7.583  15.247  1.00  0.00     0.211 HD
ENDBRANCH  31  51
BRANCH  48  53
HETATM   53  O10 UNL     1       6.513  12.490  16.339  1.00  0.00    -0.395 OA
HETATM   54  H40 UNL     1       5.663  12.620  15.884  1.00  0.00     0.210 HD
ENDBRANCH  48  53
ENDBRANCH  29  31
ENDBRANCH  28  29
ENDBRANCH   1  28
TORSDOF 15
ENDMDL
MODEL 5
REMARK minimizedAffinity -9.19939041
REMARK CNNscore 0.357052267
REMARK CNNaffinity 7.42829943
REMARK  15 active torsions:
REMARK  status: ('A' for Active; 'I' for Inactive)
REMARK    1  A    between atoms: O1_2  and  C2_3 
REMARK    2  A    between atoms: C6_8  and  C7_9 
REMARK    3  A    between atoms: C7_9  and  O3_11 
REMARK    4  A    between atoms: C8_12  and  C9_13 
REMARK    5  A    between atoms: C9_13  and  C10_14 
REMARK    6  A    between atoms: C10_14  and  N2_15 
REMARK       I    between atoms: N2_15  and  C11_16 
REMARK    7  A    between atoms: C11_16  and  C12_18 
REMARK    8  A    between atoms: C12_18  and  C13_19 
REMARK    9  A    between atoms: C13_19  and  C14_20 
REMARK   10  A    between atoms: C14_20  and  O6_22 
REMARK   11  A    between atoms: O6_22  and  C15_23 
REMARK   12  A    between atoms: C15_23  and  C16_24 
REMARK   13  A    between atoms: C16_24  and  C17_26 
REMARK   14  A    between atoms: C17_26  and  O8_27 
REMARK   15  A    between atoms: C32_43  and  O10_44 
ROOT
HETATM    1  O6  UNL     1      -4.476   4.249  12.630  1.00  0.00    -0.314 OA
ENDROOT
BRANCH   1   2
HETATM    2  C14 UNL     1      -3.324   3.691  12.186  1.00  0.00     0.259 C 
HETATM    3  O5  UNL     1      -3.089   2.486  12.240  1.00  0.00    -0.265 OA
BRANCH   2   4
HETATM    4  C13 UNL     1      -2.341   4.704  11.641  1.00  0.00     0.120 C 
BRANCH   4   5
HETATM    5  C12 UNL     1      -0.985   4.702  12.339  1.00  0.00     0.112 C 
BRANCH   5   6
HETATM    6  C11 UNL     1      -0.705   6.019  13.039  1.00  0.00     0.218 C 
HETATM    7  N2  UNL     1       0.349   5.941  13.922  1.00  0.00    -0.361 N 
HETATM    8  H12 UNL     1       0.619   5.019  14.246  1.00  0.00     0.162 HD
HETATM    9  O4  UNL     1      -1.329   7.047  12.810  1.00  0.00    -0.274 OA
BRANCH   7  10
HETATM   10  C10 UNL     1       0.670   7.057  14.798  1.00  0.00     0.127 C 
BRANCH  10  11
HETATM   11  C9  UNL     1       1.233   8.261  14.043  1.00  0.00     0.061 C 
BRANCH  11  12
HETATM   12  C8  UNL     1       2.513   7.961  13.311  1.00  0.00    -0.011 A 
HETATM   13  C6  UNL     1       3.795   7.846  13.847  1.00  0.00     0.114 A 
HETATM   14  N1  UNL     1       4.641   7.564  12.798  1.00  0.00    -0.350 N 
HETATM   15  C5  UNL     1       3.963   7.504  11.609  1.00  0.00     0.043 A 
HETATM   16  H6  UNL     1       5.639   7.429  12.902  1.00  0.00     0.166 HD
HETATM   17  C4  UNL     1       4.430   7.256  10.314  1.00  0.00     0.033 A 
HETATM   18  C36 UNL     1       2.624   7.752  11.894  1.00  0.00     0.002 A 
HETATM   19  C3  UNL     1       3.498   7.262   9.269  1.00  0.00     0.039 A 
HETATM   20  C2  UNL     1       2.148   7.509   9.514  1.00  0.00     0.069 A 
HETATM   21  C37 UNL     1       1.705   7.748  10.823  1.00  0.00     0.051 A 
BRANCH  13  22
HETATM   22  C7  UNL     1       4.318   7.964  15.179  1.00  0.00     0.194 C 
HETATM   23  O2  UNL     1       4.230   8.941  15.907  1.00  0.00    -0.645 OA
BRANCH  22  24
HETATM   24  O3  UNL     1       4.954   6.852  15.592  1.00  0.00    -0.772 OA
HETATM   25  H7  UNL     1       5.242   7.086  16.498  1.00  0.00     0.167 HD
ENDBRANCH  22  24
ENDBRANCH  13  22
BRANCH  20  26
HETATM   26  O1  UNL     1       1.155   7.540   8.570  1.00  0.00    -0.356 OA
HETATM   27  C1  UNL     1       0.071   8.430   8.804  1.00  0.00     0.210 C 
ENDBRANCH  20  26
ENDBRANCH  11  12
ENDBRANCH  10  11
ENDBRANCH   7  10
ENDBRANCH   5   6
ENDBRANCH   4   5
ENDBRANCH   2   4
ENDBRANCH   1   2
BRANCH   1  28
HETATM   28  C15 UNL     1      -4.418   5.622  12.993  1.00  0.00     0.260 C 
BRANCH  28  29
HETATM   29  C16 UNL     1      -4.258   5.814  14.489  1.00  0.00     0.185 C 
HETATM   30  O7  UNL     1      -3.202   5.475  15.034  1.00  0.00    -0.292 OA
BRANCH  29  31
HETATM   31  C17 UNL     1      -5.397   6.536  15.269  1.00  0.00     0.128 C 
HETATM   32  C18 UNL     1      -5.007   8.017  15.579  1.00  0.00     0.047 C 
HETATM   33  C19 UNL     1      -6.283   8.865  15.411  1.00  0.00     0.009 C 
HETATM   34  C20 UNL     1      -7.402   7.845  15.234  1.00  0.00     0.002 C 
HETATM   35  C21 UNL     1      -8.729   8.319  14.621  1.00  0.00    -0.002 C 
HETATM   36  C34 UNL     1      -6.726   6.698  14.445  1.00  0.00     0.001 C 
HETATM   37  C22 UNL     1      -9.328   9.469  15.448  1.00  0.00     0.010 C 
HETATM   38  C31 UNL     1      -9.729   7.117  14.566  1.00  0.00     0.031 C 
HETATM   39  C23 UNL     1     -10.677   9.913  14.899  1.00  0.00     0.035 C 
HETATM   40  C24 UNL     1     -11.646   8.760  14.793  1.00  0.00    -0.068 C 
HETATM   41  C25 UNL     1     -12.868   8.858  15.343  1.00  0.00     0.053 C 
HETATM   42  C29 UNL     1     -11.154   7.528  14.016  1.00  0.00    -0.014 C 
HETATM   43  C26 UNL     1     -13.889   7.804  15.157  1.00  0.00     0.149 C 
HETATM   44  O9  UNL     1     -14.957   7.881  15.758  1.00  0.00    -0.293 OA
HETATM   45  C27 UNL     1     -13.593   6.710  14.163  1.00  0.00     0.084 C 
HETATM   46  C28 UNL     1     -12.124   6.327  14.243  1.00  0.00     0.022 C 
HETATM   47  C30 UNL     1     -11.165   7.899  12.514  1.00  0.00     0.020 C 
HETATM   48  C32 UNL     1      -9.106   5.846  13.918  1.00  0.00     0.124 C 
HETATM   49  C33 UNL     1      -7.703   5.501  14.463  1.00  0.00     0.045 C 
HETATM   50  C35 UNL     1      -6.387   7.095  12.980  1.00  0.00     0.019 C 
BRANCH  31  51
HETATM   51  O8  UNL     1      -5.644   5.953  16.547  1.00  0.00    -0.381 OA
HETATM   52  H19 UNL     1      -6.033   5.062  16.444  1.00  0.00     0.211 HD
ENDBRANCH  31  51
BRANCH  48  53
HETATM   53  O10 UNL     1      -9.037   5.965  12.506  1.00  0.00    -0.395 OA
HETATM   54  H40 UNL     1      -8.785   5.100  12.140  1.00  0.00     0.210 HD
ENDBRANCH  48  53
ENDBRANCH  29  31
ENDBRANCH  28  29
ENDBRANCH   1  28
TORSDOF 15
ENDMDL
MODEL 6
REMARK minimizedAffinity -8.76332664
REMARK CNNscore 0.319369376
REMARK CNNaffinity 6.67794037
REMARK  15 active torsions:
REMARK  status: ('A' for Active; 'I' for Inactive)
REMARK    1  A    between atoms: O1_2  and  C2_3 
REMARK    2  A    between atoms: C6_8  and  C7_9 
REMARK    3  A    between atoms: C7_9  and  O3_11 
REMARK    4  A    between atoms: C8_12  and  C9_13 
REMARK    5  A    between atoms: C9_13  and  C10_14 
REMARK    6  A    between atoms: C10_14  and  N2_15 
REMARK       I    between atoms: N2_15  and  C11_16 
REMARK    7  A    between atoms: C11_16  and  C12_18 
REMARK    8  A    between atoms: C12_18  and  C13_19 
REMARK    9  A    between atoms: C13_19  and  C14_20 
REMARK   10  A    between atoms: C14_20  and  O6_22 
REMARK   11  A    between atoms: O6_22  and  C15_23 
REMARK   12  A    between atoms: C15_23  and  C16_24 
REMARK   13  A    between atoms: C16_24  and  C17_26 
REMARK   14  A    between atoms: C17_26  and  O8_27 
REMARK   15  A    between atoms: C32_43  and  O10_44 
ROOT
HETATM    1  O6  UNL     1      -9.851   6.865  14.343  1.00  0.00    -0.314 OA
ENDROOT
BRANCH   1   2
HETATM    2  C14 UNL     1      -8.648   6.246  14.290  1.00  0.00     0.259 C 
HETATM    3  O5  UNL     1      -7.950   6.033  15.278  1.00  0.00    -0.265 OA
BRANCH   2   4
HETATM    4  C13 UNL     1      -8.235   5.863  12.885  1.00  0.00     0.120 C 
BRANCH   4   5
HETATM    5  C12 UNL     1      -7.922   4.381  12.705  1.00  0.00     0.112 C 
BRANCH   5   6
HETATM    6  C11 UNL     1      -6.429   4.113  12.703  1.00  0.00     0.218 C 
HETATM    7  N2  UNL     1      -6.054   3.184  11.759  1.00  0.00    -0.361 N 
HETATM    8  H12 UNL     1      -6.775   2.571  11.395  1.00  0.00     0.162 HD
HETATM    9  O4  UNL     1      -5.642   4.693  13.441  1.00  0.00    -0.274 OA
BRANCH   7  10
HETATM   10  C10 UNL     1      -4.689   2.683  11.707  1.00  0.00     0.127 C 
BRANCH  10  11
HETATM   11  C9  UNL     1      -3.774   3.543  10.836  1.00  0.00     0.061 C 
BRANCH  11  12
HETATM   12  C8  UNL     1      -2.352   3.588  11.327  1.00  0.00    -0.011 A 
HETATM   13  C6  UNL     1      -1.366   2.615  11.175  1.00  0.00     0.114 A 
HETATM   14  N1  UNL     1      -0.230   3.100  11.785  1.00  0.00    -0.350 N 
HETATM   15  C5  UNL     1      -0.446   4.337  12.332  1.00  0.00     0.043 A 
HETATM   16  H6  UNL     1       0.645   2.593  11.825  1.00  0.00     0.166 HD
HETATM   17  C4  UNL     1       0.423   5.174  13.041  1.00  0.00     0.033 A 
HETATM   18  C36 UNL     1      -1.768   4.673  12.066  1.00  0.00     0.002 A 
HETATM   19  C3  UNL     1      -0.076   6.400  13.497  1.00  0.00     0.039 A 
HETATM   20  C2  UNL     1      -1.398   6.772  13.253  1.00  0.00     0.069 A 
HETATM   21  C37 UNL     1      -2.245   5.917  12.533  1.00  0.00     0.051 A 
BRANCH  13  22
HETATM   22  C7  UNL     1      -1.349   1.322  10.550  1.00  0.00     0.194 C 
HETATM   23  O2  UNL     1      -0.639   0.978   9.618  1.00  0.00    -0.645 OA
BRANCH  22  24
HETATM   24  O3  UNL     1      -2.231   0.464  11.098  1.00  0.00    -0.772 OA
HETATM   25  H7  UNL     1      -2.097  -0.353  10.577  1.00  0.00     0.167 HD
ENDBRANCH  22  24
ENDBRANCH  13  22
BRANCH  20  26
HETATM   26  O1  UNL     1      -1.988   7.942  13.653  1.00  0.00    -0.356 OA
HETATM   27  C1  UNL     1      -2.662   8.699  12.655  1.00  0.00     0.210 C 
ENDBRANCH  20  26
ENDBRANCH  11  12
ENDBRANCH  10  11
ENDBRANCH   7  10
ENDBRANCH   5   6
ENDBRANCH   4   5
ENDBRANCH   2   4
ENDBRANCH   1   2
BRANCH   1  28
HETATM   28  C15 UNL     1      -9.847   8.228  14.749  1.00  0.00     0.260 C 
BRANCH  28  29
HETATM   29  C16 UNL     1     -11.168   8.917  14.462  1.00  0.00     0.185 C 
HETATM   30  O7  UNL     1     -11.330  10.088  14.821  1.00  0.00    -0.292 OA
BRANCH  29  31
HETATM   31  C17 UNL     1     -12.235   8.150  13.626  1.00  0.00     0.128 C 
HETATM   32  C18 UNL     1     -12.548   6.758  14.264  1.00  0.00     0.047 C 
HETATM   33  C19 UNL     1     -14.061   6.517  14.104  1.00  0.00     0.009 C 
HETATM   34  C20 UNL     1     -14.536   7.647  13.196  1.00  0.00     0.002 C 
HETATM   35  C21 UNL     1     -16.038   7.975  13.167  1.00  0.00    -0.002 C 
HETATM   36  C34 UNL     1     -13.646   8.844  13.610  1.00  0.00     0.001 C 
HETATM   37  C22 UNL     1     -16.855   6.735  12.767  1.00  0.00     0.010 C 
HETATM   38  C31 UNL     1     -16.290   9.137  12.151  1.00  0.00     0.031 C 
HETATM   39  C23 UNL     1     -18.342   7.050  12.666  1.00  0.00     0.035 C 
HETATM   40  C24 UNL     1     -18.608   8.201  11.726  1.00  0.00    -0.068 C 
HETATM   41  C25 UNL     1     -19.505   8.063  10.735  1.00  0.00     0.053 C 
HETATM   42  C29 UNL     1     -17.824   9.495  11.997  1.00  0.00    -0.014 C 
HETATM   43  C26 UNL     1     -19.885   9.202   9.870  1.00  0.00     0.149 C 
HETATM   44  O9  UNL     1     -20.630   9.013   8.913  1.00  0.00    -0.293 OA
HETATM   45  C27 UNL     1     -19.393  10.572  10.259  1.00  0.00     0.084 C 
HETATM   46  C28 UNL     1     -17.972  10.475  10.792  1.00  0.00     0.022 C 
HETATM   47  C30 UNL     1     -18.445  10.153  13.252  1.00  0.00     0.020 C 
HETATM   48  C32 UNL     1     -15.343  10.351  12.379  1.00  0.00     0.124 C 
HETATM   49  C33 UNL     1     -13.862   9.952  12.555  1.00  0.00     0.045 C 
HETATM   50  C35 UNL     1     -13.981   9.379  15.031  1.00  0.00     0.019 C 
BRANCH  31  51
HETATM   51  O8  UNL     1     -11.787   7.849  12.306  1.00  0.00    -0.381 OA
HETATM   52  H19 UNL     1     -11.702   8.670  11.781  1.00  0.00     0.211 HD
ENDBRANCH  31  51
BRANCH  48  53
HETATM   53  O10 UNL     1     -15.750  11.124  13.497  1.00  0.00    -0.395 OA
HETATM   54  H40 UNL     1     -15.225  11.942  13.508  1.00  0.00     0.210 HD
ENDBRANCH  48  53
ENDBRANCH  29  31
ENDBRANCH  28  29
ENDBRANCH   1  28
TORSDOF 15
ENDMDL
MODEL 7
REMARK minimizedAffinity -9.87672615
REMARK CNNscore 0.306105912
REMARK CNNaffinity 7.25767088
REMARK  15 active torsions:
REMARK  status: ('A' for Active; 'I' for Inactive)
REMARK    1  A    between atoms: O1_2  and  C2_3 
REMARK    2  A    between atoms: C6_8  and  C7_9 
REMARK    3  A    between atoms: C7_9  and  O3_11 
REMARK    4  A    between atoms: C8_12  and  C9_13 
REMARK    5  A    between atoms: C9_13  and  C10_14 
REMARK    6  A    between atoms: C10_14  and  N2_15 
REMARK       I    between atoms: N2_15  and  C11_16 
REMARK    7  A    between atoms: C11_16  and  C12_18 
REMARK    8  A    between atoms: C12_18  and  C13_19 
REMARK    9  A    between atoms: C13_19  and  C14_20 
REMARK   10  A    between atoms: C14_20  and  O6_22 
REMARK   11  A    between atoms: O6_22  and  C15_23 
REMARK   12  A    between atoms: C15_23  and  C16_24 
REMARK   13  A    between atoms: C16_24  and  C17_26 
REMARK   14  A    between atoms: C17_26  and  O8_27 
REMARK   15  A    between atoms: C32_43  and  O10_44 
ROOT
HETATM    1  O6  UNL     1       0.854   7.663  15.580  1.00  0.00    -0.314 OA
ENDROOT
BRANCH   1   2
HETATM    2  C14 UNL     1       1.557   8.694  16.105  1.00  0.00     0.259 C 
HETATM    3  O5  UNL     1       2.341   8.573  17.044  1.00  0.00    -0.265 OA
BRANCH   2   4
HETATM    4  C13 UNL     1       1.263  10.019  15.436  1.00  0.00     0.120 C 
BRANCH   4   5
HETATM    5  C12 UNL     1       0.415  10.970  16.274  1.00  0.00     0.112 C 
BRANCH   5   6
HETATM    6  C11 UNL     1       1.252  11.743  17.277  1.00  0.00     0.218 C 
HETATM    7  N2  UNL     1       1.399  11.079  18.474  1.00  0.00    -0.361 N 
HETATM    8  H12 UNL     1       0.731  10.346  18.686  1.00  0.00     0.162 HD
HETATM    9  O4  UNL     1       1.769  12.824  17.028  1.00  0.00    -0.274 OA
BRANCH   7  10
HETATM   10  C10 UNL     1       2.037  11.725  19.611  1.00  0.00     0.127 C 
BRANCH  10  11
HETATM   11  C9  UNL     1       1.730  11.032  20.937  1.00  0.00     0.061 C 
BRANCH  11  12
HETATM   12  C8  UNL     1       2.940  10.856  21.814  1.00  0.00    -0.011 A 
HETATM   13  C6  UNL     1       3.173   9.855  22.755  1.00  0.00     0.114 A 
HETATM   14  N1  UNL     1       4.411  10.105  23.305  1.00  0.00    -0.350 N 
HETATM   15  C5  UNL     1       4.980  11.230  22.767  1.00  0.00     0.043 A 
HETATM   16  H6  UNL     1       4.833   9.530  24.023  1.00  0.00     0.166 HD
HETATM   17  C4  UNL     1       6.209  11.840  23.041  1.00  0.00     0.033 A 
HETATM   18  C36 UNL     1       4.082  11.728  21.829  1.00  0.00     0.002 A 
HETATM   19  C3  UNL     1       6.534  13.003  22.333  1.00  0.00     0.039 A 
HETATM   20  C2  UNL     1       5.660  13.536  21.387  1.00  0.00     0.069 A 
HETATM   21  C37 UNL     1       4.437  12.900  21.126  1.00  0.00     0.051 A 
BRANCH  13  22
HETATM   22  C7  UNL     1       2.407   8.724  23.198  1.00  0.00     0.194 C 
HETATM   23  O2  UNL     1       2.095   8.468  24.350  1.00  0.00    -0.645 OA
BRANCH  22  24
HETATM   24  O3  UNL     1       2.037   7.914  22.188  1.00  0.00    -0.772 OA
HETATM   25  H7  UNL     1       1.531   7.210  22.642  1.00  0.00     0.167 HD
ENDBRANCH  22  24
ENDBRANCH  13  22
BRANCH  20  26
HETATM   26  O1  UNL     1       5.876  14.665  20.642  1.00  0.00    -0.356 OA
HETATM   27  C1  UNL     1       6.557  14.500  19.404  1.00  0.00     0.210 C 
ENDBRANCH  20  26
ENDBRANCH  11  12
ENDBRANCH  10  11
ENDBRANCH   7  10
ENDBRANCH   5   6
ENDBRANCH   4   5
ENDBRANCH   2   4
ENDBRANCH   1   2
BRANCH   1  28
HETATM   28  C15 UNL     1       0.340   7.846  14.267  1.00  0.00     0.260 C 
BRANCH  28  29
HETATM   29  C16 UNL     1       0.202   6.535  13.516  1.00  0.00     0.185 C 
HETATM   30  O7  UNL     1       1.097   5.688  13.608  1.00  0.00    -0.292 OA
BRANCH  29  31
HETATM   31  C17 UNL     1      -1.122   6.263  12.741  1.00  0.00     0.128 C 
HETATM   32  C18 UNL     1      -1.087   4.858  12.057  1.00  0.00     0.047 C 
HETATM   33  C19 UNL     1      -2.500   4.258  12.185  1.00  0.00     0.009 C 
HETATM   34  C20 UNL     1      -3.355   5.400  12.727  1.00  0.00     0.002 C 
HETATM   35  C21 UNL     1      -4.704   5.054  13.377  1.00  0.00    -0.002 C 
HETATM   36  C34 UNL     1      -2.389   6.162  13.666  1.00  0.00     0.001 C 
HETATM   37  C22 UNL     1      -5.599   4.283  12.392  1.00  0.00     0.010 C 
HETATM   38  C31 UNL     1      -5.412   6.374  13.826  1.00  0.00     0.031 C 
HETATM   39  C23 UNL     1      -6.967   3.986  12.988  1.00  0.00     0.035 C 
HETATM   40  C24 UNL     1      -7.652   5.241  13.473  1.00  0.00    -0.068 C 
HETATM   41  C25 UNL     1      -8.903   5.521  13.071  1.00  0.00     0.053 C 
HETATM   42  C29 UNL     1      -6.847   6.123  14.441  1.00  0.00    -0.014 C 
HETATM   43  C26 UNL     1      -9.654   6.673  13.616  1.00  0.00     0.149 C 
HETATM   44  O9  UNL     1     -10.754   6.955  13.151  1.00  0.00    -0.293 OA
HETATM   45  C27 UNL     1      -9.055   7.408  14.788  1.00  0.00     0.084 C 
HETATM   46  C28 UNL     1      -7.547   7.507  14.615  1.00  0.00     0.022 C 
HETATM   47  C30 UNL     1      -6.828   5.402  15.810  1.00  0.00     0.020 C 
HETATM   48  C32 UNL     1      -4.481   7.301  14.663  1.00  0.00     0.124 C 
HETATM   49  C33 UNL     1      -3.081   7.491  14.041  1.00  0.00     0.045 C 
HETATM   50  C35 UNL     1      -2.037   5.357  14.948  1.00  0.00     0.019 C 
BRANCH  31  51
HETATM   51  O8  UNL     1      -1.329   7.181  11.669  1.00  0.00    -0.381 OA
HETATM   52  H19 UNL     1      -1.507   8.076  12.019  1.00  0.00     0.211 HD
ENDBRANCH  31  51
BRANCH  48  53
HETATM   53  O10 UNL     1      -4.335   6.824  15.992  1.00  0.00    -0.395 OA
HETATM   54  H40 UNL     1      -3.875   7.506  16.510  1.00  0.00     0.210 HD
ENDBRANCH  48  53
ENDBRANCH  29  31
ENDBRANCH  28  29
ENDBRANCH   1  28
TORSDOF 15
ENDMDL
MODEL 8
REMARK minimizedAffinity -8.78746891
REMARK CNNscore 0.293062121
REMARK CNNaffinity 7.35446501
REMARK  15 active torsions:
REMARK  status: ('A' for Active; 'I' for Inactive)
REMARK    1  A    between atoms: O1_2  and  C2_3 
REMARK    2  A    between atoms: C6_8  and  C7_9 
REMARK    3  A    between atoms: C7_9  and  O3_11 
REMARK    4  A    between atoms: C8_12  and  C9_13 
REMARK    5  A    between atoms: C9_13  and  C10_14 
REMARK    6  A    between atoms: C10_14  and  N2_15 
REMARK       I    between atoms: N2_15  and  C11_16 
REMARK    7  A    between atoms: C11_16  and  C12_18 
REMARK    8  A    between atoms: C12_18  and  C13_19 
REMARK    9  A    between atoms: C13_19  and  C14_20 
REMARK   10  A    between atoms: C14_20  and  O6_22 
REMARK   11  A    between atoms: O6_22  and  C15_23 
REMARK   12  A    between atoms: C15_23  and  C16_24 
REMARK   13  A    between atoms: C16_24  and  C17_26 
REMARK   14  A    between atoms: C17_26  and  O8_27 
REMARK   15  A    between atoms: C32_43  and  O10_44 
ROOT
HETATM    1  O6  UNL     1       2.311   6.238  12.007  1.00  0.00    -0.314 OA
ENDROOT
BRANCH   1   2
HETATM    2  C14 UNL     1       2.554   6.156  10.677  1.00  0.00     0.259 C 
HETATM    3  O5  UNL     1       1.869   5.493   9.902  1.00  0.00    -0.265 OA
BRANCH   2   4
HETATM    4  C13 UNL     1       3.771   6.943  10.242  1.00  0.00     0.120 C 
BRANCH   4   5
HETATM    5  C12 UNL     1       5.102   6.290  10.601  1.00  0.00     0.112 C 
BRANCH   5   6
HETATM    6  C11 UNL     1       5.980   7.210  11.428  1.00  0.00     0.218 C 
HETATM    7  N2  UNL     1       5.287   7.858  12.426  1.00  0.00    -0.361 N 
HETATM    8  H12 UNL     1       4.279   7.912  12.333  1.00  0.00     0.162 HD
HETATM    9  O4  UNL     1       7.185   7.332  11.244  1.00  0.00    -0.274 OA
BRANCH   7  10
HETATM   10  C10 UNL     1       5.924   8.895  13.223  1.00  0.00     0.127 C 
BRANCH  10  11
HETATM   11  C9  UNL     1       6.652   8.339  14.447  1.00  0.00     0.061 C 
BRANCH  11  12
HETATM   12  C8  UNL     1       7.699   9.271  14.992  1.00  0.00    -0.011 A 
HETATM   13  C6  UNL     1       9.055   9.311  14.671  1.00  0.00     0.114 A 
HETATM   14  N1  UNL     1       9.611  10.327  15.418  1.00  0.00    -0.350 N 
HETATM   15  C5  UNL     1       8.675  10.934  16.213  1.00  0.00     0.043 A 
HETATM   16  H6  UNL     1      10.591  10.578  15.382  1.00  0.00     0.166 HD
HETATM   17  C4  UNL     1       8.810  11.989  17.121  1.00  0.00     0.033 A 
HETATM   18  C36 UNL     1       7.464  10.294  15.973  1.00  0.00     0.002 A 
HETATM   19  C3  UNL     1       7.667  12.407  17.814  1.00  0.00     0.039 A 
HETATM   20  C2  UNL     1       6.435  11.789  17.604  1.00  0.00     0.069 A 
HETATM   21  C37 UNL     1       6.326  10.737  16.681  1.00  0.00     0.051 A 
BRANCH  13  22
HETATM   22  C7  UNL     1       9.878   8.542  13.781  1.00  0.00     0.194 C 
HETATM   23  O2  UNL     1      11.067   8.715  13.564  1.00  0.00    -0.645 OA
BRANCH  22  24
HETATM   24  O3  UNL     1       9.200   7.557  13.162  1.00  0.00    -0.772 OA
HETATM   25  H7  UNL     1       9.886   7.132  12.606  1.00  0.00     0.167 HD
ENDBRANCH  22  24
ENDBRANCH  13  22
BRANCH  20  26
HETATM   26  O1  UNL     1       5.258  12.115  18.225  1.00  0.00    -0.356 OA
HETATM   27  C1  UNL     1       5.292  13.207  19.137  1.00  0.00     0.210 C 
ENDBRANCH  20  26
ENDBRANCH  11  12
ENDBRANCH  10  11
ENDBRANCH   7  10
ENDBRANCH   5   6
ENDBRANCH   4   5
ENDBRANCH   2   4
ENDBRANCH   1   2
BRANCH   1  28
HETATM   28  C15 UNL     1       1.124   6.917  12.395  1.00  0.00     0.260 C 
BRANCH  28  29
HETATM   29  C16 UNL     1       0.127   5.991  13.067  1.00  0.00     0.185 C 
HETATM   30  O7  UNL     1       0.446   5.415  14.113  1.00  0.00    -0.292 OA
BRANCH  29  31
HETATM   31  C17 UNL     1      -1.307   5.888  12.468  1.00  0.00     0.128 C 
HETATM   32  C18 UNL     1      -1.554   4.470  11.857  1.00  0.00     0.047 C 
HETATM   33  C19 UNL     1      -3.011   4.087  12.181  1.00  0.00     0.009 C 
HETATM   34  C20 UNL     1      -3.624   5.359  12.759  1.00  0.00     0.002 C 
HETATM   35  C21 UNL     1      -4.918   5.235  13.580  1.00  0.00    -0.002 C 
HETATM   36  C34 UNL     1      -2.452   6.004  13.538  1.00  0.00     0.001 C 
HETATM   37  C22 UNL     1      -6.026   4.570  12.747  1.00  0.00     0.010 C 
HETATM   38  C31 UNL     1      -5.372   6.660  14.040  1.00  0.00     0.031 C 
HETATM   39  C23 UNL     1      -7.339   4.495  13.514  1.00  0.00     0.035 C 
HETATM   40  C24 UNL     1      -7.775   5.853  14.010  1.00  0.00    -0.068 C 
HETATM   41  C25 UNL     1      -9.015   6.297  13.744  1.00  0.00     0.053 C 
HETATM   42  C29 UNL     1      -6.742   6.641  14.831  1.00  0.00    -0.014 C 
HETATM   43  C26 UNL     1      -9.524   7.565  14.313  1.00  0.00     0.149 C 
HETATM   44  O9  UNL     1     -10.623   7.987  13.966  1.00  0.00    -0.293 OA
HETATM   45  C27 UNL     1      -8.687   8.244  15.367  1.00  0.00     0.084 C 
HETATM   46  C28 UNL     1      -7.213   8.118  15.014  1.00  0.00     0.022 C 
HETATM   47  C30 UNL     1      -6.655   5.972  16.223  1.00  0.00     0.020 C 
HETATM   48  C32 UNL     1      -4.225   7.469  14.713  1.00  0.00     0.124 C 
HETATM   49  C33 UNL     1      -2.900   7.432  13.922  1.00  0.00     0.045 C 
HETATM   50  C35 UNL     1      -2.061   5.201  14.810  1.00  0.00     0.019 C 
BRANCH  31  51
HETATM   51  O8  UNL     1      -1.514   6.789  11.381  1.00  0.00    -0.381 OA
HETATM   52  H19 UNL     1      -1.520   7.712  11.703  1.00  0.00     0.211 HD
ENDBRANCH  31  51
BRANCH  48  53
HETATM   53  O10 UNL     1      -3.985   7.022  16.039  1.00  0.00    -0.395 OA
HETATM   54  H40 UNL     1      -3.373   7.648  16.463  1.00  0.00     0.210 HD
ENDBRANCH  48  53
ENDBRANCH  29  31
ENDBRANCH  28  29
ENDBRANCH   1  28
TORSDOF 15
ENDMDL
MODEL 9
REMARK minimizedAffinity -9.86648273
REMARK CNNscore 0.283884615
REMARK CNNaffinity 6.97657776
REMARK  15 active torsions:
REMARK  status: ('A' for Active; 'I' for Inactive)
REMARK    1  A    between atoms: O1_2  and  C2_3 
REMARK    2  A    between atoms: C6_8  and  C7_9 
REMARK    3  A    between atoms: C7_9  and  O3_11 
REMARK    4  A    between atoms: C8_12  and  C9_13 
REMARK    5  A    between atoms: C9_13  and  C10_14 
REMARK    6  A    between atoms: C10_14  and  N2_15 
REMARK       I    between atoms: N2_15  and  C11_16 
REMARK    7  A    between atoms: C11_16  and  C12_18 
REMARK    8  A    between atoms: C12_18  and  C13_19 
REMARK    9  A    between atoms: C13_19  and  C14_20 
REMARK   10  A    between atoms: C14_20  and  O6_22 
REMARK   11  A    between atoms: O6_22  and  C15_23 
REMARK   12  A    between atoms: C15_23  and  C16_24 
REMARK   13  A    between atoms: C16_24  and  C17_26 
REMARK   14  A    between atoms: C17_26  and  O8_27 
REMARK   15  A    between atoms: C32_43  and  O10_44 
ROOT
HETATM    1  O6  UNL     1      -6.052   7.341  14.590  1.00  0.00    -0.314 OA
ENDROOT
BRANCH   1   2
HETATM    2  C14 UNL     1      -6.834   6.270  14.860  1.00  0.00     0.259 C 
HETATM    3  O5  UNL     1      -7.203   5.467  14.006  1.00  0.00    -0.265 OA
BRANCH   2   4
HETATM    4  C13 UNL     1      -7.233   6.173  16.316  1.00  0.00     0.120 C 
BRANCH   4   5
HETATM    5  C12 UNL     1      -8.123   7.313  16.800  1.00  0.00     0.112 C 
BRANCH   5   6
HETATM    6  C11 UNL     1      -9.053   7.810  15.709  1.00  0.00     0.218 C 
HETATM    7  N2  UNL     1     -10.030   6.896  15.382  1.00  0.00    -0.361 N 
HETATM    8  H12 UNL     1      -9.869   5.929  15.642  1.00  0.00     0.162 HD
HETATM    9  O4  UNL     1      -8.961   8.921  15.203  1.00  0.00    -0.274 OA
BRANCH   7  10
HETATM   10  C10 UNL     1     -10.919   7.128  14.255  1.00  0.00     0.127 C 
BRANCH  10  11
HETATM   11  C9  UNL     1     -12.323   6.569  14.483  1.00  0.00     0.061 C 
BRANCH  11  12
HETATM   12  C8  UNL     1     -13.372   7.221  13.623  1.00  0.00    -0.011 A 
HETATM   13  C6  UNL     1     -13.255   8.390  12.875  1.00  0.00     0.114 A 
HETATM   14  N1  UNL     1     -14.469   8.590  12.255  1.00  0.00    -0.350 N 
HETATM   15  C5  UNL     1     -15.365   7.607  12.581  1.00  0.00     0.043 A 
HETATM   16  H6  UNL     1     -14.665   9.374  11.645  1.00  0.00     0.166 HD
HETATM   17  C4  UNL     1     -16.696   7.431  12.186  1.00  0.00     0.033 A 
HETATM   18  C36 UNL     1     -14.711   6.732  13.441  1.00  0.00     0.002 A 
HETATM   19  C3  UNL     1     -17.387   6.322  12.689  1.00  0.00     0.039 A 
HETATM   20  C2  UNL     1     -16.767   5.423  13.556  1.00  0.00     0.069 A 
HETATM   21  C37 UNL     1     -15.429   5.619  13.930  1.00  0.00     0.051 A 
BRANCH  13  22
HETATM   22  C7  UNL     1     -12.182   9.323  12.670  1.00  0.00     0.194 C 
HETATM   23  O2  UNL     1     -11.293   9.588  13.463  1.00  0.00    -0.645 OA
BRANCH  22  24
HETATM   24  O3  UNL     1     -12.235   9.924  11.466  1.00  0.00    -0.772 OA
HETATM   25  H7  UNL     1     -11.452  10.513  11.479  1.00  0.00     0.167 HD
ENDBRANCH  22  24
ENDBRANCH  13  22
BRANCH  20  26
HETATM   26  O1  UNL     1     -17.347   4.310  14.106  1.00  0.00    -0.356 OA
HETATM   27  C1  UNL     1     -17.105   4.073  15.487  1.00  0.00     0.210 C 
ENDBRANCH  20  26
ENDBRANCH  11  12
ENDBRANCH  10  11
ENDBRANCH   7  10
ENDBRANCH   5   6
ENDBRANCH   4   5
ENDBRANCH   2   4
ENDBRANCH   1   2
BRANCH   1  28
HETATM   28  C15 UNL     1      -4.998   7.606  15.507  1.00  0.00     0.260 C 
BRANCH  28  29
HETATM   29  C16 UNL     1      -3.697   6.944  15.093  1.00  0.00     0.185 C 
HETATM   30  O7  UNL     1      -3.051   6.303  15.929  1.00  0.00    -0.292 OA
BRANCH  29  31
HETATM   31  C17 UNL     1      -3.279   7.008  13.594  1.00  0.00     0.128 C 
HETATM   32  C18 UNL     1      -3.565   8.424  12.996  1.00  0.00     0.047 C 
HETATM   33  C19 UNL     1      -2.400   8.757  12.045  1.00  0.00     0.009 C 
HETATM   34  C20 UNL     1      -1.602   7.461  11.945  1.00  0.00     0.002 C 
HETATM   35  C21 UNL     1      -0.155   7.535  11.434  1.00  0.00    -0.002 C 
HETATM   36  C34 UNL     1      -1.733   6.845  13.359  1.00  0.00     0.001 C 
HETATM   37  C22 UNL     1      -0.105   8.174  10.036  1.00  0.00     0.010 C 
HETATM   38  C31 UNL     1       0.448   6.092  11.388  1.00  0.00     0.031 C 
HETATM   39  C23 UNL     1       1.312   8.198   9.479  1.00  0.00     0.035 C 
HETATM   40  C24 UNL     1       1.933   6.823   9.468  1.00  0.00    -0.068 C 
HETATM   41  C25 UNL     1       2.477   6.342   8.337  1.00  0.00     0.053 C 
HETATM   42  C29 UNL     1       1.917   6.059  10.801  1.00  0.00    -0.014 C 
HETATM   43  C26 UNL     1       3.204   5.053   8.313  1.00  0.00     0.149 C 
HETATM   44  O9  UNL     1       3.599   4.600   7.243  1.00  0.00    -0.293 OA
HETATM   45  C27 UNL     1       3.496   4.389   9.634  1.00  0.00     0.084 C 
HETATM   46  C28 UNL     1       2.311   4.566  10.571  1.00  0.00     0.022 C 
HETATM   47  C30 UNL     1       2.976   6.715  11.719  1.00  0.00     0.020 C 
HETATM   48  C32 UNL     1       0.245   5.312  12.721  1.00  0.00     0.124 C 
HETATM   49  C33 UNL     1      -1.194   5.399  13.271  1.00  0.00     0.045 C 
HETATM   50  C35 UNL     1      -0.953   7.646  14.438  1.00  0.00     0.019 C 
BRANCH  31  51
HETATM   51  O8  UNL     1      -4.029   6.113  12.775  1.00  0.00    -0.381 OA
HETATM   52  H19 UNL     1      -3.799   5.187  12.987  1.00  0.00     0.211 HD
ENDBRANCH  31  51
BRANCH  48  53
HETATM   53  O10 UNL     1       1.150   5.752  13.721  1.00  0.00    -0.395 OA
HETATM   54  H40 UNL     1       1.088   5.142  14.476  1.00  0.00     0.210 HD
ENDBRANCH  48  53
ENDBRANCH  29  31
ENDBRANCH  28  29
ENDBRANCH   1  28
TORSDOF 15
ENDMDL
