MODEL 1
REMARK minimizedAffinity -8.24174595
REMARK CNNscore 0.68365407
REMARK CNNaffinity 5.84551048
REMARK  8 active torsions:
REMARK  status: ('A' for Active; 'I' for Inactive)
REMARK    1  A    between atoms: C3_3  and  O1_4 
REMARK    2  A    between atoms: N1_14  and  O2_16 
REMARK    3  A    between atoms: O2_16  and  C13_17 
REMARK    4  A    between atoms: C13_17  and  C14_18 
REMARK       I    between atoms: C14_18  and  N2_20 
REMARK    5  A    between atoms: N2_20  and  C15_21 
REMARK    6  A    between atoms: C15_21  and  C16_22 
REMARK    7  A    between atoms: C16_22  and  O4_23 
REMARK    8  A    between atoms: C16_22  and  C17_24 
ROOT
HETATM    1  C1  UNL     1     -14.829  -4.298   7.313  1.00  0.00     0.015 C 
HETATM    2  C2  UNL     1     -14.907  -4.019   8.478  1.00  0.00    -0.078 C 
HETATM    3  C3  UNL     1     -14.973  -3.666   9.906  1.00  0.00     0.128 C 
HETATM    4  C4  UNL     1     -16.165  -2.759  10.216  1.00  0.00     0.052 C 
HETATM    5  C5  UNL     1     -16.252  -2.800  11.737  1.00  0.00     0.010 C 
HETATM    6  C6  UNL     1     -15.889  -4.245  12.114  1.00  0.00     0.002 C 
HETATM    7  C7  UNL     1     -15.172  -4.433  13.470  1.00  0.00    -0.004 C 
HETATM    8  C8  UNL     1     -14.001  -3.477  13.788  1.00  0.00     0.010 C 
HETATM    9  C9  UNL     1     -12.717  -4.108  14.350  1.00  0.00     0.035 C 
HETATM   10  C10 UNL     1     -12.852  -5.367  15.174  1.00  0.00    -0.069 C 
HETATM   11  C11 UNL     1     -11.792  -5.805  15.879  1.00  0.00     0.030 C 
HETATM   12  C12 UNL     1     -11.809  -7.088  16.630  1.00  0.00     0.032 C 
HETATM   13  N1  UNL     1     -10.746  -7.403  17.315  1.00  0.00    -0.271 N 
ATOM     14  H1  UNL     1      -9.898  -6.837  17.354  1.00  0.00     0.194 HD
HETATM   15  C23 UNL     1     -13.061  -7.948  16.567  1.00  0.00     0.060 C 
HETATM   16  C24 UNL     1     -13.889  -7.659  15.318  1.00  0.00     0.020 C 
HETATM   17  C25 UNL     1     -14.152  -6.147  15.087  1.00  0.00    -0.016 C 
HETATM   18  C26 UNL     1     -15.094  -5.643  16.211  1.00  0.00     0.020 C 
HETATM   19  C27 UNL     1     -14.803  -5.920  13.677  1.00  0.00     0.002 C 
HETATM   20  C28 UNL     1     -13.971  -6.486  12.493  1.00  0.00     0.007 C 
HETATM   21  C29 UNL     1     -13.856  -5.567  11.273  1.00  0.00     0.014 C 
HETATM   22  C30 UNL     1     -15.173  -4.878  10.879  1.00  0.00     0.003 C 
HETATM   23  C31 UNL     1     -16.122  -5.950  10.274  1.00  0.00     0.020 C 
ENDROOT
BRANCH   3  24
HETATM   24  O1  UNL     1     -13.792  -2.928  10.235  1.00  0.00    -0.377 OA
HETATM   25  H2  UNL     1     -13.055  -3.350   9.758  1.00  0.00     0.211 HD
ENDBRANCH   3  24
BRANCH  13  26
HETATM   26  O2  UNL     1     -10.915  -8.619  17.992  1.00  0.00    -0.271 OA
BRANCH  26  27
HETATM   27  C13 UNL     1      -9.667  -9.009  18.554  1.00  0.00     0.303 C 
BRANCH  27  28
HETATM   28  C14 UNL     1      -9.968  -9.994  19.670  1.00  0.00     0.243 C 
HETATM   29  O3  UNL     1     -10.807 -10.887  19.565  1.00  0.00    -0.271 OA
HETATM   30  N2  UNL     1      -9.218  -9.799  20.813  1.00  0.00    -0.356 N 
HETATM   31  H16 UNL     1      -8.798  -8.882  20.931  1.00  0.00     0.162 HD
BRANCH  30  32
HETATM   32  C15 UNL     1      -9.542 -10.512  22.041  1.00  0.00     0.159 C 
BRANCH  32  33
HETATM   33  C16 UNL     1      -8.272 -10.816  22.860  1.00  0.00     0.170 C 
BRANCH  33  34
HETATM   34  O4  UNL     1      -7.179 -11.010  21.949  1.00  0.00    -0.389 OA
HETATM   35  H20 UNL     1      -6.500 -11.529  22.413  1.00  0.00     0.210 HD
ENDBRANCH  33  34
BRANCH  33  36
HETATM   36  C17 UNL     1      -8.412 -12.029  23.739  1.00  0.00    -0.013 A 
HETATM   37  C18 UNL     1      -9.507 -12.214  24.587  1.00  0.00     0.013 A 
HETATM   38  C19 UNL     1      -9.586 -13.360  25.375  1.00  0.00     0.025 A 
HETATM   39  C20 UNL     1      -8.574 -14.309  25.285  1.00  0.00     0.005 A 
HETATM   40  C21 UNL     1      -8.619 -15.547  26.130  1.00  0.00     0.068 C 
HETATM   41  N3  UNL     1      -7.500 -14.151  24.476  1.00  0.00    -0.369 N 
HETATM   42  C22 UNL     1      -7.440 -13.023  23.732  1.00  0.00     0.097 A 
ATOM     43  H3  UNL     1      -6.765 -14.856  24.428  1.00  0.00     0.165 HD
ENDBRANCH  33  36
ENDBRANCH  32  33
ENDBRANCH  30  32
ENDBRANCH  27  28
ENDBRANCH  26  27
ENDBRANCH  13  26
TORSDOF 8
ENDMDL
MODEL 2
REMARK minimizedAffinity -10.2064896
REMARK CNNscore 0.520853996
REMARK CNNaffinity 7.48407698
REMARK  8 active torsions:
REMARK  status: ('A' for Active; 'I' for Inactive)
REMARK    1  A    between atoms: C3_3  and  O1_4 
REMARK    2  A    between atoms: N1_14  and  O2_16 
REMARK    3  A    between atoms: O2_16  and  C13_17 
REMARK    4  A    between atoms: C13_17  and  C14_18 
REMARK       I    between atoms: C14_18  and  N2_20 
REMARK    5  A    between atoms: N2_20  and  C15_21 
REMARK    6  A    between atoms: C15_21  and  C16_22 
REMARK    7  A    between atoms: C16_22  and  O4_23 
REMARK    8  A    between atoms: C16_22  and  C17_24 
ROOT
HETATM    1  C1  UNL     1       3.151   5.069   7.167  1.00  0.00     0.015 C 
HETATM    2  C2  UNL     1       3.050   5.397   8.317  1.00  0.00    -0.078 C 
HETATM    3  C3  UNL     1       2.914   5.772   9.734  1.00  0.00     0.128 C 
HETATM    4  C4  UNL     1       4.224   6.312  10.311  1.00  0.00     0.052 C 
HETATM    5  C5  UNL     1       3.793   6.947  11.628  1.00  0.00     0.010 C 
HETATM    6  C6  UNL     1       2.422   7.575  11.333  1.00  0.00     0.002 C 
HETATM    7  C7  UNL     1       1.425   7.612  12.514  1.00  0.00    -0.004 C 
HETATM    8  C8  UNL     1       1.264   6.320  13.344  1.00  0.00     0.010 C 
HETATM    9  C9  UNL     1      -0.169   5.875  13.674  1.00  0.00     0.035 C 
HETATM   10  C10 UNL     1      -1.226   6.945  13.813  1.00  0.00    -0.069 C 
HETATM   11  C11 UNL     1      -2.423   6.620  14.335  1.00  0.00     0.030 C 
HETATM   12  C12 UNL     1      -3.549   7.587  14.410  1.00  0.00     0.032 C 
HETATM   13  N1  UNL     1      -4.656   7.187  14.972  1.00  0.00    -0.271 N 
ATOM     14  H1  UNL     1      -4.804   6.250  15.346  1.00  0.00     0.194 HD
HETATM   15  C23 UNL     1      -3.347   8.983  13.842  1.00  0.00     0.060 C 
HETATM   16  C24 UNL     1      -2.239   9.014  12.791  1.00  0.00     0.020 C 
HETATM   17  C25 UNL     1      -0.928   8.326  13.255  1.00  0.00    -0.016 C 
HETATM   18  C26 UNL     1      -0.308   9.182  14.390  1.00  0.00     0.020 C 
HETATM   19  C27 UNL     1       0.071   8.198  12.051  1.00  0.00     0.002 C 
HETATM   20  C28 UNL     1      -0.505   7.437  10.824  1.00  0.00     0.007 C 
HETATM   21  C29 UNL     1       0.441   6.422  10.178  1.00  0.00     0.014 C 
HETATM   22  C30 UNL     1       1.887   6.920  10.020  1.00  0.00     0.003 C 
HETATM   23  C31 UNL     1       1.911   8.003   8.904  1.00  0.00     0.020 C 
ENDROOT
BRANCH   3  24
HETATM   24  O1  UNL     1       2.589   4.593  10.475  1.00  0.00    -0.377 OA
HETATM   25  H2  UNL     1       1.963   4.082   9.930  1.00  0.00     0.211 HD
ENDBRANCH   3  24
BRANCH  13  26
HETATM   26  O2  UNL     1      -5.616   8.208  14.997  1.00  0.00    -0.271 OA
BRANCH  26  27
HETATM   27  C13 UNL     1      -6.677   7.819  15.861  1.00  0.00     0.303 C 
BRANCH  27  28
HETATM   28  C14 UNL     1      -7.467   6.740  15.140  1.00  0.00     0.243 C 
HETATM   29  O3  UNL     1      -8.513   6.969  14.536  1.00  0.00    -0.271 OA
HETATM   30  N2  UNL     1      -6.906   5.481  15.220  1.00  0.00    -0.356 N 
HETATM   31  H16 UNL     1      -6.244   5.325  15.974  1.00  0.00     0.162 HD
BRANCH  30  32
HETATM   32  C15 UNL     1      -7.650   4.310  14.775  1.00  0.00     0.159 C 
BRANCH  32  33
HETATM   33  C16 UNL     1      -7.621   4.183  13.239  1.00  0.00     0.170 C 
BRANCH  33  34
HETATM   34  O4  UNL     1      -8.722   3.356  12.831  1.00  0.00    -0.389 OA
HETATM   35  H20 UNL     1      -8.508   2.996  11.952  1.00  0.00     0.210 HD
ENDBRANCH  33  34
BRANCH  33  36
HETATM   36  C17 UNL     1      -6.336   3.598  12.718  1.00  0.00    -0.013 A 
HETATM   37  C18 UNL     1      -6.304   2.425  11.960  1.00  0.00     0.013 A 
HETATM   38  C19 UNL     1      -5.085   1.932  11.499  1.00  0.00     0.025 A 
HETATM   39  C20 UNL     1      -3.922   2.634  11.794  1.00  0.00     0.005 A 
HETATM   40  C21 UNL     1      -2.591   2.125  11.328  1.00  0.00     0.068 C 
HETATM   41  N3  UNL     1      -3.926   3.770  12.531  1.00  0.00    -0.369 N 
HETATM   42  C22 UNL     1      -5.120   4.219  12.978  1.00  0.00     0.097 A 
ATOM     43  H3  UNL     1      -3.061   4.267  12.741  1.00  0.00     0.165 HD
ENDBRANCH  33  36
ENDBRANCH  32  33
ENDBRANCH  30  32
ENDBRANCH  27  28
ENDBRANCH  26  27
ENDBRANCH  13  26
TORSDOF 8
ENDMDL
MODEL 3
REMARK minimizedAffinity -7.60541105
REMARK CNNscore 0.478995353
REMARK CNNaffinity 6.7970252
REMARK  8 active torsions:
REMARK  status: ('A' for Active; 'I' for Inactive)
REMARK    1  A    between atoms: C3_3  and  O1_4 
REMARK    2  A    between atoms: N1_14  and  O2_16 
REMARK    3  A    between atoms: O2_16  and  C13_17 
REMARK    4  A    between atoms: C13_17  and  C14_18 
REMARK       I    between atoms: C14_18  and  N2_20 
REMARK    5  A    between atoms: N2_20  and  C15_21 
REMARK    6  A    between atoms: C15_21  and  C16_22 
REMARK    7  A    between atoms: C16_22  and  O4_23 
REMARK    8  A    between atoms: C16_22  and  C17_24 
ROOT
HETATM    1  C1  UNL     1      -7.368   8.019  15.903  1.00  0.00     0.015 C 
HETATM    2  C2  UNL     1      -6.478   7.352  15.453  1.00  0.00    -0.078 C 
HETATM    3  C3  UNL     1      -5.373   6.533  14.928  1.00  0.00     0.128 C 
HETATM    4  C4  UNL     1      -5.879   5.272  14.225  1.00  0.00     0.052 C 
HETATM    5  C5  UNL     1      -4.650   4.769  13.477  1.00  0.00     0.010 C 
HETATM    6  C6  UNL     1      -3.934   6.041  12.996  1.00  0.00     0.002 C 
HETATM    7  C7  UNL     1      -2.393   5.955  12.899  1.00  0.00    -0.004 C 
HETATM    8  C8  UNL     1      -1.644   5.328  14.095  1.00  0.00     0.010 C 
HETATM    9  C9  UNL     1      -0.402   6.072  14.608  1.00  0.00     0.035 C 
HETATM   10  C10 UNL     1       0.398   6.882  13.614  1.00  0.00    -0.069 C 
HETATM   11  C11 UNL     1       1.612   7.341  13.968  1.00  0.00     0.030 C 
HETATM   12  C12 UNL     1       2.416   8.230  13.088  1.00  0.00     0.032 C 
HETATM   13  N1  UNL     1       3.599   8.587  13.505  1.00  0.00    -0.271 N 
ATOM     14  H1  UNL     1       4.000   8.311  14.402  1.00  0.00     0.194 HD
HETATM   15  C23 UNL     1       1.823   8.662  11.757  1.00  0.00     0.060 C 
HETATM   16  C24 UNL     1       0.298   8.588  11.762  1.00  0.00     0.020 C 
HETATM   17  C25 UNL     1      -0.253   7.237  12.289  1.00  0.00    -0.016 C 
HETATM   18  C26 UNL     1       0.111   6.133  11.261  1.00  0.00     0.020 C 
HETATM   19  C27 UNL     1      -1.809   7.323  12.477  1.00  0.00     0.002 C 
HETATM   20  C28 UNL     1      -2.273   8.471  13.417  1.00  0.00     0.007 C 
HETATM   21  C29 UNL     1      -3.363   8.094  14.425  1.00  0.00     0.014 C 
HETATM   22  C30 UNL     1      -4.492   7.231  13.837  1.00  0.00     0.003 C 
HETATM   23  C31 UNL     1      -5.346   8.124  12.893  1.00  0.00     0.020 C 
ENDROOT
BRANCH   3  24
HETATM   24  O1  UNL     1      -4.577   6.101  16.035  1.00  0.00    -0.377 OA
HETATM   25  H2  UNL     1      -4.523   6.852  16.652  1.00  0.00     0.211 HD
ENDBRANCH   3  24
BRANCH  13  26
HETATM   26  O2  UNL     1       4.250   9.398  12.565  1.00  0.00    -0.271 OA
BRANCH  26  27
HETATM   27  C13 UNL     1       5.655   9.284  12.757  1.00  0.00     0.303 C 
BRANCH  27  28
HETATM   28  C14 UNL     1       6.311  10.347  11.891  1.00  0.00     0.243 C 
HETATM   29  O3  UNL     1       6.076  10.469  10.691  1.00  0.00    -0.271 OA
HETATM   30  N2  UNL     1       7.191  11.165  12.571  1.00  0.00    -0.356 N 
HETATM   31  H16 UNL     1       7.557  10.809  13.449  1.00  0.00     0.162 HD
BRANCH  30  32
HETATM   32  C15 UNL     1       8.062  12.080  11.846  1.00  0.00     0.159 C 
BRANCH  32  33
HETATM   33  C16 UNL     1       9.234  11.328  11.185  1.00  0.00     0.170 C 
BRANCH  33  34
HETATM   34  O4  UNL     1      10.089  10.821  12.221  1.00  0.00    -0.389 OA
HETATM   35  H20 UNL     1      10.967  10.670  11.828  1.00  0.00     0.210 HD
ENDBRANCH  33  34
BRANCH  33  36
HETATM   36  C17 UNL     1      10.037  12.191  10.250  1.00  0.00    -0.013 A 
HETATM   37  C18 UNL     1      10.164  13.571  10.431  1.00  0.00     0.013 A 
HETATM   38  C19 UNL     1      10.926  14.319   9.537  1.00  0.00     0.025 A 
HETATM   39  C20 UNL     1      11.561  13.667   8.485  1.00  0.00     0.005 A 
HETATM   40  C21 UNL     1      12.376  14.443   7.495  1.00  0.00     0.068 C 
HETATM   41  N3  UNL     1      11.450  12.333   8.285  1.00  0.00    -0.369 N 
HETATM   42  C22 UNL     1      10.693  11.631   9.160  1.00  0.00     0.097 A 
ATOM     43  H3  UNL     1      11.919  11.874   7.505  1.00  0.00     0.165 HD
ENDBRANCH  33  36
ENDBRANCH  32  33
ENDBRANCH  30  32
ENDBRANCH  27  28
ENDBRANCH  26  27
ENDBRANCH  13  26
TORSDOF 8
ENDMDL
MODEL 4
REMARK minimizedAffinity -9.44648075
REMARK CNNscore 0.468383372
REMARK CNNaffinity 7.44157553
REMARK  8 active torsions:
REMARK  status: ('A' for Active; 'I' for Inactive)
REMARK    1  A    between atoms: C3_3  and  O1_4 
REMARK    2  A    between atoms: N1_14  and  O2_16 
REMARK    3  A    between atoms: O2_16  and  C13_17 
REMARK    4  A    between atoms: C13_17  and  C14_18 
REMARK       I    between atoms: C14_18  and  N2_20 
REMARK    5  A    between atoms: N2_20  and  C15_21 
REMARK    6  A    between atoms: C15_21  and  C16_22 
REMARK    7  A    between atoms: C16_22  and  O4_23 
REMARK    8  A    between atoms: C16_22  and  C17_24 
ROOT
HETATM    1  C1  UNL     1       0.319   8.577  11.790  1.00  0.00     0.015 C 
HETATM    2  C2  UNL     1      -0.431   7.841  12.370  1.00  0.00    -0.078 C 
HETATM    3  C3  UNL     1      -1.359   6.926  13.053  1.00  0.00     0.128 C 
HETATM    4  C4  UNL     1      -0.662   6.115  14.147  1.00  0.00     0.052 C 
HETATM    5  C5  UNL     1      -1.822   5.516  14.935  1.00  0.00     0.010 C 
HETATM    6  C6  UNL     1      -2.898   6.614  14.946  1.00  0.00     0.002 C 
HETATM    7  C7  UNL     1      -4.365   6.124  14.966  1.00  0.00    -0.004 C 
HETATM    8  C8  UNL     1      -4.746   4.997  13.982  1.00  0.00     0.010 C 
HETATM    9  C9  UNL     1      -6.046   5.179  13.183  1.00  0.00     0.035 C 
HETATM   10  C10 UNL     1      -7.162   5.975  13.820  1.00  0.00    -0.069 C 
HETATM   11  C11 UNL     1      -8.386   5.949  13.262  1.00  0.00     0.030 C 
HETATM   12  C12 UNL     1      -9.509   6.784  13.765  1.00  0.00     0.032 C 
HETATM   13  N1  UNL     1     -10.668   6.655  13.183  1.00  0.00    -0.271 N 
ATOM     14  H1  UNL     1     -10.850   6.034  12.395  1.00  0.00     0.194 HD
HETATM   15  C23 UNL     1      -9.247   7.727  14.929  1.00  0.00     0.060 C 
HETATM   16  C24 UNL     1      -7.769   8.091  15.045  1.00  0.00     0.020 C 
HETATM   17  C25 UNL     1      -6.824   6.862  15.006  1.00  0.00    -0.016 C 
HETATM   18  C26 UNL     1      -7.047   6.039  16.302  1.00  0.00     0.020 C 
HETATM   19  C27 UNL     1      -5.330   7.330  14.899  1.00  0.00     0.002 C 
HETATM   20  C28 UNL     1      -5.036   8.246  13.678  1.00  0.00     0.007 C 
HETATM   21  C29 UNL     1      -3.750   7.925  12.911  1.00  0.00     0.014 C 
HETATM   22  C30 UNL     1      -2.540   7.624  13.811  1.00  0.00     0.003 C 
HETATM   23  C31 UNL     1      -2.086   8.952  14.480  1.00  0.00     0.020 C 
ENDROOT
BRANCH   3  24
HETATM   24  O1  UNL     1      -1.848   5.988  12.089  1.00  0.00    -0.377 OA
HETATM   25  H2  UNL     1      -1.998   6.486  11.265  1.00  0.00     0.211 HD
ENDBRANCH   3  24
BRANCH  13  26
HETATM   26  O2  UNL     1     -11.634   7.480  13.777  1.00  0.00    -0.271 OA
BRANCH  26  27
HETATM   27  C13 UNL     1     -12.486   6.677  14.586  1.00  0.00     0.303 C 
BRANCH  27  28
HETATM   28  C14 UNL     1     -13.822   6.583  13.870  1.00  0.00     0.243 C 
HETATM   29  O3  UNL     1     -14.128   7.312  12.927  1.00  0.00    -0.271 OA
HETATM   30  N2  UNL     1     -14.663   5.608  14.368  1.00  0.00    -0.356 N 
HETATM   31  H16 UNL     1     -14.474   5.283  15.312  1.00  0.00     0.162 HD
BRANCH  30  32
HETATM   32  C15 UNL     1     -16.054   5.541  13.941  1.00  0.00     0.159 C 
BRANCH  32  33
HETATM   33  C16 UNL     1     -16.800   4.395  14.651  1.00  0.00     0.170 C 
BRANCH  33  34
HETATM   34  O4  UNL     1     -16.434   4.406  16.040  1.00  0.00    -0.389 OA
HETATM   35  H20 UNL     1     -16.608   3.517  16.395  1.00  0.00     0.210 HD
ENDBRANCH  33  34
BRANCH  33  36
HETATM   36  C17 UNL     1     -16.500   3.041  14.066  1.00  0.00    -0.013 A 
HETATM   37  C18 UNL     1     -17.223   2.516  12.991  1.00  0.00     0.013 A 
HETATM   38  C19 UNL     1     -16.897   1.259  12.486  1.00  0.00     0.025 A 
HETATM   39  C20 UNL     1     -15.841   0.558  13.058  1.00  0.00     0.005 A 
HETATM   40  C21 UNL     1     -15.473  -0.803  12.550  1.00  0.00     0.068 C 
HETATM   41  N3  UNL     1     -15.129   1.043  14.102  1.00  0.00    -0.369 N 
HETATM   42  C22 UNL     1     -15.474   2.259  14.583  1.00  0.00     0.097 A 
ATOM     43  H3  UNL     1     -14.361   0.511  14.511  1.00  0.00     0.165 HD
ENDBRANCH  33  36
ENDBRANCH  32  33
ENDBRANCH  30  32
ENDBRANCH  27  28
ENDBRANCH  26  27
ENDBRANCH  13  26
TORSDOF 8
ENDMDL
MODEL 5
REMARK minimizedAffinity -9.36246777
REMARK CNNscore 0.41079843
REMARK CNNaffinity 7.06680536
REMARK  8 active torsions:
REMARK  status: ('A' for Active; 'I' for Inactive)
REMARK    1  A    between atoms: C3_3  and  O1_4 
REMARK    2  A    between atoms: N1_14  and  O2_16 
REMARK    3  A    between atoms: O2_16  and  C13_17 
REMARK    4  A    between atoms: C13_17  and  C14_18 
REMARK       I    between atoms: C14_18  and  N2_20 
REMARK    5  A    between atoms: N2_20  and  C15_21 
REMARK    6  A    between atoms: C15_21  and  C16_22 
REMARK    7  A    between atoms: C16_22  and  O4_23 
REMARK    8  A    between atoms: C16_22  and  C17_24 
ROOT
HETATM    1  C1  UNL     1       3.048   5.249   7.259  1.00  0.00     0.015 C 
HETATM    2  C2  UNL     1       2.941   5.760   8.339  1.00  0.00    -0.078 C 
HETATM    3  C3  UNL     1       2.809   6.358   9.678  1.00  0.00     0.128 C 
HETATM    4  C4  UNL     1       3.905   7.389   9.954  1.00  0.00     0.052 C 
HETATM    5  C5  UNL     1       3.402   8.115  11.196  1.00  0.00     0.010 C 
HETATM    6  C6  UNL     1       1.878   8.205  11.008  1.00  0.00     0.002 C 
HETATM    7  C7  UNL     1       1.033   8.173  12.302  1.00  0.00    -0.004 C 
HETATM    8  C8  UNL     1       1.389   7.097  13.351  1.00  0.00     0.010 C 
HETATM    9  C9  UNL     1       0.223   6.303  13.961  1.00  0.00     0.035 C 
HETATM   10  C10 UNL     1      -1.117   6.992  14.075  1.00  0.00    -0.069 C 
HETATM   11  C11 UNL     1      -2.085   6.424  14.817  1.00  0.00     0.030 C 
HETATM   12  C12 UNL     1      -3.460   6.983  14.896  1.00  0.00     0.032 C 
HETATM   13  N1  UNL     1      -4.315   6.381  15.677  1.00  0.00    -0.271 N 
ATOM     14  H1  UNL     1      -4.106   5.543  16.220  1.00  0.00     0.194 HD
HETATM   15  C23 UNL     1      -3.789   8.221  14.079  1.00  0.00     0.060 C 
HETATM   16  C24 UNL     1      -2.851   8.380  12.884  1.00  0.00     0.020 C 
HETATM   17  C25 UNL     1      -1.350   8.249  13.255  1.00  0.00    -0.016 C 
HETATM   18  C26 UNL     1      -0.959   9.473  14.126  1.00  0.00     0.020 C 
HETATM   19  C27 UNL     1      -0.473   8.195  11.955  1.00  0.00     0.002 C 
HETATM   20  C28 UNL     1      -0.863   7.055  10.972  1.00  0.00     0.007 C 
HETATM   21  C29 UNL     1       0.310   6.276  10.371  1.00  0.00     0.014 C 
HETATM   22  C30 UNL     1       1.485   7.159   9.918  1.00  0.00     0.003 C 
HETATM   23  C31 UNL     1       1.046   7.938   8.646  1.00  0.00     0.020 C 
ENDROOT
BRANCH   3  24
HETATM   24  O1  UNL     1       2.965   5.317  10.646  1.00  0.00    -0.377 OA
HETATM   25  H2  UNL     1       2.503   4.534  10.294  1.00  0.00     0.211 HD
ENDBRANCH   3  24
BRANCH  13  26
HETATM   26  O2  UNL     1      -5.557   7.031  15.673  1.00  0.00    -0.271 OA
BRANCH  26  27
HETATM   27  C13 UNL     1      -6.576   6.075  15.939  1.00  0.00     0.303 C 
BRANCH  27  28
HETATM   28  C14 UNL     1      -7.894   6.829  15.987  1.00  0.00     0.243 C 
HETATM   29  O3  UNL     1      -8.263   7.468  16.970  1.00  0.00    -0.271 OA
HETATM   30  N2  UNL     1      -8.640   6.735  14.828  1.00  0.00    -0.356 N 
HETATM   31  H16 UNL     1      -8.425   5.958  14.211  1.00  0.00     0.162 HD
BRANCH  30  32
HETATM   32  C15 UNL     1     -10.017   7.211  14.794  1.00  0.00     0.159 C 
BRANCH  32  33
HETATM   33  C16 UNL     1     -10.778   6.628  13.587  1.00  0.00     0.170 C 
BRANCH  33  34
HETATM   34  O4  UNL     1      -9.881   6.578  12.466  1.00  0.00    -0.389 OA
HETATM   35  H20 UNL     1     -10.424   6.555  11.659  1.00  0.00     0.210 HD
ENDBRANCH  33  34
BRANCH  33  36
HETATM   36  C17 UNL     1     -11.998   7.426  13.217  1.00  0.00    -0.013 A 
HETATM   37  C18 UNL     1     -13.292   6.916  13.353  1.00  0.00     0.013 A 
HETATM   38  C19 UNL     1     -14.387   7.702  12.999  1.00  0.00     0.025 A 
HETATM   39  C20 UNL     1     -14.164   8.992  12.530  1.00  0.00     0.005 A 
HETATM   40  C21 UNL     1     -15.317   9.860  12.126  1.00  0.00     0.068 C 
HETATM   41  N3  UNL     1     -12.921   9.507  12.385  1.00  0.00    -0.369 N 
HETATM   42  C22 UNL     1     -11.875   8.719  12.722  1.00  0.00     0.097 A 
ATOM     43  H3  UNL     1     -12.778  10.454  12.034  1.00  0.00     0.165 HD
ENDBRANCH  33  36
ENDBRANCH  32  33
ENDBRANCH  30  32
ENDBRANCH  27  28
ENDBRANCH  26  27
ENDBRANCH  13  26
TORSDOF 8
ENDMDL
MODEL 6
REMARK minimizedAffinity -7.14001989
REMARK CNNscore 0.310657203
REMARK CNNaffinity 6.28928947
REMARK  8 active torsions:
REMARK  status: ('A' for Active; 'I' for Inactive)
REMARK    1  A    between atoms: C3_3  and  O1_4 
REMARK    2  A    between atoms: N1_14  and  O2_16 
REMARK    3  A    between atoms: O2_16  and  C13_17 
REMARK    4  A    between atoms: C13_17  and  C14_18 
REMARK       I    between atoms: C14_18  and  N2_20 
REMARK    5  A    between atoms: N2_20  and  C15_21 
REMARK    6  A    between atoms: C15_21  and  C16_22 
REMARK    7  A    between atoms: C16_22  and  O4_23 
REMARK    8  A    between atoms: C16_22  and  C17_24 
ROOT
HETATM    1  C1  UNL     1       3.417   7.788   9.276  1.00  0.00     0.015 C 
HETATM    2  C2  UNL     1       2.437   7.449   9.880  1.00  0.00    -0.078 C 
HETATM    3  C3  UNL     1       1.218   7.051  10.604  1.00  0.00     0.128 C 
HETATM    4  C4  UNL     1       1.018   5.535  10.599  1.00  0.00     0.052 C 
HETATM    5  C5  UNL     1      -0.057   5.318  11.657  1.00  0.00     0.010 C 
HETATM    6  C6  UNL     1       0.257   6.346  12.755  1.00  0.00     0.002 C 
HETATM    7  C7  UNL     1      -0.958   6.902  13.532  1.00  0.00    -0.004 C 
HETATM    8  C8  UNL     1      -2.182   7.349  12.703  1.00  0.00     0.010 C 
HETATM    9  C9  UNL     1      -2.814   8.701  13.064  1.00  0.00     0.035 C 
HETATM   10  C10 UNL     1      -2.721   9.164  14.500  1.00  0.00    -0.069 C 
HETATM   11  C11 UNL     1      -3.465  10.211  14.900  1.00  0.00     0.030 C 
HETATM   12  C12 UNL     1      -3.354  10.792  16.264  1.00  0.00     0.032 C 
HETATM   13  N1  UNL     1      -4.149  11.780  16.569  1.00  0.00    -0.271 N 
ATOM     14  H1  UNL     1      -4.827  12.191  15.927  1.00  0.00     0.194 HD
HETATM   15  C23 UNL     1      -2.336  10.199  17.225  1.00  0.00     0.060 C 
HETATM   16  C24 UNL     1      -1.206   9.485  16.487  1.00  0.00     0.020 C 
HETATM   17  C25 UNL     1      -1.705   8.490  15.406  1.00  0.00    -0.016 C 
HETATM   18  C26 UNL     1      -2.408   7.308  16.124  1.00  0.00     0.020 C 
HETATM   19  C27 UNL     1      -0.498   7.974  14.545  1.00  0.00     0.002 C 
HETATM   20  C28 UNL     1       0.327   9.104  13.867  1.00  0.00     0.007 C 
HETATM   21  C29 UNL     1       0.713   8.848  12.407  1.00  0.00     0.014 C 
HETATM   22  C30 UNL     1       1.204   7.418  12.127  1.00  0.00     0.003 C 
HETATM   23  C31 UNL     1       2.609   7.250  12.772  1.00  0.00     0.020 C 
ENDROOT
BRANCH   3  24
HETATM   24  O1  UNL     1       0.094   7.621   9.926  1.00  0.00    -0.377 OA
HETATM   25  H2  UNL     1       0.359   8.516   9.647  1.00  0.00     0.211 HD
ENDBRANCH   3  24
BRANCH  13  26
HETATM   26  O2  UNL     1      -3.953  12.206  17.890  1.00  0.00    -0.271 OA
BRANCH  26  27
HETATM   27  C13 UNL     1      -4.687  13.407  18.098  1.00  0.00     0.303 C 
BRANCH  27  28
HETATM   28  C14 UNL     1      -4.605  13.729  19.580  1.00  0.00     0.243 C 
HETATM   29  O3  UNL     1      -3.643  14.303  20.087  1.00  0.00    -0.271 OA
HETATM   30  N2  UNL     1      -5.705  13.322  20.309  1.00  0.00    -0.356 N 
HETATM   31  H16 UNL     1      -6.285  12.600  19.892  1.00  0.00     0.162 HD
BRANCH  30  32
HETATM   32  C15 UNL     1      -5.682  13.356  21.765  1.00  0.00     0.159 C 
BRANCH  32  33
HETATM   33  C16 UNL     1      -6.490  14.551  22.307  1.00  0.00     0.170 C 
BRANCH  33  34
HETATM   34  O4  UNL     1      -5.697  15.226  23.296  1.00  0.00    -0.389 OA
HETATM   35  H20 UNL     1      -6.305  15.729  23.865  1.00  0.00     0.210 HD
ENDBRANCH  33  34
BRANCH  33  36
HETATM   36  C17 UNL     1      -7.807  14.147  22.913  1.00  0.00    -0.013 A 
HETATM   37  C18 UNL     1      -8.825  15.070  23.168  1.00  0.00     0.013 A 
HETATM   38  C19 UNL     1     -10.026  14.639  23.726  1.00  0.00     0.025 A 
HETATM   39  C20 UNL     1     -10.192  13.286  24.003  1.00  0.00     0.005 A 
HETATM   40  C21 UNL     1     -11.465  12.788  24.618  1.00  0.00     0.068 C 
HETATM   41  N3  UNL     1      -9.220  12.373  23.770  1.00  0.00    -0.369 N 
HETATM   42  C22 UNL     1      -8.058  12.819  23.241  1.00  0.00     0.097 A 
ATOM     43  H3  UNL     1      -9.358  11.386  23.985  1.00  0.00     0.165 HD
ENDBRANCH  33  36
ENDBRANCH  32  33
ENDBRANCH  30  32
ENDBRANCH  27  28
ENDBRANCH  26  27
ENDBRANCH  13  26
TORSDOF 8
ENDMDL
MODEL 7
REMARK minimizedAffinity -9.38786125
REMARK CNNscore 0.284042954
REMARK CNNaffinity 7.10194731
REMARK  8 active torsions:
REMARK  status: ('A' for Active; 'I' for Inactive)
REMARK    1  A    between atoms: C3_3  and  O1_4 
REMARK    2  A    between atoms: N1_14  and  O2_16 
REMARK    3  A    between atoms: O2_16  and  C13_17 
REMARK    4  A    between atoms: C13_17  and  C14_18 
REMARK       I    between atoms: C14_18  and  N2_20 
REMARK    5  A    between atoms: N2_20  and  C15_21 
REMARK    6  A    between atoms: C15_21  and  C16_22 
REMARK    7  A    between atoms: C16_22  and  O4_23 
REMARK    8  A    between atoms: C16_22  and  C17_24 
ROOT
HETATM    1  C1  UNL     1     -13.694  10.339  12.472  1.00  0.00     0.015 C 
HETATM    2  C2  UNL     1     -12.816   9.995  13.214  1.00  0.00    -0.078 C 
HETATM    3  C3  UNL     1     -11.720   9.593  14.110  1.00  0.00     0.128 C 
HETATM    4  C4  UNL     1     -12.121   9.687  15.583  1.00  0.00     0.052 C 
HETATM    5  C5  UNL     1     -11.015   8.921  16.299  1.00  0.00     0.010 C 
HETATM    6  C6  UNL     1     -10.674   7.752  15.362  1.00  0.00     0.002 C 
HETATM    7  C7  UNL     1      -9.205   7.272  15.383  1.00  0.00    -0.004 C 
HETATM    8  C8  UNL     1      -8.107   8.356  15.322  1.00  0.00     0.010 C 
HETATM    9  C9  UNL     1      -6.944   8.119  14.346  1.00  0.00     0.035 C 
HETATM   10  C10 UNL     1      -6.550   6.690  14.050  1.00  0.00    -0.069 C 
HETATM   11  C11 UNL     1      -5.396   6.449  13.402  1.00  0.00     0.030 C 
HETATM   12  C12 UNL     1      -4.988   5.082  12.983  1.00  0.00     0.032 C 
HETATM   13  N1  UNL     1      -3.831   4.949  12.396  1.00  0.00    -0.271 N 
ATOM     14  H1  UNL     1      -3.198   5.722  12.190  1.00  0.00     0.194 HD
HETATM   15  C23 UNL     1      -5.930   3.924  13.269  1.00  0.00     0.060 C 
HETATM   16  C24 UNL     1      -7.374   4.391  13.430  1.00  0.00     0.020 C 
HETATM   17  C25 UNL     1      -7.532   5.587  14.406  1.00  0.00    -0.016 C 
HETATM   18  C26 UNL     1      -7.201   5.089  15.837  1.00  0.00     0.020 C 
HETATM   19  C27 UNL     1      -8.996   6.149  14.341  1.00  0.00     0.002 C 
HETATM   20  C28 UNL     1      -9.449   6.581  12.918  1.00  0.00     0.007 C 
HETATM   21  C29 UNL     1     -10.200   7.913  12.845  1.00  0.00     0.014 C 
HETATM   22  C30 UNL     1     -11.247   8.107  13.954  1.00  0.00     0.003 C 
HETATM   23  C31 UNL     1     -12.441   7.152  13.669  1.00  0.00     0.020 C 
ENDROOT
BRANCH   3  24
HETATM   24  O1  UNL     1     -10.633  10.503  13.917  1.00  0.00    -0.377 OA
HETATM   25  H2  UNL     1     -10.586  10.686  12.961  1.00  0.00     0.211 HD
ENDBRANCH   3  24
BRANCH  13  26
HETATM   26  O2  UNL     1      -3.567   3.607  12.084  1.00  0.00    -0.271 OA
BRANCH  26  27
HETATM   27  C13 UNL     1      -2.687   3.562  10.966  1.00  0.00     0.303 C 
BRANCH  27  28
HETATM   28  C14 UNL     1      -1.270   3.593  11.513  1.00  0.00     0.243 C 
HETATM   29  O3  UNL     1      -0.627   2.575  11.761  1.00  0.00    -0.271 OA
HETATM   30  N2  UNL     1      -0.768   4.865  11.706  1.00  0.00    -0.356 N 
HETATM   31  H16 UNL     1      -1.447   5.616  11.781  1.00  0.00     0.162 HD
BRANCH  30  32
HETATM   32  C15 UNL     1       0.481   5.065  12.429  1.00  0.00     0.159 C 
BRANCH  32  33
HETATM   33  C16 UNL     1       1.085   6.450  12.124  1.00  0.00     0.170 C 
BRANCH  33  34
HETATM   34  O4  UNL     1       0.172   7.456  12.589  1.00  0.00    -0.389 OA
HETATM   35  H20 UNL     1       0.367   8.276  12.102  1.00  0.00     0.210 HD
ENDBRANCH  33  34
BRANCH  33  36
HETATM   36  C17 UNL     1       1.363   6.665  10.661  1.00  0.00    -0.013 A 
HETATM   37  C18 UNL     1       2.381   5.984   9.988  1.00  0.00     0.013 A 
HETATM   38  C19 UNL     1       2.590   6.219   8.630  1.00  0.00     0.025 A 
HETATM   39  C20 UNL     1       1.763   7.120   7.969  1.00  0.00     0.005 A 
HETATM   40  C21 UNL     1       1.969   7.409   6.512  1.00  0.00     0.068 C 
HETATM   41  N3  UNL     1       0.773   7.795   8.599  1.00  0.00    -0.369 N 
HETATM   42  C22 UNL     1       0.600   7.560   9.920  1.00  0.00     0.097 A 
ATOM     43  H3  UNL     1       0.180   8.456   8.098  1.00  0.00     0.165 HD
ENDBRANCH  33  36
ENDBRANCH  32  33
ENDBRANCH  30  32
ENDBRANCH  27  28
ENDBRANCH  26  27
ENDBRANCH  13  26
TORSDOF 8
ENDMDL
MODEL 8
REMARK minimizedAffinity -6.98666906
REMARK CNNscore 0.254148751
REMARK CNNaffinity 5.96125603
REMARK  8 active torsions:
REMARK  status: ('A' for Active; 'I' for Inactive)
REMARK    1  A    between atoms: C3_3  and  O1_4 
REMARK    2  A    between atoms: N1_14  and  O2_16 
REMARK    3  A    between atoms: O2_16  and  C13_17 
REMARK    4  A    between atoms: C13_17  and  C14_18 
REMARK       I    between atoms: C14_18  and  N2_20 
REMARK    5  A    between atoms: N2_20  and  C15_21 
REMARK    6  A    between atoms: C15_21  and  C16_22 
REMARK    7  A    between atoms: C16_22  and  O4_23 
REMARK    8  A    between atoms: C16_22  and  C17_24 
ROOT
HETATM    1  C1  UNL     1      -0.650   5.778  11.440  1.00  0.00     0.015 C 
HETATM    2  C2  UNL     1      -1.375   6.209  12.294  1.00  0.00    -0.078 C 
HETATM    3  C3  UNL     1      -2.276   6.757  13.321  1.00  0.00     0.128 C 
HETATM    4  C4  UNL     1      -3.159   5.675  13.945  1.00  0.00     0.052 C 
HETATM    5  C5  UNL     1      -3.737   6.359  15.177  1.00  0.00     0.010 C 
HETATM    6  C6  UNL     1      -2.595   7.240  15.711  1.00  0.00     0.002 C 
HETATM    7  C7  UNL     1      -3.021   8.550  16.414  1.00  0.00    -0.004 C 
HETATM    8  C8  UNL     1      -4.090   9.413  15.710  1.00  0.00     0.010 C 
HETATM    9  C9  UNL     1      -3.821  10.923  15.621  1.00  0.00     0.035 C 
HETATM   10  C10 UNL     1      -3.003  11.560  16.720  1.00  0.00    -0.069 C 
HETATM   11  C11 UNL     1      -2.954  12.903  16.806  1.00  0.00     0.030 C 
HETATM   12  C12 UNL     1      -2.091  13.607  17.791  1.00  0.00     0.032 C 
HETATM   13  N1  UNL     1      -2.146  14.910  17.823  1.00  0.00    -0.271 N 
ATOM     14  H1  UNL     1      -2.728  15.475  17.204  1.00  0.00     0.194 HD
HETATM   15  C23 UNL     1      -1.208  12.775  18.707  1.00  0.00     0.060 C 
HETATM   16  C24 UNL     1      -0.912  11.398  18.118  1.00  0.00     0.020 C 
HETATM   17  C25 UNL     1      -2.180  10.655  17.619  1.00  0.00    -0.016 C 
HETATM   18  C26 UNL     1      -3.042  10.288  18.855  1.00  0.00     0.020 C 
HETATM   19  C27 UNL     1      -1.773   9.362  16.827  1.00  0.00     0.002 C 
HETATM   20  C28 UNL     1      -0.822   9.626  15.625  1.00  0.00     0.007 C 
HETATM   21  C29 UNL     1      -1.168   8.872  14.338  1.00  0.00     0.014 C 
HETATM   22  C30 UNL     1      -1.557   7.400  14.556  1.00  0.00     0.003 C 
HETATM   23  C31 UNL     1      -0.278   6.611  14.951  1.00  0.00     0.020 C 
ENDROOT
BRANCH   3  24
HETATM   24  O1  UNL     1      -3.152   7.694  12.688  1.00  0.00    -0.377 OA
HETATM   25  H2  UNL     1      -2.616   8.186  12.039  1.00  0.00     0.211 HD
ENDBRANCH   3  24
BRANCH  13  26
HETATM   26  O2  UNL     1      -1.305  15.433  18.814  1.00  0.00    -0.271 OA
BRANCH  26  27
HETATM   27  C13 UNL     1      -1.916  16.593  19.368  1.00  0.00     0.303 C 
BRANCH  27  28
HETATM   28  C14 UNL     1      -2.858  16.121  20.462  1.00  0.00     0.243 C 
HETATM   29  O3  UNL     1      -2.466  15.583  21.495  1.00  0.00    -0.271 OA
HETATM   30  N2  UNL     1      -4.193  16.351  20.194  1.00  0.00    -0.356 N 
HETATM   31  H16 UNL     1      -4.444  16.499  19.221  1.00  0.00     0.162 HD
BRANCH  30  32
HETATM   32  C15 UNL     1      -5.228  15.762  21.033  1.00  0.00     0.159 C 
BRANCH  32  33
HETATM   33  C16 UNL     1      -5.560  14.326  20.582  1.00  0.00     0.170 C 
BRANCH  33  34
HETATM   34  O4  UNL     1      -5.869  14.350  19.179  1.00  0.00    -0.389 OA
HETATM   35  H20 UNL     1      -6.400  13.559  18.984  1.00  0.00     0.210 HD
ENDBRANCH  33  34
BRANCH  33  36
HETATM   36  C17 UNL     1      -6.710  13.719  21.338  1.00  0.00    -0.013 A 
HETATM   37  C18 UNL     1      -6.670  13.515  22.720  1.00  0.00     0.013 A 
HETATM   38  C19 UNL     1      -7.768  12.954  23.369  1.00  0.00     0.025 A 
HETATM   39  C20 UNL     1      -8.893  12.622  22.622  1.00  0.00     0.005 A 
HETATM   40  C21 UNL     1     -10.086  12.002  23.284  1.00  0.00     0.068 C 
HETATM   41  N3  UNL     1      -8.955  12.805  21.282  1.00  0.00    -0.369 N 
HETATM   42  C22 UNL     1      -7.871  13.338  20.674  1.00  0.00     0.097 A 
ATOM     43  H3  UNL     1      -9.787  12.551  20.751  1.00  0.00     0.165 HD
ENDBRANCH  33  36
ENDBRANCH  32  33
ENDBRANCH  30  32
ENDBRANCH  27  28
ENDBRANCH  26  27
ENDBRANCH  13  26
TORSDOF 8
ENDMDL
MODEL 9
REMARK minimizedAffinity -7.24534273
REMARK CNNscore 0.250289947
REMARK CNNaffinity 6.77953577
REMARK  8 active torsions:
REMARK  status: ('A' for Active; 'I' for Inactive)
REMARK    1  A    between atoms: C3_3  and  O1_4 
REMARK    2  A    between atoms: N1_14  and  O2_16 
REMARK    3  A    between atoms: O2_16  and  C13_17 
REMARK    4  A    between atoms: C13_17  and  C14_18 
REMARK       I    between atoms: C14_18  and  N2_20 
REMARK    5  A    between atoms: N2_20  and  C15_21 
REMARK    6  A    between atoms: C15_21  and  C16_22 
REMARK    7  A    between atoms: C16_22  and  O4_23 
REMARK    8  A    between atoms: C16_22  and  C17_24 
ROOT
HETATM    1  C1  UNL     1      -0.530   9.592  13.704  1.00  0.00     0.015 C 
HETATM    2  C2  UNL     1      -1.284   8.668  13.839  1.00  0.00    -0.078 C 
HETATM    3  C3  UNL     1      -2.213   7.535  13.975  1.00  0.00     0.128 C 
HETATM    4  C4  UNL     1      -1.573   6.354  14.707  1.00  0.00     0.052 C 
HETATM    5  C5  UNL     1      -2.762   5.461  15.042  1.00  0.00     0.010 C 
HETATM    6  C6  UNL     1      -3.902   6.434  15.384  1.00  0.00     0.002 C 
HETATM    7  C7  UNL     1      -5.330   5.955  15.035  1.00  0.00    -0.004 C 
HETATM    8  C8  UNL     1      -5.544   5.335  13.637  1.00  0.00     0.010 C 
HETATM    9  C9  UNL     1      -6.771   5.809  12.844  1.00  0.00     0.035 C 
HETATM   10  C10 UNL     1      -7.990   6.248  13.622  1.00  0.00    -0.069 C 
HETATM   11  C11 UNL     1      -9.152   6.434  12.970  1.00  0.00     0.030 C 
HETATM   12  C12 UNL     1     -10.368   6.963  13.643  1.00  0.00     0.032 C 
HETATM   13  N1  UNL     1     -11.457   7.068  12.933  1.00  0.00    -0.271 N 
ATOM     14  H1  UNL     1     -11.522   6.829  11.943  1.00  0.00     0.194 HD
HETATM   15  C23 UNL     1     -10.278   7.338  15.113  1.00  0.00     0.060 C 
HETATM   16  C24 UNL     1      -8.843   7.648  15.535  1.00  0.00     0.020 C 
HETATM   17  C25 UNL     1      -7.823   6.564  15.098  1.00  0.00    -0.016 C 
HETATM   18  C26 UNL     1      -8.116   5.272  15.905  1.00  0.00     0.020 C 
HETATM   19  C27 UNL     1      -6.358   7.061  15.363  1.00  0.00     0.002 C 
HETATM   20  C28 UNL     1      -6.008   8.408  14.671  1.00  0.00     0.007 C 
HETATM   21  C29 UNL     1      -4.637   8.460  13.990  1.00  0.00     0.014 C 
HETATM   22  C30 UNL     1      -3.502   7.832  14.815  1.00  0.00     0.003 C 
HETATM   23  C31 UNL     1      -3.199   8.768  16.019  1.00  0.00     0.020 C 
ENDROOT
BRANCH   3  24
HETATM   24  O1  UNL     1      -2.548   7.077  12.662  1.00  0.00    -0.377 OA
HETATM   25  H2  UNL     1      -2.650   7.870  12.105  1.00  0.00     0.211 HD
ENDBRANCH   3  24
BRANCH  13  26
HETATM   26  O2  UNL     1     -12.524   7.552  13.701  1.00  0.00    -0.271 OA
BRANCH  26  27
HETATM   27  C13 UNL     1     -13.628   6.664  13.563  1.00  0.00     0.303 C 
BRANCH  27  28
HETATM   28  C14 UNL     1     -14.677   7.384  12.733  1.00  0.00     0.243 C 
HETATM   29  O3  UNL     1     -14.453   8.438  12.141  1.00  0.00    -0.271 OA
HETATM   30  N2  UNL     1     -15.904   6.750  12.700  1.00  0.00    -0.356 N 
HETATM   31  H16 UNL     1     -16.092   6.086  13.444  1.00  0.00     0.162 HD
BRANCH  30  32
HETATM   32  C15 UNL     1     -17.068   7.421  12.137  1.00  0.00     0.159 C 
BRANCH  32  33
HETATM   33  C16 UNL     1     -18.133   7.688  13.219  1.00  0.00     0.170 C 
BRANCH  33  34
HETATM   34  O4  UNL     1     -18.344   6.476  13.959  1.00  0.00    -0.389 OA
HETATM   35  H20 UNL     1     -19.221   6.536  14.376  1.00  0.00     0.210 HD
ENDBRANCH  33  34
BRANCH  33  36
HETATM   36  C17 UNL     1     -19.443   8.164  12.654  1.00  0.00    -0.013 A 
HETATM   37  C18 UNL     1     -19.619   9.463  12.169  1.00  0.00     0.013 A 
HETATM   38  C19 UNL     1     -20.854   9.847  11.651  1.00  0.00     0.025 A 
HETATM   39  C20 UNL     1     -21.887   8.916  11.615  1.00  0.00     0.005 A 
HETATM   40  C21 UNL     1     -23.233   9.300  11.079  1.00  0.00     0.068 C 
HETATM   41  N3  UNL     1     -21.743   7.654  12.083  1.00  0.00    -0.369 N 
HETATM   42  C22 UNL     1     -20.539   7.311  12.593  1.00  0.00     0.097 A 
ATOM     43  H3  UNL     1     -22.514   6.988  12.052  1.00  0.00     0.165 HD
ENDBRANCH  33  36
ENDBRANCH  32  33
ENDBRANCH  30  32
ENDBRANCH  27  28
ENDBRANCH  26  27
ENDBRANCH  13  26
TORSDOF 8
ENDMDL
