MODEL 1
REMARK minimizedAffinity -9.55498505
REMARK  9 active torsions:
REMARK  status: ('A' for Active; 'I' for Inactive)
REMARK    1  A    between atoms: C12_14  and  C13_15 
REMARK    2  A    between atoms: C13_15  and  C15_17 
REMARK    3  A    between atoms: C15_17  and  C16_18 
REMARK    4  A    between atoms: C16_18  and  C17_19 
REMARK    5  A    between atoms: C18_20  and  C20_22 
REMARK    6  A    between atoms: C26_29  and  C27_30 
REMARK    7  A    between atoms: C27_30  and  C28_31 
REMARK    8  A    between atoms: C28_31  and  C29_32 
REMARK    9  A    between atoms: C29_32  and  O5_34 
ROOT
HETATM    1  C1  UNL     1      -0.002  50.195 -16.958  1.00  0.00     0.025 C 
HETATM    2  C2  UNL     1      -1.075  50.257 -17.757  1.00  0.00     0.015 C 
HETATM    3  C3  UNL     1      -1.994  49.103 -17.861  1.00  0.00     0.289 C 
HETATM    4  O1  UNL     1      -1.766  47.958 -17.512  1.00  0.00    -0.260 OA
HETATM    5  O2  UNL     1      -3.149  49.544 -18.419  1.00  0.00    -0.311 OA
HETATM    6  C4  UNL     1      -3.103  50.969 -18.585  1.00  0.00     0.142 C 
HETATM    7  C5  UNL     1      -3.850  51.346 -19.853  1.00  0.00     0.039 C 
HETATM    8  C6  UNL     1      -3.185  50.720 -21.089  1.00  0.00     0.006 C 
HETATM    9  C7  UNL     1      -1.760  51.288 -21.258  1.00  0.00    -0.027 A 
HETATM   10  C8  UNL     1      -1.501  52.064 -22.556  1.00  0.00     0.011 C 
HETATM   11  C9  UNL     1      -2.097  51.469 -23.847  1.00  0.00     0.011 C 
HETATM   12  C10 UNL     1      -3.193  50.415 -23.628  1.00  0.00    -0.032 C 
HETATM   13  C11 UNL     1      -2.506  49.025 -23.465  1.00  0.00     0.016 C 
HETATM   14  C12 UNL     1      -4.289  50.305 -24.739  1.00  0.00    -0.002 C 
HETATM   15  C21 UNL     1      -5.491  49.687 -23.964  1.00  0.00     0.006 C 
HETATM   16  C22 UNL     1      -5.222  49.865 -22.460  1.00  0.00     0.011 C 
HETATM   17  C23 UNL     1      -4.043  50.854 -22.382  1.00  0.00    -0.032 C 
HETATM   18  C24 UNL     1      -4.671  52.282 -22.495  1.00  0.00     0.016 C 
HETATM   19  C25 UNL     1      -0.581  50.467 -20.772  1.00  0.00     0.022 A 
HETATM   20  C26 UNL     1      -0.991  51.663 -19.942  1.00  0.00    -0.021 A 
HETATM   21  C30 UNL     1      -1.635  51.392 -18.556  1.00  0.00     0.063 C 
ENDROOT
BRANCH  14  22
HETATM   22  C13 UNL     1      -3.988  49.543 -26.067  1.00  0.00    -0.014 C 
HETATM   23  C14 UNL     1      -4.690  48.181 -26.116  1.00  0.00     0.010 C 
BRANCH  22  24
HETATM   24  C15 UNL     1      -2.455  49.361 -26.244  1.00  0.00     0.008 C 
BRANCH  24  25
HETATM   25  C16 UNL     1      -1.771  50.493 -27.021  1.00  0.00     0.028 C 
BRANCH  25  26
HETATM   26  C17 UNL     1      -0.347  50.667 -26.562  1.00  0.00    -0.017 C 
HETATM   27  C18 UNL     1       0.604  51.430 -27.132  1.00  0.00    -0.028 C 
HETATM   28  C19 UNL     1       0.484  52.274 -28.363  1.00  0.00     0.051 C 
BRANCH  27  29
HETATM   29  C20 UNL     1       1.941  51.447 -26.469  1.00  0.00     0.265 C 
HETATM   30  O3  UNL     1       2.898  52.065 -26.920  1.00  0.00    -0.302 OA
ENDBRANCH  27  29
ENDBRANCH  25  26
ENDBRANCH  24  25
ENDBRANCH  22  24
ENDBRANCH  14  22
BRANCH  20  31
HETATM   31  C27 UNL     1      -0.159  52.954 -19.996  1.00  0.00     0.021 C 
BRANCH  31  32
HETATM   32  C28 UNL     1       1.221  52.841 -20.631  1.00  0.00     0.111 C 
BRANCH  32  33
HETATM   33  C29 UNL     1       1.458  53.876 -21.696  1.00  0.00     0.139 C 
HETATM   34  O4  UNL     1       2.034  54.942 -21.570  1.00  0.00    -0.650 OA
BRANCH  33  35
HETATM   35  O5  UNL     1       1.010  53.475 -22.903  1.00  0.00    -0.776 OA
HETATM   36  H41 UNL     1       1.235  54.219 -23.503  1.00  0.00     0.167 HD
ENDBRANCH  33  35
ENDBRANCH  32  33
ENDBRANCH  31  32
ENDBRANCH  20  31
TORSDOF 9
ENDMDL
MODEL 2
REMARK minimizedAffinity -9.31502438
REMARK  9 active torsions:
REMARK  status: ('A' for Active; 'I' for Inactive)
REMARK    1  A    between atoms: C12_14  and  C13_15 
REMARK    2  A    between atoms: C13_15  and  C15_17 
REMARK    3  A    between atoms: C15_17  and  C16_18 
REMARK    4  A    between atoms: C16_18  and  C17_19 
REMARK    5  A    between atoms: C18_20  and  C20_22 
REMARK    6  A    between atoms: C26_29  and  C27_30 
REMARK    7  A    between atoms: C27_30  and  C28_31 
REMARK    8  A    between atoms: C28_31  and  C29_32 
REMARK    9  A    between atoms: C29_32  and  O5_34 
ROOT
HETATM    1  C1  UNL     1       0.245  50.639 -17.204  1.00  0.00     0.025 C 
HETATM    2  C2  UNL     1      -0.847  50.602 -17.978  1.00  0.00     0.015 C 
HETATM    3  C3  UNL     1      -1.837  49.515 -17.818  1.00  0.00     0.289 C 
HETATM    4  O1  UNL     1      -1.668  48.457 -17.238  1.00  0.00    -0.260 OA
HETATM    5  O2  UNL     1      -2.980  49.905 -18.436  1.00  0.00    -0.311 OA
HETATM    6  C4  UNL     1      -2.853  51.256 -18.901  1.00  0.00     0.142 C 
HETATM    7  C5  UNL     1      -3.616  51.407 -20.207  1.00  0.00     0.039 C 
HETATM    8  C6  UNL     1      -3.030  50.492 -21.293  1.00  0.00     0.006 C 
HETATM    9  C7  UNL     1      -1.579  50.916 -21.605  1.00  0.00    -0.027 A 
HETATM   10  C8  UNL     1      -1.315  51.383 -23.042  1.00  0.00     0.011 C 
HETATM   11  C9  UNL     1      -1.987  50.570 -24.167  1.00  0.00     0.011 C 
HETATM   12  C10 UNL     1      -3.137  49.661 -23.709  1.00  0.00    -0.032 C 
HETATM   13  C11 UNL     1      -2.531  48.294 -23.268  1.00  0.00     0.016 C 
HETATM   14  C12 UNL     1      -4.273  49.392 -24.751  1.00  0.00    -0.002 C 
HETATM   15  C21 UNL     1      -5.484  49.032 -23.841  1.00  0.00     0.006 C 
HETATM   16  C22 UNL     1      -5.157  49.504 -22.415  1.00  0.00     0.011 C 
HETATM   17  C23 UNL     1      -3.919  50.408 -22.569  1.00  0.00    -0.032 C 
HETATM   18  C24 UNL     1      -4.462  51.818 -22.971  1.00  0.00     0.016 C 
HETATM   19  C25 UNL     1      -0.437  50.140 -20.978  1.00  0.00     0.022 A 
HETATM   20  C26 UNL     1      -0.747  51.508 -20.413  1.00  0.00    -0.021 A 
HETATM   21  C30 UNL     1      -1.362  51.578 -18.990  1.00  0.00     0.063 C 
ENDROOT
BRANCH  14  22
HETATM   22  C13 UNL     1      -4.061  48.350 -25.894  1.00  0.00    -0.014 C 
HETATM   23  C14 UNL     1      -2.936  48.770 -26.847  1.00  0.00     0.010 C 
BRANCH  22  24
HETATM   24  C15 UNL     1      -5.383  48.147 -26.685  1.00  0.00     0.008 C 
BRANCH  24  25
HETATM   25  C16 UNL     1      -5.192  47.963 -28.196  1.00  0.00     0.028 C 
BRANCH  25  26
HETATM   26  C17 UNL     1      -6.522  47.951 -28.902  1.00  0.00    -0.017 C 
HETATM   27  C18 UNL     1      -7.399  46.931 -28.967  1.00  0.00    -0.028 C 
HETATM   28  C19 UNL     1      -7.260  45.565 -28.372  1.00  0.00     0.051 C 
BRANCH  27  29
HETATM   29  C20 UNL     1      -8.665  47.179 -29.719  1.00  0.00     0.265 C 
HETATM   30  O3  UNL     1      -9.441  48.083 -29.433  1.00  0.00    -0.302 OA
ENDBRANCH  27  29
ENDBRANCH  25  26
ENDBRANCH  24  25
ENDBRANCH  22  24
ENDBRANCH  14  22
BRANCH  20  31
HETATM   31  C27 UNL     1       0.160  52.701 -20.754  1.00  0.00     0.021 C 
BRANCH  31  32
HETATM   32  C28 UNL     1       0.628  52.800 -22.200  1.00  0.00     0.111 C 
BRANCH  32  33
HETATM   33  C29 UNL     1       1.322  54.100 -22.500  1.00  0.00     0.139 C 
HETATM   34  O4  UNL     1       1.883  54.834 -21.706  1.00  0.00    -0.650 OA
BRANCH  33  35
HETATM   35  O5  UNL     1       1.332  54.378 -23.820  1.00  0.00    -0.776 OA
HETATM   36  H41 UNL     1       1.819  55.228 -23.882  1.00  0.00     0.167 HD
ENDBRANCH  33  35
ENDBRANCH  32  33
ENDBRANCH  31  32
ENDBRANCH  20  31
TORSDOF 9
ENDMDL
MODEL 3
REMARK minimizedAffinity -8.88042068
REMARK  9 active torsions:
REMARK  status: ('A' for Active; 'I' for Inactive)
REMARK    1  A    between atoms: C12_14  and  C13_15 
REMARK    2  A    between atoms: C13_15  and  C15_17 
REMARK    3  A    between atoms: C15_17  and  C16_18 
REMARK    4  A    between atoms: C16_18  and  C17_19 
REMARK    5  A    between atoms: C18_20  and  C20_22 
REMARK    6  A    between atoms: C26_29  and  C27_30 
REMARK    7  A    between atoms: C27_30  and  C28_31 
REMARK    8  A    between atoms: C28_31  and  C29_32 
REMARK    9  A    between atoms: C29_32  and  O5_34 
ROOT
HETATM    1  C1  UNL     1       0.282  54.154 -26.257  1.00  0.00     0.025 C 
HETATM    2  C2  UNL     1      -0.418  53.027 -26.080  1.00  0.00     0.015 C 
HETATM    3  C3  UNL     1      -1.545  52.701 -26.981  1.00  0.00     0.289 C 
HETATM    4  O1  UNL     1      -2.122  53.467 -27.732  1.00  0.00    -0.260 OA
HETATM    5  O2  UNL     1      -1.830  51.384 -26.825  1.00  0.00    -0.311 OA
HETATM    6  C4  UNL     1      -0.869  50.772 -25.952  1.00  0.00     0.142 C 
HETATM    7  C5  UNL     1      -1.559  49.700 -25.125  1.00  0.00     0.039 C 
HETATM    8  C6  UNL     1      -2.656  50.311 -24.240  1.00  0.00     0.006 C 
HETATM    9  C7  UNL     1      -2.023  51.283 -23.221  1.00  0.00    -0.027 A 
HETATM   10  C8  UNL     1      -2.211  50.916 -21.744  1.00  0.00     0.011 C 
HETATM   11  C9  UNL     1      -3.603  50.395 -21.333  1.00  0.00     0.011 C 
HETATM   12  C10 UNL     1      -4.491  49.934 -22.499  1.00  0.00    -0.032 C 
HETATM   13  C11 UNL     1      -5.264  51.174 -23.042  1.00  0.00     0.016 C 
HETATM   14  C12 UNL     1      -5.521  48.798 -22.186  1.00  0.00    -0.002 C 
HETATM   15  C21 UNL     1      -5.757  48.165 -23.589  1.00  0.00     0.006 C 
HETATM   16  C22 UNL     1      -4.613  48.622 -24.510  1.00  0.00     0.011 C 
HETATM   17  C23 UNL     1      -3.567  49.243 -23.565  1.00  0.00    -0.032 C 
HETATM   18  C24 UNL     1      -2.720  48.049 -23.015  1.00  0.00     0.016 C 
HETATM   19  C25 UNL     1      -2.060  52.772 -23.508  1.00  0.00     0.022 A 
HETATM   20  C26 UNL     1      -0.741  52.057 -23.690  1.00  0.00    -0.021 A 
HETATM   21  C30 UNL     1      -0.208  51.883 -25.137  1.00  0.00     0.063 C 
ENDROOT
BRANCH  14  22
HETATM   22  C13 UNL     1      -6.858  49.130 -21.454  1.00  0.00    -0.014 C 
HETATM   23  C14 UNL     1      -6.623  49.946 -20.177  1.00  0.00     0.010 C 
BRANCH  22  24
HETATM   24  C15 UNL     1      -7.623  47.819 -21.117  1.00  0.00     0.008 C 
BRANCH  24  25
HETATM   25  C16 UNL     1      -9.123  48.013 -20.860  1.00  0.00     0.028 C 
BRANCH  25  26
HETATM   26  C17 UNL     1      -9.443  47.807 -19.403  1.00  0.00    -0.017 C 
HETATM   27  C18 UNL     1     -10.658  47.836 -18.824  1.00  0.00    -0.028 C 
HETATM   28  C19 UNL     1     -11.978  48.094 -19.482  1.00  0.00     0.051 C 
BRANCH  27  29
HETATM   29  C20 UNL     1     -10.711  47.581 -17.355  1.00  0.00     0.265 C 
HETATM   30  O3  UNL     1     -11.763  47.460 -16.739  1.00  0.00    -0.302 OA
ENDBRANCH  27  29
ENDBRANCH  25  26
ENDBRANCH  24  25
ENDBRANCH  22  24
ENDBRANCH  14  22
BRANCH  20  31
HETATM   31  C27 UNL     1       0.369  52.216 -22.638  1.00  0.00     0.021 C 
BRANCH  31  32
HETATM   32  C28 UNL     1       0.078  53.176 -21.492  1.00  0.00     0.111 C 
BRANCH  32  33
HETATM   33  C29 UNL     1       1.239  54.080 -21.180  1.00  0.00     0.139 C 
HETATM   34  O4  UNL     1       1.887  54.744 -21.970  1.00  0.00    -0.650 OA
BRANCH  33  35
HETATM   35  O5  UNL     1       1.484  54.154 -19.856  1.00  0.00    -0.776 OA
HETATM   36  H41 UNL     1       2.241  54.776 -19.786  1.00  0.00     0.167 HD
ENDBRANCH  33  35
ENDBRANCH  32  33
ENDBRANCH  31  32
ENDBRANCH  20  31
TORSDOF 9
ENDMDL
MODEL 4
REMARK minimizedAffinity -8.75648594
REMARK  9 active torsions:
REMARK  status: ('A' for Active; 'I' for Inactive)
REMARK    1  A    between atoms: C12_14  and  C13_15 
REMARK    2  A    between atoms: C13_15  and  C15_17 
REMARK    3  A    between atoms: C15_17  and  C16_18 
REMARK    4  A    between atoms: C16_18  and  C17_19 
REMARK    5  A    between atoms: C18_20  and  C20_22 
REMARK    6  A    between atoms: C26_29  and  C27_30 
REMARK    7  A    between atoms: C27_30  and  C28_31 
REMARK    8  A    between atoms: C28_31  and  C29_32 
REMARK    9  A    between atoms: C29_32  and  O5_34 
ROOT
HETATM    1  C1  UNL     1      -2.035  51.618 -27.769  1.00  0.00     0.025 C 
HETATM    2  C2  UNL     1      -2.462  51.747 -26.506  1.00  0.00     0.015 C 
HETATM    3  C3  UNL     1      -1.865  52.768 -25.619  1.00  0.00     0.289 C 
HETATM    4  O1  UNL     1      -0.815  53.360 -25.794  1.00  0.00    -0.260 OA
HETATM    5  O2  UNL     1      -2.698  52.933 -24.561  1.00  0.00    -0.311 OA
HETATM    6  C4  UNL     1      -3.894  52.163 -24.751  1.00  0.00     0.142 C 
HETATM    7  C5  UNL     1      -4.372  51.646 -23.404  1.00  0.00     0.039 C 
HETATM    8  C6  UNL     1      -3.326  50.717 -22.770  1.00  0.00     0.006 C 
HETATM    9  C7  UNL     1      -3.134  49.466 -23.654  1.00  0.00    -0.027 A 
HETATM   10  C8  UNL     1      -3.490  48.126 -22.998  1.00  0.00     0.011 C 
HETATM   11  C9  UNL     1      -3.046  47.934 -21.534  1.00  0.00     0.011 C 
HETATM   12  C10 UNL     1      -2.668  49.227 -20.798  1.00  0.00    -0.032 C 
HETATM   13  C11 UNL     1      -1.163  49.523 -21.074  1.00  0.00     0.016 C 
HETATM   14  C12 UNL     1      -2.908  49.247 -19.252  1.00  0.00    -0.002 C 
HETATM   15  C21 UNL     1      -3.046  50.769 -18.953  1.00  0.00     0.006 C 
HETATM   16  C22 UNL     1      -3.311  51.487 -20.287  1.00  0.00     0.011 C 
HETATM   17  C23 UNL     1      -3.640  50.362 -21.286  1.00  0.00    -0.032 C 
HETATM   18  C24 UNL     1      -5.159  50.044 -21.093  1.00  0.00     0.016 C 
HETATM   19  C25 UNL     1      -1.948  49.409 -24.596  1.00  0.00     0.022 A 
HETATM   20  C26 UNL     1      -3.310  49.665 -25.201  1.00  0.00    -0.021 A 
HETATM   21  C30 UNL     1      -3.587  51.077 -25.781  1.00  0.00     0.063 C 
ENDROOT
BRANCH  14  22
HETATM   22  C13 UNL     1      -1.898  48.545 -18.291  1.00  0.00    -0.014 C 
HETATM   23  C14 UNL     1      -2.581  48.041 -17.014  1.00  0.00     0.010 C 
BRANCH  22  24
HETATM   24  C15 UNL     1      -0.741  49.517 -17.928  1.00  0.00     0.008 C 
BRANCH  24  25
HETATM   25  C16 UNL     1      -0.083  49.236 -16.571  1.00  0.00     0.028 C 
BRANCH  25  26
HETATM   26  C17 UNL     1       0.786  50.393 -16.152  1.00  0.00    -0.017 C 
HETATM   27  C18 UNL     1       0.943  51.566 -16.792  1.00  0.00    -0.028 C 
HETATM   28  C19 UNL     1       0.309  51.999 -18.077  1.00  0.00     0.051 C 
BRANCH  27  29
HETATM   29  C20 UNL     1       1.853  52.564 -16.157  1.00  0.00     0.265 C 
HETATM   30  O3  UNL     1       3.070  52.425 -16.122  1.00  0.00    -0.302 OA
ENDBRANCH  27  29
ENDBRANCH  25  26
ENDBRANCH  24  25
ENDBRANCH  22  24
ENDBRANCH  14  22
BRANCH  20  31
HETATM   31  C27 UNL     1      -4.042  48.535 -25.944  1.00  0.00     0.021 C 
BRANCH  31  32
HETATM   32  C28 UNL     1      -3.641  48.313 -27.396  1.00  0.00     0.111 C 
BRANCH  32  33
HETATM   33  C29 UNL     1      -4.808  48.394 -28.341  1.00  0.00     0.139 C 
HETATM   34  O4  UNL     1      -5.895  47.858 -28.215  1.00  0.00    -0.650 OA
BRANCH  33  35
HETATM   35  O5  UNL     1      -4.564  49.218 -29.380  1.00  0.00    -0.776 OA
HETATM   36  H41 UNL     1      -5.394  49.197 -29.905  1.00  0.00     0.167 HD
ENDBRANCH  33  35
ENDBRANCH  32  33
ENDBRANCH  31  32
ENDBRANCH  20  31
TORSDOF 9
ENDMDL
MODEL 5
REMARK minimizedAffinity -8.6805706
REMARK  9 active torsions:
REMARK  status: ('A' for Active; 'I' for Inactive)
REMARK    1  A    between atoms: C12_14  and  C13_15 
REMARK    2  A    between atoms: C13_15  and  C15_17 
REMARK    3  A    between atoms: C15_17  and  C16_18 
REMARK    4  A    between atoms: C16_18  and  C17_19 
REMARK    5  A    between atoms: C18_20  and  C20_22 
REMARK    6  A    between atoms: C26_29  and  C27_30 
REMARK    7  A    between atoms: C27_30  and  C28_31 
REMARK    8  A    between atoms: C28_31  and  C29_32 
REMARK    9  A    between atoms: C29_32  and  O5_34 
ROOT
HETATM    1  C1  UNL     1      -7.390  48.438 -25.121  1.00  0.00     0.025 C 
HETATM    2  C2  UNL     1      -6.511  48.459 -24.111  1.00  0.00     0.015 C 
HETATM    3  C3  UNL     1      -6.930  48.919 -22.769  1.00  0.00     0.289 C 
HETATM    4  O1  UNL     1      -7.931  49.558 -22.499  1.00  0.00    -0.260 OA
HETATM    5  O2  UNL     1      -5.994  48.503 -21.880  1.00  0.00    -0.311 OA
HETATM    6  C4  UNL     1      -5.023  47.675 -22.537  1.00  0.00     0.142 C 
HETATM    7  C5  UNL     1      -3.660  47.912 -21.909  1.00  0.00     0.039 C 
HETATM    8  C6  UNL     1      -3.216  49.371 -22.092  1.00  0.00     0.006 C 
HETATM    9  C7  UNL     1      -3.042  49.678 -23.595  1.00  0.00    -0.027 A 
HETATM   10  C8  UNL     1      -1.627  50.075 -24.035  1.00  0.00     0.011 C 
HETATM   11  C9  UNL     1      -0.859  51.035 -23.105  1.00  0.00     0.011 C 
HETATM   12  C10 UNL     1      -1.431  51.156 -21.685  1.00  0.00    -0.032 C 
HETATM   13  C11 UNL     1      -2.530  52.260 -21.694  1.00  0.00     0.016 C 
HETATM   14  C12 UNL     1      -0.408  51.476 -20.544  1.00  0.00    -0.002 C 
HETATM   15  C21 UNL     1      -1.127  50.916 -19.282  1.00  0.00     0.006 C 
HETATM   16  C22 UNL     1      -2.241  49.968 -19.758  1.00  0.00     0.011 C 
HETATM   17  C23 UNL     1      -1.956  49.739 -21.254  1.00  0.00    -0.032 C 
HETATM   18  C24 UNL     1      -0.885  48.601 -21.319  1.00  0.00     0.016 C 
HETATM   19  C25 UNL     1      -4.154  50.401 -24.329  1.00  0.00     0.022 A 
HETATM   20  C26 UNL     1      -3.997  48.919 -24.583  1.00  0.00    -0.021 A 
HETATM   21  C30 UNL     1      -5.098  47.973 -24.034  1.00  0.00     0.063 C 
ENDROOT
BRANCH  14  22
HETATM   22  C13 UNL     1       0.104  52.936 -20.335  1.00  0.00    -0.014 C 
HETATM   23  C14 UNL     1       1.428  53.187 -21.066  1.00  0.00     0.010 C 
BRANCH  22  24
HETATM   24  C15 UNL     1       0.267  53.232 -18.818  1.00  0.00     0.008 C 
BRANCH  24  25
HETATM   25  C16 UNL     1       1.470  52.539 -18.166  1.00  0.00     0.028 C 
BRANCH  25  26
HETATM   26  C17 UNL     1       1.378  52.613 -16.665  1.00  0.00    -0.017 C 
HETATM   27  C18 UNL     1       1.004  51.632 -15.823  1.00  0.00    -0.028 C 
HETATM   28  C19 UNL     1       0.578  50.240 -16.172  1.00  0.00     0.051 C 
BRANCH  27  29
HETATM   29  C20 UNL     1       1.013  51.955 -14.366  1.00  0.00     0.265 C 
HETATM   30  O3  UNL     1       0.163  52.659 -13.836  1.00  0.00    -0.302 OA
ENDBRANCH  27  29
ENDBRANCH  25  26
ENDBRANCH  24  25
ENDBRANCH  22  24
ENDBRANCH  14  22
BRANCH  20  31
HETATM   31  C27 UNL     1      -3.357  48.430 -25.892  1.00  0.00     0.021 C 
BRANCH  31  32
HETATM   32  C28 UNL     1      -4.014  48.904 -27.182  1.00  0.00     0.111 C 
BRANCH  32  33
HETATM   33  C29 UNL     1      -3.262  50.028 -27.840  1.00  0.00     0.139 C 
HETATM   34  O4  UNL     1      -2.319  50.649 -27.382  1.00  0.00    -0.650 OA
BRANCH  33  35
HETATM   35  O5  UNL     1      -3.700  50.269 -29.092  1.00  0.00    -0.776 OA
HETATM   36  H41 UNL     1      -3.128  51.000 -29.411  1.00  0.00     0.167 HD
ENDBRANCH  33  35
ENDBRANCH  32  33
ENDBRANCH  31  32
ENDBRANCH  20  31
TORSDOF 9
ENDMDL
MODEL 6
REMARK minimizedAffinity -8.66482258
REMARK  9 active torsions:
REMARK  status: ('A' for Active; 'I' for Inactive)
REMARK    1  A    between atoms: C12_14  and  C13_15 
REMARK    2  A    between atoms: C13_15  and  C15_17 
REMARK    3  A    between atoms: C15_17  and  C16_18 
REMARK    4  A    between atoms: C16_18  and  C17_19 
REMARK    5  A    between atoms: C18_20  and  C20_22 
REMARK    6  A    between atoms: C26_29  and  C27_30 
REMARK    7  A    between atoms: C27_30  and  C28_31 
REMARK    8  A    between atoms: C28_31  and  C29_32 
REMARK    9  A    between atoms: C29_32  and  O5_34 
ROOT
HETATM    1  C1  UNL     1       0.021  52.080 -28.393  1.00  0.00     0.025 C 
HETATM    2  C2  UNL     1      -0.719  52.206 -27.284  1.00  0.00     0.015 C 
HETATM    3  C3  UNL     1      -0.155  52.855 -26.081  1.00  0.00     0.289 C 
HETATM    4  O1  UNL     1       1.023  53.067 -25.854  1.00  0.00    -0.260 OA
HETATM    5  O2  UNL     1      -1.188  53.177 -25.264  1.00  0.00    -0.311 OA
HETATM    6  C4  UNL     1      -2.437  52.890 -25.910  1.00  0.00     0.142 C 
HETATM    7  C5  UNL     1      -3.440  52.421 -24.870  1.00  0.00     0.039 C 
HETATM    8  C6  UNL     1      -2.966  51.126 -24.194  1.00  0.00     0.006 C 
HETATM    9  C7  UNL     1      -2.887  49.992 -25.239  1.00  0.00    -0.027 A 
HETATM   10  C8  UNL     1      -3.808  48.790 -24.989  1.00  0.00     0.011 C 
HETATM   11  C9  UNL     1      -3.919  48.296 -23.533  1.00  0.00     0.011 C 
HETATM   12  C10 UNL     1      -3.426  49.291 -22.473  1.00  0.00    -0.032 C 
HETATM   13  C11 UNL     1      -1.893  49.082 -22.284  1.00  0.00     0.016 C 
HETATM   14  C12 UNL     1      -4.118  49.219 -21.071  1.00  0.00    -0.002 C 
HETATM   15  C21 UNL     1      -3.887  50.653 -20.509  1.00  0.00     0.006 C 
HETATM   16  C22 UNL     1      -3.498  51.563 -21.687  1.00  0.00     0.011 C 
HETATM   17  C23 UNL     1      -3.816  50.737 -22.948  1.00  0.00    -0.032 C 
HETATM   18  C24 UNL     1      -5.343  50.940 -23.223  1.00  0.00     0.016 C 
HETATM   19  C25 UNL     1      -1.539  49.637 -25.834  1.00  0.00     0.022 A 
HETATM   20  C26 UNL     1      -2.505  50.410 -26.702  1.00  0.00    -0.021 A 
HETATM   21  C30 UNL     1      -2.159  51.886 -27.029  1.00  0.00     0.063 C 
ENDROOT
BRANCH  14  22
HETATM   22  C13 UNL     1      -3.711  48.111 -20.050  1.00  0.00    -0.014 C 
HETATM   23  C14 UNL     1      -4.900  47.219 -19.673  1.00  0.00     0.010 C 
BRANCH  22  24
HETATM   24  C15 UNL     1      -3.103  48.757 -18.773  1.00  0.00     0.008 C 
BRANCH  24  25
HETATM   25  C16 UNL     1      -1.576  48.648 -18.678  1.00  0.00     0.028 C 
BRANCH  25  26
HETATM   26  C17 UNL     1      -0.943  50.015 -18.709  1.00  0.00    -0.017 C 
HETATM   27  C18 UNL     1      -0.141  50.561 -17.776  1.00  0.00    -0.028 C 
HETATM   28  C19 UNL     1       0.302  49.954 -16.482  1.00  0.00     0.051 C 
BRANCH  27  29
HETATM   29  C20 UNL     1       0.376  51.933 -18.053  1.00  0.00     0.265 C 
HETATM   30  O3  UNL     1       0.574  52.353 -19.186  1.00  0.00    -0.302 OA
ENDBRANCH  27  29
ENDBRANCH  25  26
ENDBRANCH  24  25
ENDBRANCH  22  24
ENDBRANCH  14  22
BRANCH  20  31
HETATM   31  C27 UNL     1      -3.269  49.690 -27.826  1.00  0.00     0.021 C 
BRANCH  31  32
HETATM   32  C28 UNL     1      -4.007  48.417 -27.432  1.00  0.00     0.111 C 
BRANCH  32  33
HETATM   33  C29 UNL     1      -5.121  48.072 -28.382  1.00  0.00     0.139 C 
HETATM   34  O4  UNL     1      -6.296  47.905 -28.108  1.00  0.00    -0.650 OA
BRANCH  33  35
HETATM   35  O5  UNL     1      -4.700  48.024 -29.662  1.00  0.00    -0.776 OA
HETATM   36  H41 UNL     1      -5.510  47.809 -30.174  1.00  0.00     0.167 HD
ENDBRANCH  33  35
ENDBRANCH  32  33
ENDBRANCH  31  32
ENDBRANCH  20  31
TORSDOF 9
ENDMDL
MODEL 7
REMARK minimizedAffinity -8.60975552
REMARK  9 active torsions:
REMARK  status: ('A' for Active; 'I' for Inactive)
REMARK    1  A    between atoms: C12_14  and  C13_15 
REMARK    2  A    between atoms: C13_15  and  C15_17 
REMARK    3  A    between atoms: C15_17  and  C16_18 
REMARK    4  A    between atoms: C16_18  and  C17_19 
REMARK    5  A    between atoms: C18_20  and  C20_22 
REMARK    6  A    between atoms: C26_29  and  C27_30 
REMARK    7  A    between atoms: C27_30  and  C28_31 
REMARK    8  A    between atoms: C28_31  and  C29_32 
REMARK    9  A    between atoms: C29_32  and  O5_34 
ROOT
HETATM    1  C1  UNL     1       0.405  54.162 -26.135  1.00  0.00     0.025 C 
HETATM    2  C2  UNL     1      -0.345  53.062 -25.999  1.00  0.00     0.015 C 
HETATM    3  C3  UNL     1      -1.446  52.789 -26.948  1.00  0.00     0.289 C 
HETATM    4  O1  UNL     1      -1.961  53.585 -27.713  1.00  0.00    -0.260 OA
HETATM    5  O2  UNL     1      -1.788  51.483 -26.818  1.00  0.00    -0.311 OA
HETATM    6  C4  UNL     1      -0.888  50.825 -25.913  1.00  0.00     0.142 C 
HETATM    7  C5  UNL     1      -1.653  49.774 -25.127  1.00  0.00     0.039 C 
HETATM    8  C6  UNL     1      -2.761  50.420 -24.280  1.00  0.00     0.006 C 
HETATM    9  C7  UNL     1      -2.132  51.357 -23.226  1.00  0.00    -0.027 A 
HETATM   10  C8  UNL     1      -2.395  50.983 -21.762  1.00  0.00     0.011 C 
HETATM   11  C9  UNL     1      -3.821  50.514 -21.413  1.00  0.00     0.011 C 
HETATM   12  C10 UNL     1      -4.678  50.099 -22.619  1.00  0.00    -0.032 C 
HETATM   13  C11 UNL     1      -5.379  51.374 -23.180  1.00  0.00     0.016 C 
HETATM   14  C12 UNL     1      -5.764  49.002 -22.361  1.00  0.00    -0.002 C 
HETATM   15  C21 UNL     1      -5.968  48.392 -23.779  1.00  0.00     0.006 C 
HETATM   16  C22 UNL     1      -4.770  48.812 -24.647  1.00  0.00     0.011 C 
HETATM   17  C23 UNL     1      -3.739  49.382 -23.655  1.00  0.00    -0.032 C 
HETATM   18  C24 UNL     1      -2.963  48.150 -23.084  1.00  0.00     0.016 C 
HETATM   19  C25 UNL     1      -2.099  52.848 -23.498  1.00  0.00     0.022 A 
HETATM   20  C26 UNL     1      -0.802  52.083 -23.635  1.00  0.00    -0.021 A 
HETATM   21  C30 UNL     1      -0.219  51.902 -25.061  1.00  0.00     0.063 C 
ENDROOT
BRANCH  14  22
HETATM   22  C13 UNL     1      -7.116  49.380 -21.680  1.00  0.00    -0.014 C 
HETATM   23  C14 UNL     1      -6.911  49.898 -20.251  1.00  0.00     0.010 C 
BRANCH  22  24
HETATM   24  C15 UNL     1      -8.071  48.154 -21.670  1.00  0.00     0.008 C 
BRANCH  24  25
HETATM   25  C16 UNL     1      -8.000  47.291 -22.937  1.00  0.00     0.028 C 
BRANCH  25  26
HETATM   26  C17 UNL     1      -9.384  46.945 -23.422  1.00  0.00    -0.017 C 
HETATM   27  C18 UNL     1      -9.874  47.105 -24.666  1.00  0.00    -0.028 C 
HETATM   28  C19 UNL     1      -9.173  47.677 -25.858  1.00  0.00     0.051 C 
BRANCH  27  29
HETATM   29  C20 UNL     1     -11.280  46.664 -24.898  1.00  0.00     0.265 C 
HETATM   30  O3  UNL     1     -12.242  47.410 -24.759  1.00  0.00    -0.302 OA
ENDBRANCH  27  29
ENDBRANCH  25  26
ENDBRANCH  24  25
ENDBRANCH  22  24
ENDBRANCH  14  22
BRANCH  20  31
HETATM   31  C27 UNL     1       0.269  52.189 -22.537  1.00  0.00     0.021 C 
BRANCH  31  32
HETATM   32  C28 UNL     1       0.027  53.236 -21.457  1.00  0.00     0.111 C 
BRANCH  32  33
HETATM   33  C29 UNL     1       1.234  54.094 -21.198  1.00  0.00     0.139 C 
HETATM   34  O4  UNL     1       1.884  54.717 -22.019  1.00  0.00    -0.650 OA
BRANCH  33  35
HETATM   35  O5  UNL     1       1.523  54.180 -19.883  1.00  0.00    -0.776 OA
HETATM   36  H41 UNL     1       2.307  54.770 -19.848  1.00  0.00     0.167 HD
ENDBRANCH  33  35
ENDBRANCH  32  33
ENDBRANCH  31  32
ENDBRANCH  20  31
TORSDOF 9
ENDMDL
MODEL 8
REMARK minimizedAffinity -8.53112316
REMARK  9 active torsions:
REMARK  status: ('A' for Active; 'I' for Inactive)
REMARK    1  A    between atoms: C12_14  and  C13_15 
REMARK    2  A    between atoms: C13_15  and  C15_17 
REMARK    3  A    between atoms: C15_17  and  C16_18 
REMARK    4  A    between atoms: C16_18  and  C17_19 
REMARK    5  A    between atoms: C18_20  and  C20_22 
REMARK    6  A    between atoms: C26_29  and  C27_30 
REMARK    7  A    between atoms: C27_30  and  C28_31 
REMARK    8  A    between atoms: C28_31  and  C29_32 
REMARK    9  A    between atoms: C29_32  and  O5_34 
ROOT
HETATM    1  C1  UNL     1       0.347  54.197 -26.001  1.00  0.00     0.025 C 
HETATM    2  C2  UNL     1      -0.354  53.060 -25.909  1.00  0.00     0.015 C 
HETATM    3  C3  UNL     1      -1.419  52.760 -26.891  1.00  0.00     0.289 C 
HETATM    4  O1  UNL     1      -1.952  53.550 -27.650  1.00  0.00    -0.260 OA
HETATM    5  O2  UNL     1      -1.703  51.437 -26.799  1.00  0.00    -0.311 OA
HETATM    6  C4  UNL     1      -0.795  50.800 -25.889  1.00  0.00     0.142 C 
HETATM    7  C5  UNL     1      -1.529  49.696 -25.145  1.00  0.00     0.039 C 
HETATM    8  C6  UNL     1      -2.685  50.271 -24.312  1.00  0.00     0.006 C 
HETATM    9  C7  UNL     1      -2.125  51.209 -23.221  1.00  0.00    -0.027 A 
HETATM   10  C8  UNL     1      -2.405  50.789 -21.773  1.00  0.00     0.011 C 
HETATM   11  C9  UNL     1      -3.816  50.247 -21.471  1.00  0.00     0.011 C 
HETATM   12  C10 UNL     1      -4.624  49.823 -22.706  1.00  0.00    -0.032 C 
HETATM   13  C11 UNL     1      -5.370  51.077 -23.254  1.00  0.00     0.016 C 
HETATM   14  C12 UNL     1      -5.664  48.671 -22.500  1.00  0.00    -0.002 C 
HETATM   15  C21 UNL     1      -5.806  48.087 -23.936  1.00  0.00     0.006 C 
HETATM   16  C22 UNL     1      -4.608  48.582 -24.765  1.00  0.00     0.011 C 
HETATM   17  C23 UNL     1      -3.629  49.174 -23.735  1.00  0.00    -0.032 C 
HETATM   18  C24 UNL     1      -2.810  47.966 -23.173  1.00  0.00     0.016 C 
HETATM   19  C25 UNL     1      -2.155  52.706 -23.458  1.00  0.00     0.022 A 
HETATM   20  C26 UNL     1      -0.821  52.005 -23.580  1.00  0.00    -0.021 A 
HETATM   21  C30 UNL     1      -0.196  51.885 -24.996  1.00  0.00     0.063 C 
ENDROOT
BRANCH  14  22
HETATM   22  C13 UNL     1      -7.048  48.971 -21.844  1.00  0.00    -0.014 C 
HETATM   23  C14 UNL     1      -6.898  49.706 -20.506  1.00  0.00     0.010 C 
BRANCH  22  24
HETATM   24  C15 UNL     1      -7.840  47.649 -21.641  1.00  0.00     0.008 C 
BRANCH  24  25
HETATM   25  C16 UNL     1      -8.652  47.207 -22.865  1.00  0.00     0.028 C 
BRANCH  25  26
HETATM   26  C17 UNL     1      -8.493  45.728 -23.101  1.00  0.00    -0.017 C 
HETATM   27  C18 UNL     1      -8.281  45.110 -24.278  1.00  0.00    -0.028 C 
HETATM   28  C19 UNL     1      -8.168  45.737 -25.633  1.00  0.00     0.051 C 
BRANCH  27  29
HETATM   29  C20 UNL     1      -8.138  43.625 -24.244  1.00  0.00     0.265 C 
HETATM   30  O3  UNL     1      -7.410  43.009 -25.013  1.00  0.00    -0.302 OA
ENDBRANCH  27  29
ENDBRANCH  25  26
ENDBRANCH  24  25
ENDBRANCH  22  24
ENDBRANCH  14  22
BRANCH  20  31
HETATM   31  C27 UNL     1       0.218  52.133 -22.454  1.00  0.00     0.021 C 
BRANCH  31  32
HETATM   32  C28 UNL     1      -0.052  53.206 -21.407  1.00  0.00     0.111 C 
BRANCH  32  33
HETATM   33  C29 UNL     1       1.155  54.057 -21.122  1.00  0.00     0.139 C 
HETATM   34  O4  UNL     1       1.794  54.719 -21.922  1.00  0.00    -0.650 OA
BRANCH  33  35
HETATM   35  O5  UNL     1       1.457  54.087 -19.808  1.00  0.00    -0.776 OA
HETATM   36  H41 UNL     1       2.239  54.678 -19.755  1.00  0.00     0.167 HD
ENDBRANCH  33  35
ENDBRANCH  32  33
ENDBRANCH  31  32
ENDBRANCH  20  31
TORSDOF 9
ENDMDL
MODEL 9
REMARK minimizedAffinity -8.51117802
REMARK  9 active torsions:
REMARK  status: ('A' for Active; 'I' for Inactive)
REMARK    1  A    between atoms: C12_14  and  C13_15 
REMARK    2  A    between atoms: C13_15  and  C15_17 
REMARK    3  A    between atoms: C15_17  and  C16_18 
REMARK    4  A    between atoms: C16_18  and  C17_19 
REMARK    5  A    between atoms: C18_20  and  C20_22 
REMARK    6  A    between atoms: C26_29  and  C27_30 
REMARK    7  A    between atoms: C27_30  and  C28_31 
REMARK    8  A    between atoms: C28_31  and  C29_32 
REMARK    9  A    between atoms: C29_32  and  O5_34 
ROOT
HETATM    1  C1  UNL     1      -3.637  48.518 -26.777  1.00  0.00     0.025 C 
HETATM    2  C2  UNL     1      -3.358  49.337 -25.756  1.00  0.00     0.015 C 
HETATM    3  C3  UNL     1      -2.129  50.160 -25.775  1.00  0.00     0.289 C 
HETATM    4  O1  UNL     1      -1.158  50.000 -26.493  1.00  0.00    -0.260 OA
HETATM    5  O2  UNL     1      -2.271  51.135 -24.843  1.00  0.00    -0.311 OA
HETATM    6  C4  UNL     1      -3.590  51.089 -24.278  1.00  0.00     0.142 C 
HETATM    7  C5  UNL     1      -3.517  51.478 -22.811  1.00  0.00     0.039 C 
HETATM    8  C6  UNL     1      -2.647  50.487 -22.023  1.00  0.00     0.006 C 
HETATM    9  C7  UNL     1      -3.295  49.086 -22.052  1.00  0.00    -0.027 A 
HETATM   10  C8  UNL     1      -3.702  48.512 -20.690  1.00  0.00     0.011 C 
HETATM   11  C9  UNL     1      -2.711  48.721 -19.527  1.00  0.00     0.011 C 
HETATM   12  C10 UNL     1      -1.649  49.802 -19.770  1.00  0.00    -0.032 C 
HETATM   13  C11 UNL     1      -0.441  49.144 -20.503  1.00  0.00     0.016 C 
HETATM   14  C12 UNL     1      -1.116  50.556 -18.506  1.00  0.00    -0.002 C 
HETATM   15  C21 UNL     1      -0.613  51.903 -19.106  1.00  0.00     0.006 C 
HETATM   16  C22 UNL     1      -1.231  52.053 -20.506  1.00  0.00     0.011 C 
HETATM   17  C23 UNL     1      -2.323  50.969 -20.578  1.00  0.00    -0.032 C 
HETATM   18  C24 UNL     1      -3.588  51.586 -19.894  1.00  0.00     0.016 C 
HETATM   19  C25 UNL     1      -2.773  48.058 -23.036  1.00  0.00     0.022 A 
HETATM   20  C26 UNL     1      -4.101  48.712 -23.345  1.00  0.00    -0.021 A 
HETATM   21  C30 UNL     1      -4.159  49.696 -24.543  1.00  0.00     0.063 C 
ENDROOT
BRANCH  14  22
HETATM   22  C13 UNL     1      -0.053  49.886 -17.581  1.00  0.00    -0.014 C 
HETATM   23  C14 UNL     1      -0.705  49.052 -16.473  1.00  0.00     0.010 C 
BRANCH  22  24
HETATM   24  C15 UNL     1       0.873  50.969 -16.960  1.00  0.00     0.008 C 
BRANCH  24  25
HETATM   25  C16 UNL     1       0.631  51.223 -15.466  1.00  0.00     0.028 C 
BRANCH  25  26
HETATM   26  C17 UNL     1       1.749  50.642 -14.641  1.00  0.00    -0.017 C 
HETATM   27  C18 UNL     1       3.032  51.049 -14.607  1.00  0.00    -0.028 C 
HETATM   28  C19 UNL     1       3.660  52.160 -15.388  1.00  0.00     0.051 C 
BRANCH  27  29
HETATM   29  C20 UNL     1       3.947  50.315 -13.685  1.00  0.00     0.265 C 
HETATM   30  O3  UNL     1       4.323  49.168 -13.896  1.00  0.00    -0.302 OA
ENDBRANCH  27  29
ENDBRANCH  25  26
ENDBRANCH  24  25
ENDBRANCH  22  24
ENDBRANCH  14  22
BRANCH  20  31
HETATM   31  C27 UNL     1      -5.408  47.934 -23.119  1.00  0.00     0.021 C 
BRANCH  31  32
HETATM   32  C28 UNL     1      -6.507  48.148 -24.152  1.00  0.00     0.111 C 
BRANCH  32  33
HETATM   33  C29 UNL     1      -7.492  49.209 -23.745  1.00  0.00     0.139 C 
HETATM   34  O4  UNL     1      -7.576  49.755 -22.659  1.00  0.00    -0.650 OA
BRANCH  33  35
HETATM   35  O5  UNL     1      -8.288  49.582 -24.766  1.00  0.00    -0.776 OA
HETATM   36  H41 UNL     1      -8.864  50.278 -24.380  1.00  0.00     0.167 HD
ENDBRANCH  33  35
ENDBRANCH  32  33
ENDBRANCH  31  32
ENDBRANCH  20  31
TORSDOF 9
ENDMDL
