MODEL 1
REMARK minimizedAffinity -9.54055119
REMARK  8 active torsions:
REMARK  status: ('A' for Active; 'I' for Inactive)
REMARK    1  A    between atoms: C2_2  and  C3_3 
REMARK    2  A    between atoms: C2_2  and  C9_11 
REMARK    3  A    between atoms: C3_3  and  C4_4 
REMARK    4  A    between atoms: C4_4  and  C5_5 
REMARK    5  A    between atoms: C6_6  and  C7_7 
REMARK    6  A    between atoms: C6_6  and  C8_9 
REMARK    7  A    between atoms: C7_7  and  O1_8 
REMARK    8  A    between atoms: C8_9  and  O2_10 
ROOT
HETATM    1  C9  UNL     1      -0.544  50.551 -21.838  1.00  0.00    -0.001 C 
HETATM    2  C10 UNL     1      -0.433  50.221 -20.323  1.00  0.00     0.007 C 
HETATM    3  C11 UNL     1      -1.709  49.454 -19.934  1.00  0.00     0.015 C 
HETATM    4  C12 UNL     1      -2.333  49.002 -21.269  1.00  0.00    -0.004 C 
HETATM    5  C13 UNL     1      -1.587  47.701 -21.699  1.00  0.00     0.021 C 
HETATM    6  C14 UNL     1      -3.813  48.648 -21.370  1.00  0.00     0.007 C 
HETATM    7  C15 UNL     1      -4.518  48.759 -22.527  1.00  0.00     0.007 C 
HETATM    8  C16 UNL     1      -3.802  49.381 -23.720  1.00  0.00     0.157 C 
HETATM    9  O3  UNL     1      -4.361  49.486 -24.810  1.00  0.00    -0.293 OA
HETATM   10  C17 UNL     1      -2.377  49.908 -23.589  1.00  0.00     0.094 C 
HETATM   11  C18 UNL     1      -2.046  50.279 -22.148  1.00  0.00    -0.022 C 
HETATM   12  C19 UNL     1      -2.915  51.504 -21.734  1.00  0.00     0.017 C 
HETATM   13  C20 UNL     1      -6.015  48.357 -22.684  1.00  0.00    -0.007 C 
HETATM   14  C21 UNL     1      -6.798  49.688 -22.631  1.00  0.00     0.021 C 
HETATM   15  C22 UNL     1      -6.330  47.616 -24.018  1.00  0.00     0.022 C 
HETATM   16  C23 UNL     1      -7.760  47.102 -24.119  1.00  0.00     0.080 C 
HETATM   17  C24 UNL     1      -8.114  46.190 -22.974  1.00  0.00     0.135 C 
HETATM   18  O4  UNL     1      -8.715  45.136 -23.191  1.00  0.00    -0.297 OA
HETATM   19  C25 UNL     1      -7.802  46.680 -21.555  1.00  0.00     0.018 C 
HETATM   20  C26 UNL     1      -7.809  45.436 -20.627  1.00  0.00     0.023 C 
HETATM   21  C27 UNL     1      -8.949  47.590 -21.089  1.00  0.00     0.023 C 
HETATM   22  C28 UNL     1      -6.378  47.337 -21.537  1.00  0.00     0.021 C 
HETATM   23  C29 UNL     1      -5.988  47.917 -20.177  1.00  0.00     0.090 C 
HETATM   24  C30 UNL     1      -4.498  48.136 -20.138  1.00  0.00     0.157 C 
HETATM   25  O5  UNL     1      -3.874  47.925 -19.100  1.00  0.00    -0.293 OA
ENDROOT
BRANCH   1  26
HETATM   26  C2  UNL     1       0.212  51.857 -22.234  1.00  0.00    -0.014 C 
HETATM   27  C1  UNL     1       0.547  52.856 -21.123  1.00  0.00     0.010 C 
BRANCH  26  28
HETATM   28  C3  UNL     1      -0.339  52.538 -23.515  1.00  0.00     0.008 C 
BRANCH  28  29
HETATM   29  C4  UNL     1       0.687  53.116 -24.496  1.00  0.00     0.028 C 
BRANCH  29  30
HETATM   30  C5  UNL     1       0.353  52.722 -25.911  1.00  0.00    -0.020 C 
HETATM   31  C6  UNL     1       1.118  51.989 -26.749  1.00  0.00    -0.037 C 
BRANCH  31  32
HETATM   32  C7  UNL     1       2.441  51.370 -26.376  1.00  0.00     0.200 C 
BRANCH  32  33
HETATM   33  O1  UNL     1       3.353  51.521 -27.455  1.00  0.00    -0.397 OA
HETATM   34  H12 UNL     1       2.826  51.344 -28.266  1.00  0.00     0.209 HD
ENDBRANCH  32  33
ENDBRANCH  31  32
BRANCH  31  35
HETATM   35  C8  UNL     1       0.680  51.721 -28.166  1.00  0.00     0.200 C 
BRANCH  35  36
HETATM   36  O2  UNL     1      -0.078  52.837 -28.612  1.00  0.00    -0.397 OA
HETATM   37  H15 UNL     1      -0.258  52.687 -29.558  1.00  0.00     0.209 HD
ENDBRANCH  35  36
ENDBRANCH  31  35
ENDBRANCH  29  30
ENDBRANCH  28  29
ENDBRANCH  26  28
ENDBRANCH   1  26
TORSDOF 8
ENDMDL
MODEL 2
REMARK minimizedAffinity -9.49929428
REMARK  8 active torsions:
REMARK  status: ('A' for Active; 'I' for Inactive)
REMARK    1  A    between atoms: C2_2  and  C3_3 
REMARK    2  A    between atoms: C2_2  and  C9_11 
REMARK    3  A    between atoms: C3_3  and  C4_4 
REMARK    4  A    between atoms: C4_4  and  C5_5 
REMARK    5  A    between atoms: C6_6  and  C7_7 
REMARK    6  A    between atoms: C6_6  and  C8_9 
REMARK    7  A    between atoms: C7_7  and  O1_8 
REMARK    8  A    between atoms: C8_9  and  O2_10 
ROOT
HETATM    1  C9  UNL     1      -3.990  50.183 -24.544  1.00  0.00    -0.001 C 
HETATM    2  C10 UNL     1      -5.469  49.999 -24.099  1.00  0.00     0.007 C 
HETATM    3  C11 UNL     1      -5.472  49.933 -22.562  1.00  0.00     0.015 C 
HETATM    4  C12 UNL     1      -4.095  50.475 -22.130  1.00  0.00    -0.004 C 
HETATM    5  C13 UNL     1      -4.199  52.032 -22.143  1.00  0.00     0.021 C 
HETATM    6  C14 UNL     1      -3.507  50.140 -20.763  1.00  0.00     0.007 C 
HETATM    7  C15 UNL     1      -2.169  50.120 -20.525  1.00  0.00     0.007 C 
HETATM    8  C16 UNL     1      -1.246  50.324 -21.720  1.00  0.00     0.157 C 
HETATM    9  O3  UNL     1      -0.025  50.352 -21.581  1.00  0.00    -0.293 OA
HETATM   10  C17 UNL     1      -1.812  50.482 -23.127  1.00  0.00     0.094 C 
HETATM   11  C18 UNL     1      -3.190  49.840 -23.253  1.00  0.00    -0.022 C 
HETATM   12  C19 UNL     1      -3.038  48.296 -23.103  1.00  0.00     0.017 C 
HETATM   13  C20 UNL     1      -1.531  49.836 -19.132  1.00  0.00    -0.007 C 
HETATM   14  C21 UNL     1      -1.065  48.364 -19.194  1.00  0.00     0.021 C 
HETATM   15  C22 UNL     1      -0.319  50.755 -18.796  1.00  0.00     0.022 C 
HETATM   16  C23 UNL     1       0.225  50.575 -17.385  1.00  0.00     0.080 C 
HETATM   17  C24 UNL     1      -0.839  50.790 -16.340  1.00  0.00     0.135 C 
HETATM   18  O4  UNL     1      -0.590  51.467 -15.341  1.00  0.00    -0.297 OA
HETATM   19  C25 UNL     1      -2.169  50.047 -16.519  1.00  0.00     0.018 C 
HETATM   20  C26 UNL     1      -3.219  50.765 -15.629  1.00  0.00     0.023 C 
HETATM   21  C27 UNL     1      -2.012  48.623 -15.963  1.00  0.00     0.023 C 
HETATM   22  C28 UNL     1      -2.610  50.135 -18.021  1.00  0.00     0.021 C 
HETATM   23  C29 UNL     1      -3.901  49.372 -18.326  1.00  0.00     0.090 C 
HETATM   24  C30 UNL     1      -4.459  49.845 -19.643  1.00  0.00     0.157 C 
HETATM   25  O5  UNL     1      -5.674  49.952 -19.791  1.00  0.00    -0.293 OA
ENDROOT
BRANCH   1  26
HETATM   26  C2  UNL     1      -3.696  49.571 -25.949  1.00  0.00    -0.014 C 
HETATM   27  C1  UNL     1      -4.518  48.356 -26.388  1.00  0.00     0.010 C 
BRANCH  26  28
HETATM   28  C3  UNL     1      -2.185  49.428 -26.267  1.00  0.00     0.008 C 
BRANCH  28  29
HETATM   29  C4  UNL     1      -1.466  50.662 -26.823  1.00  0.00     0.028 C 
BRANCH  29  30
HETATM   30  C5  UNL     1      -0.008  50.645 -26.449  1.00  0.00    -0.020 C 
HETATM   31  C6  UNL     1       0.891  51.632 -26.653  1.00  0.00    -0.037 C 
BRANCH  31  32
HETATM   32  C7  UNL     1       0.562  52.978 -27.246  1.00  0.00     0.200 C 
BRANCH  32  33
HETATM   33  O1  UNL     1       0.551  53.958 -26.217  1.00  0.00    -0.397 OA
HETATM   34  H12 UNL     1       0.108  53.525 -25.453  1.00  0.00     0.209 HD
ENDBRANCH  32  33
ENDBRANCH  31  32
BRANCH  31  35
HETATM   35  C8  UNL     1       2.340  51.452 -26.278  1.00  0.00     0.200 C 
BRANCH  35  36
HETATM   36  O2  UNL     1       3.136  51.947 -27.346  1.00  0.00    -0.397 OA
HETATM   37  H15 UNL     1       4.060  51.917 -27.037  1.00  0.00     0.209 HD
ENDBRANCH  35  36
ENDBRANCH  31  35
ENDBRANCH  29  30
ENDBRANCH  28  29
ENDBRANCH  26  28
ENDBRANCH   1  26
TORSDOF 8
ENDMDL
MODEL 3
REMARK minimizedAffinity -9.46203423
REMARK  8 active torsions:
REMARK  status: ('A' for Active; 'I' for Inactive)
REMARK    1  A    between atoms: C2_2  and  C3_3 
REMARK    2  A    between atoms: C2_2  and  C9_11 
REMARK    3  A    between atoms: C3_3  and  C4_4 
REMARK    4  A    between atoms: C4_4  and  C5_5 
REMARK    5  A    between atoms: C6_6  and  C7_7 
REMARK    6  A    between atoms: C6_6  and  C8_9 
REMARK    7  A    between atoms: C7_7  and  O1_8 
REMARK    8  A    between atoms: C8_9  and  O2_10 
ROOT
HETATM    1  C9  UNL     1      -1.194  50.997 -23.251  1.00  0.00    -0.001 C 
HETATM    2  C10 UNL     1      -0.581  52.422 -23.359  1.00  0.00     0.007 C 
HETATM    3  C11 UNL     1      -0.034  52.785 -21.967  1.00  0.00     0.015 C 
HETATM    4  C12 UNL     1       0.034  51.450 -21.199  1.00  0.00    -0.004 C 
HETATM    5  C13 UNL     1       1.362  50.750 -21.627  1.00  0.00     0.021 C 
HETATM    6  C14 UNL     1       0.056  51.417 -19.674  1.00  0.00     0.007 C 
HETATM    7  C15 UNL     1      -0.402  50.357 -18.956  1.00  0.00     0.007 C 
HETATM    8  C16 UNL     1      -1.070  49.228 -19.732  1.00  0.00     0.157 C 
HETATM    9  O3  UNL     1      -1.480  48.221 -19.158  1.00  0.00    -0.293 OA
HETATM   10  C17 UNL     1      -1.263  49.324 -21.242  1.00  0.00     0.094 C 
HETATM   11  C18 UNL     1      -1.293  50.774 -21.712  1.00  0.00    -0.022 C 
HETATM   12  C19 UNL     1      -2.575  51.456 -21.148  1.00  0.00     0.017 C 
HETATM   13  C20 UNL     1      -0.348  50.262 -17.402  1.00  0.00    -0.007 C 
HETATM   14  C21 UNL     1      -1.779  50.600 -16.927  1.00  0.00     0.021 C 
HETATM   15  C22 UNL     1       0.061  48.855 -16.872  1.00  0.00     0.022 C 
HETATM   16  C23 UNL     1       0.246  48.790 -15.362  1.00  0.00     0.080 C 
HETATM   17  C24 UNL     1       1.258  49.794 -14.875  1.00  0.00     0.135 C 
HETATM   18  O4  UNL     1       2.110  49.457 -14.052  1.00  0.00    -0.297 OA
HETATM   19  C25 UNL     1       1.104  51.244 -15.352  1.00  0.00     0.018 C 
HETATM   20  C26 UNL     1       2.467  51.950 -15.121  1.00  0.00     0.023 C 
HETATM   21  C27 UNL     1       0.079  51.949 -14.450  1.00  0.00     0.023 C 
HETATM   22  C28 UNL     1       0.766  51.251 -16.883  1.00  0.00     0.021 C 
HETATM   23  C29 UNL     1       0.530  52.650 -17.452  1.00  0.00     0.090 C 
HETATM   24  C30 UNL     1       0.630  52.600 -18.955  1.00  0.00     0.157 C 
HETATM   25  O5  UNL     1       1.147  53.532 -19.566  1.00  0.00    -0.293 OA
ENDROOT
BRANCH   1  26
HETATM   26  C2  UNL     1      -2.368  50.761 -24.251  1.00  0.00    -0.014 C 
HETATM   27  C1  UNL     1      -2.900  49.334 -24.408  1.00  0.00     0.010 C 
BRANCH  26  28
HETATM   28  C3  UNL     1      -2.195  51.496 -25.606  1.00  0.00     0.008 C 
BRANCH  28  29
HETATM   29  C4  UNL     1      -1.450  50.748 -26.717  1.00  0.00     0.028 C 
BRANCH  29  30
HETATM   30  C5  UNL     1       0.018  50.646 -26.401  1.00  0.00    -0.020 C 
HETATM   31  C6  UNL     1       0.987  51.514 -26.764  1.00  0.00    -0.037 C 
BRANCH  31  32
HETATM   32  C7  UNL     1       0.743  52.801 -27.511  1.00  0.00     0.200 C 
BRANCH  32  33
HETATM   33  O1  UNL     1       0.409  53.827 -26.587  1.00  0.00    -0.397 OA
HETATM   34  H12 UNL     1      -0.191  53.401 -25.934  1.00  0.00     0.209 HD
ENDBRANCH  32  33
ENDBRANCH  31  32
BRANCH  31  35
HETATM   35  C8  UNL     1       2.432  51.252 -26.426  1.00  0.00     0.200 C 
BRANCH  35  36
HETATM   36  O2  UNL     1       3.238  51.997 -27.329  1.00  0.00    -0.397 OA
HETATM   37  H15 UNL     1       4.158  51.895 -27.026  1.00  0.00     0.209 HD
ENDBRANCH  35  36
ENDBRANCH  31  35
ENDBRANCH  29  30
ENDBRANCH  28  29
ENDBRANCH  26  28
ENDBRANCH   1  26
TORSDOF 8
ENDMDL
MODEL 4
REMARK minimizedAffinity -9.36341381
REMARK  8 active torsions:
REMARK  status: ('A' for Active; 'I' for Inactive)
REMARK    1  A    between atoms: C2_2  and  C3_3 
REMARK    2  A    between atoms: C2_2  and  C9_11 
REMARK    3  A    between atoms: C3_3  and  C4_4 
REMARK    4  A    between atoms: C4_4  and  C5_5 
REMARK    5  A    between atoms: C6_6  and  C7_7 
REMARK    6  A    between atoms: C6_6  and  C8_9 
REMARK    7  A    between atoms: C7_7  and  O1_8 
REMARK    8  A    between atoms: C8_9  and  O2_10 
ROOT
HETATM    1  C9  UNL     1      -2.461  50.264 -22.214  1.00  0.00    -0.001 C 
HETATM    2  C10 UNL     1      -1.822  51.613 -22.651  1.00  0.00     0.007 C 
HETATM    3  C11 UNL     1      -0.945  52.096 -21.482  1.00  0.00     0.015 C 
HETATM    4  C12 UNL     1      -0.763  50.862 -20.576  1.00  0.00    -0.004 C 
HETATM    5  C13 UNL     1       0.391  50.014 -21.195  1.00  0.00     0.021 C 
HETATM    6  C14 UNL     1      -0.384  51.011 -19.106  1.00  0.00     0.007 C 
HETATM    7  C15 UNL     1      -0.711  50.085 -18.166  1.00  0.00     0.007 C 
HETATM    8  C16 UNL     1      -1.597  48.926 -18.610  1.00  0.00     0.157 C 
HETATM    9  O3  UNL     1      -1.908  48.031 -17.827  1.00  0.00    -0.293 OA
HETATM   10  C17 UNL     1      -2.135  48.855 -20.035  1.00  0.00     0.094 C 
HETATM   11  C18 UNL     1      -2.205  50.236 -20.678  1.00  0.00    -0.022 C 
HETATM   12  C19 UNL     1      -3.283  51.080 -19.934  1.00  0.00     0.017 C 
HETATM   13  C20 UNL     1      -0.297  50.173 -16.666  1.00  0.00    -0.007 C 
HETATM   14  C21 UNL     1      -1.558  50.678 -15.929  1.00  0.00     0.021 C 
HETATM   15  C22 UNL     1       0.156  48.813 -16.058  1.00  0.00     0.022 C 
HETATM   16  C23 UNL     1       0.689  48.916 -14.635  1.00  0.00     0.080 C 
HETATM   17  C24 UNL     1       1.834  49.888 -14.531  1.00  0.00     0.135 C 
HETATM   18  O4  UNL     1       2.839  49.587 -13.885  1.00  0.00    -0.297 OA
HETATM   19  C25 UNL     1       1.643  51.278 -15.152  1.00  0.00     0.018 C 
HETATM   20  C26 UNL     1       3.054  51.897 -15.335  1.00  0.00     0.023 C 
HETATM   21  C27 UNL     1       0.894  52.164 -14.145  1.00  0.00     0.023 C 
HETATM   22  C28 UNL     1       0.954  51.127 -16.553  1.00  0.00     0.021 C 
HETATM   23  C29 UNL     1       0.659  52.462 -17.238  1.00  0.00     0.090 C 
HETATM   24  C30 UNL     1       0.400  52.223 -18.702  1.00  0.00     0.157 C 
HETATM   25  O5  UNL     1       0.803  53.032 -19.536  1.00  0.00    -0.293 OA
ENDROOT
BRANCH   1  26
HETATM   26  C2  UNL     1      -3.847  50.002 -22.880  1.00  0.00    -0.014 C 
HETATM   27  C1  UNL     1      -4.666  48.807 -22.385  1.00  0.00     0.010 C 
BRANCH  26  28
HETATM   28  C3  UNL     1      -3.834  50.129 -24.426  1.00  0.00     0.008 C 
BRANCH  28  29
HETATM   29  C4  UNL     1      -2.920  49.172 -25.199  1.00  0.00     0.028 C 
BRANCH  29  30
HETATM   30  C5  UNL     1      -3.691  48.442 -26.266  1.00  0.00    -0.020 C 
HETATM   31  C6  UNL     1      -3.911  48.857 -27.533  1.00  0.00    -0.037 C 
BRANCH  31  32
HETATM   32  C7  UNL     1      -3.349  50.124 -28.126  1.00  0.00     0.200 C 
BRANCH  32  33
HETATM   33  O1  UNL     1      -3.825  50.274 -29.457  1.00  0.00    -0.397 OA
HETATM   34  H12 UNL     1      -3.789  49.372 -29.847  1.00  0.00     0.209 HD
ENDBRANCH  32  33
ENDBRANCH  31  32
BRANCH  31  35
HETATM   35  C8  UNL     1      -4.756  48.045 -28.480  1.00  0.00     0.200 C 
BRANCH  35  36
HETATM   36  O2  UNL     1      -6.070  48.589 -28.475  1.00  0.00    -0.397 OA
HETATM   37  H15 UNL     1      -6.565  48.117 -29.169  1.00  0.00     0.209 HD
ENDBRANCH  35  36
ENDBRANCH  31  35
ENDBRANCH  29  30
ENDBRANCH  28  29
ENDBRANCH  26  28
ENDBRANCH   1  26
TORSDOF 8
ENDMDL
MODEL 5
REMARK minimizedAffinity -9.01073647
REMARK  8 active torsions:
REMARK  status: ('A' for Active; 'I' for Inactive)
REMARK    1  A    between atoms: C2_2  and  C3_3 
REMARK    2  A    between atoms: C2_2  and  C9_11 
REMARK    3  A    between atoms: C3_3  and  C4_4 
REMARK    4  A    between atoms: C4_4  and  C5_5 
REMARK    5  A    between atoms: C6_6  and  C7_7 
REMARK    6  A    between atoms: C6_6  and  C8_9 
REMARK    7  A    between atoms: C7_7  and  O1_8 
REMARK    8  A    between atoms: C8_9  and  O2_10 
ROOT
HETATM    1  C9  UNL     1      -0.483  51.551 -16.872  1.00  0.00    -0.001 C 
HETATM    2  C10 UNL     1       0.993  52.002 -17.065  1.00  0.00     0.007 C 
HETATM    3  C11 UNL     1       1.211  52.200 -18.575  1.00  0.00     0.015 C 
HETATM    4  C12 UNL     1      -0.205  52.261 -19.183  1.00  0.00    -0.004 C 
HETATM    5  C13 UNL     1      -0.718  53.722 -18.985  1.00  0.00     0.021 C 
HETATM    6  C14 UNL     1      -0.442  51.967 -20.661  1.00  0.00     0.007 C 
HETATM    7  C15 UNL     1      -1.626  51.496 -21.135  1.00  0.00     0.007 C 
HETATM    8  C16 UNL     1      -2.696  51.143 -20.107  1.00  0.00     0.157 C 
HETATM    9  O3  UNL     1      -3.804  50.743 -20.458  1.00  0.00    -0.293 OA
HETATM   10  C17 UNL     1      -2.413  51.260 -18.613  1.00  0.00     0.094 C 
HETATM   11  C18 UNL     1      -0.921  51.159 -18.315  1.00  0.00    -0.022 C 
HETATM   12  C19 UNL     1      -0.440  49.716 -18.653  1.00  0.00     0.017 C 
HETATM   13  C20 UNL     1      -1.927  51.234 -22.641  1.00  0.00    -0.007 C 
HETATM   14  C21 UNL     1      -1.786  49.706 -22.821  1.00  0.00     0.021 C 
HETATM   15  C22 UNL     1      -3.350  51.685 -23.086  1.00  0.00     0.022 C 
HETATM   16  C23 UNL     1      -3.602  51.557 -24.583  1.00  0.00     0.080 C 
HETATM   17  C24 UNL     1      -2.587  52.319 -25.393  1.00  0.00     0.135 C 
HETATM   18  O4  UNL     1      -2.955  53.014 -26.341  1.00  0.00    -0.297 OA
HETATM   19  C25 UNL     1      -1.105  52.100 -25.060  1.00  0.00     0.018 C 
HETATM   20  C26 UNL     1      -0.318  53.292 -25.667  1.00  0.00     0.023 C 
HETATM   21  C27 UNL     1      -0.625  50.833 -25.785  1.00  0.00     0.023 C 
HETATM   22  C28 UNL     1      -0.921  52.091 -23.503  1.00  0.00     0.021 C 
HETATM   23  C29 UNL     1       0.516  51.818 -23.058  1.00  0.00     0.090 C 
HETATM   24  C30 UNL     1       0.679  52.235 -21.619  1.00  0.00     0.157 C 
HETATM   25  O5  UNL     1       1.728  52.756 -21.247  1.00  0.00    -0.293 OA
ENDROOT
BRANCH   1  26
HETATM   26  C2  UNL     1      -0.686  50.648 -15.616  1.00  0.00    -0.014 C 
HETATM   27  C1  UNL     1      -2.120  50.320 -15.193  1.00  0.00     0.010 C 
BRANCH  26  28
HETATM   28  C3  UNL     1       0.228  51.024 -14.420  1.00  0.00     0.008 C 
BRANCH  28  29
HETATM   29  C4  UNL     1      -0.443  51.190 -13.052  1.00  0.00     0.028 C 
BRANCH  29  30
HETATM   30  C5  UNL     1      -1.807  51.810 -13.197  1.00  0.00    -0.020 C 
HETATM   31  C6  UNL     1      -2.471  52.533 -12.270  1.00  0.00    -0.037 C 
BRANCH  31  32
HETATM   32  C7  UNL     1      -1.914  52.906 -10.919  1.00  0.00     0.200 C 
BRANCH  32  33
HETATM   33  O1  UNL     1      -1.674  54.307 -10.879  1.00  0.00    -0.397 OA
HETATM   34  H12 UNL     1      -1.292  54.529 -11.757  1.00  0.00     0.209 HD
ENDBRANCH  32  33
ENDBRANCH  31  32
BRANCH  31  35
HETATM   35  C8  UNL     1      -3.864  53.045 -12.534  1.00  0.00     0.200 C 
BRANCH  35  36
HETATM   36  O2  UNL     1      -3.958  53.373 -13.914  1.00  0.00    -0.397 OA
HETATM   37  H15 UNL     1      -4.891  53.599 -14.079  1.00  0.00     0.209 HD
ENDBRANCH  35  36
ENDBRANCH  31  35
ENDBRANCH  29  30
ENDBRANCH  28  29
ENDBRANCH  26  28
ENDBRANCH   1  26
TORSDOF 8
ENDMDL
MODEL 6
REMARK minimizedAffinity -8.91339207
REMARK  8 active torsions:
REMARK  status: ('A' for Active; 'I' for Inactive)
REMARK    1  A    between atoms: C2_2  and  C3_3 
REMARK    2  A    between atoms: C2_2  and  C9_11 
REMARK    3  A    between atoms: C3_3  and  C4_4 
REMARK    4  A    between atoms: C4_4  and  C5_5 
REMARK    5  A    between atoms: C6_6  and  C7_7 
REMARK    6  A    between atoms: C6_6  and  C8_9 
REMARK    7  A    between atoms: C7_7  and  O1_8 
REMARK    8  A    between atoms: C8_9  and  O2_10 
ROOT
HETATM    1  C9  UNL     1      -5.076  48.712 -21.425  1.00  0.00    -0.001 C 
HETATM    2  C10 UNL     1      -4.255  49.082 -20.157  1.00  0.00     0.007 C 
HETATM    3  C11 UNL     1      -3.108  49.999 -20.614  1.00  0.00     0.015 C 
HETATM    4  C12 UNL     1      -3.505  50.470 -22.027  1.00  0.00    -0.004 C 
HETATM    5  C13 UNL     1      -4.493  51.665 -21.843  1.00  0.00     0.021 C 
HETATM    6  C14 UNL     1      -2.459  50.984 -23.010  1.00  0.00     0.007 C 
HETATM    7  C15 UNL     1      -2.621  50.912 -24.358  1.00  0.00     0.007 C 
HETATM    8  C16 UNL     1      -3.850  50.172 -24.873  1.00  0.00     0.157 C 
HETATM    9  O3  UNL     1      -4.084  50.092 -26.077  1.00  0.00    -0.293 OA
HETATM   10  C17 UNL     1      -4.816  49.494 -23.907  1.00  0.00     0.094 C 
HETATM   11  C18 UNL     1      -4.134  49.140 -22.589  1.00  0.00    -0.022 C 
HETATM   12  C19 UNL     1      -3.069  48.035 -22.858  1.00  0.00     0.017 C 
HETATM   13  C20 UNL     1      -1.602  51.473 -25.395  1.00  0.00    -0.007 C 
HETATM   14  C21 UNL     1      -0.816  50.241 -25.897  1.00  0.00     0.021 C 
HETATM   15  C22 UNL     1      -2.268  52.197 -26.603  1.00  0.00     0.022 C 
HETATM   16  C23 UNL     1      -1.279  52.864 -27.550  1.00  0.00     0.080 C 
HETATM   17  C24 UNL     1      -0.392  53.850 -26.836  1.00  0.00     0.135 C 
HETATM   18  O4  UNL     1      -0.177  54.955 -27.335  1.00  0.00    -0.297 OA
HETATM   19  C25 UNL     1       0.303  53.377 -25.552  1.00  0.00     0.018 C 
HETATM   20  C26 UNL     1       0.750  54.647 -24.779  1.00  0.00     0.023 C 
HETATM   21  C27 UNL     1       1.582  52.619 -25.940  1.00  0.00     0.023 C 
HETATM   22  C28 UNL     1      -0.718  52.567 -24.681  1.00  0.00     0.021 C 
HETATM   23  C29 UNL     1      -0.111  51.995 -23.399  1.00  0.00     0.090 C 
HETATM   24  C30 UNL     1      -1.218  51.612 -22.452  1.00  0.00     0.157 C 
HETATM   25  O5  UNL     1      -1.078  51.789 -21.243  1.00  0.00    -0.293 OA
ENDROOT
BRANCH   1  26
HETATM   26  C2  UNL     1      -5.766  47.317 -21.319  1.00  0.00    -0.014 C 
HETATM   27  C1  UNL     1      -4.872  46.088 -21.135  1.00  0.00     0.010 C 
BRANCH  26  28
HETATM   28  C3  UNL     1      -6.895  47.095 -22.360  1.00  0.00     0.008 C 
BRANCH  28  29
HETATM   29  C4  UNL     1      -8.034  48.120 -22.386  1.00  0.00     0.028 C 
BRANCH  29  30
HETATM   30  C5  UNL     1      -8.264  48.627 -23.785  1.00  0.00    -0.020 C 
HETATM   31  C6  UNL     1      -9.121  48.123 -24.698  1.00  0.00    -0.037 C 
BRANCH  31  32
HETATM   32  C7  UNL     1     -10.066  46.976 -24.440  1.00  0.00     0.200 C 
BRANCH  32  33
HETATM   33  O1  UNL     1     -11.396  47.387 -24.726  1.00  0.00    -0.397 OA
HETATM   34  H12 UNL     1     -11.466  48.302 -24.371  1.00  0.00     0.209 HD
ENDBRANCH  32  33
ENDBRANCH  31  32
BRANCH  31  35
HETATM   35  C8  UNL     1      -9.204  48.700 -26.088  1.00  0.00     0.200 C 
BRANCH  35  36
HETATM   36  O2  UNL     1      -9.622  50.053 -25.979  1.00  0.00    -0.397 OA
HETATM   37  H15 UNL     1      -9.566  50.431 -26.876  1.00  0.00     0.209 HD
ENDBRANCH  35  36
ENDBRANCH  31  35
ENDBRANCH  29  30
ENDBRANCH  28  29
ENDBRANCH  26  28
ENDBRANCH   1  26
TORSDOF 8
ENDMDL
MODEL 7
REMARK minimizedAffinity -8.82738304
REMARK  8 active torsions:
REMARK  status: ('A' for Active; 'I' for Inactive)
REMARK    1  A    between atoms: C2_2  and  C3_3 
REMARK    2  A    between atoms: C2_2  and  C9_11 
REMARK    3  A    between atoms: C3_3  and  C4_4 
REMARK    4  A    between atoms: C4_4  and  C5_5 
REMARK    5  A    between atoms: C6_6  and  C7_7 
REMARK    6  A    between atoms: C6_6  and  C8_9 
REMARK    7  A    between atoms: C7_7  and  O1_8 
REMARK    8  A    between atoms: C8_9  and  O2_10 
ROOT
HETATM    1  C9  UNL     1      -1.810  48.578 -18.429  1.00  0.00    -0.001 C 
HETATM    2  C10 UNL     1      -3.017  47.668 -18.794  1.00  0.00     0.007 C 
HETATM    3  C11 UNL     1      -3.332  47.912 -20.280  1.00  0.00     0.015 C 
HETATM    4  C12 UNL     1      -2.087  48.624 -20.846  1.00  0.00    -0.004 C 
HETATM    5  C13 UNL     1      -1.039  47.513 -21.168  1.00  0.00     0.021 C 
HETATM    6  C14 UNL     1      -2.166  49.459 -22.120  1.00  0.00     0.007 C 
HETATM    7  C15 UNL     1      -1.317  50.489 -22.376  1.00  0.00     0.007 C 
HETATM    8  C16 UNL     1      -0.341  50.877 -21.271  1.00  0.00     0.157 C 
HETATM    9  O3  UNL     1       0.480  51.777 -21.438  1.00  0.00    -0.293 OA
HETATM   10  C17 UNL     1      -0.368  50.171 -19.920  1.00  0.00     0.094 C 
HETATM   11  C18 UNL     1      -1.738  49.565 -19.631  1.00  0.00    -0.022 C 
HETATM   12  C19 UNL     1      -2.767  50.719 -19.447  1.00  0.00     0.017 C 
HETATM   13  C20 UNL     1      -1.330  51.331 -23.687  1.00  0.00    -0.007 C 
HETATM   14  C21 UNL     1      -2.060  52.642 -23.318  1.00  0.00     0.021 C 
HETATM   15  C22 UNL     1       0.090  51.659 -24.237  1.00  0.00     0.022 C 
HETATM   16  C23 UNL     1       0.085  52.364 -25.587  1.00  0.00     0.080 C 
HETATM   17  C24 UNL     1      -0.659  51.576 -26.632  1.00  0.00     0.135 C 
HETATM   18  O4  UNL     1      -0.178  51.441 -27.759  1.00  0.00    -0.297 OA
HETATM   19  C25 UNL     1      -2.060  51.064 -26.270  1.00  0.00     0.018 C 
HETATM   20  C26 UNL     1      -2.408  49.931 -27.273  1.00  0.00     0.023 C 
HETATM   21  C27 UNL     1      -3.070  52.196 -26.510  1.00  0.00     0.023 C 
HETATM   22  C28 UNL     1      -2.036  50.483 -24.814  1.00  0.00     0.021 C 
HETATM   23  C29 UNL     1      -3.402  49.998 -24.326  1.00  0.00     0.090 C 
HETATM   24  C30 UNL     1      -3.213  49.100 -23.131  1.00  0.00     0.157 C 
HETATM   25  O5  UNL     1      -3.932  48.114 -22.985  1.00  0.00    -0.293 OA
ENDROOT
BRANCH   1  26
HETATM   26  C2  UNL     1      -1.808  49.016 -16.931  1.00  0.00    -0.014 C 
HETATM   27  C1  UNL     1      -2.498  50.333 -16.568  1.00  0.00     0.010 C 
BRANCH  26  28
HETATM   28  C3  UNL     1      -0.437  48.835 -16.227  1.00  0.00     0.008 C 
BRANCH  28  29
HETATM   29  C4  UNL     1       0.024  49.961 -15.294  1.00  0.00     0.028 C 
BRANCH  29  30
HETATM   30  C5  UNL     1       1.154  50.739 -15.914  1.00  0.00    -0.020 C 
HETATM   31  C6  UNL     1       2.023  51.552 -15.276  1.00  0.00    -0.037 C 
BRANCH  31  32
HETATM   32  C7  UNL     1       2.049  51.771 -13.784  1.00  0.00     0.200 C 
BRANCH  32  33
HETATM   33  O1  UNL     1       1.127  52.796 -13.442  1.00  0.00    -0.397 OA
HETATM   34  H12 UNL     1       1.229  53.480 -14.141  1.00  0.00     0.209 HD
ENDBRANCH  32  33
ENDBRANCH  31  32
BRANCH  31  35
HETATM   35  C8  UNL     1       3.075  52.317 -16.038  1.00  0.00     0.200 C 
BRANCH  35  36
HETATM   36  O2  UNL     1       2.453  53.450 -16.629  1.00  0.00    -0.397 OA
HETATM   37  H15 UNL     1       3.167  53.981 -17.024  1.00  0.00     0.209 HD
ENDBRANCH  35  36
ENDBRANCH  31  35
ENDBRANCH  29  30
ENDBRANCH  28  29
ENDBRANCH  26  28
ENDBRANCH   1  26
TORSDOF 8
ENDMDL
MODEL 8
REMARK minimizedAffinity -8.80787849
REMARK  8 active torsions:
REMARK  status: ('A' for Active; 'I' for Inactive)
REMARK    1  A    between atoms: C2_2  and  C3_3 
REMARK    2  A    between atoms: C2_2  and  C9_11 
REMARK    3  A    between atoms: C3_3  and  C4_4 
REMARK    4  A    between atoms: C4_4  and  C5_5 
REMARK    5  A    between atoms: C6_6  and  C7_7 
REMARK    6  A    between atoms: C6_6  and  C8_9 
REMARK    7  A    between atoms: C7_7  and  O1_8 
REMARK    8  A    between atoms: C8_9  and  O2_10 
ROOT
HETATM    1  C9  UNL     1      -1.543  51.526 -22.798  1.00  0.00    -0.001 C 
HETATM    2  C10 UNL     1      -0.992  51.348 -24.241  1.00  0.00     0.007 C 
HETATM    3  C11 UNL     1      -2.046  50.554 -25.032  1.00  0.00     0.015 C 
HETATM    4  C12 UNL     1      -3.333  50.636 -24.186  1.00  0.00    -0.004 C 
HETATM    5  C13 UNL     1      -4.003  52.006 -24.516  1.00  0.00     0.021 C 
HETATM    6  C14 UNL     1      -4.451  49.612 -24.350  1.00  0.00     0.007 C 
HETATM    7  C15 UNL     1      -5.316  49.304 -23.347  1.00  0.00     0.007 C 
HETATM    8  C16 UNL     1      -5.053  49.932 -21.984  1.00  0.00     0.157 C 
HETATM    9  O3  UNL     1      -5.809  49.728 -21.036  1.00  0.00    -0.293 OA
HETATM   10  C17 UNL     1      -3.834  50.818 -21.753  1.00  0.00     0.094 C 
HETATM   11  C18 UNL     1      -2.717  50.503 -22.742  1.00  0.00    -0.022 C 
HETATM   12  C19 UNL     1      -2.175  49.073 -22.446  1.00  0.00     0.017 C 
HETATM   13  C20 UNL     1      -6.504  48.305 -23.490  1.00  0.00    -0.007 C 
HETATM   14  C21 UNL     1      -6.012  46.996 -22.831  1.00  0.00     0.021 C 
HETATM   15  C22 UNL     1      -7.813  48.781 -22.793  1.00  0.00     0.022 C 
HETATM   16  C23 UNL     1      -9.013  47.877 -23.041  1.00  0.00     0.080 C 
HETATM   17  C24 UNL     1      -9.293  47.702 -24.511  1.00  0.00     0.135 C 
HETATM   18  O4  UNL     1     -10.449  47.778 -24.929  1.00  0.00    -0.297 OA
HETATM   19  C25 UNL     1      -8.115  47.320 -25.416  1.00  0.00     0.018 C 
HETATM   20  C26 UNL     1      -8.529  47.655 -26.874  1.00  0.00     0.023 C 
HETATM   21  C27 UNL     1      -7.920  45.797 -25.347  1.00  0.00     0.023 C 
HETATM   22  C28 UNL     1      -6.861  48.174 -25.020  1.00  0.00     0.021 C 
HETATM   23  C29 UNL     1      -5.606  47.829 -25.824  1.00  0.00     0.090 C 
HETATM   24  C30 UNL     1      -4.603  48.945 -25.683  1.00  0.00     0.157 C 
HETATM   25  O5  UNL     1      -3.909  49.269 -26.644  1.00  0.00    -0.293 OA
ENDROOT
BRANCH   1  26
HETATM   26  C2  UNL     1      -0.416  51.630 -21.724  1.00  0.00    -0.014 C 
HETATM   27  C1  UNL     1       0.993  51.998 -22.197  1.00  0.00     0.010 C 
BRANCH  26  28
HETATM   28  C3  UNL     1      -0.426  50.473 -20.690  1.00  0.00     0.008 C 
BRANCH  28  29
HETATM   29  C4  UNL     1      -1.005  50.778 -19.305  1.00  0.00     0.028 C 
BRANCH  29  30
HETATM   30  C5  UNL     1       0.092  51.110 -18.328  1.00  0.00    -0.020 C 
HETATM   31  C6  UNL     1       0.677  52.313 -18.146  1.00  0.00    -0.037 C 
BRANCH  31  32
HETATM   32  C7  UNL     1       0.272  53.576 -18.863  1.00  0.00     0.200 C 
BRANCH  32  33
HETATM   33  O1  UNL     1       1.396  54.108 -19.552  1.00  0.00    -0.397 OA
HETATM   34  H12 UNL     1       2.154  53.996 -18.936  1.00  0.00     0.209 HD
ENDBRANCH  32  33
ENDBRANCH  31  32
BRANCH  31  35
HETATM   35  C8  UNL     1       1.811  52.486 -17.168  1.00  0.00     0.200 C 
BRANCH  35  36
HETATM   36  O2  UNL     1       1.354  53.312 -16.106  1.00  0.00    -0.397 OA
HETATM   37  H15 UNL     1       2.065  53.322 -15.440  1.00  0.00     0.209 HD
ENDBRANCH  35  36
ENDBRANCH  31  35
ENDBRANCH  29  30
ENDBRANCH  28  29
ENDBRANCH  26  28
ENDBRANCH   1  26
TORSDOF 8
ENDMDL
MODEL 9
REMARK minimizedAffinity -8.80762863
REMARK  8 active torsions:
REMARK  status: ('A' for Active; 'I' for Inactive)
REMARK    1  A    between atoms: C2_2  and  C3_3 
REMARK    2  A    between atoms: C2_2  and  C9_11 
REMARK    3  A    between atoms: C3_3  and  C4_4 
REMARK    4  A    between atoms: C4_4  and  C5_5 
REMARK    5  A    between atoms: C6_6  and  C7_7 
REMARK    6  A    between atoms: C6_6  and  C8_9 
REMARK    7  A    between atoms: C7_7  and  O1_8 
REMARK    8  A    between atoms: C8_9  and  O2_10 
ROOT
HETATM    1  C9  UNL     1      -1.582  51.438 -23.166  1.00  0.00    -0.001 C 
HETATM    2  C10 UNL     1      -1.679  50.835 -24.597  1.00  0.00     0.007 C 
HETATM    3  C11 UNL     1      -2.908  49.909 -24.614  1.00  0.00     0.015 C 
HETATM    4  C12 UNL     1      -3.720  50.292 -23.361  1.00  0.00    -0.004 C 
HETATM    5  C13 UNL     1      -4.564  51.550 -23.737  1.00  0.00     0.021 C 
HETATM    6  C14 UNL     1      -4.726  49.325 -22.746  1.00  0.00     0.007 C 
HETATM    7  C15 UNL     1      -5.064  49.354 -21.430  1.00  0.00     0.007 C 
HETATM    8  C16 UNL     1      -4.297  50.323 -20.537  1.00  0.00     0.157 C 
HETATM    9  O3  UNL     1      -4.566  50.432 -19.342  1.00  0.00    -0.293 OA
HETATM   10  C17 UNL     1      -3.161  51.172 -21.099  1.00  0.00     0.094 C 
HETATM   11  C18 UNL     1      -2.545  50.535 -22.340  1.00  0.00    -0.022 C 
HETATM   12  C19 UNL     1      -1.827  49.217 -21.921  1.00  0.00     0.017 C 
HETATM   13  C20 UNL     1      -6.125  48.420 -20.775  1.00  0.00    -0.007 C 
HETATM   14  C21 UNL     1      -5.308  47.322 -20.056  1.00  0.00     0.021 C 
HETATM   15  C22 UNL     1      -7.049  49.141 -19.749  1.00  0.00     0.022 C 
HETATM   16  C23 UNL     1      -8.173  48.268 -19.206  1.00  0.00     0.080 C 
HETATM   17  C24 UNL     1      -9.033  47.706 -20.308  1.00  0.00     0.135 C 
HETATM   18  O4  UNL     1     -10.260  47.723 -20.198  1.00  0.00    -0.297 OA
HETATM   19  C25 UNL     1      -8.321  47.024 -21.483  1.00  0.00     0.018 C 
HETATM   20  C26 UNL     1      -9.335  46.960 -22.658  1.00  0.00     0.023 C 
HETATM   21  C27 UNL     1      -8.006  45.573 -21.088  1.00  0.00     0.023 C 
HETATM   22  C28 UNL     1      -7.083  47.887 -21.908  1.00  0.00     0.021 C 
HETATM   23  C29 UNL     1      -6.262  47.265 -23.039  1.00  0.00     0.090 C 
HETATM   24  C30 UNL     1      -5.377  48.321 -23.649  1.00  0.00     0.157 C 
HETATM   25  O5  UNL     1      -5.177  48.327 -24.862  1.00  0.00    -0.293 OA
ENDROOT
BRANCH   1  26
HETATM   26  C2  UNL     1      -0.118  51.777 -22.746  1.00  0.00    -0.014 C 
HETATM   27  C1  UNL     1       0.179  51.941 -21.253  1.00  0.00     0.010 C 
BRANCH  26  28
HETATM   28  C3  UNL     1       0.547  52.872 -23.621  1.00  0.00     0.008 C 
BRANCH  28  29
HETATM   29  C4  UNL     1       0.968  52.474 -25.040  1.00  0.00     0.028 C 
BRANCH  29  30
HETATM   30  C5  UNL     1       0.393  53.427 -26.054  1.00  0.00    -0.020 C 
HETATM   31  C6  UNL     1      -0.046  53.122 -27.294  1.00  0.00    -0.037 C 
BRANCH  31  32
HETATM   32  C7  UNL     1      -0.098  51.726 -27.862  1.00  0.00     0.200 C 
BRANCH  32  33
HETATM   33  O1  UNL     1      -1.453  51.336 -28.035  1.00  0.00    -0.397 OA
HETATM   34  H12 UNL     1      -1.921  51.666 -27.235  1.00  0.00     0.209 HD
ENDBRANCH  32  33
ENDBRANCH  31  32
BRANCH  31  35
HETATM   35  C8  UNL     1      -0.545  54.195 -28.228  1.00  0.00     0.200 C 
BRANCH  35  36
HETATM   36  O2  UNL     1      -1.956  54.063 -28.337  1.00  0.00    -0.397 OA
HETATM   37  H15 UNL     1      -2.263  54.827 -28.858  1.00  0.00     0.209 HD
ENDBRANCH  35  36
ENDBRANCH  31  35
ENDBRANCH  29  30
ENDBRANCH  28  29
ENDBRANCH  26  28
ENDBRANCH   1  26
TORSDOF 8
ENDMDL
