MODEL 1
REMARK minimizedAffinity -8.74583817
REMARK CNNscore 0.714098632
REMARK CNNaffinity 8.58013916
REMARK  23 active torsions:
REMARK  status: ('A' for Active; 'I' for Inactive)
REMARK    1  A    between atoms: C3_3  and  C4_4 
REMARK    2  A    between atoms: C5_5  and  C6_6 
REMARK    3  A    between atoms: C7_8  and  O2_9 
REMARK    4  A    between atoms: C7_8  and  C8_10 
REMARK    5  A    between atoms: C8_10  and  C10_12 
REMARK       I    between atoms: C10_12  and  N1_14 
REMARK    6  A    between atoms: N1_14  and  C11_15 
REMARK    7  A    between atoms: C11_15  and  C12_16 
REMARK    8  A    between atoms: C13_17  and  C14_18 
REMARK    9  A    between atoms: C15_19  and  C17_21 
REMARK   10  A    between atoms: C17_21  and  O4_22 
REMARK   11  A    between atoms: C17_21  and  C19_24 
REMARK   12  A    between atoms: C19_24  and  C21_26 
REMARK   13  A    between atoms: C23_28  and  O5_29 
REMARK   14  A    between atoms: C24_30  and  C25_31 
REMARK   15  A    between atoms: C26_32  and  C27_33 
REMARK   16  A    between atoms: C28_34  and  C29_35 
REMARK   17  A    between atoms: C30_36  and  C31_37 
REMARK   18  A    between atoms: C31_37  and  O7_39 
REMARK   19  A    between atoms: C32_41  and  O9_42 
REMARK   20  A    between atoms: O9_42  and  C33_43 
REMARK   21  A    between atoms: C33_43  and  C34_45 
REMARK   22  A    between atoms: C34_45  and  C35_46 
REMARK   23  A    between atoms: C41_52  and  O11_53 
ROOT
HETATM    1  C10 UNL     1      -1.051  50.445 -14.379  1.00  0.00     0.227 C 
HETATM    2  O3  UNL     1       0.155  50.213 -14.438  1.00  0.00    -0.273 OA
HETATM    3  N1  UNL     1      -1.999  49.670 -15.005  1.00  0.00    -0.357 N 
HETATM    4  H14 UNL     1      -2.908  50.103 -15.161  1.00  0.00     0.162 HD
ENDROOT
BRANCH   1   5
HETATM    5  C8  UNL     1      -1.591  51.680 -13.663  1.00  0.00     0.139 C 
HETATM    6  C9  UNL     1      -3.120  51.565 -13.648  1.00  0.00     0.026 C 
BRANCH   5   7
HETATM    7  C7  UNL     1      -0.907  51.767 -12.266  1.00  0.00     0.204 C 
HETATM    8  O1  UNL     1      -0.186  53.022 -12.219  1.00  0.00    -0.342 OA
HETATM    9  C6  UNL     1       0.164  53.426 -10.895  1.00  0.00     0.158 C 
HETATM   10  C42 UNL     1      -1.121  53.931 -10.159  1.00  0.00     0.011 C 
HETATM   11  C41 UNL     1      -2.339  53.054 -10.588  1.00  0.00     0.163 C 
HETATM   12  C43 UNL     1      -0.902  53.780  -8.636  1.00  0.00     0.020 C 
HETATM   13  C44 UNL     1      -1.416  55.419 -10.444  1.00  0.00     0.020 C 
HETATM   14  C32 UNL     1      -1.864  51.657 -11.026  1.00  0.00     0.224 C 
BRANCH   9  15
HETATM   15  C5  UNL     1       1.299  54.422 -10.934  1.00  0.00     0.006 C 
HETATM   16  C4  UNL     1       1.777  55.133  -9.899  1.00  0.00    -0.002 C 
BRANCH  16  17
HETATM   17  C3  UNL     1       2.867  56.071 -10.045  1.00  0.00    -0.005 C 
HETATM   18  C2  UNL     1       4.176  55.782 -10.058  1.00  0.00    -0.031 C 
HETATM   19  C1  UNL     1       4.829  54.442  -9.964  1.00  0.00     0.036 C 
ENDBRANCH  16  17
ENDBRANCH   9  15
BRANCH  11  20
HETATM   20  O11 UNL     1      -3.088  53.637 -11.665  1.00  0.00    -0.392 OA
HETATM   21  H53 UNL     1      -3.642  54.348 -11.294  1.00  0.00     0.210 HD
ENDBRANCH  11  20
BRANCH  14  22
HETATM   22  O9  UNL     1      -2.987  50.783 -11.247  1.00  0.00    -0.307 OA
BRANCH  22  23
HETATM   23  C33 UNL     1      -3.694  50.451 -10.130  1.00  0.00     0.263 C 
HETATM   24  O10 UNL     1      -3.219  49.885  -9.154  1.00  0.00    -0.265 OA
BRANCH  23  25
HETATM   25  C34 UNL     1      -5.136  50.891 -10.252  1.00  0.00     0.149 C 
BRANCH  25  26
HETATM   26  C35 UNL     1      -6.083  49.726 -10.398  1.00  0.00    -0.049 A 
HETATM   27  C36 UNL     1      -7.262  49.686  -9.646  1.00  0.00     0.007 A 
HETATM   28  C37 UNL     1      -8.161  48.628  -9.795  1.00  0.00     0.001 A 
HETATM   29  C38 UNL     1      -7.886  47.601 -10.696  1.00  0.00     0.000 A 
HETATM   30  C39 UNL     1      -6.712  47.630 -11.450  1.00  0.00     0.001 A 
HETATM   31  C40 UNL     1      -5.818  48.691 -11.305  1.00  0.00     0.007 A 
ENDBRANCH  25  26
ENDBRANCH  23  25
ENDBRANCH  22  23
ENDBRANCH  14  22
BRANCH   7  32
HETATM   32  O2  UNL     1       0.048  50.700 -12.117  1.00  0.00    -0.362 OA
HETATM   33  H9  UNL     1       0.487  50.570 -12.979  1.00  0.00     0.213 HD
ENDBRANCH   7  32
ENDBRANCH   5   7
ENDBRANCH   1   5
BRANCH   3  34
HETATM   34  C11 UNL     1      -1.632  48.572 -15.865  1.00  0.00     0.149 C 
BRANCH  34  35
HETATM   35  C12 UNL     1      -1.478  49.003 -17.290  1.00  0.00    -0.007 C 
HETATM   36  C13 UNL     1      -2.209  48.619 -18.346  1.00  0.00    -0.002 C 
BRANCH  36  37
HETATM   37  C14 UNL     1      -1.934  49.083 -19.691  1.00  0.00     0.005 C 
HETATM   38  C15 UNL     1      -2.559  50.098 -20.325  1.00  0.00    -0.055 C 
HETATM   39  C16 UNL     1      -3.639  50.938 -19.688  1.00  0.00     0.046 C 
BRANCH  38  40
HETATM   40  C17 UNL     1      -2.221  50.398 -21.790  1.00  0.00     0.155 C 
BRANCH  40  41
HETATM   41  O4  UNL     1      -3.403  50.262 -22.584  1.00  0.00    -0.386 OA
HETATM   42  C18 UNL     1      -3.476  49.015 -23.263  1.00  0.00     0.202 C 
ENDBRANCH  40  41
BRANCH  40  43
HETATM   43  C19 UNL     1      -1.576  51.805 -21.974  1.00  0.00     0.044 C 
HETATM   44  C20 UNL     1      -1.374  52.168 -23.454  1.00  0.00     0.015 C 
BRANCH  43  45
HETATM   45  C21 UNL     1      -0.226  51.965 -21.232  1.00  0.00     0.131 C 
HETATM   46  C22 UNL     1       0.912  52.545 -22.064  1.00  0.00     0.067 C 
HETATM   47  C23 UNL     1       1.575  53.583 -21.181  1.00  0.00     0.153 C 
HETATM   48  C24 UNL     1       0.833  53.516 -19.844  1.00  0.00     0.173 C 
HETATM   49  O8  UNL     1      -0.361  52.755 -20.054  1.00  0.00    -0.374 OA
BRANCH  47  50
HETATM   50  O5  UNL     1       1.427  54.873 -21.780  1.00  0.00    -0.393 OA
HETATM   51  H35 UNL     1       1.947  54.882 -22.598  1.00  0.00     0.210 HD
ENDBRANCH  47  50
BRANCH  48  52
HETATM   52  C25 UNL     1       1.611  52.820 -18.759  1.00  0.00     0.007 C 
HETATM   53  C26 UNL     1       1.158  52.650 -17.505  1.00  0.00    -0.001 C 
BRANCH  53  54
HETATM   54  C27 UNL     1       1.899  51.931 -16.494  1.00  0.00    -0.000 C 
HETATM   55  C28 UNL     1       3.087  52.347 -16.026  1.00  0.00     0.000 C 
BRANCH  55  56
HETATM   56  C29 UNL     1       3.821  51.634 -15.004  1.00  0.00     0.007 C 
HETATM   57  C30 UNL     1       3.215  50.957 -14.018  1.00  0.00     0.081 C 
BRANCH  57  58
HETATM   58  C31 UNL     1       4.028  50.239 -13.027  1.00  0.00     0.165 C 
HETATM   59  O6  UNL     1       3.894  50.234 -11.820  1.00  0.00    -0.647 OA
BRANCH  58  60
HETATM   60  O7  UNL     1       4.986  49.526 -13.648  1.00  0.00    -0.773 OA
HETATM   61  H43 UNL     1       5.471  49.092 -12.915  1.00  0.00     0.167 HD
ENDBRANCH  58  60
ENDBRANCH  57  58
ENDBRANCH  55  56
ENDBRANCH  53  54
ENDBRANCH  48  52
ENDBRANCH  43  45
ENDBRANCH  40  43
ENDBRANCH  38  40
ENDBRANCH  36  37
ENDBRANCH  34  35
ENDBRANCH   3  34
TORSDOF 23
ENDMDL
MODEL 2
REMARK minimizedAffinity -9.77908993
REMARK CNNscore 0.689978957
REMARK CNNaffinity 7.47526121
REMARK  23 active torsions:
REMARK  status: ('A' for Active; 'I' for Inactive)
REMARK    1  A    between atoms: C3_3  and  C4_4 
REMARK    2  A    between atoms: C5_5  and  C6_6 
REMARK    3  A    between atoms: C7_8  and  O2_9 
REMARK    4  A    between atoms: C7_8  and  C8_10 
REMARK    5  A    between atoms: C8_10  and  C10_12 
REMARK       I    between atoms: C10_12  and  N1_14 
REMARK    6  A    between atoms: N1_14  and  C11_15 
REMARK    7  A    between atoms: C11_15  and  C12_16 
REMARK    8  A    between atoms: C13_17  and  C14_18 
REMARK    9  A    between atoms: C15_19  and  C17_21 
REMARK   10  A    between atoms: C17_21  and  O4_22 
REMARK   11  A    between atoms: C17_21  and  C19_24 
REMARK   12  A    between atoms: C19_24  and  C21_26 
REMARK   13  A    between atoms: C23_28  and  O5_29 
REMARK   14  A    between atoms: C24_30  and  C25_31 
REMARK   15  A    between atoms: C26_32  and  C27_33 
REMARK   16  A    between atoms: C28_34  and  C29_35 
REMARK   17  A    between atoms: C30_36  and  C31_37 
REMARK   18  A    between atoms: C31_37  and  O7_39 
REMARK   19  A    between atoms: C32_41  and  O9_42 
REMARK   20  A    between atoms: O9_42  and  C33_43 
REMARK   21  A    between atoms: C33_43  and  C34_45 
REMARK   22  A    between atoms: C34_45  and  C35_46 
REMARK   23  A    between atoms: C41_52  and  O11_53 
ROOT
HETATM    1  C10 UNL     1      -6.058  47.849 -28.287  1.00  0.00     0.227 C 
HETATM    2  O3  UNL     1      -5.701  47.946 -29.459  1.00  0.00    -0.273 OA
HETATM    3  N1  UNL     1      -5.235  48.133 -27.222  1.00  0.00    -0.357 N 
HETATM    4  H14 UNL     1      -5.500  47.733 -26.324  1.00  0.00     0.162 HD
ENDROOT
BRANCH   1   5
HETATM    5  C8  UNL     1      -7.439  47.316 -27.916  1.00  0.00     0.139 C 
HETATM    6  C9  UNL     1      -7.688  47.682 -26.448  1.00  0.00     0.026 C 
BRANCH   5   7
HETATM    7  C7  UNL     1      -8.468  47.887 -28.938  1.00  0.00     0.204 C 
HETATM    8  O1  UNL     1      -7.957  47.604 -30.263  1.00  0.00    -0.342 OA
HETATM    9  C6  UNL     1      -8.947  47.709 -31.287  1.00  0.00     0.158 C 
HETATM   10  C42 UNL     1      -9.906  46.476 -31.199  1.00  0.00     0.011 C 
HETATM   11  C41 UNL     1     -10.133  46.106 -29.699  1.00  0.00     0.163 C 
HETATM   12  C43 UNL     1     -11.260  46.864 -31.834  1.00  0.00     0.020 C 
HETATM   13  C44 UNL     1      -9.362  45.252 -31.968  1.00  0.00     0.020 C 
HETATM   14  C32 UNL     1      -9.935  47.345 -28.808  1.00  0.00     0.224 C 
BRANCH   9  15
HETATM   15  C5  UNL     1      -8.289  47.900 -32.634  1.00  0.00     0.006 C 
HETATM   16  C4  UNL     1      -7.063  47.486 -32.993  1.00  0.00    -0.002 C 
BRANCH  16  17
HETATM   17  C3  UNL     1      -6.521  47.728 -34.310  1.00  0.00    -0.005 C 
HETATM   18  C2  UNL     1      -5.252  48.035 -34.610  1.00  0.00    -0.031 C 
HETATM   19  C1  UNL     1      -4.088  48.168 -33.684  1.00  0.00     0.036 C 
ENDBRANCH  16  17
ENDBRANCH   9  15
BRANCH  11  20
HETATM   20  O11 UNL     1      -9.246  45.073 -29.244  1.00  0.00    -0.392 OA
HETATM   21  H53 UNL     1      -9.582  44.221 -29.577  1.00  0.00     0.210 HD
ENDBRANCH  11  20
BRANCH  14  22
HETATM   22  O9  UNL     1     -10.321  47.061 -27.449  1.00  0.00    -0.307 OA
BRANCH  22  23
HETATM   23  C33 UNL     1     -11.256  47.902 -26.922  1.00  0.00     0.263 C 
HETATM   24  O10 UNL     1     -11.160  48.442 -25.828  1.00  0.00    -0.265 OA
BRANCH  23  25
HETATM   25  C34 UNL     1     -12.413  48.090 -27.877  1.00  0.00     0.149 C 
BRANCH  25  26
HETATM   26  C35 UNL     1     -13.463  47.017 -27.729  1.00  0.00    -0.049 A 
HETATM   27  C36 UNL     1     -14.087  46.816 -26.493  1.00  0.00     0.007 A 
HETATM   28  C37 UNL     1     -15.082  45.847 -26.351  1.00  0.00     0.001 A 
HETATM   29  C38 UNL     1     -15.457  45.068 -27.444  1.00  0.00     0.000 A 
HETATM   30  C39 UNL     1     -14.839  45.257 -28.681  1.00  0.00     0.001 A 
HETATM   31  C40 UNL     1     -13.850  46.231 -28.823  1.00  0.00     0.007 A 
ENDBRANCH  25  26
ENDBRANCH  23  25
ENDBRANCH  22  23
ENDBRANCH  14  22
BRANCH   7  32
HETATM   32  O2  UNL     1      -8.565  49.315 -28.794  1.00  0.00    -0.362 OA
HETATM   33  H9  UNL     1      -7.671  49.658 -28.608  1.00  0.00     0.213 HD
ENDBRANCH   7  32
ENDBRANCH   5   7
ENDBRANCH   1   5
BRANCH   3  34
HETATM   34  C11 UNL     1      -3.847  48.478 -27.409  1.00  0.00     0.149 C 
BRANCH  34  35
HETATM   35  C12 UNL     1      -3.210  48.944 -26.137  1.00  0.00    -0.007 C 
HETATM   36  C13 UNL     1      -3.503  48.562 -24.886  1.00  0.00    -0.002 C 
BRANCH  36  37
HETATM   37  C14 UNL     1      -2.834  49.119 -23.727  1.00  0.00     0.005 C 
HETATM   38  C15 UNL     1      -3.195  50.235 -23.062  1.00  0.00    -0.055 C 
HETATM   39  C16 UNL     1      -4.404  51.065 -23.421  1.00  0.00     0.046 C 
BRANCH  38  40
HETATM   40  C17 UNL     1      -2.318  50.750 -21.915  1.00  0.00     0.155 C 
BRANCH  40  41
HETATM   41  O4  UNL     1      -1.514  49.677 -21.417  1.00  0.00    -0.386 OA
HETATM   42  C18 UNL     1      -1.949  49.197 -20.151  1.00  0.00     0.202 C 
ENDBRANCH  40  41
BRANCH  40  43
HETATM   43  C19 UNL     1      -1.437  51.964 -22.340  1.00  0.00     0.044 C 
HETATM   44  C20 UNL     1      -1.030  51.903 -23.820  1.00  0.00     0.015 C 
BRANCH  43  45
HETATM   45  C21 UNL     1      -0.162  52.130 -21.478  1.00  0.00     0.131 C 
HETATM   46  C22 UNL     1       1.069  52.636 -22.222  1.00  0.00     0.067 C 
HETATM   47  C23 UNL     1       1.675  53.703 -21.333  1.00  0.00     0.153 C 
HETATM   48  C24 UNL     1       0.804  53.727 -20.073  1.00  0.00     0.173 C 
HETATM   49  O8  UNL     1      -0.386  52.986 -20.360  1.00  0.00    -0.374 OA
BRANCH  47  50
HETATM   50  O5  UNL     1       1.624  54.962 -22.009  1.00  0.00    -0.393 OA
HETATM   51  H35 UNL     1       2.222  54.914 -22.771  1.00  0.00     0.210 HD
ENDBRANCH  47  50
BRANCH  48  52
HETATM   52  C25 UNL     1       1.452  53.071 -18.883  1.00  0.00     0.007 C 
HETATM   53  C26 UNL     1       0.772  52.407 -17.933  1.00  0.00    -0.001 C 
BRANCH  53  54
HETATM   54  C27 UNL     1       1.419  51.739 -16.827  1.00  0.00    -0.000 C 
HETATM   55  C28 UNL     1       2.245  52.369 -15.976  1.00  0.00     0.000 C 
BRANCH  55  56
HETATM   56  C29 UNL     1       2.881  51.701 -14.861  1.00  0.00     0.007 C 
HETATM   57  C30 UNL     1       2.189  51.200 -13.828  1.00  0.00     0.081 C 
BRANCH  57  58
HETATM   58  C31 UNL     1       2.904  50.516 -12.742  1.00  0.00     0.165 C 
HETATM   59  O6  UNL     1       3.575  51.019 -11.862  1.00  0.00    -0.647 OA
BRANCH  58  60
HETATM   60  O7  UNL     1       2.704  49.188 -12.825  1.00  0.00    -0.773 OA
HETATM   61  H43 UNL     1       3.216  48.824 -12.072  1.00  0.00     0.167 HD
ENDBRANCH  58  60
ENDBRANCH  57  58
ENDBRANCH  55  56
ENDBRANCH  53  54
ENDBRANCH  48  52
ENDBRANCH  43  45
ENDBRANCH  40  43
ENDBRANCH  38  40
ENDBRANCH  36  37
ENDBRANCH  34  35
ENDBRANCH   3  34
TORSDOF 23
ENDMDL
MODEL 3
REMARK minimizedAffinity -9.14514351
REMARK CNNscore 0.689806998
REMARK CNNaffinity 7.65444946
REMARK  23 active torsions:
REMARK  status: ('A' for Active; 'I' for Inactive)
REMARK    1  A    between atoms: C3_3  and  C4_4 
REMARK    2  A    between atoms: C5_5  and  C6_6 
REMARK    3  A    between atoms: C7_8  and  O2_9 
REMARK    4  A    between atoms: C7_8  and  C8_10 
REMARK    5  A    between atoms: C8_10  and  C10_12 
REMARK       I    between atoms: C10_12  and  N1_14 
REMARK    6  A    between atoms: N1_14  and  C11_15 
REMARK    7  A    between atoms: C11_15  and  C12_16 
REMARK    8  A    between atoms: C13_17  and  C14_18 
REMARK    9  A    between atoms: C15_19  and  C17_21 
REMARK   10  A    between atoms: C17_21  and  O4_22 
REMARK   11  A    between atoms: C17_21  and  C19_24 
REMARK   12  A    between atoms: C19_24  and  C21_26 
REMARK   13  A    between atoms: C23_28  and  O5_29 
REMARK   14  A    between atoms: C24_30  and  C25_31 
REMARK   15  A    between atoms: C26_32  and  C27_33 
REMARK   16  A    between atoms: C28_34  and  C29_35 
REMARK   17  A    between atoms: C30_36  and  C31_37 
REMARK   18  A    between atoms: C31_37  and  O7_39 
REMARK   19  A    between atoms: C32_41  and  O9_42 
REMARK   20  A    between atoms: O9_42  and  C33_43 
REMARK   21  A    between atoms: C33_43  and  C34_45 
REMARK   22  A    between atoms: C34_45  and  C35_46 
REMARK   23  A    between atoms: C41_52  and  O11_53 
ROOT
HETATM    1  C10 UNL     1      -7.091  48.206 -29.634  1.00  0.00     0.227 C 
HETATM    2  O3  UNL     1      -6.512  47.718 -30.603  1.00  0.00    -0.273 OA
HETATM    3  N1  UNL     1      -6.483  48.410 -28.418  1.00  0.00    -0.357 N 
HETATM    4  H14 UNL     1      -7.100  48.516 -27.614  1.00  0.00     0.162 HD
ENDROOT
BRANCH   1   5
HETATM    5  C8  UNL     1      -8.577  48.549 -29.684  1.00  0.00     0.139 C 
HETATM    6  C9  UNL     1      -8.768  49.583 -30.800  1.00  0.00     0.026 C 
BRANCH   5   7
HETATM    7  C7  UNL     1      -9.375  47.221 -29.850  1.00  0.00     0.204 C 
HETATM    8  O1  UNL     1      -8.408  46.167 -30.082  1.00  0.00    -0.342 OA
HETATM    9  C6  UNL     1      -8.935  44.857 -29.868  1.00  0.00     0.158 C 
HETATM   10  C42 UNL     1      -9.096  44.616 -28.331  1.00  0.00     0.011 C 
HETATM   11  C41 UNL     1      -9.555  45.942 -27.647  1.00  0.00     0.163 C 
HETATM   12  C43 UNL     1     -10.181  43.536 -28.117  1.00  0.00     0.020 C 
HETATM   13  C44 UNL     1      -7.794  44.107 -27.676  1.00  0.00     0.020 C 
HETATM   14  C32 UNL     1     -10.310  46.829 -28.652  1.00  0.00     0.224 C 
BRANCH   9  15
HETATM   15  C5  UNL     1      -8.088  43.829 -30.581  1.00  0.00     0.006 C 
HETATM   16  C4  UNL     1      -6.817  43.981 -30.989  1.00  0.00    -0.002 C 
BRANCH  16  17
HETATM   17  C3  UNL     1      -6.096  42.933 -31.673  1.00  0.00    -0.005 C 
HETATM   18  C2  UNL     1      -4.995  43.077 -32.424  1.00  0.00    -0.031 C 
HETATM   19  C1  UNL     1      -4.227  44.326 -32.710  1.00  0.00     0.036 C 
ENDBRANCH  16  17
ENDBRANCH   9  15
BRANCH  11  20
HETATM   20  O11 UNL     1      -8.457  46.697 -27.111  1.00  0.00    -0.392 OA
HETATM   21  H53 UNL     1      -8.185  46.277 -26.275  1.00  0.00     0.210 HD
ENDBRANCH  11  20
BRANCH  14  22
HETATM   22  O9  UNL     1     -10.896  47.965 -27.989  1.00  0.00    -0.307 OA
BRANCH  22  23
HETATM   23  C33 UNL     1     -12.253  47.930 -27.865  1.00  0.00     0.263 C 
HETATM   24  O10 UNL     1     -12.901  48.685 -27.152  1.00  0.00    -0.265 OA
BRANCH  23  25
HETATM   25  C34 UNL     1     -12.848  46.848 -28.737  1.00  0.00     0.149 C 
BRANCH  25  26
HETATM   26  C35 UNL     1     -14.011  46.150 -28.077  1.00  0.00    -0.049 A 
HETATM   27  C36 UNL     1     -14.339  46.443 -26.749  1.00  0.00     0.007 A 
HETATM   28  C37 UNL     1     -15.432  45.826 -26.137  1.00  0.00     0.001 A 
HETATM   29  C38 UNL     1     -16.203  44.909 -26.848  1.00  0.00     0.000 A 
HETATM   30  C39 UNL     1     -15.884  44.607 -28.173  1.00  0.00     0.001 A 
HETATM   31  C40 UNL     1     -14.795  45.230 -28.785  1.00  0.00     0.007 A 
ENDBRANCH  25  26
ENDBRANCH  23  25
ENDBRANCH  22  23
ENDBRANCH  14  22
BRANCH   7  32
HETATM   32  O2  UNL     1     -10.230  47.300 -31.004  1.00  0.00    -0.362 OA
HETATM   33  H9  UNL     1      -9.750  47.787 -31.699  1.00  0.00     0.213 HD
ENDBRANCH   7  32
ENDBRANCH   5   7
ENDBRANCH   1   5
BRANCH   3  34
HETATM   34  C11 UNL     1      -5.132  47.974 -28.163  1.00  0.00     0.149 C 
BRANCH  34  35
HETATM   35  C12 UNL     1      -4.150  49.098 -28.278  1.00  0.00    -0.007 C 
HETATM   36  C13 UNL     1      -3.500  49.722 -27.286  1.00  0.00    -0.002 C 
BRANCH  36  37
HETATM   37  C14 UNL     1      -2.596  50.830 -27.528  1.00  0.00     0.005 C 
HETATM   38  C15 UNL     1      -1.300  50.892 -27.159  1.00  0.00    -0.055 C 
HETATM   39  C16 UNL     1      -0.579  49.768 -26.454  1.00  0.00     0.046 C 
BRANCH  38  40
HETATM   40  C17 UNL     1      -0.505  52.181 -27.398  1.00  0.00     0.155 C 
BRANCH  40  41
HETATM   41  O4  UNL     1      -1.402  53.296 -27.388  1.00  0.00    -0.386 OA
HETATM   42  C18 UNL     1      -1.004  54.337 -28.271  1.00  0.00     0.202 C 
ENDBRANCH  40  41
BRANCH  40  43
HETATM   43  C19 UNL     1       0.643  52.372 -26.361  1.00  0.00     0.044 C 
HETATM   44  C20 UNL     1       1.657  51.218 -26.391  1.00  0.00     0.015 C 
BRANCH  43  45
HETATM   45  C21 UNL     1       0.136  52.555 -24.909  1.00  0.00     0.131 C 
HETATM   46  C22 UNL     1      -1.249  53.176 -24.774  1.00  0.00     0.067 C 
HETATM   47  C23 UNL     1      -1.973  52.339 -23.739  1.00  0.00     0.153 C 
HETATM   48  C24 UNL     1      -0.952  51.301 -23.266  1.00  0.00     0.173 C 
HETATM   49  O8  UNL     1       0.143  51.326 -24.188  1.00  0.00    -0.374 OA
BRANCH  47  50
HETATM   50  O5  UNL     1      -3.097  51.702 -24.354  1.00  0.00    -0.393 OA
HETATM   51  H35 UNL     1      -3.734  52.392 -24.596  1.00  0.00     0.210 HD
ENDBRANCH  47  50
BRANCH  48  52
HETATM   52  C25 UNL     1      -0.383  51.596 -21.904  1.00  0.00     0.007 C 
HETATM   53  C26 UNL     1       0.228  52.749 -21.582  1.00  0.00    -0.001 C 
BRANCH  53  54
HETATM   54  C27 UNL     1       0.720  53.032 -20.253  1.00  0.00    -0.000 C 
HETATM   55  C28 UNL     1       0.333  52.339 -19.169  1.00  0.00     0.000 C 
BRANCH  55  56
HETATM   56  C29 UNL     1       0.837  52.615 -17.841  1.00  0.00     0.007 C 
HETATM   57  C30 UNL     1       0.862  51.691 -16.871  1.00  0.00     0.081 C 
BRANCH  57  58
HETATM   58  C31 UNL     1       1.409  52.041 -15.553  1.00  0.00     0.165 C 
HETATM   59  O6  UNL     1       0.990  51.705 -14.462  1.00  0.00    -0.647 OA
BRANCH  58  60
HETATM   60  O7  UNL     1       2.505  52.806 -15.698  1.00  0.00    -0.773 OA
HETATM   61  H43 UNL     1       2.791  52.988 -14.778  1.00  0.00     0.167 HD
ENDBRANCH  58  60
ENDBRANCH  57  58
ENDBRANCH  55  56
ENDBRANCH  53  54
ENDBRANCH  48  52
ENDBRANCH  43  45
ENDBRANCH  40  43
ENDBRANCH  38  40
ENDBRANCH  36  37
ENDBRANCH  34  35
ENDBRANCH   3  34
TORSDOF 23
ENDMDL
MODEL 4
REMARK minimizedAffinity -8.6427784
REMARK CNNscore 0.412403136
REMARK CNNaffinity 7.49013758
REMARK  23 active torsions:
REMARK  status: ('A' for Active; 'I' for Inactive)
REMARK    1  A    between atoms: C3_3  and  C4_4 
REMARK    2  A    between atoms: C5_5  and  C6_6 
REMARK    3  A    between atoms: C7_8  and  O2_9 
REMARK    4  A    between atoms: C7_8  and  C8_10 
REMARK    5  A    between atoms: C8_10  and  C10_12 
REMARK       I    between atoms: C10_12  and  N1_14 
REMARK    6  A    between atoms: N1_14  and  C11_15 
REMARK    7  A    between atoms: C11_15  and  C12_16 
REMARK    8  A    between atoms: C13_17  and  C14_18 
REMARK    9  A    between atoms: C15_19  and  C17_21 
REMARK   10  A    between atoms: C17_21  and  O4_22 
REMARK   11  A    between atoms: C17_21  and  C19_24 
REMARK   12  A    between atoms: C19_24  and  C21_26 
REMARK   13  A    between atoms: C23_28  and  O5_29 
REMARK   14  A    between atoms: C24_30  and  C25_31 
REMARK   15  A    between atoms: C26_32  and  C27_33 
REMARK   16  A    between atoms: C28_34  and  C29_35 
REMARK   17  A    between atoms: C30_36  and  C31_37 
REMARK   18  A    between atoms: C31_37  and  O7_39 
REMARK   19  A    between atoms: C32_41  and  O9_42 
REMARK   20  A    between atoms: O9_42  and  C33_43 
REMARK   21  A    between atoms: C33_43  and  C34_45 
REMARK   22  A    between atoms: C34_45  and  C35_46 
REMARK   23  A    between atoms: C41_52  and  O11_53 
ROOT
HETATM    1  C10 UNL     1      -0.972  51.187 -14.365  1.00  0.00     0.227 C 
HETATM    2  O3  UNL     1      -1.072  50.050 -14.821  1.00  0.00    -0.273 OA
HETATM    3  N1  UNL     1       0.041  52.051 -14.708  1.00  0.00    -0.357 N 
HETATM    4  H14 UNL     1       0.218  52.821 -14.066  1.00  0.00     0.162 HD
ENDROOT
BRANCH   1   5
HETATM    5  C8  UNL     1      -1.935  51.705 -13.300  1.00  0.00     0.139 C 
HETATM    6  C9  UNL     1      -3.146  50.764 -13.285  1.00  0.00     0.026 C 
BRANCH   5   7
HETATM    7  C7  UNL     1      -1.154  51.822 -11.957  1.00  0.00     0.204 C 
HETATM    8  O1  UNL     1      -0.357  53.029 -12.029  1.00  0.00    -0.342 OA
HETATM    9  C6  UNL     1       0.106  53.480 -10.755  1.00  0.00     0.158 C 
HETATM   10  C42 UNL     1      -1.093  54.105  -9.968  1.00  0.00     0.011 C 
HETATM   11  C41 UNL     1      -2.388  53.286 -10.267  1.00  0.00     0.163 C 
HETATM   12  C43 UNL     1      -0.782  54.022  -8.457  1.00  0.00     0.020 C 
HETATM   13  C44 UNL     1      -1.316  55.592 -10.319  1.00  0.00     0.020 C 
HETATM   14  C32 UNL     1      -2.029  51.841 -10.655  1.00  0.00     0.224 C 
BRANCH   9  15
HETATM   15  C5  UNL     1       1.294  54.398 -10.924  1.00  0.00     0.006 C 
HETATM   16  C4  UNL     1       1.827  55.199  -9.988  1.00  0.00    -0.002 C 
BRANCH  16  17
HETATM   17  C3  UNL     1       2.965  56.049 -10.255  1.00  0.00    -0.005 C 
HETATM   18  C2  UNL     1       4.258  55.700 -10.190  1.00  0.00    -0.031 C 
HETATM   19  C1  UNL     1       4.841  54.364  -9.867  1.00  0.00     0.036 C 
ENDBRANCH  16  17
ENDBRANCH   9  15
BRANCH  11  20
HETATM   20  O11 UNL     1      -3.172  53.858 -11.326  1.00  0.00    -0.392 OA
HETATM   21  H53 UNL     1      -3.656  54.622 -10.962  1.00  0.00     0.210 HD
ENDBRANCH  11  20
BRANCH  14  22
HETATM   22  O9  UNL     1      -3.216  51.030 -10.752  1.00  0.00    -0.307 OA
BRANCH  22  23
HETATM   23  C33 UNL     1      -3.361  50.091  -9.774  1.00  0.00     0.263 C 
HETATM   24  O10 UNL     1      -2.899  50.193  -8.645  1.00  0.00    -0.265 OA
BRANCH  23  25
HETATM   25  C34 UNL     1      -4.183  48.921 -10.266  1.00  0.00     0.149 C 
BRANCH  25  26
HETATM   26  C35 UNL     1      -5.570  48.901  -9.674  1.00  0.00    -0.049 A 
HETATM   27  C36 UNL     1      -6.518  49.846 -10.083  1.00  0.00     0.007 A 
HETATM   28  C37 UNL     1      -7.814  49.819  -9.565  1.00  0.00     0.001 A 
HETATM   29  C38 UNL     1      -8.171  48.847  -8.631  1.00  0.00     0.000 A 
HETATM   30  C39 UNL     1      -7.233  47.902  -8.214  1.00  0.00     0.001 A 
HETATM   31  C40 UNL     1      -5.940  47.927  -8.738  1.00  0.00     0.007 A 
ENDBRANCH  25  26
ENDBRANCH  23  25
ENDBRANCH  22  23
ENDBRANCH  14  22
BRANCH   7  32
HETATM   32  O2  UNL     1      -0.258  50.706 -11.810  1.00  0.00    -0.362 OA
HETATM   33  H9  UNL     1       0.114  50.502 -12.688  1.00  0.00     0.213 HD
ENDBRANCH   7  32
ENDBRANCH   5   7
ENDBRANCH   1   5
BRANCH   3  34
HETATM   34  C11 UNL     1       1.126  51.643 -15.567  1.00  0.00     0.149 C 
BRANCH  34  35
HETATM   35  C12 UNL     1       0.980  52.194 -16.951  1.00  0.00    -0.007 C 
HETATM   36  C13 UNL     1       0.183  51.747 -17.931  1.00  0.00    -0.002 C 
BRANCH  36  37
HETATM   37  C14 UNL     1       0.161  52.349 -19.250  1.00  0.00     0.005 C 
HETATM   38  C15 UNL     1      -0.080  51.707 -20.412  1.00  0.00    -0.055 C 
HETATM   39  C16 UNL     1      -0.405  50.236 -20.499  1.00  0.00     0.046 C 
BRANCH  38  40
HETATM   40  C17 UNL     1       0.037  52.470 -21.736  1.00  0.00     0.155 C 
BRANCH  40  41
HETATM   41  O4  UNL     1       1.341  53.053 -21.831  1.00  0.00    -0.386 OA
HETATM   42  C18 UNL     1       1.316  54.475 -21.811  1.00  0.00     0.202 C 
ENDBRANCH  40  41
BRANCH  40  43
HETATM   43  C19 UNL     1      -0.268  51.568 -22.971  1.00  0.00     0.044 C 
HETATM   44  C20 UNL     1       0.432  52.063 -24.245  1.00  0.00     0.015 C 
BRANCH  43  45
HETATM   45  C21 UNL     1      -1.781  51.414 -23.260  1.00  0.00     0.131 C 
HETATM   46  C22 UNL     1      -2.480  52.669 -23.770  1.00  0.00     0.067 C 
HETATM   47  C23 UNL     1      -3.347  52.211 -24.926  1.00  0.00     0.153 C 
HETATM   48  C24 UNL     1      -3.165  50.693 -24.997  1.00  0.00     0.173 C 
HETATM   49  O8  UNL     1      -2.039  50.357 -24.180  1.00  0.00    -0.374 OA
BRANCH  47  50
HETATM   50  O5  UNL     1      -2.891  52.835 -26.130  1.00  0.00    -0.393 OA
HETATM   51  H35 UNL     1      -3.066  53.786 -26.057  1.00  0.00     0.210 HD
ENDBRANCH  47  50
BRANCH  48  52
HETATM   52  C25 UNL     1      -4.341  49.922 -24.460  1.00  0.00     0.007 C 
HETATM   53  C26 UNL     1      -4.845  48.822 -25.046  1.00  0.00    -0.001 C 
BRANCH  53  54
HETATM   54  C27 UNL     1      -5.941  48.066 -24.484  1.00  0.00    -0.000 C 
HETATM   55  C28 UNL     1      -6.969  47.614 -25.220  1.00  0.00     0.000 C 
BRANCH  55  56
HETATM   56  C29 UNL     1      -8.058  46.845 -24.658  1.00  0.00     0.007 C 
HETATM   57  C30 UNL     1      -7.860  45.803 -23.839  1.00  0.00     0.081 C 
BRANCH  57  58
HETATM   58  C31 UNL     1      -9.018  45.084 -23.290  1.00  0.00     0.165 C 
HETATM   59  O6  UNL     1     -10.034  44.758 -23.872  1.00  0.00    -0.647 OA
BRANCH  58  60
HETATM   60  O7  UNL     1      -8.805  44.791 -21.994  1.00  0.00    -0.773 OA
HETATM   61  H43 UNL     1      -9.622  44.322 -21.720  1.00  0.00     0.167 HD
ENDBRANCH  58  60
ENDBRANCH  57  58
ENDBRANCH  55  56
ENDBRANCH  53  54
ENDBRANCH  48  52
ENDBRANCH  43  45
ENDBRANCH  40  43
ENDBRANCH  38  40
ENDBRANCH  36  37
ENDBRANCH  34  35
ENDBRANCH   3  34
TORSDOF 23
ENDMDL
MODEL 5
REMARK minimizedAffinity -8.56267548
REMARK CNNscore 0.326290369
REMARK CNNaffinity 7.55292177
REMARK  23 active torsions:
REMARK  status: ('A' for Active; 'I' for Inactive)
REMARK    1  A    between atoms: C3_3  and  C4_4 
REMARK    2  A    between atoms: C5_5  and  C6_6 
REMARK    3  A    between atoms: C7_8  and  O2_9 
REMARK    4  A    between atoms: C7_8  and  C8_10 
REMARK    5  A    between atoms: C8_10  and  C10_12 
REMARK       I    between atoms: C10_12  and  N1_14 
REMARK    6  A    between atoms: N1_14  and  C11_15 
REMARK    7  A    between atoms: C11_15  and  C12_16 
REMARK    8  A    between atoms: C13_17  and  C14_18 
REMARK    9  A    between atoms: C15_19  and  C17_21 
REMARK   10  A    between atoms: C17_21  and  O4_22 
REMARK   11  A    between atoms: C17_21  and  C19_24 
REMARK   12  A    between atoms: C19_24  and  C21_26 
REMARK   13  A    between atoms: C23_28  and  O5_29 
REMARK   14  A    between atoms: C24_30  and  C25_31 
REMARK   15  A    between atoms: C26_32  and  C27_33 
REMARK   16  A    between atoms: C28_34  and  C29_35 
REMARK   17  A    between atoms: C30_36  and  C31_37 
REMARK   18  A    between atoms: C31_37  and  O7_39 
REMARK   19  A    between atoms: C32_41  and  O9_42 
REMARK   20  A    between atoms: O9_42  and  C33_43 
REMARK   21  A    between atoms: C33_43  and  C34_45 
REMARK   22  A    between atoms: C34_45  and  C35_46 
REMARK   23  A    between atoms: C41_52  and  O11_53 
ROOT
HETATM    1  C10 UNL     1      -0.470  51.647 -14.270  1.00  0.00     0.227 C 
HETATM    2  O3  UNL     1      -0.616  50.527 -14.755  1.00  0.00    -0.273 OA
HETATM    3  N1  UNL     1       0.576  52.479 -14.594  1.00  0.00    -0.357 N 
HETATM    4  H14 UNL     1       0.784  53.225 -13.933  1.00  0.00     0.162 HD
ENDROOT
BRANCH   1   5
HETATM    5  C8  UNL     1      -1.409  52.175 -13.188  1.00  0.00     0.139 C 
HETATM    6  C9  UNL     1      -2.755  51.463 -13.366  1.00  0.00     0.026 C 
BRANCH   5   7
HETATM    7  C7  UNL     1      -0.716  51.975 -11.807  1.00  0.00     0.204 C 
HETATM    8  O1  UNL     1       0.151  53.114 -11.593  1.00  0.00    -0.342 OA
HETATM    9  C6  UNL     1       0.550  53.276 -10.231  1.00  0.00     0.158 C 
HETATM   10  C42 UNL     1      -0.663  53.817  -9.404  1.00  0.00     0.011 C 
HETATM   11  C41 UNL     1      -1.979  53.165  -9.932  1.00  0.00     0.163 C 
HETATM   12  C43 UNL     1      -0.461  53.421  -7.924  1.00  0.00     0.020 C 
HETATM   13  C44 UNL     1      -0.775  55.356  -9.465  1.00  0.00     0.020 C 
HETATM   14  C32 UNL     1      -1.677  51.801 -10.577  1.00  0.00     0.224 C 
BRANCH   9  15
HETATM   15  C5  UNL     1       1.798  54.124 -10.147  1.00  0.00     0.006 C 
HETATM   16  C4  UNL     1       2.027  55.278 -10.795  1.00  0.00    -0.002 C 
BRANCH  16  17
HETATM   17  C3  UNL     1       3.264  56.011 -10.652  1.00  0.00    -0.005 C 
HETATM   18  C2  UNL     1       3.699  56.641  -9.552  1.00  0.00    -0.031 C 
HETATM   19  C1  UNL     1       3.049  56.715  -8.209  1.00  0.00     0.036 C 
ENDBRANCH  16  17
ENDBRANCH   9  15
BRANCH  11  20
HETATM   20  O11 UNL     1      -2.654  53.984 -10.899  1.00  0.00    -0.392 OA
HETATM   21  H53 UNL     1      -3.117  54.695 -10.418  1.00  0.00     0.210 HD
ENDBRANCH  11  20
BRANCH  14  22
HETATM   22  O9  UNL     1      -2.899  51.109 -10.900  1.00  0.00    -0.307 OA
BRANCH  22  23
HETATM   23  C33 UNL     1      -3.239  50.100 -10.048  1.00  0.00     0.263 C 
HETATM   24  O10 UNL     1      -3.102  50.147  -8.833  1.00  0.00    -0.265 OA
BRANCH  23  25
HETATM   25  C34 UNL     1      -3.822  48.928 -10.805  1.00  0.00     0.149 C 
BRANCH  25  26
HETATM   26  C35 UNL     1      -5.331  48.936 -10.806  1.00  0.00    -0.049 A 
HETATM   27  C36 UNL     1      -6.034  47.971 -11.535  1.00  0.00     0.007 A 
HETATM   28  C37 UNL     1      -7.430  47.950 -11.519  1.00  0.00     0.001 A 
HETATM   29  C38 UNL     1      -8.133  48.897 -10.776  1.00  0.00     0.000 A 
HETATM   30  C39 UNL     1      -7.442  49.865 -10.048  1.00  0.00     0.001 A 
HETATM   31  C40 UNL     1      -6.047  49.881 -10.059  1.00  0.00     0.007 A 
ENDBRANCH  25  26
ENDBRANCH  23  25
ENDBRANCH  22  23
ENDBRANCH  14  22
BRANCH   7  32
HETATM   32  O2  UNL     1       0.102  50.792 -11.833  1.00  0.00    -0.362 OA
HETATM   33  H9  UNL     1       0.521  50.737 -12.712  1.00  0.00     0.213 HD
ENDBRANCH   7  32
ENDBRANCH   5   7
ENDBRANCH   1   5
BRANCH   3  34
HETATM   34  C11 UNL     1       1.641  52.052 -15.467  1.00  0.00     0.149 C 
BRANCH  34  35
HETATM   35  C12 UNL     1       1.443  52.537 -16.870  1.00  0.00    -0.007 C 
HETATM   36  C13 UNL     1       0.519  52.133 -17.753  1.00  0.00    -0.002 C 
BRANCH  36  37
HETATM   37  C14 UNL     1       0.456  52.657 -19.104  1.00  0.00     0.005 C 
HETATM   38  C15 UNL     1       0.080  51.974 -20.204  1.00  0.00    -0.055 C 
HETATM   39  C16 UNL     1      -0.374  50.535 -20.176  1.00  0.00     0.046 C 
BRANCH  38  40
HETATM   40  C17 UNL     1       0.167  52.646 -21.579  1.00  0.00     0.155 C 
BRANCH  40  41
HETATM   41  O4  UNL     1       1.515  53.066 -21.815  1.00  0.00    -0.386 OA
HETATM   42  C18 UNL     1       1.654  54.480 -21.871  1.00  0.00     0.202 C 
ENDBRANCH  40  41
BRANCH  40  43
HETATM   43  C19 UNL     1      -0.344  51.722 -22.726  1.00  0.00     0.044 C 
HETATM   44  C20 UNL     1       0.412  51.951 -24.044  1.00  0.00     0.015 C 
BRANCH  43  45
HETATM   45  C21 UNL     1      -1.863  51.854 -22.991  1.00  0.00     0.131 C 
HETATM   46  C22 UNL     1      -2.266  52.982 -23.934  1.00  0.00     0.067 C 
HETATM   47  C23 UNL     1      -3.282  52.379 -24.882  1.00  0.00     0.153 C 
HETATM   48  C24 UNL     1      -3.478  50.937 -24.408  1.00  0.00     0.173 C 
HETATM   49  O8  UNL     1      -2.422  50.641 -23.489  1.00  0.00    -0.374 OA
BRANCH  47  50
HETATM   50  O5  UNL     1      -2.759  52.410 -26.213  1.00  0.00    -0.393 OA
HETATM   51  H35 UNL     1      -2.694  53.338 -26.486  1.00  0.00     0.210 HD
ENDBRANCH  47  50
BRANCH  48  52
HETATM   52  C25 UNL     1      -4.773  50.717 -23.672  1.00  0.00     0.007 C 
HETATM   53  C26 UNL     1      -4.909  49.875 -22.633  1.00  0.00    -0.001 C 
BRANCH  53  54
HETATM   54  C27 UNL     1      -6.149  49.719 -21.907  1.00  0.00    -0.000 C 
HETATM   55  C28 UNL     1      -6.210  49.688 -20.566  1.00  0.00     0.000 C 
BRANCH  55  56
HETATM   56  C29 UNL     1      -7.454  49.546 -19.842  1.00  0.00     0.007 C 
HETATM   57  C30 UNL     1      -7.619  48.652 -18.856  1.00  0.00     0.081 C 
BRANCH  57  58
HETATM   58  C31 UNL     1      -8.906  48.581 -18.151  1.00  0.00     0.165 C 
HETATM   59  O6  UNL     1      -9.798  47.772 -18.314  1.00  0.00    -0.647 OA
BRANCH  58  60
HETATM   60  O7  UNL     1      -8.983  49.562 -17.234  1.00  0.00    -0.773 OA
HETATM   61  H43 UNL     1      -9.865  49.436 -16.825  1.00  0.00     0.167 HD
ENDBRANCH  58  60
ENDBRANCH  57  58
ENDBRANCH  55  56
ENDBRANCH  53  54
ENDBRANCH  48  52
ENDBRANCH  43  45
ENDBRANCH  40  43
ENDBRANCH  38  40
ENDBRANCH  36  37
ENDBRANCH  34  35
ENDBRANCH   3  34
TORSDOF 23
ENDMDL
MODEL 6
REMARK minimizedAffinity -8.56811142
REMARK CNNscore 0.242211908
REMARK CNNaffinity 6.77754354
REMARK  23 active torsions:
REMARK  status: ('A' for Active; 'I' for Inactive)
REMARK    1  A    between atoms: C3_3  and  C4_4 
REMARK    2  A    between atoms: C5_5  and  C6_6 
REMARK    3  A    between atoms: C7_8  and  O2_9 
REMARK    4  A    between atoms: C7_8  and  C8_10 
REMARK    5  A    between atoms: C8_10  and  C10_12 
REMARK       I    between atoms: C10_12  and  N1_14 
REMARK    6  A    between atoms: N1_14  and  C11_15 
REMARK    7  A    between atoms: C11_15  and  C12_16 
REMARK    8  A    between atoms: C13_17  and  C14_18 
REMARK    9  A    between atoms: C15_19  and  C17_21 
REMARK   10  A    between atoms: C17_21  and  O4_22 
REMARK   11  A    between atoms: C17_21  and  C19_24 
REMARK   12  A    between atoms: C19_24  and  C21_26 
REMARK   13  A    between atoms: C23_28  and  O5_29 
REMARK   14  A    between atoms: C24_30  and  C25_31 
REMARK   15  A    between atoms: C26_32  and  C27_33 
REMARK   16  A    between atoms: C28_34  and  C29_35 
REMARK   17  A    between atoms: C30_36  and  C31_37 
REMARK   18  A    between atoms: C31_37  and  O7_39 
REMARK   19  A    between atoms: C32_41  and  O9_42 
REMARK   20  A    between atoms: O9_42  and  C33_43 
REMARK   21  A    between atoms: C33_43  and  C34_45 
REMARK   22  A    between atoms: C34_45  and  C35_46 
REMARK   23  A    between atoms: C41_52  and  O11_53 
ROOT
HETATM    1  C10 UNL     1      -6.418  48.498 -24.332  1.00  0.00     0.227 C 
HETATM    2  O3  UNL     1      -6.548  47.621 -23.481  1.00  0.00    -0.273 OA
HETATM    3  N1  UNL     1      -6.803  48.341 -25.643  1.00  0.00    -0.357 N 
HETATM    4  H14 UNL     1      -6.382  48.974 -26.319  1.00  0.00     0.162 HD
ENDROOT
BRANCH   1   5
HETATM    5  C8  UNL     1      -5.730  49.822 -24.012  1.00  0.00     0.139 C 
HETATM    6  C9  UNL     1      -6.339  50.348 -22.707  1.00  0.00     0.026 C 
BRANCH   5   7
HETATM    7  C7  UNL     1      -4.192  49.574 -23.988  1.00  0.00     0.204 C 
HETATM    8  O1  UNL     1      -3.600  50.451 -24.977  1.00  0.00    -0.342 OA
HETATM    9  C6  UNL     1      -2.193  50.627 -24.810  1.00  0.00     0.158 C 
HETATM   10  C42 UNL     1      -1.938  51.553 -23.575  1.00  0.00     0.011 C 
HETATM   11  C41 UNL     1      -2.988  51.235 -22.466  1.00  0.00     0.163 C 
HETATM   12  C43 UNL     1      -0.522  51.260 -23.029  1.00  0.00     0.020 C 
HETATM   13  C44 UNL     1      -1.996  53.052 -23.942  1.00  0.00     0.020 C 
HETATM   14  C32 UNL     1      -3.486  49.785 -22.602  1.00  0.00     0.224 C 
BRANCH   9  15
HETATM   15  C5  UNL     1      -1.568  51.109 -26.098  1.00  0.00     0.006 C 
HETATM   16  C4  UNL     1      -0.314  50.874 -26.518  1.00  0.00    -0.002 C 
BRANCH  16  17
HETATM   17  C3  UNL     1       0.191  51.390 -27.769  1.00  0.00    -0.005 C 
HETATM   18  C2  UNL     1       1.453  51.753 -28.035  1.00  0.00    -0.031 C 
HETATM   19  C1  UNL     1       2.645  51.684 -27.137  1.00  0.00     0.036 C 
ENDBRANCH  16  17
ENDBRANCH   9  15
BRANCH  11  20
HETATM   20  O11 UNL     1      -4.125  52.110 -22.512  1.00  0.00    -0.392 OA
HETATM   21  H53 UNL     1      -3.864  52.962 -22.117  1.00  0.00     0.210 HD
ENDBRANCH  11  20
BRANCH  14  22
HETATM   22  O9  UNL     1      -4.312  49.422 -21.479  1.00  0.00    -0.307 OA
BRANCH  22  23
HETATM   23  C33 UNL     1      -3.732  49.579 -20.255  1.00  0.00     0.263 C 
HETATM   24  O10 UNL     1      -4.212  50.237 -19.342  1.00  0.00    -0.265 OA
BRANCH  23  25
HETATM   25  C34 UNL     1      -2.428  48.816 -20.174  1.00  0.00     0.149 C 
BRANCH  25  26
HETATM   26  C35 UNL     1      -1.478  49.407 -19.163  1.00  0.00    -0.049 A 
HETATM   27  C36 UNL     1      -0.852  50.631 -19.423  1.00  0.00     0.007 A 
HETATM   28  C37 UNL     1       0.006  51.202 -18.481  1.00  0.00     0.001 A 
HETATM   29  C38 UNL     1       0.247  50.551 -17.273  1.00  0.00     0.000 A 
HETATM   30  C39 UNL     1      -0.369  49.329 -17.004  1.00  0.00     0.001 A 
HETATM   31  C40 UNL     1      -1.232  48.762 -17.943  1.00  0.00     0.007 A 
ENDBRANCH  25  26
ENDBRANCH  23  25
ENDBRANCH  22  23
ENDBRANCH  14  22
BRANCH   7  32
HETATM   32  O2  UNL     1      -3.905  48.216 -24.369  1.00  0.00    -0.362 OA
HETATM   33  H9  UNL     1      -4.528  47.967 -25.077  1.00  0.00     0.213 HD
ENDBRANCH   7  32
ENDBRANCH   5   7
ENDBRANCH   1   5
BRANCH   3  34
HETATM   34  C11 UNL     1      -7.307  47.083 -26.138  1.00  0.00     0.149 C 
BRANCH  34  35
HETATM   35  C12 UNL     1      -6.948  46.863 -27.575  1.00  0.00    -0.007 C 
HETATM   36  C13 UNL     1      -6.733  47.791 -28.517  1.00  0.00    -0.002 C 
BRANCH  36  37
HETATM   37  C14 UNL     1      -6.426  47.446 -29.892  1.00  0.00     0.005 C 
HETATM   38  C15 UNL     1      -7.035  47.940 -30.989  1.00  0.00    -0.055 C 
HETATM   39  C16 UNL     1      -8.129  48.978 -30.939  1.00  0.00     0.046 C 
BRANCH  38  40
HETATM   40  C17 UNL     1      -6.663  47.392 -32.372  1.00  0.00     0.155 C 
BRANCH  40  41
HETATM   41  O4  UNL     1      -5.252  47.159 -32.423  1.00  0.00    -0.386 OA
HETATM   42  C18 UNL     1      -4.597  47.927 -33.424  1.00  0.00     0.202 C 
ENDBRANCH  40  41
BRANCH  40  43
HETATM   43  C19 UNL     1      -7.461  46.103 -32.735  1.00  0.00     0.044 C 
HETATM   44  C20 UNL     1      -8.877  46.104 -32.140  1.00  0.00     0.015 C 
BRANCH  43  45
HETATM   45  C21 UNL     1      -6.743  44.797 -32.316  1.00  0.00     0.131 C 
HETATM   46  C22 UNL     1      -7.189  44.205 -30.984  1.00  0.00     0.067 C 
HETATM   47  C23 UNL     1      -7.355  42.719 -31.233  1.00  0.00     0.153 C 
HETATM   48  C24 UNL     1      -6.934  42.499 -32.688  1.00  0.00     0.173 C 
HETATM   49  O8  UNL     1      -6.861  43.785 -33.312  1.00  0.00    -0.374 OA
BRANCH  47  50
HETATM   50  O5  UNL     1      -8.727  42.362 -31.041  1.00  0.00    -0.393 OA
HETATM   51  H35 UNL     1      -8.935  42.476 -30.101  1.00  0.00     0.210 HD
ENDBRANCH  47  50
BRANCH  48  52
HETATM   52  C25 UNL     1      -5.576  41.865 -32.831  1.00  0.00     0.007 C 
HETATM   53  C26 UNL     1      -4.787  42.023 -33.907  1.00  0.00    -0.001 C 
BRANCH  53  54
HETATM   54  C27 UNL     1      -3.464  41.448 -34.000  1.00  0.00    -0.000 C 
HETATM   55  C28 UNL     1      -2.881  40.789 -32.986  1.00  0.00     0.000 C 
BRANCH  55  56
HETATM   56  C29 UNL     1      -1.563  40.202 -33.086  1.00  0.00     0.007 C 
HETATM   57  C30 UNL     1      -1.367  38.895 -33.311  1.00  0.00     0.081 C 
BRANCH  57  58
HETATM   58  C31 UNL     1       0.002  38.377 -33.422  1.00  0.00     0.165 C 
HETATM   59  O6  UNL     1       0.849  38.683 -34.239  1.00  0.00    -0.647 OA
BRANCH  58  60
HETATM   60  O7  UNL     1       0.236  37.482 -32.445  1.00  0.00    -0.773 OA
HETATM   61  H43 UNL     1       1.160  37.194 -32.604  1.00  0.00     0.167 HD
ENDBRANCH  58  60
ENDBRANCH  57  58
ENDBRANCH  55  56
ENDBRANCH  53  54
ENDBRANCH  48  52
ENDBRANCH  43  45
ENDBRANCH  40  43
ENDBRANCH  38  40
ENDBRANCH  36  37
ENDBRANCH  34  35
ENDBRANCH   3  34
TORSDOF 23
ENDMDL
MODEL 7
REMARK minimizedAffinity -9.09324455
REMARK CNNscore 0.236125529
REMARK CNNaffinity 6.86039209
REMARK  23 active torsions:
REMARK  status: ('A' for Active; 'I' for Inactive)
REMARK    1  A    between atoms: C3_3  and  C4_4 
REMARK    2  A    between atoms: C5_5  and  C6_6 
REMARK    3  A    between atoms: C7_8  and  O2_9 
REMARK    4  A    between atoms: C7_8  and  C8_10 
REMARK    5  A    between atoms: C8_10  and  C10_12 
REMARK       I    between atoms: C10_12  and  N1_14 
REMARK    6  A    between atoms: N1_14  and  C11_15 
REMARK    7  A    between atoms: C11_15  and  C12_16 
REMARK    8  A    between atoms: C13_17  and  C14_18 
REMARK    9  A    between atoms: C15_19  and  C17_21 
REMARK   10  A    between atoms: C17_21  and  O4_22 
REMARK   11  A    between atoms: C17_21  and  C19_24 
REMARK   12  A    between atoms: C19_24  and  C21_26 
REMARK   13  A    between atoms: C23_28  and  O5_29 
REMARK   14  A    between atoms: C24_30  and  C25_31 
REMARK   15  A    between atoms: C26_32  and  C27_33 
REMARK   16  A    between atoms: C28_34  and  C29_35 
REMARK   17  A    between atoms: C30_36  and  C31_37 
REMARK   18  A    between atoms: C31_37  and  O7_39 
REMARK   19  A    between atoms: C32_41  and  O9_42 
REMARK   20  A    between atoms: O9_42  and  C33_43 
REMARK   21  A    between atoms: C33_43  and  C34_45 
REMARK   22  A    between atoms: C34_45  and  C35_46 
REMARK   23  A    between atoms: C41_52  and  O11_53 
ROOT
HETATM    1  C10 UNL     1      -3.642  49.870 -23.943  1.00  0.00     0.227 C 
HETATM    2  O3  UNL     1      -4.158  50.920 -24.322  1.00  0.00    -0.273 OA
HETATM    3  N1  UNL     1      -2.946  49.027 -24.777  1.00  0.00    -0.357 N 
HETATM    4  H14 UNL     1      -2.834  48.066 -24.461  1.00  0.00     0.162 HD
ENDROOT
BRANCH   1   5
HETATM    5  C8  UNL     1      -3.810  49.372 -22.509  1.00  0.00     0.139 C 
HETATM    6  C9  UNL     1      -3.161  47.985 -22.431  1.00  0.00     0.026 C 
BRANCH   5   7
HETATM    7  C7  UNL     1      -3.218  50.449 -21.551  1.00  0.00     0.204 C 
HETATM    8  O1  UNL     1      -3.375  49.953 -20.200  1.00  0.00    -0.342 OA
HETATM    9  C6  UNL     1      -2.548  50.626 -19.249  1.00  0.00     0.158 C 
HETATM   10  C42 UNL     1      -1.067  50.161 -19.439  1.00  0.00     0.011 C 
HETATM   11  C41 UNL     1      -0.783  49.956 -20.960  1.00  0.00     0.163 C 
HETATM   12  C43 UNL     1      -0.134  51.267 -18.896  1.00  0.00     0.020 C 
HETATM   13  C44 UNL     1      -0.755  48.863 -18.664  1.00  0.00     0.020 C 
HETATM   14  C32 UNL     1      -1.719  50.841 -21.803  1.00  0.00     0.224 C 
BRANCH   9  15
HETATM   15  C5  UNL     1      -3.094  50.436 -17.853  1.00  0.00     0.006 C 
HETATM   16  C4  UNL     1      -2.626  50.997 -16.726  1.00  0.00    -0.002 C 
BRANCH  16  17
HETATM   17  C3  UNL     1      -3.218  50.742 -15.433  1.00  0.00    -0.005 C 
HETATM   18  C2  UNL     1      -2.663  50.064 -14.418  1.00  0.00    -0.031 C 
HETATM   19  C1  UNL     1      -1.306  49.443 -14.352  1.00  0.00     0.036 C 
ENDBRANCH  16  17
ENDBRANCH   9  15
BRANCH  11  20
HETATM   20  O11 UNL     1      -0.951  48.592 -21.376  1.00  0.00    -0.392 OA
HETATM   21  H53 UNL     1      -0.165  48.092 -21.091  1.00  0.00     0.210 HD
ENDBRANCH  11  20
BRANCH  14  22
HETATM   22  O9  UNL     1      -1.343  50.800 -23.193  1.00  0.00    -0.307 OA
BRANCH  22  23
HETATM   23  C33 UNL     1      -0.693  51.907 -23.652  1.00  0.00     0.263 C 
HETATM   24  O10 UNL     1       0.101  52.565 -22.993  1.00  0.00    -0.265 OA
BRANCH  23  25
HETATM   25  C34 UNL     1      -1.071  52.198 -25.087  1.00  0.00     0.149 C 
BRANCH  25  26
HETATM   26  C35 UNL     1       0.075  51.975 -26.042  1.00  0.00    -0.049 A 
HETATM   27  C36 UNL     1      -0.119  52.140 -27.418  1.00  0.00     0.007 A 
HETATM   28  C37 UNL     1       0.943  51.966 -28.308  1.00  0.00     0.001 A 
HETATM   29  C38 UNL     1       2.206  51.623 -27.829  1.00  0.00     0.000 A 
HETATM   30  C39 UNL     1       2.410  51.453 -26.459  1.00  0.00     0.001 A 
HETATM   31  C40 UNL     1       1.350  51.634 -25.570  1.00  0.00     0.007 A 
ENDBRANCH  25  26
ENDBRANCH  23  25
ENDBRANCH  22  23
ENDBRANCH  14  22
BRANCH   7  32
HETATM   32  O2  UNL     1      -3.965  51.674 -21.664  1.00  0.00    -0.362 OA
HETATM   33  H9  UNL     1      -4.906  51.441 -21.775  1.00  0.00     0.213 HD
ENDBRANCH   7  32
ENDBRANCH   5   7
ENDBRANCH   1   5
BRANCH   3  34
HETATM   34  C11 UNL     1      -2.853  49.273 -26.195  1.00  0.00     0.149 C 
BRANCH  34  35
HETATM   35  C12 UNL     1      -4.101  48.868 -26.917  1.00  0.00    -0.007 C 
HETATM   36  C13 UNL     1      -5.090  48.084 -26.466  1.00  0.00    -0.002 C 
BRANCH  36  37
HETATM   37  C14 UNL     1      -6.236  47.734 -27.282  1.00  0.00     0.005 C 
HETATM   38  C15 UNL     1      -6.329  47.871 -28.621  1.00  0.00    -0.055 C 
HETATM   39  C16 UNL     1      -5.206  48.391 -29.485  1.00  0.00     0.046 C 
BRANCH  38  40
HETATM   40  C17 UNL     1      -7.653  47.550 -29.325  1.00  0.00     0.155 C 
BRANCH  40  41
HETATM   41  O4  UNL     1      -7.697  48.232 -30.582  1.00  0.00    -0.386 OA
HETATM   42  C18 UNL     1      -8.671  49.268 -30.618  1.00  0.00     0.202 C 
ENDBRANCH  40  41
BRANCH  40  43
HETATM   43  C19 UNL     1      -7.872  46.017 -29.507  1.00  0.00     0.044 C 
HETATM   44  C20 UNL     1      -7.445  45.213 -28.270  1.00  0.00     0.015 C 
BRANCH  43  45
HETATM   45  C21 UNL     1      -7.157  45.438 -30.751  1.00  0.00     0.131 C 
HETATM   46  C22 UNL     1      -7.833  45.725 -32.087  1.00  0.00     0.067 C 
HETATM   47  C23 UNL     1      -6.722  46.151 -33.025  1.00  0.00     0.153 C 
HETATM   48  C24 UNL     1      -5.431  46.029 -32.210  1.00  0.00     0.173 C 
HETATM   49  O8  UNL     1      -5.804  45.877 -30.837  1.00  0.00    -0.374 OA
BRANCH  47  50
HETATM   50  O5  UNL     1      -6.941  47.505 -33.429  1.00  0.00    -0.393 OA
HETATM   51  H35 UNL     1      -7.741  47.525 -33.977  1.00  0.00     0.210 HD
ENDBRANCH  47  50
BRANCH  48  52
HETATM   52  C25 UNL     1      -4.602  44.826 -32.574  1.00  0.00     0.007 C 
HETATM   53  C26 UNL     1      -4.988  43.558 -32.355  1.00  0.00    -0.001 C 
BRANCH  53  54
HETATM   54  C27 UNL     1      -4.200  42.417 -32.761  1.00  0.00    -0.000 C 
HETATM   55  C28 UNL     1      -4.053  42.050 -34.045  1.00  0.00     0.000 C 
BRANCH  55  56
HETATM   56  C29 UNL     1      -3.252  40.916 -34.450  1.00  0.00     0.007 C 
HETATM   57  C30 UNL     1      -2.541  40.185 -33.580  1.00  0.00     0.081 C 
BRANCH  57  58
HETATM   58  C31 UNL     1      -1.768  39.034 -34.064  1.00  0.00     0.165 C 
HETATM   59  O6  UNL     1      -0.614  38.752 -33.805  1.00  0.00    -0.647 OA
BRANCH  58  60
HETATM   60  O7  UNL     1      -2.534  38.267 -34.860  1.00  0.00    -0.773 OA
HETATM   61  H43 UNL     1      -1.938  37.538 -35.132  1.00  0.00     0.167 HD
ENDBRANCH  58  60
ENDBRANCH  57  58
ENDBRANCH  55  56
ENDBRANCH  53  54
ENDBRANCH  48  52
ENDBRANCH  43  45
ENDBRANCH  40  43
ENDBRANCH  38  40
ENDBRANCH  36  37
ENDBRANCH  34  35
ENDBRANCH   3  34
TORSDOF 23
ENDMDL
MODEL 8
REMARK minimizedAffinity -9.50426579
REMARK CNNscore 0.235868469
REMARK CNNaffinity 6.89457941
REMARK  23 active torsions:
REMARK  status: ('A' for Active; 'I' for Inactive)
REMARK    1  A    between atoms: C3_3  and  C4_4 
REMARK    2  A    between atoms: C5_5  and  C6_6 
REMARK    3  A    between atoms: C7_8  and  O2_9 
REMARK    4  A    between atoms: C7_8  and  C8_10 
REMARK    5  A    between atoms: C8_10  and  C10_12 
REMARK       I    between atoms: C10_12  and  N1_14 
REMARK    6  A    between atoms: N1_14  and  C11_15 
REMARK    7  A    between atoms: C11_15  and  C12_16 
REMARK    8  A    between atoms: C13_17  and  C14_18 
REMARK    9  A    between atoms: C15_19  and  C17_21 
REMARK   10  A    between atoms: C17_21  and  O4_22 
REMARK   11  A    between atoms: C17_21  and  C19_24 
REMARK   12  A    between atoms: C19_24  and  C21_26 
REMARK   13  A    between atoms: C23_28  and  O5_29 
REMARK   14  A    between atoms: C24_30  and  C25_31 
REMARK   15  A    between atoms: C26_32  and  C27_33 
REMARK   16  A    between atoms: C28_34  and  C29_35 
REMARK   17  A    between atoms: C30_36  and  C31_37 
REMARK   18  A    between atoms: C31_37  and  O7_39 
REMARK   19  A    between atoms: C32_41  and  O9_42 
REMARK   20  A    between atoms: O9_42  and  C33_43 
REMARK   21  A    between atoms: C33_43  and  C34_45 
REMARK   22  A    between atoms: C34_45  and  C35_46 
REMARK   23  A    between atoms: C41_52  and  O11_53 
ROOT
HETATM    1  C10 UNL     1      -5.347  49.066 -23.883  1.00  0.00     0.227 C 
HETATM    2  O3  UNL     1      -5.119  48.003 -23.308  1.00  0.00    -0.273 OA
HETATM    3  N1  UNL     1      -5.187  49.240 -25.238  1.00  0.00    -0.357 N 
HETATM    4  H14 UNL     1      -5.094  50.200 -25.564  1.00  0.00     0.162 HD
ENDROOT
BRANCH   1   5
HETATM    5  C8  UNL     1      -5.749  50.319 -23.110  1.00  0.00     0.139 C 
HETATM    6  C9  UNL     1      -7.033  49.986 -22.340  1.00  0.00     0.026 C 
BRANCH   5   7
HETATM    7  C7  UNL     1      -4.535  50.761 -22.240  1.00  0.00     0.204 C 
HETATM    8  O1  UNL     1      -4.324  49.731 -21.244  1.00  0.00    -0.342 OA
HETATM    9  C6  UNL     1      -3.036  49.790 -20.631  1.00  0.00     0.158 C 
HETATM   10  C42 UNL     1      -1.962  49.279 -21.647  1.00  0.00     0.011 C 
HETATM   11  C41 UNL     1      -2.347  49.751 -23.084  1.00  0.00     0.163 C 
HETATM   12  C43 UNL     1      -0.596  49.891 -21.264  1.00  0.00     0.020 C 
HETATM   13  C44 UNL     1      -1.811  47.742 -21.619  1.00  0.00     0.020 C 
HETATM   14  C32 UNL     1      -3.198  51.031 -23.016  1.00  0.00     0.224 C 
BRANCH   9  15
HETATM   15  C5  UNL     1      -3.051  49.059 -19.309  1.00  0.00     0.006 C 
HETATM   16  C4  UNL     1      -2.786  49.583 -18.100  1.00  0.00    -0.002 C 
BRANCH  16  17
HETATM   17  C3  UNL     1      -2.820  48.791 -16.892  1.00  0.00    -0.005 C 
HETATM   18  C2  UNL     1      -2.829  49.251 -15.633  1.00  0.00    -0.031 C 
HETATM   19  C1  UNL     1      -2.843  50.669 -15.166  1.00  0.00     0.036 C 
ENDBRANCH  16  17
ENDBRANCH   9  15
BRANCH  11  20
HETATM   20  O11 UNL     1      -3.081  48.757 -23.815  1.00  0.00    -0.392 OA
HETATM   21  H53 UNL     1      -2.446  48.087 -24.130  1.00  0.00     0.210 HD
ENDBRANCH  11  20
BRANCH  14  22
HETATM   22  O9  UNL     1      -3.402  51.577 -24.333  1.00  0.00    -0.307 OA
BRANCH  22  23
HETATM   23  C33 UNL     1      -2.271  51.988 -24.975  1.00  0.00     0.263 C 
HETATM   24  O10 UNL     1      -1.717  53.061 -24.778  1.00  0.00    -0.265 OA
BRANCH  23  25
HETATM   25  C34 UNL     1      -1.788  50.934 -25.945  1.00  0.00     0.149 C 
BRANCH  25  26
HETATM   26  C35 UNL     1      -0.451  51.281 -26.553  1.00  0.00    -0.049 A 
HETATM   27  C36 UNL     1       0.726  51.035 -25.838  1.00  0.00     0.007 A 
HETATM   28  C37 UNL     1       1.970  51.324 -26.403  1.00  0.00     0.001 A 
HETATM   29  C38 UNL     1       2.046  51.862 -27.687  1.00  0.00     0.000 A 
HETATM   30  C39 UNL     1       0.877  52.113 -28.407  1.00  0.00     0.001 A 
HETATM   31  C40 UNL     1      -0.365  51.819 -27.844  1.00  0.00     0.007 A 
ENDBRANCH  25  26
ENDBRANCH  23  25
ENDBRANCH  22  23
ENDBRANCH  14  22
BRANCH   7  32
HETATM   32  O2  UNL     1      -4.842  51.988 -21.552  1.00  0.00    -0.362 OA
HETATM   33  H9  UNL     1      -5.777  51.951 -21.279  1.00  0.00     0.213 HD
ENDBRANCH   7  32
ENDBRANCH   5   7
ENDBRANCH   1   5
BRANCH   3  34
HETATM   34  C11 UNL     1      -4.644  48.199 -26.076  1.00  0.00     0.149 C 
BRANCH  34  35
HETATM   35  C12 UNL     1      -5.563  47.855 -27.207  1.00  0.00    -0.007 C 
HETATM   36  C13 UNL     1      -6.896  47.720 -27.167  1.00  0.00    -0.002 C 
BRANCH  36  37
HETATM   37  C14 UNL     1      -7.673  47.344 -28.332  1.00  0.00     0.005 C 
HETATM   38  C15 UNL     1      -8.009  46.088 -28.691  1.00  0.00    -0.055 C 
HETATM   39  C16 UNL     1      -7.641  44.865 -27.887  1.00  0.00     0.046 C 
BRANCH  38  40
HETATM   40  C17 UNL     1      -8.748  45.850 -30.013  1.00  0.00     0.155 C 
BRANCH  40  41
HETATM   41  O4  UNL     1     -10.158  45.827 -29.768  1.00  0.00    -0.386 OA
HETATM   42  C18 UNL     1     -10.723  44.529 -29.900  1.00  0.00     0.202 C 
ENDBRANCH  40  41
BRANCH  40  43
HETATM   43  C19 UNL     1      -8.382  46.909 -31.097  1.00  0.00     0.044 C 
HETATM   44  C20 UNL     1      -9.551  47.200 -32.050  1.00  0.00     0.015 C 
BRANCH  43  45
HETATM   45  C21 UNL     1      -7.138  46.526 -31.935  1.00  0.00     0.131 C 
HETATM   46  C22 UNL     1      -6.525  47.659 -32.751  1.00  0.00     0.067 C 
HETATM   47  C23 UNL     1      -5.029  47.558 -32.531  1.00  0.00     0.153 C 
HETATM   48  C24 UNL     1      -4.829  46.325 -31.646  1.00  0.00     0.173 C 
HETATM   49  O8  UNL     1      -6.111  45.956 -31.128  1.00  0.00    -0.374 OA
BRANCH  47  50
HETATM   50  O5  UNL     1      -4.571  48.739 -31.868  1.00  0.00    -0.393 OA
HETATM   51  H35 UNL     1      -4.676  49.483 -32.480  1.00  0.00     0.210 HD
ENDBRANCH  47  50
BRANCH  48  52
HETATM   52  C25 UNL     1      -4.298  45.129 -32.392  1.00  0.00     0.007 C 
HETATM   53  C26 UNL     1      -4.954  43.961 -32.496  1.00  0.00    -0.001 C 
BRANCH  53  54
HETATM   54  C27 UNL     1      -4.450  42.844 -33.262  1.00  0.00    -0.000 C 
HETATM   55  C28 UNL     1      -3.317  42.196 -32.948  1.00  0.00     0.000 C 
BRANCH  55  56
HETATM   56  C29 UNL     1      -2.822  41.069 -33.708  1.00  0.00     0.007 C 
HETATM   57  C30 UNL     1      -2.355  39.954 -33.128  1.00  0.00     0.081 C 
BRANCH  57  58
HETATM   58  C31 UNL     1      -1.889  38.842 -33.967  1.00  0.00     0.165 C 
HETATM   59  O6  UNL     1      -2.556  38.124 -34.685  1.00  0.00    -0.647 OA
BRANCH  58  60
HETATM   60  O7  UNL     1      -0.554  38.713 -33.860  1.00  0.00    -0.773 OA
HETATM   61  H43 UNL     1      -0.342  37.955 -34.444  1.00  0.00     0.167 HD
ENDBRANCH  58  60
ENDBRANCH  57  58
ENDBRANCH  55  56
ENDBRANCH  53  54
ENDBRANCH  48  52
ENDBRANCH  43  45
ENDBRANCH  40  43
ENDBRANCH  38  40
ENDBRANCH  36  37
ENDBRANCH  34  35
ENDBRANCH   3  34
TORSDOF 23
ENDMDL
MODEL 9
REMARK minimizedAffinity -9.06693077
REMARK CNNscore 0.199615285
REMARK CNNaffinity 6.89509964
REMARK  23 active torsions:
REMARK  status: ('A' for Active; 'I' for Inactive)
REMARK    1  A    between atoms: C3_3  and  C4_4 
REMARK    2  A    between atoms: C5_5  and  C6_6 
REMARK    3  A    between atoms: C7_8  and  O2_9 
REMARK    4  A    between atoms: C7_8  and  C8_10 
REMARK    5  A    between atoms: C8_10  and  C10_12 
REMARK       I    between atoms: C10_12  and  N1_14 
REMARK    6  A    between atoms: N1_14  and  C11_15 
REMARK    7  A    between atoms: C11_15  and  C12_16 
REMARK    8  A    between atoms: C13_17  and  C14_18 
REMARK    9  A    between atoms: C15_19  and  C17_21 
REMARK   10  A    between atoms: C17_21  and  O4_22 
REMARK   11  A    between atoms: C17_21  and  C19_24 
REMARK   12  A    between atoms: C19_24  and  C21_26 
REMARK   13  A    between atoms: C23_28  and  O5_29 
REMARK   14  A    between atoms: C24_30  and  C25_31 
REMARK   15  A    between atoms: C26_32  and  C27_33 
REMARK   16  A    between atoms: C28_34  and  C29_35 
REMARK   17  A    between atoms: C30_36  and  C31_37 
REMARK   18  A    between atoms: C31_37  and  O7_39 
REMARK   19  A    between atoms: C32_41  and  O9_42 
REMARK   20  A    between atoms: O9_42  and  C33_43 
REMARK   21  A    between atoms: C33_43  and  C34_45 
REMARK   22  A    between atoms: C34_45  and  C35_46 
REMARK   23  A    between atoms: C41_52  and  O11_53 
ROOT
HETATM    1  C10 UNL     1      -0.757  51.198 -14.530  1.00  0.00     0.227 C 
HETATM    2  O3  UNL     1      -0.896  50.023 -14.865  1.00  0.00    -0.273 OA
HETATM    3  N1  UNL     1       0.277  51.990 -14.968  1.00  0.00    -0.357 N 
HETATM    4  H14 UNL     1       0.484  52.817 -14.410  1.00  0.00     0.162 HD
ENDROOT
BRANCH   1   5
HETATM    5  C8  UNL     1      -1.693  51.853 -13.516  1.00  0.00     0.139 C 
HETATM    6  C9  UNL     1      -3.013  51.074 -13.547  1.00  0.00     0.026 C 
BRANCH   5   7
HETATM    7  C7  UNL     1      -0.963  51.891 -12.140  1.00  0.00     0.204 C 
HETATM    8  O1  UNL     1      -0.277  53.164 -12.055  1.00  0.00    -0.342 OA
HETATM    9  C6  UNL     1       0.106  53.514 -10.724  1.00  0.00     0.158 C 
HETATM   10  C42 UNL     1      -1.166  53.943  -9.922  1.00  0.00     0.011 C 
HETATM   11  C41 UNL     1      -2.373  53.052 -10.354  1.00  0.00     0.163 C 
HETATM   12  C43 UNL     1      -0.891  53.725  -8.417  1.00  0.00     0.020 C 
HETATM   13  C44 UNL     1      -1.512  55.434 -10.123  1.00  0.00     0.020 C 
HETATM   14  C32 UNL     1      -1.874  51.694 -10.877  1.00  0.00     0.224 C 
BRANCH   9  15
HETATM   15  C5  UNL     1       1.211  54.544 -10.751  1.00  0.00     0.006 C 
HETATM   16  C4  UNL     1       1.903  55.004  -9.696  1.00  0.00    -0.002 C 
BRANCH  16  17
HETATM   17  C3  UNL     1       2.940  56.001  -9.828  1.00  0.00    -0.005 C 
HETATM   18  C2  UNL     1       4.253  55.777  -9.980  1.00  0.00    -0.031 C 
HETATM   19  C1  UNL     1       4.961  54.466 -10.086  1.00  0.00     0.036 C 
ENDBRANCH  16  17
ENDBRANCH   9  15
BRANCH  11  20
HETATM   20  O11 UNL     1      -3.175  53.664 -11.376  1.00  0.00    -0.392 OA
HETATM   21  H53 UNL     1      -3.735  54.340 -10.952  1.00  0.00     0.210 HD
ENDBRANCH  11  20
BRANCH  14  22
HETATM   22  O9  UNL     1      -2.979  50.798 -11.103  1.00  0.00    -0.307 OA
BRANCH  22  23
HETATM   23  C33 UNL     1      -3.671  50.434  -9.987  1.00  0.00     0.263 C 
HETATM   24  O10 UNL     1      -3.168  49.904  -9.005  1.00  0.00    -0.265 OA
BRANCH  23  25
HETATM   25  C34 UNL     1      -5.135  50.788 -10.120  1.00  0.00     0.149 C 
BRANCH  25  26
HETATM   26  C35 UNL     1      -5.964  49.632 -10.623  1.00  0.00    -0.049 A 
HETATM   27  C36 UNL     1      -7.347  49.620 -10.410  1.00  0.00     0.007 A 
HETATM   28  C37 UNL     1      -8.129  48.570 -10.898  1.00  0.00     0.001 A 
HETATM   29  C38 UNL     1      -7.532  47.524 -11.600  1.00  0.00     0.000 A 
HETATM   30  C39 UNL     1      -6.154  47.526 -11.816  1.00  0.00     0.001 A 
HETATM   31  C40 UNL     1      -5.374  48.578 -11.333  1.00  0.00     0.007 A 
ENDBRANCH  25  26
ENDBRANCH  23  25
ENDBRANCH  22  23
ENDBRANCH  14  22
BRANCH   7  32
HETATM   32  O2  UNL     1       0.026  50.848 -12.076  1.00  0.00    -0.362 OA
HETATM   33  H9  UNL     1       0.438  50.773 -12.957  1.00  0.00     0.213 HD
ENDBRANCH   7  32
ENDBRANCH   5   7
ENDBRANCH   1   5
BRANCH   3  34
HETATM   34  C11 UNL     1       1.340  51.463 -15.789  1.00  0.00     0.149 C 
BRANCH  34  35
HETATM   35  C12 UNL     1       0.923  51.321 -17.220  1.00  0.00    -0.007 C 
HETATM   36  C13 UNL     1       0.231  52.197 -17.962  1.00  0.00    -0.002 C 
BRANCH  36  37
HETATM   37  C14 UNL     1      -0.144  51.924 -19.336  1.00  0.00     0.005 C 
HETATM   38  C15 UNL     1      -0.605  50.751 -19.815  1.00  0.00    -0.055 C 
HETATM   39  C16 UNL     1      -0.834  49.532 -18.955  1.00  0.00     0.046 C 
BRANCH  38  40
HETATM   40  C17 UNL     1      -0.860  50.594 -21.319  1.00  0.00     0.155 C 
BRANCH  40  41
HETATM   41  O4  UNL     1      -1.185  49.230 -21.603  1.00  0.00    -0.386 OA
HETATM   42  C18 UNL     1      -2.339  48.778 -20.907  1.00  0.00     0.202 C 
ENDBRANCH  40  41
BRANCH  40  43
HETATM   43  C19 UNL     1      -1.970  51.558 -21.836  1.00  0.00     0.044 C 
HETATM   44  C20 UNL     1      -3.301  51.373 -21.091  1.00  0.00     0.015 C 
BRANCH  43  45
HETATM   45  C21 UNL     1      -2.228  51.438 -23.358  1.00  0.00     0.131 C 
HETATM   46  C22 UNL     1      -2.383  52.760 -24.101  1.00  0.00     0.067 C 
HETATM   47  C23 UNL     1      -1.550  52.621 -25.360  1.00  0.00     0.153 C 
HETATM   48  C24 UNL     1      -0.996  51.194 -25.327  1.00  0.00     0.173 C 
HETATM   49  O8  UNL     1      -1.212  50.680 -24.009  1.00  0.00    -0.374 OA
BRANCH  47  50
HETATM   50  O5  UNL     1      -0.488  53.579 -25.327  1.00  0.00    -0.393 OA
HETATM   51  H35 UNL     1      -0.883  54.462 -25.394  1.00  0.00     0.210 HD
ENDBRANCH  47  50
BRANCH  48  52
HETATM   52  C25 UNL     1      -1.690  50.258 -26.281  1.00  0.00     0.007 C 
HETATM   53  C26 UNL     1      -2.444  49.217 -25.890  1.00  0.00    -0.001 C 
BRANCH  53  54
HETATM   54  C27 UNL     1      -3.145  48.363 -26.822  1.00  0.00    -0.000 C 
HETATM   55  C28 UNL     1      -4.316  48.704 -27.386  1.00  0.00     0.000 C 
BRANCH  55  56
HETATM   56  C29 UNL     1      -5.009  47.854 -28.329  1.00  0.00     0.007 C 
HETATM   57  C30 UNL     1      -5.244  48.221 -29.597  1.00  0.00     0.081 C 
BRANCH  57  58
HETATM   58  C31 UNL     1      -5.935  47.294 -30.503  1.00  0.00     0.165 C 
HETATM   59  O6  UNL     1      -6.275  46.149 -30.276  1.00  0.00    -0.647 OA
BRANCH  58  60
HETATM   60  O7  UNL     1      -6.183  47.898 -31.679  1.00  0.00    -0.773 OA
HETATM   61  H43 UNL     1      -6.636  47.209 -32.209  1.00  0.00     0.167 HD
ENDBRANCH  58  60
ENDBRANCH  57  58
ENDBRANCH  55  56
ENDBRANCH  53  54
ENDBRANCH  48  52
ENDBRANCH  43  45
ENDBRANCH  40  43
ENDBRANCH  38  40
ENDBRANCH  36  37
ENDBRANCH  34  35
ENDBRANCH   3  34
TORSDOF 23
ENDMDL
