MODEL 1
REMARK minimizedAffinity -9.3698864
REMARK  8 active torsions:
REMARK  status: ('A' for Active; 'I' for Inactive)
REMARK    1  A    between atoms: C5_5  and  C6_6 
REMARK    2  A    between atoms: C6_6  and  O1_9 
REMARK    3  A    between atoms: C14_16  and  C15_17 
REMARK    4  A    between atoms: C16_19  and  O4_20 
REMARK    5  A    between atoms: C17_21  and  C18_22 
REMARK    6  A    between atoms: C19_24  and  O6_25 
REMARK    7  A    between atoms: C21_27  and  C22_28 
REMARK    8  A    between atoms: C22_28  and  C23_29 
ROOT
HETATM    1  C1  UNL     1       0.926   9.315  13.191  1.00  0.00     0.043 C 
HETATM    2  C2  UNL     1      -0.358   9.539  13.956  1.00  0.00    -0.087 C 
HETATM    3  C3  UNL     1      -0.649  10.753  14.461  1.00  0.00    -0.024 C 
HETATM    4  C4  UNL     1      -1.820  11.355  15.203  1.00  0.00     0.035 C 
HETATM    5  C5  UNL     1      -2.982  10.607  15.948  1.00  0.00     0.023 C 
HETATM    6  C9  UNL     1      -3.956   9.962  14.905  1.00  0.00     0.011 C 
HETATM    7  C10 UNL     1      -4.674   8.604  14.943  1.00  0.00     0.039 C 
HETATM    8  C11 UNL     1      -4.075   7.199  14.593  1.00  0.00     0.068 C 
HETATM    9  C12 UNL     1      -3.371   6.567  15.820  1.00  0.00     0.047 C 
HETATM   10  O2  UNL     1      -5.294   6.385  14.501  1.00  0.00    -0.338 OA
HETATM   11  C13 UNL     1      -5.371   5.289  13.680  1.00  0.00     0.095 A 
HETATM   12  C14 UNL     1      -6.619   4.621  13.686  1.00  0.00     0.070 A 
HETATM   13  C16 UNL     1      -6.836   3.536  12.832  1.00  0.00     0.097 A 
HETATM   14  C17 UNL     1      -5.828   3.162  11.937  1.00  0.00     0.069 A 
HETATM   15  C19 UNL     1      -4.603   3.852  11.920  1.00  0.00     0.091 A 
HETATM   16  C20 UNL     1      -4.314   4.880  12.833  1.00  0.00     0.015 A 
HETATM   17  C21 UNL     1      -2.959   5.580  13.016  1.00  0.00     0.031 C 
HETATM   18  C26 UNL     1      -3.313   7.093  13.213  1.00  0.00     0.029 C 
HETATM   19  C27 UNL     1      -2.179   8.106  12.934  1.00  0.00     0.012 C 
HETATM   20  C28 UNL     1      -1.214   8.317  14.087  1.00  0.00     0.034 C 
ENDROOT
BRANCH   5  21
HETATM   21  C6  UNL     1      -2.616   9.964  17.328  1.00  0.00     0.054 C 
HETATM   22  C7  UNL     1      -1.236  10.437  17.837  1.00  0.00     0.045 C 
HETATM   23  C8  UNL     1      -3.630  10.333  18.418  1.00  0.00     0.045 C 
BRANCH  21  24
HETATM   24  O1  UNL     1      -2.548   8.550  17.268  1.00  0.00    -0.390 OA
HETATM   25  H14 UNL     1      -1.757   8.314  16.749  1.00  0.00     0.210 HD
ENDBRANCH  21  24
ENDBRANCH   5  21
BRANCH  17  26
HETATM   26  C22 UNL     1      -1.799   5.274  12.033  1.00  0.00     0.014 C 
BRANCH  26  27
HETATM   27  C23 UNL     1      -0.598   4.528  12.674  1.00  0.00    -0.022 C 
HETATM   28  C24 UNL     1      -0.207   3.328  11.808  1.00  0.00     0.009 C 
HETATM   29  C25 UNL     1       0.618   5.448  12.838  1.00  0.00     0.009 C 
ENDBRANCH  26  27
ENDBRANCH  17  26
BRANCH  12  30
HETATM   30  C15 UNL     1      -7.677   5.105  14.617  1.00  0.00     0.275 C 
HETATM   31  O3  UNL     1      -7.752   4.802  15.801  1.00  0.00    -0.301 OA
ENDBRANCH  12  30
BRANCH  13  32
HETATM   32  O4  UNL     1      -8.020   2.849  12.894  1.00  0.00    -0.359 OA
HETATM   33  H23 UNL     1      -8.047   2.169  12.187  1.00  0.00     0.217 HD
ENDBRANCH  13  32
BRANCH  15  34
HETATM   34  O6  UNL     1      -3.713   3.510  10.940  1.00  0.00    -0.359 OA
HETATM   35  H25 UNL     1      -3.714   4.244  10.294  1.00  0.00     0.217 HD
ENDBRANCH  15  34
BRANCH  14  36
HETATM   36  C18 UNL     1      -6.041   2.044  10.991  1.00  0.00     0.275 C 
HETATM   37  O5  UNL     1      -6.142   0.886  11.389  1.00  0.00    -0.301 OA
ENDBRANCH  14  36
TORSDOF 8
ENDMDL
MODEL 2
REMARK minimizedAffinity -9.35006618
REMARK  8 active torsions:
REMARK  status: ('A' for Active; 'I' for Inactive)
REMARK    1  A    between atoms: C5_5  and  C6_6 
REMARK    2  A    between atoms: C6_6  and  O1_9 
REMARK    3  A    between atoms: C14_16  and  C15_17 
REMARK    4  A    between atoms: C16_19  and  O4_20 
REMARK    5  A    between atoms: C17_21  and  C18_22 
REMARK    6  A    between atoms: C19_24  and  O6_25 
REMARK    7  A    between atoms: C21_27  and  C22_28 
REMARK    8  A    between atoms: C22_28  and  C23_29 
ROOT
HETATM    1  C1  UNL     1       2.423   5.002  10.177  1.00  0.00     0.043 C 
HETATM    2  C2  UNL     1       1.902   5.963  11.220  1.00  0.00    -0.087 C 
HETATM    3  C3  UNL     1       2.542   7.124  11.459  1.00  0.00    -0.024 C 
HETATM    4  C4  UNL     1       2.297   8.321  12.350  1.00  0.00     0.035 C 
HETATM    5  C5  UNL     1       1.337   8.428  13.587  1.00  0.00     0.023 C 
HETATM    6  C9  UNL     1      -0.152   8.464  13.105  1.00  0.00     0.011 C 
HETATM    7  C10 UNL     1      -1.397   7.800  13.715  1.00  0.00     0.039 C 
HETATM    8  C11 UNL     1      -1.847   6.305  13.569  1.00  0.00     0.068 C 
HETATM    9  C12 UNL     1      -1.168   5.409  14.634  1.00  0.00     0.047 C 
HETATM   10  O2  UNL     1      -3.224   6.374  14.077  1.00  0.00    -0.338 OA
HETATM   11  C13 UNL     1      -4.201   5.519  13.633  1.00  0.00     0.095 A 
HETATM   12  C14 UNL     1      -5.481   5.724  14.202  1.00  0.00     0.070 A 
HETATM   13  C16 UNL     1      -6.569   4.961  13.768  1.00  0.00     0.097 A 
HETATM   14  C17 UNL     1      -6.385   4.041  12.732  1.00  0.00     0.069 A 
HETATM   15  C19 UNL     1      -5.114   3.866  12.155  1.00  0.00     0.091 A 
HETATM   16  C20 UNL     1      -3.980   4.543  12.634  1.00  0.00     0.015 A 
HETATM   17  C21 UNL     1      -2.527   4.304  12.196  1.00  0.00     0.031 C 
HETATM   18  C26 UNL     1      -1.898   5.736  12.097  1.00  0.00     0.029 C 
HETATM   19  C27 UNL     1      -0.629   5.870  11.225  1.00  0.00     0.012 C 
HETATM   20  C28 UNL     1       0.666   5.493  11.923  1.00  0.00     0.034 C 
ENDROOT
BRANCH   5  21
HETATM   21  C6  UNL     1       1.822   7.725  14.899  1.00  0.00     0.054 C 
HETATM   22  C7  UNL     1       3.243   8.177  15.304  1.00  0.00     0.045 C 
HETATM   23  C8  UNL     1       0.910   8.046  16.091  1.00  0.00     0.045 C 
BRANCH  21  24
HETATM   24  O1  UNL     1       1.881   6.315  14.772  1.00  0.00    -0.390 OA
HETATM   25  H14 UNL     1       2.622   6.103  14.175  1.00  0.00     0.210 HD
ENDBRANCH  21  24
ENDBRANCH   5  21
BRANCH  17  26
HETATM   26  C22 UNL     1      -2.229   3.346  11.013  1.00  0.00     0.014 C 
BRANCH  26  27
HETATM   27  C23 UNL     1      -1.731   1.939  11.440  1.00  0.00    -0.022 C 
HETATM   28  C24 UNL     1      -2.926   1.012  11.678  1.00  0.00     0.009 C 
HETATM   29  C25 UNL     1      -0.815   1.318  10.378  1.00  0.00     0.009 C 
ENDBRANCH  26  27
ENDBRANCH  17  26
BRANCH  12  30
HETATM   30  C15 UNL     1      -5.629   6.764  15.259  1.00  0.00     0.275 C 
HETATM   31  O3  UNL     1      -6.517   6.777  16.101  1.00  0.00    -0.301 OA
ENDBRANCH  12  30
BRANCH  13  32
HETATM   32  O4  UNL     1      -7.789   5.114  14.373  1.00  0.00    -0.359 OA
HETATM   33  H23 UNL     1      -8.460   4.566  13.910  1.00  0.00     0.217 HD
ENDBRANCH  13  32
BRANCH  15  34
HETATM   34  O6  UNL     1      -5.035   3.040  11.069  1.00  0.00    -0.359 OA
HETATM   35  H25 UNL     1      -4.904   3.615  10.289  1.00  0.00     0.217 HD
ENDBRANCH  15  34
BRANCH  14  36
HETATM   36  C18 UNL     1      -7.525   3.246  12.221  1.00  0.00     0.275 C 
HETATM   37  O5  UNL     1      -8.230   2.587  12.982  1.00  0.00    -0.301 OA
ENDBRANCH  14  36
TORSDOF 8
ENDMDL
MODEL 3
REMARK minimizedAffinity -9.16146564
REMARK  8 active torsions:
REMARK  status: ('A' for Active; 'I' for Inactive)
REMARK    1  A    between atoms: C5_5  and  C6_6 
REMARK    2  A    between atoms: C6_6  and  O1_9 
REMARK    3  A    between atoms: C14_16  and  C15_17 
REMARK    4  A    between atoms: C16_19  and  O4_20 
REMARK    5  A    between atoms: C17_21  and  C18_22 
REMARK    6  A    between atoms: C19_24  and  O6_25 
REMARK    7  A    between atoms: C21_27  and  C22_28 
REMARK    8  A    between atoms: C22_28  and  C23_29 
ROOT
HETATM    1  C1  UNL     1      -7.070   2.607  12.440  1.00  0.00     0.043 C 
HETATM    2  C2  UNL     1      -6.725   3.732  13.387  1.00  0.00    -0.087 C 
HETATM    3  C3  UNL     1      -7.446   3.926  14.508  1.00  0.00    -0.024 C 
HETATM    4  C4  UNL     1      -7.369   4.874  15.684  1.00  0.00     0.035 C 
HETATM    5  C5  UNL     1      -6.569   6.220  15.792  1.00  0.00     0.023 C 
HETATM    6  C9  UNL     1      -5.037   5.921  15.914  1.00  0.00     0.011 C 
HETATM    7  C10 UNL     1      -3.841   6.657  15.288  1.00  0.00     0.039 C 
HETATM    8  C11 UNL     1      -3.303   6.524  13.822  1.00  0.00     0.068 C 
HETATM    9  C12 UNL     1      -4.057   7.472  12.858  1.00  0.00     0.047 C 
HETATM   10  O2  UNL     1      -2.001   7.194  13.937  1.00  0.00    -0.338 OA
HETATM   11  C13 UNL     1      -0.936   6.847  13.144  1.00  0.00     0.095 A 
HETATM   12  C14 UNL     1       0.255   7.571  13.389  1.00  0.00     0.070 A 
HETATM   13  C16 UNL     1       1.424   7.250  12.693  1.00  0.00     0.097 A 
HETATM   14  C17 UNL     1       1.410   6.172  11.801  1.00  0.00     0.069 A 
HETATM   15  C19 UNL     1       0.228   5.442  11.588  1.00  0.00     0.091 A 
HETATM   16  C20 UNL     1      -0.988   5.800  12.194  1.00  0.00     0.015 A 
HETATM   17  C21 UNL     1      -2.365   5.185  11.903  1.00  0.00     0.031 C 
HETATM   18  C26 UNL     1      -3.049   5.052  13.307  1.00  0.00     0.029 C 
HETATM   19  C27 UNL     1      -4.211   4.039  13.412  1.00  0.00     0.012 C 
HETATM   20  C28 UNL     1      -5.559   4.564  12.951  1.00  0.00     0.034 C 
ENDROOT
BRANCH   5  21
HETATM   21  C6  UNL     1      -7.171   7.444  15.023  1.00  0.00     0.054 C 
HETATM   22  C7  UNL     1      -8.637   7.715  15.426  1.00  0.00     0.045 C 
HETATM   23  C8  UNL     1      -6.396   8.737  15.311  1.00  0.00     0.045 C 
BRANCH  21  24
HETATM   24  O1  UNL     1      -7.178   7.253  13.619  1.00  0.00    -0.390 OA
HETATM   25  H14 UNL     1      -7.847   6.573  13.417  1.00  0.00     0.210 HD
ENDBRANCH  21  24
ENDBRANCH   5  21
BRANCH  17  26
HETATM   26  C22 UNL     1      -2.472   3.947  10.974  1.00  0.00     0.014 C 
BRANCH  26  27
HETATM   27  C23 UNL     1      -2.240   2.590  11.690  1.00  0.00    -0.022 C 
HETATM   28  C24 UNL     1      -3.507   1.735  11.614  1.00  0.00     0.009 C 
HETATM   29  C25 UNL     1      -1.071   1.815  11.067  1.00  0.00     0.009 C 
ENDBRANCH  26  27
ENDBRANCH  17  26
BRANCH  12  30
HETATM   30  C15 UNL     1       0.224   8.667  14.397  1.00  0.00     0.275 C 
HETATM   31  O3  UNL     1       0.535   9.829  14.169  1.00  0.00    -0.301 OA
ENDBRANCH  12  30
BRANCH  13  32
HETATM   32  O4  UNL     1       2.554   8.000  12.881  1.00  0.00    -0.359 OA
HETATM   33  H23 UNL     1       3.302   7.606  12.381  1.00  0.00     0.217 HD
ENDBRANCH  13  32
BRANCH  15  34
HETATM   34  O6  UNL     1       0.319   4.331  10.797  1.00  0.00    -0.359 OA
HETATM   35  H25 UNL     1       0.253   3.558  11.392  1.00  0.00     0.217 HD
ENDBRANCH  15  34
BRANCH  14  36
HETATM   36  C18 UNL     1       2.642   5.780  11.078  1.00  0.00     0.275 C 
HETATM   37  O5  UNL     1       2.586   5.126  10.040  1.00  0.00    -0.301 OA
ENDBRANCH  14  36
TORSDOF 8
ENDMDL
MODEL 4
REMARK minimizedAffinity -9.10750866
REMARK  8 active torsions:
REMARK  status: ('A' for Active; 'I' for Inactive)
REMARK    1  A    between atoms: C5_5  and  C6_6 
REMARK    2  A    between atoms: C6_6  and  O1_9 
REMARK    3  A    between atoms: C14_16  and  C15_17 
REMARK    4  A    between atoms: C16_19  and  O4_20 
REMARK    5  A    between atoms: C17_21  and  C18_22 
REMARK    6  A    between atoms: C19_24  and  O6_25 
REMARK    7  A    between atoms: C21_27  and  C22_28 
REMARK    8  A    between atoms: C22_28  and  C23_29 
ROOT
HETATM    1  C1  UNL     1      -4.691   2.390  11.364  1.00  0.00     0.043 C 
HETATM    2  C2  UNL     1      -5.410   3.305  12.326  1.00  0.00    -0.087 C 
HETATM    3  C3  UNL     1      -6.639   2.991  12.778  1.00  0.00    -0.024 C 
HETATM    4  C4  UNL     1      -7.612   3.606  13.759  1.00  0.00     0.035 C 
HETATM    5  C5  UNL     1      -7.616   5.066  14.333  1.00  0.00     0.023 C 
HETATM    6  C9  UNL     1      -6.448   5.238  15.361  1.00  0.00     0.011 C 
HETATM    7  C10 UNL     1      -5.513   6.437  15.592  1.00  0.00     0.039 C 
HETATM    8  C11 UNL     1      -4.248   6.833  14.756  1.00  0.00     0.068 C 
HETATM    9  C12 UNL     1      -4.632   7.701  13.533  1.00  0.00     0.047 C 
HETATM   10  O2  UNL     1      -3.624   7.826  15.640  1.00  0.00    -0.338 OA
HETATM   11  C13 UNL     1      -2.267   8.028  15.658  1.00  0.00     0.095 A 
HETATM   12  C14 UNL     1      -1.817   9.005  16.578  1.00  0.00     0.070 A 
HETATM   13  C16 UNL     1      -0.448   9.239  16.736  1.00  0.00     0.097 A 
HETATM   14  C17 UNL     1       0.463   8.457  16.018  1.00  0.00     0.069 A 
HETATM   15  C19 UNL     1       0.004   7.469  15.129  1.00  0.00     0.091 A 
HETATM   16  C20 UNL     1      -1.363   7.276  14.871  1.00  0.00     0.015 A 
HETATM   17  C21 UNL     1      -1.965   6.352  13.802  1.00  0.00     0.031 C 
HETATM   18  C26 UNL     1      -3.197   5.681  14.500  1.00  0.00     0.029 C 
HETATM   19  C27 UNL     1      -3.707   4.362  13.875  1.00  0.00     0.012 C 
HETATM   20  C28 UNL     1      -4.640   4.538  12.690  1.00  0.00     0.034 C 
ENDROOT
BRANCH   5  21
HETATM   21  C6  UNL     1      -8.105   6.189  13.358  1.00  0.00     0.054 C 
HETATM   22  C7  UNL     1      -8.602   5.611  12.015  1.00  0.00     0.045 C 
HETATM   23  C8  UNL     1      -9.277   6.987  13.946  1.00  0.00     0.045 C 
BRANCH  21  24
HETATM   24  O1  UNL     1      -7.080   7.112  13.033  1.00  0.00    -0.390 OA
HETATM   25  H14 UNL     1      -6.438   6.651  12.461  1.00  0.00     0.210 HD
ENDBRANCH  21  24
ENDBRANCH   5  21
BRANCH  17  26
HETATM   26  C22 UNL     1      -1.038   5.402  12.998  1.00  0.00     0.014 C 
BRANCH  26  27
HETATM   27  C23 UNL     1      -0.732   5.882  11.553  1.00  0.00    -0.022 C 
HETATM   28  C24 UNL     1      -0.854   7.405  11.472  1.00  0.00     0.009 C 
HETATM   29  C25 UNL     1       0.675   5.464  11.106  1.00  0.00     0.009 C 
ENDBRANCH  26  27
ENDBRANCH  17  26
BRANCH  12  30
HETATM   30  C15 UNL     1      -2.834   9.762  17.360  1.00  0.00     0.275 C 
HETATM   31  O3  UNL     1      -2.734  10.033  18.550  1.00  0.00    -0.301 OA
ENDBRANCH  12  30
BRANCH  13  32
HETATM   32  O4  UNL     1      -0.022  10.236  17.573  1.00  0.00    -0.359 OA
HETATM   33  H23 UNL     1       0.958  10.225  17.631  1.00  0.00     0.217 HD
ENDBRANCH  13  32
BRANCH  15  34
HETATM   34  O6  UNL     1       0.950   6.665  14.555  1.00  0.00    -0.359 OA
HETATM   35  H25 UNL     1       0.871   5.791  14.987  1.00  0.00     0.217 HD
ENDBRANCH  15  34
BRANCH  14  36
HETATM   36  C18 UNL     1       1.920   8.652  16.193  1.00  0.00     0.275 C 
HETATM   37  O5  UNL     1       2.399   8.893  17.298  1.00  0.00    -0.301 OA
ENDBRANCH  14  36
TORSDOF 8
ENDMDL
MODEL 5
REMARK minimizedAffinity -9.10414886
REMARK  8 active torsions:
REMARK  status: ('A' for Active; 'I' for Inactive)
REMARK    1  A    between atoms: C5_5  and  C6_6 
REMARK    2  A    between atoms: C6_6  and  O1_9 
REMARK    3  A    between atoms: C14_16  and  C15_17 
REMARK    4  A    between atoms: C16_19  and  O4_20 
REMARK    5  A    between atoms: C17_21  and  C18_22 
REMARK    6  A    between atoms: C19_24  and  O6_25 
REMARK    7  A    between atoms: C21_27  and  C22_28 
REMARK    8  A    between atoms: C22_28  and  C23_29 
ROOT
HETATM    1  C1  UNL     1      -0.936  10.046  17.281  1.00  0.00     0.043 C 
HETATM    2  C2  UNL     1      -0.179   9.267  16.232  1.00  0.00    -0.087 C 
HETATM    3  C3  UNL     1       1.165   9.183  16.280  1.00  0.00    -0.024 C 
HETATM    4  C4  UNL     1       2.226   8.470  15.473  1.00  0.00     0.035 C 
HETATM    5  C5  UNL     1       2.094   7.840  14.041  1.00  0.00     0.023 C 
HETATM    6  C9  UNL     1       1.246   6.527  14.113  1.00  0.00     0.011 C 
HETATM    7  C10 UNL     1       0.189   5.986  13.135  1.00  0.00     0.039 C 
HETATM    8  C11 UNL     1      -1.311   6.425  13.015  1.00  0.00     0.068 C 
HETATM    9  C12 UNL     1      -1.463   7.658  12.090  1.00  0.00     0.047 C 
HETATM   10  O2  UNL     1      -1.853   5.354  12.170  1.00  0.00    -0.338 OA
HETATM   11  C13 UNL     1      -3.164   4.957  12.257  1.00  0.00     0.095 A 
HETATM   12  C14 UNL     1      -3.529   3.899  11.392  1.00  0.00     0.070 A 
HETATM   13  C16 UNL     1      -4.819   3.363  11.448  1.00  0.00     0.097 A 
HETATM   14  C17 UNL     1      -5.716   3.848  12.405  1.00  0.00     0.069 A 
HETATM   15  C19 UNL     1      -5.332   4.880  13.279  1.00  0.00     0.091 A 
HETATM   16  C20 UNL     1      -4.079   5.510  13.184  1.00  0.00     0.015 A 
HETATM   17  C21 UNL     1      -3.623   6.750  13.966  1.00  0.00     0.031 C 
HETATM   18  C26 UNL     1      -2.137   6.449  14.362  1.00  0.00     0.029 C 
HETATM   19  C27 UNL     1      -1.564   7.259  15.547  1.00  0.00     0.012 C 
HETATM   20  C28 UNL     1      -1.050   8.641  15.186  1.00  0.00     0.034 C 
ENDROOT
BRANCH   5  21
HETATM   21  C6  UNL     1       2.057   8.849  12.844  1.00  0.00     0.054 C 
HETATM   22  C7  UNL     1       3.215   9.870  12.914  1.00  0.00     0.045 C 
HETATM   23  C8  UNL     1       2.189   8.137  11.491  1.00  0.00     0.045 C 
BRANCH  21  24
HETATM   24  O1  UNL     1       0.864   9.612  12.812  1.00  0.00    -0.390 OA
HETATM   25  H14 UNL     1       0.889  10.232  13.563  1.00  0.00     0.210 HD
ENDBRANCH  21  24
ENDBRANCH   5  21
BRANCH  17  26
HETATM   26  C22 UNL     1      -4.524   7.323  15.091  1.00  0.00     0.014 C 
BRANCH  26  27
HETATM   27  C23 UNL     1      -5.272   8.628  14.707  1.00  0.00    -0.022 C 
HETATM   28  C24 UNL     1      -6.761   8.491  15.033  1.00  0.00     0.009 C 
HETATM   29  C25 UNL     1      -4.703   9.844  15.449  1.00  0.00     0.009 C 
ENDBRANCH  26  27
ENDBRANCH  17  26
BRANCH  12  30
HETATM   30  C15 UNL     1      -2.510   3.381  10.436  1.00  0.00     0.275 C 
HETATM   31  O3  UNL     1      -1.400   2.976  10.756  1.00  0.00    -0.301 OA
ENDBRANCH  12  30
BRANCH  13  32
HETATM   32  O4  UNL     1      -5.189   2.389  10.559  1.00  0.00    -0.359 OA
HETATM   33  H23 UNL     1      -6.092   2.068  10.774  1.00  0.00     0.217 HD
ENDBRANCH  13  32
BRANCH  15  34
HETATM   34  O6  UNL     1      -6.216   5.219  14.265  1.00  0.00    -0.359 OA
HETATM   35  H25 UNL     1      -5.847   4.873  15.102  1.00  0.00     0.217 HD
ENDBRANCH  15  34
BRANCH  14  36
HETATM   36  C18 UNL     1      -7.076   3.275  12.519  1.00  0.00     0.275 C 
HETATM   37  O5  UNL     1      -7.502   2.861  13.594  1.00  0.00    -0.301 OA
ENDBRANCH  14  36
TORSDOF 8
ENDMDL
MODEL 6
REMARK minimizedAffinity -8.51734161
REMARK  8 active torsions:
REMARK  status: ('A' for Active; 'I' for Inactive)
REMARK    1  A    between atoms: C5_5  and  C6_6 
REMARK    2  A    between atoms: C6_6  and  O1_9 
REMARK    3  A    between atoms: C14_16  and  C15_17 
REMARK    4  A    between atoms: C16_19  and  O4_20 
REMARK    5  A    between atoms: C17_21  and  C18_22 
REMARK    6  A    between atoms: C19_24  and  O6_25 
REMARK    7  A    between atoms: C21_27  and  C22_28 
REMARK    8  A    between atoms: C22_28  and  C23_29 
ROOT
HETATM    1  C1  UNL     1      -2.345   3.834  10.780  1.00  0.00     0.043 C 
HETATM    2  C2  UNL     1      -2.432   4.810  11.931  1.00  0.00    -0.087 C 
HETATM    3  C3  UNL     1      -3.465   4.759  12.793  1.00  0.00    -0.024 C 
HETATM    4  C4  UNL     1      -3.849   5.500  14.054  1.00  0.00     0.035 C 
HETATM    5  C5  UNL     1      -3.287   6.867  14.582  1.00  0.00     0.023 C 
HETATM    6  C9  UNL     1      -1.832   6.671  15.125  1.00  0.00     0.011 C 
HETATM    7  C10 UNL     1      -0.606   7.591  14.999  1.00  0.00     0.039 C 
HETATM    8  C11 UNL     1       0.347   7.745  13.764  1.00  0.00     0.068 C 
HETATM    9  C12 UNL     1      -0.208   8.780  12.754  1.00  0.00     0.047 C 
HETATM   10  O2  UNL     1       1.466   8.486  14.361  1.00  0.00    -0.338 OA
HETATM   11  C13 UNL     1       2.749   8.358  13.892  1.00  0.00     0.095 A 
HETATM   12  C14 UNL     1       3.720   9.120  14.584  1.00  0.00     0.070 A 
HETATM   13  C16 UNL     1       5.070   9.011  14.242  1.00  0.00     0.097 A 
HETATM   14  C17 UNL     1       5.449   8.099  13.251  1.00  0.00     0.069 A 
HETATM   15  C19 UNL     1       4.478   7.325  12.590  1.00  0.00     0.091 A 
HETATM   16  C20 UNL     1       3.104   7.483  12.838  1.00  0.00     0.015 A 
HETATM   17  C21 UNL     1       1.957   6.821  12.060  1.00  0.00     0.031 C 
HETATM   18  C26 UNL     1       0.918   6.404  13.156  1.00  0.00     0.029 C 
HETATM   19  C27 UNL     1      -0.090   5.300  12.763  1.00  0.00     0.012 C 
HETATM   20  C28 UNL     1      -1.301   5.790  11.988  1.00  0.00     0.034 C 
ENDROOT
BRANCH   5  21
HETATM   21  C6  UNL     1      -3.786   8.152  13.839  1.00  0.00     0.054 C 
HETATM   22  C7  UNL     1      -5.301   8.095  13.541  1.00  0.00     0.045 C 
HETATM   23  C8  UNL     1      -3.556   9.420  14.673  1.00  0.00     0.045 C 
BRANCH  21  24
HETATM   24  O1  UNL     1      -3.147   8.340  12.589  1.00  0.00    -0.390 OA
HETATM   25  H14 UNL     1      -3.474   7.649  11.983  1.00  0.00     0.210 HD
ENDBRANCH  21  24
ENDBRANCH   5  21
BRANCH  17  26
HETATM   26  C22 UNL     1       2.278   5.750  10.984  1.00  0.00     0.014 C 
BRANCH  26  27
HETATM   27  C23 UNL     1       1.832   6.135   9.548  1.00  0.00    -0.022 C 
HETATM   28  C24 UNL     1       0.939   7.378   9.594  1.00  0.00     0.009 C 
HETATM   29  C25 UNL     1       3.035   6.412   8.638  1.00  0.00     0.009 C 
ENDBRANCH  26  27
ENDBRANCH  17  26
BRANCH  12  30
HETATM   30  C15 UNL     1       3.262  10.028  15.674  1.00  0.00     0.275 C 
HETATM   31  O3  UNL     1       3.195   9.715  16.856  1.00  0.00    -0.301 OA
ENDBRANCH  12  30
BRANCH  13  32
HETATM   32  O4  UNL     1       5.996   9.804  14.866  1.00  0.00    -0.359 OA
HETATM   33  H23 UNL     1       6.899   9.557  14.570  1.00  0.00     0.217 HD
ENDBRANCH  13  32
BRANCH  15  34
HETATM   34  O6  UNL     1       4.931   6.372  11.721  1.00  0.00    -0.359 OA
HETATM   35  H25 UNL     1       4.791   5.508  12.158  1.00  0.00     0.217 HD
ENDBRANCH  15  34
BRANCH  14  36
HETATM   36  C18 UNL     1       6.875   7.928  12.893  1.00  0.00     0.275 C 
HETATM   37  O5  UNL     1       7.249   8.002  11.725  1.00  0.00    -0.301 OA
ENDBRANCH  14  36
TORSDOF 8
ENDMDL
MODEL 7
REMARK minimizedAffinity -8.22006893
REMARK  8 active torsions:
REMARK  status: ('A' for Active; 'I' for Inactive)
REMARK    1  A    between atoms: C5_5  and  C6_6 
REMARK    2  A    between atoms: C6_6  and  O1_9 
REMARK    3  A    between atoms: C14_16  and  C15_17 
REMARK    4  A    between atoms: C16_19  and  O4_20 
REMARK    5  A    between atoms: C17_21  and  C18_22 
REMARK    6  A    between atoms: C19_24  and  O6_25 
REMARK    7  A    between atoms: C21_27  and  C22_28 
REMARK    8  A    between atoms: C22_28  and  C23_29 
ROOT
HETATM    1  C1  UNL     1       1.543   3.740  10.821  1.00  0.00     0.043 C 
HETATM    2  C2  UNL     1       1.442   5.101  11.469  1.00  0.00    -0.087 C 
HETATM    3  C3  UNL     1       2.353   6.056  11.199  1.00  0.00    -0.024 C 
HETATM    4  C4  UNL     1       2.541   7.503  11.593  1.00  0.00     0.035 C 
HETATM    5  C5  UNL     1       1.865   8.280  12.778  1.00  0.00     0.023 C 
HETATM    6  C9  UNL     1       0.359   8.551  12.448  1.00  0.00     0.011 C 
HETATM    7  C10 UNL     1      -0.872   8.496  13.368  1.00  0.00     0.039 C 
HETATM    8  C11 UNL     1      -1.658   7.223  13.833  1.00  0.00     0.068 C 
HETATM    9  C12 UNL     1      -1.013   6.594  15.093  1.00  0.00     0.047 C 
HETATM   10  O2  UNL     1      -2.872   7.829  14.394  1.00  0.00    -0.338 OA
HETATM   11  C13 UNL     1      -4.077   7.173  14.390  1.00  0.00     0.095 A 
HETATM   12  C14 UNL     1      -5.158   7.897  14.948  1.00  0.00     0.070 A 
HETATM   13  C16 UNL     1      -6.446   7.356  14.928  1.00  0.00     0.097 A 
HETATM   14  C17 UNL     1      -6.658   6.124  14.300  1.00  0.00     0.069 A 
HETATM   15  C19 UNL     1      -5.581   5.427  13.724  1.00  0.00     0.091 A 
HETATM   16  C20 UNL     1      -4.258   5.893  13.814  1.00  0.00     0.015 A 
HETATM   17  C21 UNL     1      -2.996   5.136  13.374  1.00  0.00     0.031 C 
HETATM   18  C26 UNL     1      -2.096   6.222  12.691  1.00  0.00     0.029 C 
HETATM   19  C27 UNL     1      -1.005   5.703  11.727  1.00  0.00     0.012 C 
HETATM   20  C28 UNL     1       0.278   5.251  12.401  1.00  0.00     0.034 C 
ENDROOT
BRANCH   5  21
HETATM   21  C6  UNL     1       2.411   7.963  14.211  1.00  0.00     0.054 C 
HETATM   22  C7  UNL     1       3.950   8.074  14.280  1.00  0.00     0.045 C 
HETATM   23  C8  UNL     1       1.859   8.936  15.262  1.00  0.00     0.045 C 
BRANCH  21  24
HETATM   24  O1  UNL     1       2.093   6.649  14.636  1.00  0.00    -0.390 OA
HETATM   25  H14 UNL     1       2.626   6.030  14.104  1.00  0.00     0.210 HD
ENDBRANCH  21  24
ENDBRANCH   5  21
BRANCH  17  26
HETATM   26  C22 UNL     1      -3.133   3.790  12.615  1.00  0.00     0.014 C 
BRANCH  26  27
HETATM   27  C23 UNL     1      -3.067   3.919  11.070  1.00  0.00    -0.022 C 
HETATM   28  C24 UNL     1      -2.044   2.930  10.506  1.00  0.00     0.009 C 
HETATM   29  C25 UNL     1      -4.432   3.656  10.422  1.00  0.00     0.009 C 
ENDBRANCH  26  27
ENDBRANCH  17  26
BRANCH  12  30
HETATM   30  C15 UNL     1      -4.881   9.233  15.546  1.00  0.00     0.275 C 
HETATM   31  O3  UNL     1      -4.373  10.171  14.945  1.00  0.00    -0.301 OA
ENDBRANCH  12  30
BRANCH  13  32
HETATM   32  O4  UNL     1      -7.474   8.028  15.534  1.00  0.00    -0.359 OA
HETATM   33  H23 UNL     1      -8.321   7.559  15.370  1.00  0.00     0.217 HD
ENDBRANCH  13  32
BRANCH  15  34
HETATM   34  O6  UNL     1      -5.881   4.292  13.024  1.00  0.00    -0.359 OA
HETATM   35  H25 UNL     1      -5.769   4.509  12.077  1.00  0.00     0.217 HD
ENDBRANCH  15  34
BRANCH  14  36
HETATM   36  C18 UNL     1      -8.017   5.543  14.226  1.00  0.00     0.275 C 
HETATM   37  O5  UNL     1      -8.946   6.165  13.715  1.00  0.00    -0.301 OA
ENDBRANCH  14  36
TORSDOF 8
ENDMDL
MODEL 8
REMARK minimizedAffinity -7.70411873
REMARK  8 active torsions:
REMARK  status: ('A' for Active; 'I' for Inactive)
REMARK    1  A    between atoms: C5_5  and  C6_6 
REMARK    2  A    between atoms: C6_6  and  O1_9 
REMARK    3  A    between atoms: C14_16  and  C15_17 
REMARK    4  A    between atoms: C16_19  and  O4_20 
REMARK    5  A    between atoms: C17_21  and  C18_22 
REMARK    6  A    between atoms: C19_24  and  O6_25 
REMARK    7  A    between atoms: C21_27  and  C22_28 
REMARK    8  A    between atoms: C22_28  and  C23_29 
ROOT
HETATM    1  C1  UNL     1       1.243  10.360  16.519  1.00  0.00     0.043 C 
HETATM    2  C2  UNL     1       1.352   9.270  15.479  1.00  0.00    -0.087 C 
HETATM    3  C3  UNL     1       2.552   8.745  15.164  1.00  0.00    -0.024 C 
HETATM    4  C4  UNL     1       3.033   7.639  14.252  1.00  0.00     0.035 C 
HETATM    5  C5  UNL     1       2.260   6.949  13.074  1.00  0.00     0.023 C 
HETATM    6  C9  UNL     1       1.145   6.011  13.645  1.00  0.00     0.011 C 
HETATM    7  C10 UNL     1      -0.284   5.761  13.135  1.00  0.00     0.039 C 
HETATM    8  C11 UNL     1      -1.546   6.664  13.356  1.00  0.00     0.068 C 
HETATM    9  C12 UNL     1      -1.636   7.775  12.282  1.00  0.00     0.047 C 
HETATM   10  O2  UNL     1      -2.621   5.757  12.933  1.00  0.00    -0.338 OA
HETATM   11  C13 UNL     1      -3.884   5.835  13.463  1.00  0.00     0.095 A 
HETATM   12  C14 UNL     1      -4.803   4.879  12.969  1.00  0.00     0.070 A 
HETATM   13  C16 UNL     1      -6.097   4.816  13.493  1.00  0.00     0.097 A 
HETATM   14  C17 UNL     1      -6.447   5.668  14.546  1.00  0.00     0.069 A 
HETATM   15  C19 UNL     1      -5.516   6.594  15.048  1.00  0.00     0.091 A 
HETATM   16  C20 UNL     1      -4.241   6.753  14.479  1.00  0.00     0.015 A 
HETATM   17  C21 UNL     1      -3.216   7.841  14.833  1.00  0.00     0.031 C 
HETATM   18  C26 UNL     1      -1.835   7.100  14.847  1.00  0.00     0.029 C 
HETATM   19  C27 UNL     1      -0.695   7.786  15.634  1.00  0.00     0.012 C 
HETATM   20  C28 UNL     1       0.043   8.871  14.870  1.00  0.00     0.034 C 
ENDROOT
BRANCH   5  21
HETATM   21  C6  UNL     1       2.119   7.785  11.757  1.00  0.00     0.054 C 
HETATM   22  C7  UNL     1       1.590   6.931  10.584  1.00  0.00     0.045 C 
HETATM   23  C8  UNL     1       1.135   8.951  11.922  1.00  0.00     0.045 C 
BRANCH  21  24
HETATM   24  O1  UNL     1       3.354   8.326  11.322  1.00  0.00    -0.390 OA
HETATM   25  H14 UNL     1       3.904   7.587  11.002  1.00  0.00     0.210 HD
ENDBRANCH  21  24
ENDBRANCH   5  21
BRANCH  17  26
HETATM   26  C22 UNL     1      -3.489   8.794  16.026  1.00  0.00     0.014 C 
BRANCH  26  27
HETATM   27  C23 UNL     1      -3.788  10.261  15.616  1.00  0.00    -0.022 C 
HETATM   28  C24 UNL     1      -3.794  11.159  16.856  1.00  0.00     0.009 C 
HETATM   29  C25 UNL     1      -2.754  10.790  14.615  1.00  0.00     0.009 C 
ENDBRANCH  26  27
ENDBRANCH  17  26
BRANCH  12  30
HETATM   30  C15 UNL     1      -4.352   3.955  11.890  1.00  0.00     0.275 C 
HETATM   31  O3  UNL     1      -4.419   2.734  11.949  1.00  0.00    -0.301 OA
ENDBRANCH  12  30
BRANCH  13  32
HETATM   32  O4  UNL     1      -7.004   3.938  12.961  1.00  0.00    -0.359 OA
HETATM   33  H23 UNL     1      -7.836   3.963  13.481  1.00  0.00     0.217 HD
ENDBRANCH  13  32
BRANCH  15  34
HETATM   34  O6  UNL     1      -5.886   7.308  16.154  1.00  0.00    -0.359 OA
HETATM   35  H25 UNL     1      -5.377   6.945  16.905  1.00  0.00     0.217 HD
ENDBRANCH  15  34
BRANCH  14  36
HETATM   36  C18 UNL     1      -7.796   5.600  15.151  1.00  0.00     0.275 C 
HETATM   37  O5  UNL     1      -8.613   6.502  14.983  1.00  0.00    -0.301 OA
ENDBRANCH  14  36
TORSDOF 8
ENDMDL
MODEL 9
REMARK minimizedAffinity -7.61124945
REMARK  8 active torsions:
REMARK  status: ('A' for Active; 'I' for Inactive)
REMARK    1  A    between atoms: C5_5  and  C6_6 
REMARK    2  A    between atoms: C6_6  and  O1_9 
REMARK    3  A    between atoms: C14_16  and  C15_17 
REMARK    4  A    between atoms: C16_19  and  O4_20 
REMARK    5  A    between atoms: C17_21  and  C18_22 
REMARK    6  A    between atoms: C19_24  and  O6_25 
REMARK    7  A    between atoms: C21_27  and  C22_28 
REMARK    8  A    between atoms: C22_28  and  C23_29 
ROOT
HETATM    1  C1  UNL     1       1.693  11.492  14.898  1.00  0.00     0.043 C 
HETATM    2  C2  UNL     1       0.230  11.417  15.267  1.00  0.00    -0.087 C 
HETATM    3  C3  UNL     1      -0.437  12.525  15.644  1.00  0.00    -0.024 C 
HETATM    4  C4  UNL     1      -1.868  12.843  16.015  1.00  0.00     0.035 C 
HETATM    5  C5  UNL     1      -3.008  11.843  16.419  1.00  0.00     0.023 C 
HETATM    6  C9  UNL     1      -3.496  11.053  15.159  1.00  0.00     0.011 C 
HETATM    7  C10 UNL     1      -3.897   9.575  15.023  1.00  0.00     0.039 C 
HETATM    8  C11 UNL     1      -2.944   8.338  14.885  1.00  0.00     0.068 C 
HETATM    9  C12 UNL     1      -2.495   7.818  16.272  1.00  0.00     0.047 C 
HETATM   10  O2  UNL     1      -3.892   7.296  14.471  1.00  0.00    -0.338 OA
HETATM   11  C13 UNL     1      -3.507   6.239  13.685  1.00  0.00     0.095 A 
HETATM   12  C14 UNL     1      -4.540   5.329  13.354  1.00  0.00     0.070 A 
HETATM   13  C16 UNL     1      -4.279   4.257  12.496  1.00  0.00     0.097 A 
HETATM   14  C17 UNL     1      -3.006   4.134  11.929  1.00  0.00     0.069 A 
HETATM   15  C19 UNL     1      -1.997   5.061  12.242  1.00  0.00     0.091 A 
HETATM   16  C20 UNL     1      -2.195   6.091  13.177  1.00  0.00     0.015 A 
HETATM   17  C21 UNL     1      -1.121   7.046  13.718  1.00  0.00     0.031 C 
HETATM   18  C26 UNL     1      -1.824   8.446  13.776  1.00  0.00     0.029 C 
HETATM   19  C27 UNL     1      -0.894   9.681  13.805  1.00  0.00     0.012 C 
HETATM   20  C28 UNL     1      -0.355  10.041  15.178  1.00  0.00     0.034 C 
ENDROOT
BRANCH   5  21
HETATM   21  C6  UNL     1      -2.915  11.236  17.860  1.00  0.00     0.054 C 
HETATM   22  C7  UNL     1      -1.513  10.658  18.153  1.00  0.00     0.045 C 
HETATM   23  C8  UNL     1      -3.185  12.289  18.943  1.00  0.00     0.045 C 
BRANCH  21  24
HETATM   24  O1  UNL     1      -3.829  10.172  18.062  1.00  0.00    -0.390 OA
HETATM   25  H14 UNL     1      -3.520   9.413  17.531  1.00  0.00     0.210 HD
ENDBRANCH  21  24
ENDBRANCH   5  21
BRANCH  17  26
HETATM   26  C22 UNL     1       0.304   7.025  13.107  1.00  0.00     0.014 C 
BRANCH  26  27
HETATM   27  C23 UNL     1       0.594   8.190  12.122  1.00  0.00    -0.022 C 
HETATM   28  C24 UNL     1       2.090   8.512  12.121  1.00  0.00     0.009 C 
HETATM   29  C25 UNL     1       0.151   7.847  10.694  1.00  0.00     0.009 C 
ENDBRANCH  26  27
ENDBRANCH  17  26
BRANCH  12  30
HETATM   30  C15 UNL     1      -5.892   5.549  13.940  1.00  0.00     0.275 C 
HETATM   31  O3  UNL     1      -6.921   5.663  13.287  1.00  0.00    -0.301 OA
ENDBRANCH  12  30
BRANCH  13  32
HETATM   32  O4  UNL     1      -5.262   3.339  12.238  1.00  0.00    -0.359 OA
HETATM   33  H23 UNL     1      -4.948   2.696  11.566  1.00  0.00     0.217 HD
ENDBRANCH  13  32
BRANCH  15  34
HETATM   34  O6  UNL     1      -0.818   4.948  11.558  1.00  0.00    -0.359 OA
HETATM   35  H25 UNL     1      -0.792   5.691  10.922  1.00  0.00     0.217 HD
ENDBRANCH  15  34
BRANCH  14  36
HETATM   36  C18 UNL     1      -2.709   3.033  10.984  1.00  0.00     0.275 C 
HETATM   37  O5  UNL     1      -2.142   3.251   9.916  1.00  0.00    -0.301 OA
ENDBRANCH  14  36
TORSDOF 8
ENDMDL
