MODEL 1
REMARK minimizedAffinity -6.54186153
REMARK CNNscore 0.415439188
REMARK CNNaffinity 5.61705971
REMARK  4 active torsions:
REMARK  status: ('A' for Active; 'I' for Inactive)
REMARK    1  A    between atoms: C4_4  and  C5_5 
REMARK    2  A    between atoms: C5_5  and  C6_6 
REMARK    3  A    between atoms: C6_6  and  C7_7 
REMARK    4  A    between atoms: C7_7  and  C9_9 
ROOT
HETATM    1  C9  UNL     1      -0.205  10.653  17.592  1.00  0.00    -0.002 C 
HETATM    2  C10 UNL     1       0.418  11.361  16.359  1.00  0.00     0.006 C 
HETATM    3  C11 UNL     1       1.633  12.164  16.849  1.00  0.00     0.011 C 
HETATM    4  C12 UNL     1       1.869  11.703  18.301  1.00  0.00    -0.032 C 
HETATM    5  C13 UNL     1       2.753  10.417  18.232  1.00  0.00     0.016 C 
HETATM    6  C14 UNL     1       2.541  12.769  19.207  1.00  0.00     0.004 C 
HETATM    7  C15 UNL     1       3.968  13.141  18.760  1.00  0.00     0.007 C 
HETATM    8  C16 UNL     1       5.070  12.825  19.765  1.00  0.00     0.007 C 
HETATM    9  C17 UNL     1       4.769  13.536  21.096  1.00  0.00     0.010 C 
HETATM   10  C18 UNL     1       5.982  13.624  22.077  1.00  0.00     0.018 C 
HETATM   11  C19 UNL     1       5.726  14.707  23.148  1.00  0.00     0.023 C 
HETATM   12  C20 UNL     1       7.285  14.023  21.350  1.00  0.00     0.023 C 
HETATM   13  C21 UNL     1       6.227  12.289  22.790  1.00  0.00     0.135 C 
HETATM   14  O1  UNL     1       7.327  11.997  23.267  1.00  0.00    -0.297 OA
HETATM   15  C22 UNL     1       5.082  11.313  22.892  1.00  0.00     0.080 C 
HETATM   16  C23 UNL     1       3.768  12.060  22.968  1.00  0.00     0.018 C 
HETATM   17  C24 UNL     1       3.519  12.867  21.702  1.00  0.00    -0.026 A 
HETATM   18  C25 UNL     1       2.222  13.634  21.638  1.00  0.00     0.021 A 
HETATM   19  C26 UNL     1       2.388  12.437  20.718  1.00  0.00    -0.027 A 
HETATM   20  C27 UNL     1       1.566  11.187  21.082  1.00  0.00     0.011 C 
HETATM   21  C28 UNL     1       0.458  10.715  20.127  1.00  0.00     0.011 C 
HETATM   22  C29 UNL     1       0.396  11.456  18.791  1.00  0.00    -0.032 C 
HETATM   23  C30 UNL     1      -0.428  12.760  19.009  1.00  0.00     0.016 C 
ENDROOT
BRANCH   1  24
HETATM   24  C7  UNL     1      -1.746  10.491  17.462  1.00  0.00    -0.014 C 
HETATM   25  C8  UNL     1      -2.486  10.860  18.753  1.00  0.00     0.010 C 
BRANCH  24  26
HETATM   26  C6  UNL     1      -2.171   9.071  17.002  1.00  0.00     0.008 C 
BRANCH  26  27
HETATM   27  C5  UNL     1      -1.693   8.664  15.603  1.00  0.00     0.028 C 
BRANCH  27  28
HETATM   28  C4  UNL     1      -2.705   7.780  14.927  1.00  0.00    -0.025 C 
HETATM   29  C2  UNL     1      -2.783   7.469  13.618  1.00  0.00    -0.091 C 
HETATM   30  C1  UNL     1      -3.890   6.587  13.102  1.00  0.00     0.042 C 
HETATM   31  C3  UNL     1      -1.815   7.927  12.561  1.00  0.00     0.042 C 
ENDBRANCH  27  28
ENDBRANCH  26  27
ENDBRANCH  24  26
ENDBRANCH   1  24
TORSDOF 4
ENDMDL
MODEL 2
REMARK minimizedAffinity -6.88763905
REMARK CNNscore 0.410265923
REMARK CNNaffinity 6.32286835
REMARK  4 active torsions:
REMARK  status: ('A' for Active; 'I' for Inactive)
REMARK    1  A    between atoms: C4_4  and  C5_5 
REMARK    2  A    between atoms: C5_5  and  C6_6 
REMARK    3  A    between atoms: C6_6  and  C7_7 
REMARK    4  A    between atoms: C7_7  and  C9_9 
ROOT
HETATM    1  C9  UNL     1      -2.743  12.003  17.620  1.00  0.00    -0.002 C 
HETATM    2  C10 UNL     1      -2.866  10.921  18.726  1.00  0.00     0.006 C 
HETATM    3  C11 UNL     1      -2.546   9.563  18.084  1.00  0.00     0.011 C 
HETATM    4  C12 UNL     1      -1.980   9.892  16.689  1.00  0.00    -0.032 C 
HETATM    5  C13 UNL     1      -0.451  10.158  16.871  1.00  0.00     0.016 C 
HETATM    6  C14 UNL     1      -2.208   8.782  15.629  1.00  0.00     0.004 C 
HETATM    7  C15 UNL     1      -1.485   7.461  15.958  1.00  0.00     0.007 C 
HETATM    8  C16 UNL     1      -0.431   7.025  14.948  1.00  0.00     0.007 C 
HETATM    9  C17 UNL     1      -1.076   6.901  13.556  1.00  0.00     0.010 C 
HETATM   10  C18 UNL     1      -0.228   6.101  12.514  1.00  0.00     0.018 C 
HETATM   11  C19 UNL     1      -1.118   5.653  11.333  1.00  0.00     0.023 C 
HETATM   12  C20 UNL     1       0.373   4.816  13.124  1.00  0.00     0.023 C 
HETATM   13  C21 UNL     1       0.923   6.947  11.958  1.00  0.00     0.135 C 
HETATM   14  O1  UNL     1       1.931   6.432  11.466  1.00  0.00    -0.297 OA
HETATM   15  C22 UNL     1       0.807   8.448  12.030  1.00  0.00     0.080 C 
HETATM   16  C23 UNL     1      -0.645   8.862  11.927  1.00  0.00     0.018 C 
HETATM   17  C24 UNL     1      -1.457   8.322  13.096  1.00  0.00    -0.026 A 
HETATM   18  C25 UNL     1      -2.917   8.694  13.129  1.00  0.00     0.021 A 
HETATM   19  C26 UNL     1      -2.004   9.303  14.179  1.00  0.00    -0.027 A 
HETATM   20  C27 UNL     1      -1.686  10.799  14.009  1.00  0.00     0.011 C 
HETATM   21  C28 UNL     1      -2.186  11.796  15.067  1.00  0.00     0.011 C 
HETATM   22  C29 UNL     1      -2.821  11.162  16.304  1.00  0.00    -0.032 C 
HETATM   23  C30 UNL     1      -4.312  10.858  15.969  1.00  0.00     0.016 C 
ENDROOT
BRANCH   1  24
HETATM   24  C7  UNL     1      -3.725  13.188  17.843  1.00  0.00    -0.014 C 
HETATM   25  C8  UNL     1      -3.084  14.548  17.540  1.00  0.00     0.010 C 
BRANCH  24  26
HETATM   26  C6  UNL     1      -4.343  13.205  19.267  1.00  0.00     0.008 C 
BRANCH  26  27
HETATM   27  C5  UNL     1      -5.702  13.904  19.384  1.00  0.00     0.028 C 
BRANCH  27  28
HETATM   28  C4  UNL     1      -6.453  13.417  20.594  1.00  0.00    -0.025 C 
HETATM   29  C2  UNL     1      -6.230  13.735  21.884  1.00  0.00    -0.091 C 
HETATM   30  C1  UNL     1      -7.063  13.125  22.981  1.00  0.00     0.042 C 
HETATM   31  C3  UNL     1      -5.184  14.703  22.368  1.00  0.00     0.042 C 
ENDBRANCH  27  28
ENDBRANCH  26  27
ENDBRANCH  24  26
ENDBRANCH   1  24
TORSDOF 4
ENDMDL
MODEL 3
REMARK minimizedAffinity -6.9388814
REMARK CNNscore 0.396980882
REMARK CNNaffinity 5.43326187
REMARK  4 active torsions:
REMARK  status: ('A' for Active; 'I' for Inactive)
REMARK    1  A    between atoms: C4_4  and  C5_5 
REMARK    2  A    between atoms: C5_5  and  C6_6 
REMARK    3  A    between atoms: C6_6  and  C7_7 
REMARK    4  A    between atoms: C7_7  and  C9_9 
ROOT
HETATM    1  C9  UNL     1       5.293   7.596  12.587  1.00  0.00    -0.002 C 
HETATM    2  C10 UNL     1       6.605   7.035  11.975  1.00  0.00     0.006 C 
HETATM    3  C11 UNL     1       7.779   7.700  12.709  1.00  0.00     0.011 C 
HETATM    4  C12 UNL     1       7.151   8.429  13.912  1.00  0.00    -0.032 C 
HETATM    5  C13 UNL     1       7.031   7.383  15.066  1.00  0.00     0.016 C 
HETATM    6  C14 UNL     1       7.949   9.670  14.395  1.00  0.00     0.004 C 
HETATM    7  C15 UNL     1       9.351   9.325  14.934  1.00  0.00     0.007 C 
HETATM    8  C16 UNL     1       9.587   9.662  16.401  1.00  0.00     0.007 C 
HETATM    9  C17 UNL     1       9.325  11.161  16.631  1.00  0.00     0.010 C 
HETATM   10  C18 UNL     1       9.892  11.723  17.975  1.00  0.00     0.018 C 
HETATM   11  C19 UNL     1       9.980  13.264  17.914  1.00  0.00     0.023 C 
HETATM   12  C20 UNL     1      11.322  11.212  18.256  1.00  0.00     0.023 C 
HETATM   13  C21 UNL     1       9.007  11.336  19.165  1.00  0.00     0.135 C 
HETATM   14  O1  UNL     1       9.445  11.301  20.318  1.00  0.00    -0.297 OA
HETATM   15  C22 UNL     1       7.565  10.983  18.899  1.00  0.00     0.080 C 
HETATM   16  C23 UNL     1       7.052  11.762  17.707  1.00  0.00     0.018 C 
HETATM   17  C24 UNL     1       7.813  11.398  16.441  1.00  0.00    -0.026 A 
HETATM   18  C25 UNL     1       7.373  12.083  15.172  1.00  0.00     0.021 A 
HETATM   19  C26 UNL     1       7.099  10.596  15.309  1.00  0.00    -0.027 A 
HETATM   20  C27 UNL     1       5.629  10.199  15.538  1.00  0.00     0.011 C 
HETATM   21  C28 UNL     1       4.896   9.387  14.459  1.00  0.00     0.011 C 
HETATM   22  C29 UNL     1       5.777   8.895  13.310  1.00  0.00    -0.032 C 
HETATM   23  C30 UNL     1       5.897  10.053  12.275  1.00  0.00     0.016 C 
ENDROOT
BRANCH   1  24
HETATM   24  C7  UNL     1       4.142   7.673  11.543  1.00  0.00    -0.014 C 
HETATM   25  C8  UNL     1       2.760   7.477  12.177  1.00  0.00     0.010 C 
BRANCH  24  26
HETATM   26  C6  UNL     1       4.324   6.677  10.365  1.00  0.00     0.008 C 
BRANCH  26  27
HETATM   27  C5  UNL     1       3.046   5.967   9.904  1.00  0.00     0.028 C 
BRANCH  27  28
HETATM   28  C4  UNL     1       2.815   6.181   8.433  1.00  0.00    -0.025 C 
HETATM   29  C2  UNL     1       2.007   7.088   7.850  1.00  0.00    -0.091 C 
HETATM   30  C1  UNL     1       1.869   7.143   6.351  1.00  0.00     0.042 C 
HETATM   31  C3  UNL     1       1.193   8.119   8.584  1.00  0.00     0.042 C 
ENDBRANCH  27  28
ENDBRANCH  26  27
ENDBRANCH  24  26
ENDBRANCH   1  24
TORSDOF 4
ENDMDL
MODEL 4
REMARK minimizedAffinity -8.47594357
REMARK CNNscore 0.392207205
REMARK CNNaffinity 7.10128593
REMARK  4 active torsions:
REMARK  status: ('A' for Active; 'I' for Inactive)
REMARK    1  A    between atoms: C4_4  and  C5_5 
REMARK    2  A    between atoms: C5_5  and  C6_6 
REMARK    3  A    between atoms: C6_6  and  C7_7 
REMARK    4  A    between atoms: C7_7  and  C9_9 
ROOT
HETATM    1  C9  UNL     1       0.166   7.194  13.066  1.00  0.00    -0.002 C 
HETATM    2  C10 UNL     1      -0.064   8.492  12.247  1.00  0.00     0.006 C 
HETATM    3  C11 UNL     1      -1.576   8.761  12.218  1.00  0.00     0.011 C 
HETATM    4  C12 UNL     1      -2.186   7.781  13.238  1.00  0.00    -0.032 C 
HETATM    5  C13 UNL     1      -2.096   8.467  14.639  1.00  0.00     0.016 C 
HETATM    6  C14 UNL     1      -3.652   7.373  12.934  1.00  0.00     0.004 C 
HETATM    7  C15 UNL     1      -4.643   8.552  13.001  1.00  0.00     0.007 C 
HETATM    8  C16 UNL     1      -5.727   8.433  14.065  1.00  0.00     0.007 C 
HETATM    9  C17 UNL     1      -6.521   7.133  13.844  1.00  0.00     0.010 C 
HETATM   10  C18 UNL     1      -7.887   7.067  14.602  1.00  0.00     0.018 C 
HETATM   11  C19 UNL     1      -8.786   5.972  13.986  1.00  0.00     0.023 C 
HETATM   12  C20 UNL     1      -8.672   8.393  14.493  1.00  0.00     0.023 C 
HETATM   13  C21 UNL     1      -7.691   6.752  16.089  1.00  0.00     0.135 C 
HETATM   14  O1  UNL     1      -8.537   7.051  16.935  1.00  0.00    -0.297 OA
HETATM   15  C22 UNL     1      -6.417   6.065  16.512  1.00  0.00     0.080 C 
HETATM   16  C23 UNL     1      -5.922   5.160  15.405  1.00  0.00     0.018 C 
HETATM   17  C24 UNL     1      -5.574   5.957  14.155  1.00  0.00    -0.026 A 
HETATM   18  C25 UNL     1      -5.036   5.172  12.987  1.00  0.00     0.021 A 
HETATM   19  C26 UNL     1      -4.084   6.102  13.718  1.00  0.00    -0.027 A 
HETATM   20  C27 UNL     1      -3.016   5.422  14.594  1.00  0.00     0.011 C 
HETATM   21  C28 UNL     1      -1.534   5.561  14.212  1.00  0.00     0.011 C 
HETATM   22  C29 UNL     1      -1.250   6.530  13.065  1.00  0.00    -0.032 C 
HETATM   23  C30 UNL     1      -1.462   5.759  11.728  1.00  0.00     0.016 C 
ENDROOT
BRANCH   1  24
HETATM   24  C7  UNL     1       1.399   6.390  12.562  1.00  0.00    -0.014 C 
HETATM   25  C8  UNL     1       2.725   6.979  13.057  1.00  0.00     0.010 C 
BRANCH  24  26
HETATM   26  C6  UNL     1       1.436   6.240  11.018  1.00  0.00     0.008 C 
BRANCH  26  27
HETATM   27  C5  UNL     1       2.683   6.811  10.333  1.00  0.00     0.028 C 
BRANCH  27  28
HETATM   28  C4  UNL     1       2.584   6.672   8.838  1.00  0.00    -0.025 C 
HETATM   29  C2  UNL     1       1.768   7.342   8.001  1.00  0.00    -0.091 C 
HETATM   30  C1  UNL     1       1.777   7.053   6.523  1.00  0.00     0.042 C 
HETATM   31  C3  UNL     1       0.803   8.421   8.413  1.00  0.00     0.042 C 
ENDBRANCH  27  28
ENDBRANCH  26  27
ENDBRANCH  24  26
ENDBRANCH   1  24
TORSDOF 4
ENDMDL
MODEL 5
REMARK minimizedAffinity -9.20531273
REMARK CNNscore 0.334273666
REMARK CNNaffinity 6.84900284
REMARK  4 active torsions:
REMARK  status: ('A' for Active; 'I' for Inactive)
REMARK    1  A    between atoms: C4_4  and  C5_5 
REMARK    2  A    between atoms: C5_5  and  C6_6 
REMARK    3  A    between atoms: C6_6  and  C7_7 
REMARK    4  A    between atoms: C7_7  and  C9_9 
ROOT
HETATM    1  C9  UNL     1       0.648   6.107  11.665  1.00  0.00    -0.002 C 
HETATM    2  C10 UNL     1       0.855   4.577  11.505  1.00  0.00     0.006 C 
HETATM    3  C11 UNL     1      -0.431   3.882  11.976  1.00  0.00     0.011 C 
HETATM    4  C12 UNL     1      -1.467   5.010  12.148  1.00  0.00    -0.032 C 
HETATM    5  C13 UNL     1      -2.116   5.249  10.748  1.00  0.00     0.016 C 
HETATM    6  C14 UNL     1      -2.565   4.714  13.205  1.00  0.00     0.004 C 
HETATM    7  C15 UNL     1      -3.463   3.517  12.835  1.00  0.00     0.007 C 
HETATM    8  C16 UNL     1      -4.938   3.845  12.639  1.00  0.00     0.007 C 
HETATM    9  C17 UNL     1      -5.492   4.502  13.916  1.00  0.00     0.010 C 
HETATM   10  C18 UNL     1      -7.052   4.537  14.007  1.00  0.00     0.018 C 
HETATM   11  C19 UNL     1      -7.495   4.789  15.465  1.00  0.00     0.023 C 
HETATM   12  C20 UNL     1      -7.685   3.194  13.581  1.00  0.00     0.023 C 
HETATM   13  C21 UNL     1      -7.642   5.642  13.125  1.00  0.00     0.135 C 
HETATM   14  O1  UNL     1      -8.806   5.599  12.718  1.00  0.00    -0.297 OA
HETATM   15  C22 UNL     1      -6.757   6.803  12.744  1.00  0.00     0.080 C 
HETATM   16  C23 UNL     1      -5.755   7.073  13.845  1.00  0.00     0.018 C 
HETATM   17  C24 UNL     1      -4.824   5.886  14.048  1.00  0.00    -0.026 A 
HETATM   18  C25 UNL     1      -3.754   6.042  15.097  1.00  0.00     0.021 A 
HETATM   19  C26 UNL     1      -3.322   5.998  13.641  1.00  0.00    -0.027 A 
HETATM   20  C27 UNL     1      -2.847   7.333  13.038  1.00  0.00     0.011 C 
HETATM   21  C28 UNL     1      -1.381   7.477  12.602  1.00  0.00     0.011 C 
HETATM   22  C29 UNL     1      -0.560   6.189  12.656  1.00  0.00    -0.032 C 
HETATM   23  C30 UNL     1      -0.047   6.012  14.116  1.00  0.00     0.016 C 
ENDROOT
BRANCH   1  24
HETATM   24  C7  UNL     1       1.973   6.849  11.996  1.00  0.00    -0.014 C 
HETATM   25  C8  UNL     1       1.787   8.368  12.092  1.00  0.00     0.010 C 
BRANCH  24  26
HETATM   26  C6  UNL     1       3.117   6.524  10.997  1.00  0.00     0.008 C 
BRANCH  26  27
HETATM   27  C5  UNL     1       3.493   7.659  10.038  1.00  0.00     0.028 C 
BRANCH  27  28
HETATM   28  C4  UNL     1       3.141   7.300   8.619  1.00  0.00    -0.025 C 
HETATM   29  C2  UNL     1       1.981   7.533   7.975  1.00  0.00    -0.091 C 
HETATM   30  C1  UNL     1       1.786   7.073   6.554  1.00  0.00     0.042 C 
HETATM   31  C3  UNL     1       0.798   8.258   8.558  1.00  0.00     0.042 C 
ENDBRANCH  27  28
ENDBRANCH  26  27
ENDBRANCH  24  26
ENDBRANCH   1  24
TORSDOF 4
ENDMDL
MODEL 6
REMARK minimizedAffinity -6.29519653
REMARK CNNscore 0.331601202
REMARK CNNaffinity 6.27622652
REMARK  4 active torsions:
REMARK  status: ('A' for Active; 'I' for Inactive)
REMARK    1  A    between atoms: C4_4  and  C5_5 
REMARK    2  A    between atoms: C5_5  and  C6_6 
REMARK    3  A    between atoms: C6_6  and  C7_7 
REMARK    4  A    between atoms: C7_7  and  C9_9 
ROOT
HETATM    1  C9  UNL     1      -1.887   7.739  13.848  1.00  0.00    -0.002 C 
HETATM    2  C10 UNL     1      -2.346   6.794  14.991  1.00  0.00     0.006 C 
HETATM    3  C11 UNL     1      -2.622   7.662  16.228  1.00  0.00     0.011 C 
HETATM    4  C12 UNL     1      -2.586   9.117  15.724  1.00  0.00    -0.032 C 
HETATM    5  C13 UNL     1      -4.013   9.447  15.182  1.00  0.00     0.016 C 
HETATM    6  C14 UNL     1      -2.167  10.155  16.799  1.00  0.00     0.004 C 
HETATM    7  C15 UNL     1      -3.161  10.254  17.974  1.00  0.00     0.007 C 
HETATM    8  C16 UNL     1      -3.832  11.611  18.148  1.00  0.00     0.007 C 
HETATM    9  C17 UNL     1      -2.756  12.698  18.319  1.00  0.00     0.010 C 
HETATM   10  C18 UNL     1      -3.284  14.055  18.887  1.00  0.00     0.018 C 
HETATM   11  C19 UNL     1      -2.110  14.898  19.432  1.00  0.00     0.023 C 
HETATM   12  C20 UNL     1      -4.261  13.846  20.065  1.00  0.00     0.023 C 
HETATM   13  C21 UNL     1      -4.006  14.872  17.810  1.00  0.00     0.135 C 
HETATM   14  O1  UNL     1      -4.836  15.739  18.097  1.00  0.00    -0.297 OA
HETATM   15  C22 UNL     1      -3.688  14.589  16.364  1.00  0.00     0.080 C 
HETATM   16  C23 UNL     1      -2.251  14.133  16.228  1.00  0.00     0.018 C 
HETATM   17  C24 UNL     1      -2.014  12.827  16.973  1.00  0.00    -0.026 A 
HETATM   18  C25 UNL     1      -0.626  12.247  16.888  1.00  0.00     0.021 A 
HETATM   19  C26 UNL     1      -1.748  11.514  16.173  1.00  0.00    -0.027 A 
HETATM   20  C27 UNL     1      -1.742  11.607  14.637  1.00  0.00     0.011 C 
HETATM   21  C28 UNL     1      -1.507  10.333  13.810  1.00  0.00     0.011 C 
HETATM   22  C29 UNL     1      -1.472   9.035  14.618  1.00  0.00    -0.032 C 
HETATM   23  C30 UNL     1      -0.029   8.866  15.181  1.00  0.00     0.016 C 
ENDROOT
BRANCH   1  24
HETATM   24  C7  UNL     1      -0.877   7.052  12.885  1.00  0.00    -0.014 C 
HETATM   25  C8  UNL     1       0.068   6.091  13.614  1.00  0.00     0.010 C 
BRANCH  24  26
HETATM   26  C6  UNL     1      -0.051   8.066  12.048  1.00  0.00     0.008 C 
BRANCH  26  27
HETATM   27  C5  UNL     1      -0.131   7.880  10.528  1.00  0.00     0.028 C 
BRANCH  27  28
HETATM   28  C4  UNL     1       1.205   8.139   9.886  1.00  0.00    -0.025 C 
HETATM   29  C2  UNL     1       2.243   7.286   9.773  1.00  0.00    -0.091 C 
HETATM   30  C1  UNL     1       3.529   7.724   9.124  1.00  0.00     0.042 C 
HETATM   31  C3  UNL     1       2.242   5.857  10.243  1.00  0.00     0.042 C 
ENDBRANCH  27  28
ENDBRANCH  26  27
ENDBRANCH  24  26
ENDBRANCH   1  24
TORSDOF 4
ENDMDL
MODEL 7
REMARK minimizedAffinity -8.00564194
REMARK CNNscore 0.312723339
REMARK CNNaffinity 6.81356621
REMARK  4 active torsions:
REMARK  status: ('A' for Active; 'I' for Inactive)
REMARK    1  A    between atoms: C4_4  and  C5_5 
REMARK    2  A    between atoms: C5_5  and  C6_6 
REMARK    3  A    between atoms: C6_6  and  C7_7 
REMARK    4  A    between atoms: C7_7  and  C9_9 
ROOT
HETATM    1  C9  UNL     1      -5.646   5.429  13.285  1.00  0.00    -0.002 C 
HETATM    2  C10 UNL     1      -6.520   4.194  12.938  1.00  0.00     0.006 C 
HETATM    3  C11 UNL     1      -7.970   4.529  13.321  1.00  0.00     0.011 C 
HETATM    4  C12 UNL     1      -7.973   6.039  13.631  1.00  0.00    -0.032 C 
HETATM    5  C13 UNL     1      -8.167   6.782  12.270  1.00  0.00     0.016 C 
HETATM    6  C14 UNL     1      -9.063   6.481  14.643  1.00  0.00     0.004 C 
HETATM    7  C15 UNL     1     -10.501   6.262  14.131  1.00  0.00     0.007 C 
HETATM    8  C16 UNL     1     -11.338   7.526  13.977  1.00  0.00     0.007 C 
HETATM    9  C17 UNL     1     -11.401   8.266  15.325  1.00  0.00     0.010 C 
HETATM   10  C18 UNL     1     -12.523   9.350  15.420  1.00  0.00     0.018 C 
HETATM   11  C19 UNL     1     -12.797   9.705  16.899  1.00  0.00     0.023 C 
HETATM   12  C20 UNL     1     -13.861   8.850  14.833  1.00  0.00     0.023 C 
HETATM   13  C21 UNL     1     -12.129  10.633  14.680  1.00  0.00     0.135 C 
HETATM   14  O1  UNL     1     -12.974  11.435  14.273  1.00  0.00    -0.297 OA
HETATM   15  C22 UNL     1     -10.664  10.902  14.445  1.00  0.00     0.080 C 
HETATM   16  C23 UNL     1      -9.841  10.313  15.570  1.00  0.00     0.018 C 
HETATM   17  C24 UNL     1      -9.986   8.799  15.625  1.00  0.00    -0.026 A 
HETATM   18  C25 UNL     1      -9.187   8.086  16.685  1.00  0.00     0.021 A 
HETATM   19  C26 UNL     1      -8.780   7.890  15.235  1.00  0.00    -0.027 A 
HETATM   20  C27 UNL     1      -7.477   8.584  14.800  1.00  0.00     0.011 C 
HETATM   21  C28 UNL     1      -6.273   7.725  14.384  1.00  0.00     0.011 C 
HETATM   22  C29 UNL     1      -6.554   6.226  14.278  1.00  0.00    -0.032 C 
HETATM   23  C30 UNL     1      -6.422   5.616  15.706  1.00  0.00     0.016 C 
ENDROOT
BRANCH   1  24
HETATM   24  C7  UNL     1      -4.203   5.030  13.703  1.00  0.00    -0.014 C 
HETATM   25  C8  UNL     1      -3.180   6.136  13.414  1.00  0.00     0.010 C 
BRANCH  24  26
HETATM   26  C6  UNL     1      -3.730   3.698  13.060  1.00  0.00     0.008 C 
BRANCH  26  27
HETATM   27  C5  UNL     1      -3.372   3.780  11.571  1.00  0.00     0.028 C 
BRANCH  27  28
HETATM   28  C4  UNL     1      -2.673   2.527  11.119  1.00  0.00    -0.025 C 
HETATM   29  C2  UNL     1      -1.354   2.254  11.173  1.00  0.00    -0.091 C 
HETATM   30  C1  UNL     1      -0.817   0.952  10.641  1.00  0.00     0.042 C 
HETATM   31  C3  UNL     1      -0.307   3.164  11.755  1.00  0.00     0.042 C 
ENDBRANCH  27  28
ENDBRANCH  26  27
ENDBRANCH  24  26
ENDBRANCH   1  24
TORSDOF 4
ENDMDL
MODEL 8
REMARK minimizedAffinity -6.80400848
REMARK CNNscore 0.28364867
REMARK CNNaffinity 6.12201118
REMARK  4 active torsions:
REMARK  status: ('A' for Active; 'I' for Inactive)
REMARK    1  A    between atoms: C4_4  and  C5_5 
REMARK    2  A    between atoms: C5_5  and  C6_6 
REMARK    3  A    between atoms: C6_6  and  C7_7 
REMARK    4  A    between atoms: C7_7  and  C9_9 
ROOT
HETATM    1  C9  UNL     1      -3.307  13.118  17.941  1.00  0.00    -0.002 C 
HETATM    2  C10 UNL     1      -2.048  13.106  18.849  1.00  0.00     0.006 C 
HETATM    3  C11 UNL     1      -1.167  11.929  18.405  1.00  0.00     0.011 C 
HETATM    4  C12 UNL     1      -1.780  11.435  17.080  1.00  0.00    -0.032 C 
HETATM    5  C13 UNL     1      -1.170  12.314  15.941  1.00  0.00     0.016 C 
HETATM    6  C14 UNL     1      -1.537   9.931  16.785  1.00  0.00     0.004 C 
HETATM    7  C15 UNL     1      -0.049   9.576  16.594  1.00  0.00     0.007 C 
HETATM    8  C16 UNL     1       0.319   9.031  15.219  1.00  0.00     0.007 C 
HETATM    9  C17 UNL     1      -0.529   7.782  14.918  1.00  0.00     0.010 C 
HETATM   10  C18 UNL     1       0.001   6.903  13.739  1.00  0.00     0.018 C 
HETATM   11  C19 UNL     1      -0.624   5.492  13.803  1.00  0.00     0.023 C 
HETATM   12  C20 UNL     1       1.532   6.710  13.807  1.00  0.00     0.023 C 
HETATM   13  C21 UNL     1      -0.340   7.522  12.379  1.00  0.00     0.135 C 
HETATM   14  O1  UNL     1       0.303   7.252  11.361  1.00  0.00    -0.297 OA
HETATM   15  C22 UNL     1      -1.492   8.492  12.303  1.00  0.00     0.080 C 
HETATM   16  C23 UNL     1      -2.541   8.133  13.333  1.00  0.00     0.018 C 
HETATM   17  C24 UNL     1      -1.988   8.247  14.747  1.00  0.00    -0.026 A 
HETATM   18  C25 UNL     1      -2.948   7.948  15.870  1.00  0.00     0.021 A 
HETATM   19  C26 UNL     1      -2.493   9.385  15.687  1.00  0.00    -0.027 A 
HETATM   20  C27 UNL     1      -3.544  10.359  15.124  1.00  0.00     0.011 C 
HETATM   21  C28 UNL     1      -4.050  11.509  16.010  1.00  0.00     0.011 C 
HETATM   22  C29 UNL     1      -3.311  11.676  17.338  1.00  0.00    -0.032 C 
HETATM   23  C30 UNL     1      -3.945  10.686  18.361  1.00  0.00     0.016 C 
ENDROOT
BRANCH   1  24
HETATM   24  C7  UNL     1      -4.564  13.651  18.686  1.00  0.00    -0.014 C 
HETATM   25  C8  UNL     1      -4.549  15.176  18.846  1.00  0.00     0.010 C 
BRANCH  24  26
HETATM   26  C6  UNL     1      -4.780  12.981  20.069  1.00  0.00     0.008 C 
BRANCH  26  27
HETATM   27  C5  UNL     1      -5.651  13.772  21.052  1.00  0.00     0.028 C 
BRANCH  27  28
HETATM   28  C4  UNL     1      -7.099  13.389  20.914  1.00  0.00    -0.025 C 
HETATM   29  C2  UNL     1      -7.965  13.071  21.897  1.00  0.00    -0.091 C 
HETATM   30  C1  UNL     1      -9.382  12.676  21.575  1.00  0.00     0.042 C 
HETATM   31  C3  UNL     1      -7.645  13.085  23.367  1.00  0.00     0.042 C 
ENDBRANCH  27  28
ENDBRANCH  26  27
ENDBRANCH  24  26
ENDBRANCH   1  24
TORSDOF 4
ENDMDL
MODEL 9
REMARK minimizedAffinity -6.88409424
REMARK CNNscore 0.282220304
REMARK CNNaffinity 6.2976203
REMARK  4 active torsions:
REMARK  status: ('A' for Active; 'I' for Inactive)
REMARK    1  A    between atoms: C4_4  and  C5_5 
REMARK    2  A    between atoms: C5_5  and  C6_6 
REMARK    3  A    between atoms: C6_6  and  C7_7 
REMARK    4  A    between atoms: C7_7  and  C9_9 
ROOT
HETATM    1  C9  UNL     1      -9.054   7.231  13.941  1.00  0.00    -0.002 C 
HETATM    2  C10 UNL     1     -10.303   6.327  13.764  1.00  0.00     0.006 C 
HETATM    3  C11 UNL     1     -11.485   7.029  14.450  1.00  0.00     0.011 C 
HETATM    4  C12 UNL     1     -10.983   8.448  14.781  1.00  0.00    -0.032 C 
HETATM    5  C13 UNL     1     -11.213   9.321  13.506  1.00  0.00     0.016 C 
HETATM    6  C14 UNL     1     -11.673   9.100  16.009  1.00  0.00     0.004 C 
HETATM    7  C15 UNL     1     -13.183   9.340  15.807  1.00  0.00     0.007 C 
HETATM    8  C16 UNL     1     -13.623  10.798  15.856  1.00  0.00     0.007 C 
HETATM    9  C17 UNL     1     -13.200  11.416  17.200  1.00  0.00     0.010 C 
HETATM   10  C18 UNL     1     -13.911  12.764  17.550  1.00  0.00     0.018 C 
HETATM   11  C19 UNL     1     -13.773  13.064  19.059  1.00  0.00     0.023 C 
HETATM   12  C20 UNL     1     -15.425  12.712  17.249  1.00  0.00     0.023 C 
HETATM   13  C21 UNL     1     -13.311  13.936  16.767  1.00  0.00     0.135 C 
HETATM   14  O1  UNL     1     -13.944  14.975  16.561  1.00  0.00    -0.297 OA
HETATM   15  C22 UNL     1     -11.908  13.796  16.233  1.00  0.00     0.080 C 
HETATM   16  C23 UNL     1     -11.090  12.910  17.148  1.00  0.00     0.018 C 
HETATM   17  C24 UNL     1     -11.661  11.500  17.205  1.00  0.00    -0.026 A 
HETATM   18  C25 UNL     1     -10.915  10.507  18.059  1.00  0.00     0.021 A 
HETATM   19  C26 UNL     1     -10.877  10.319  16.552  1.00  0.00    -0.027 A 
HETATM   20  C27 UNL     1      -9.540  10.647  15.865  1.00  0.00     0.011 C 
HETATM   21  C28 UNL     1      -8.748   9.516  15.189  1.00  0.00     0.011 C 
HETATM   22  C29 UNL     1      -9.473   8.172  15.118  1.00  0.00    -0.032 C 
HETATM   23  C30 UNL     1      -9.249   7.439  16.474  1.00  0.00     0.016 C 
ENDROOT
BRANCH   1  24
HETATM   24  C7  UNL     1      -7.739   6.406  14.038  1.00  0.00    -0.014 C 
HETATM   25  C8  UNL     1      -6.492   7.255  13.764  1.00  0.00     0.010 C 
BRANCH  24  26
HETATM   26  C6  UNL     1      -7.736   5.157  13.116  1.00  0.00     0.008 C 
BRANCH  26  27
HETATM   27  C5  UNL     1      -7.549   3.815  13.832  1.00  0.00     0.028 C 
BRANCH  27  28
HETATM   28  C4  UNL     1      -7.276   2.714  12.843  1.00  0.00    -0.025 C 
HETATM   29  C2  UNL     1      -6.170   2.535  12.094  1.00  0.00    -0.091 C 
HETATM   30  C1  UNL     1      -6.077   1.388  11.123  1.00  0.00     0.042 C 
HETATM   31  C3  UNL     1      -4.944   3.406  12.142  1.00  0.00     0.042 C 
ENDBRANCH  27  28
ENDBRANCH  26  27
ENDBRANCH  24  26
ENDBRANCH   1  24
TORSDOF 4
ENDMDL
