MODEL 1
REMARK minimizedAffinity -6.01061869
REMARK CNNscore 0.705087125
REMARK CNNaffinity 6.76720095
REMARK  4 active torsions:
REMARK  status: ('A' for Active; 'I' for Inactive)
REMARK    1  A    between atoms: C4_4  and  C5_5 
REMARK    2  A    between atoms: C5_5  and  C6_6 
REMARK    3  A    between atoms: C6_6  and  C7_7 
REMARK    4  A    between atoms: C7_7  and  C9_9 
ROOT
HETATM    1  C9  UNL     1     -15.375 -10.427  29.255  1.00  0.00    -0.002 C 
HETATM    2  C10 UNL     1     -15.406 -11.458  30.423  1.00  0.00     0.007 C 
HETATM    3  C11 UNL     1     -14.377 -12.558  30.100  1.00  0.00     0.015 C 
HETATM    4  C12 UNL     1     -14.012 -12.328  28.620  1.00  0.00    -0.013 C 
HETATM    5  C13 UNL     1     -15.135 -13.027  27.787  1.00  0.00     0.021 C 
HETATM    6  C14 UNL     1     -12.691 -12.894  28.109  1.00  0.00    -0.070 C 
HETATM    7  C15 UNL     1     -12.163 -14.033  28.592  1.00  0.00    -0.022 C 
HETATM    8  C16 UNL     1     -10.936 -14.698  28.050  1.00  0.00     0.034 C 
HETATM    9  C17 UNL     1     -10.141 -13.866  27.018  1.00  0.00     0.013 C 
HETATM   10  C18 UNL     1      -9.014 -14.700  26.302  1.00  0.00     0.018 C 
HETATM   11  C19 UNL     1      -9.387 -16.164  25.997  1.00  0.00     0.023 C 
HETATM   12  C20 UNL     1      -7.752 -14.727  27.192  1.00  0.00     0.023 C 
HETATM   13  C21 UNL     1      -8.614 -14.007  24.995  1.00  0.00     0.135 C 
HETATM   14  O1  UNL     1      -8.114 -14.610  24.047  1.00  0.00    -0.297 OA
HETATM   15  C22 UNL     1      -8.784 -12.514  24.950  1.00  0.00     0.080 C 
HETATM   16  C23 UNL     1     -10.242 -12.118  25.127  1.00  0.00     0.017 C 
HETATM   17  C24 UNL     1     -11.087 -13.043  26.064  1.00  0.00    -0.031 C 
HETATM   18  C25 UNL     1     -11.943 -13.977  25.175  1.00  0.00     0.016 C 
HETATM   19  C26 UNL     1     -12.008 -12.130  26.974  1.00  0.00     0.024 C 
HETATM   20  C27 UNL     1     -12.995 -11.224  26.199  1.00  0.00     0.010 C 
HETATM   21  C28 UNL     1     -13.889 -10.315  27.077  1.00  0.00     0.011 C 
HETATM   22  C29 UNL     1     -14.016 -10.758  28.552  1.00  0.00    -0.029 C 
HETATM   23  C30 UNL     1     -12.868 -10.095  29.379  1.00  0.00     0.016 C 
ENDROOT
BRANCH   1  24
HETATM   24  C7  UNL     1     -15.671  -8.975  29.743  1.00  0.00    -0.014 C 
HETATM   25  C8  UNL     1     -16.150  -8.949  31.199  1.00  0.00     0.010 C 
BRANCH  24  26
HETATM   26  C6  UNL     1     -14.403  -8.089  29.585  1.00  0.00     0.008 C 
BRANCH  26  27
HETATM   27  C5  UNL     1     -14.574  -6.803  28.761  1.00  0.00     0.028 C 
BRANCH  27  28
HETATM   28  C4  UNL     1     -13.453  -5.821  28.973  1.00  0.00    -0.025 C 
HETATM   29  C2  UNL     1     -12.594  -5.744  30.008  1.00  0.00    -0.091 C 
HETATM   30  C1  UNL     1     -12.573  -6.660  31.201  1.00  0.00     0.042 C 
HETATM   31  C3  UNL     1     -11.535  -4.670  30.042  1.00  0.00     0.042 C 
ENDBRANCH  27  28
ENDBRANCH  26  27
ENDBRANCH  24  26
ENDBRANCH   1  24
TORSDOF 4
ENDMDL
MODEL 2
REMARK minimizedAffinity -5.98418522
REMARK CNNscore 0.588660002
REMARK CNNaffinity 5.62940264
REMARK  4 active torsions:
REMARK  status: ('A' for Active; 'I' for Inactive)
REMARK    1  A    between atoms: C4_4  and  C5_5 
REMARK    2  A    between atoms: C5_5  and  C6_6 
REMARK    3  A    between atoms: C6_6  and  C7_7 
REMARK    4  A    between atoms: C7_7  and  C9_9 
ROOT
HETATM    1  C9  UNL     1      -5.188 -10.718   6.202  1.00  0.00    -0.002 C 
HETATM    2  C10 UNL     1      -4.360 -11.990   6.556  1.00  0.00     0.007 C 
HETATM    3  C11 UNL     1      -4.109 -12.761   5.246  1.00  0.00     0.015 C 
HETATM    4  C12 UNL     1      -5.060 -12.111   4.222  1.00  0.00    -0.013 C 
HETATM    5  C13 UNL     1      -6.453 -12.785   4.442  1.00  0.00     0.021 C 
HETATM    6  C14 UNL     1      -4.740 -12.273   2.740  1.00  0.00    -0.070 C 
HETATM    7  C15 UNL     1      -4.141 -13.374   2.250  1.00  0.00    -0.022 C 
HETATM    8  C16 UNL     1      -3.910 -13.640   0.796  1.00  0.00     0.034 C 
HETATM    9  C17 UNL     1      -4.195 -12.445  -0.143  1.00  0.00     0.013 C 
HETATM   10  C18 UNL     1      -4.178 -12.849  -1.665  1.00  0.00     0.018 C 
HETATM   11  C19 UNL     1      -4.771 -14.238  -1.973  1.00  0.00     0.023 C 
HETATM   12  C20 UNL     1      -2.721 -12.853  -2.178  1.00  0.00     0.023 C 
HETATM   13  C21 UNL     1      -4.929 -11.794  -2.485  1.00  0.00     0.135 C 
HETATM   14  O1  UNL     1      -5.448 -12.041  -3.572  1.00  0.00    -0.297 OA
HETATM   15  C22 UNL     1      -4.935 -10.397  -1.932  1.00  0.00     0.080 C 
HETATM   16  C23 UNL     1      -5.618 -10.341  -0.575  1.00  0.00     0.017 C 
HETATM   17  C24 UNL     1      -5.447 -11.609   0.324  1.00  0.00    -0.031 C 
HETATM   18  C25 UNL     1      -6.747 -12.443   0.233  1.00  0.00     0.016 C 
HETATM   19  C26 UNL     1      -5.180 -11.139   1.813  1.00  0.00     0.024 C 
HETATM   20  C27 UNL     1      -6.304 -10.276   2.433  1.00  0.00     0.010 C 
HETATM   21  C28 UNL     1      -6.048  -9.796   3.883  1.00  0.00     0.011 C 
HETATM   22  C29 UNL     1      -4.979 -10.602   4.654  1.00  0.00    -0.029 C 
HETATM   23  C30 UNL     1      -3.578  -9.955   4.401  1.00  0.00     0.016 C 
ENDROOT
BRANCH   1  24
HETATM   24  C7  UNL     1      -4.843  -9.513   7.131  1.00  0.00    -0.014 C 
HETATM   25  C8  UNL     1      -6.084  -8.680   7.469  1.00  0.00     0.010 C 
BRANCH  24  26
HETATM   26  C6  UNL     1      -4.171 -10.021   8.438  1.00  0.00     0.008 C 
BRANCH  26  27
HETATM   27  C5  UNL     1      -4.847  -9.604   9.753  1.00  0.00     0.028 C 
BRANCH  27  28
HETATM   28  C4  UNL     1      -5.312 -10.780  10.569  1.00  0.00    -0.025 C 
HETATM   29  C2  UNL     1      -6.125 -10.782  11.644  1.00  0.00    -0.091 C 
HETATM   30  C1  UNL     1      -6.761  -9.568  12.265  1.00  0.00     0.042 C 
HETATM   31  C3  UNL     1      -6.470 -12.076  12.337  1.00  0.00     0.042 C 
ENDBRANCH  27  28
ENDBRANCH  26  27
ENDBRANCH  24  26
ENDBRANCH   1  24
TORSDOF 4
ENDMDL
MODEL 3
REMARK minimizedAffinity -6.72423315
REMARK CNNscore 0.506437778
REMARK CNNaffinity 5.47888708
REMARK  4 active torsions:
REMARK  status: ('A' for Active; 'I' for Inactive)
REMARK    1  A    between atoms: C4_4  and  C5_5 
REMARK    2  A    between atoms: C5_5  and  C6_6 
REMARK    3  A    between atoms: C6_6  and  C7_7 
REMARK    4  A    between atoms: C7_7  and  C9_9 
ROOT
HETATM    1  C9  UNL     1      -3.377 -11.547   3.956  1.00  0.00    -0.002 C 
HETATM    2  C10 UNL     1      -2.201 -11.799   2.965  1.00  0.00     0.007 C 
HETATM    3  C11 UNL     1      -2.749 -11.615   1.537  1.00  0.00     0.015 C 
HETATM    4  C12 UNL     1      -4.280 -11.586   1.708  1.00  0.00    -0.013 C 
HETATM    5  C13 UNL     1      -4.733 -13.081   1.771  1.00  0.00     0.021 C 
HETATM    6  C14 UNL     1      -5.114 -10.937   0.608  1.00  0.00    -0.070 C 
HETATM    7  C15 UNL     1      -4.747 -10.969  -0.686  1.00  0.00    -0.022 C 
HETATM    8  C16 UNL     1      -5.579 -10.456  -1.819  1.00  0.00     0.034 C 
HETATM    9  C17 UNL     1      -6.829  -9.648  -1.401  1.00  0.00     0.013 C 
HETATM   10  C18 UNL     1      -7.793  -9.348  -2.609  1.00  0.00     0.018 C 
HETATM   11  C19 UNL     1      -7.915 -10.490  -3.638  1.00  0.00     0.023 C 
HETATM   12  C20 UNL     1      -7.292  -8.101  -3.370  1.00  0.00     0.023 C 
HETATM   13  C21 UNL     1      -9.190  -9.007  -2.079  1.00  0.00     0.135 C 
HETATM   14  O1  UNL     1     -10.212  -9.160  -2.747  1.00  0.00    -0.297 OA
HETATM   15  C22 UNL     1      -9.254  -8.385  -0.712  1.00  0.00     0.080 C 
HETATM   16  C23 UNL     1      -8.694  -9.321   0.347  1.00  0.00     0.017 C 
HETATM   17  C24 UNL     1      -7.517 -10.243  -0.114  1.00  0.00    -0.031 C 
HETATM   18  C25 UNL     1      -8.088 -11.656  -0.382  1.00  0.00     0.016 C 
HETATM   19  C26 UNL     1      -6.428 -10.282   1.036  1.00  0.00     0.024 C 
HETATM   20  C27 UNL     1      -6.937 -10.821   2.395  1.00  0.00     0.010 C 
HETATM   21  C28 UNL     1      -5.886 -10.849   3.531  1.00  0.00     0.011 C 
HETATM   22  C29 UNL     1      -4.416 -10.795   3.059  1.00  0.00    -0.029 C 
HETATM   23  C30 UNL     1      -3.974  -9.300   2.953  1.00  0.00     0.016 C 
ENDROOT
BRANCH   1  24
HETATM   24  C7  UNL     1      -2.891 -10.909   5.295  1.00  0.00    -0.014 C 
HETATM   25  C8  UNL     1      -2.629  -9.406   5.149  1.00  0.00     0.010 C 
BRANCH  24  26
HETATM   26  C6  UNL     1      -3.940 -11.159   6.416  1.00  0.00     0.008 C 
BRANCH  26  27
HETATM   27  C5  UNL     1      -3.916 -10.176   7.597  1.00  0.00     0.028 C 
BRANCH  27  28
HETATM   28  C4  UNL     1      -4.895 -10.540   8.680  1.00  0.00    -0.025 C 
HETATM   29  C2  UNL     1      -4.831 -10.254   9.995  1.00  0.00    -0.091 C 
HETATM   30  C1  UNL     1      -3.733  -9.479  10.672  1.00  0.00     0.042 C 
HETATM   31  C3  UNL     1      -5.917 -10.721  10.931  1.00  0.00     0.042 C 
ENDBRANCH  27  28
ENDBRANCH  26  27
ENDBRANCH  24  26
ENDBRANCH   1  24
TORSDOF 4
ENDMDL
MODEL 4
REMARK minimizedAffinity -7.82031202
REMARK CNNscore 0.494684696
REMARK CNNaffinity 6.65686035
REMARK  4 active torsions:
REMARK  status: ('A' for Active; 'I' for Inactive)
REMARK    1  A    between atoms: C4_4  and  C5_5 
REMARK    2  A    between atoms: C5_5  and  C6_6 
REMARK    3  A    between atoms: C6_6  and  C7_7 
REMARK    4  A    between atoms: C7_7  and  C9_9 
ROOT
HETATM    1  C9  UNL     1      -0.422  12.884  18.014  1.00  0.00    -0.002 C 
HETATM    2  C10 UNL     1      -1.767  13.641  18.232  1.00  0.00     0.007 C 
HETATM    3  C11 UNL     1      -2.876  12.828  17.537  1.00  0.00     0.015 C 
HETATM    4  C12 UNL     1      -2.121  11.808  16.662  1.00  0.00    -0.013 C 
HETATM    5  C13 UNL     1      -1.746  12.566  15.347  1.00  0.00     0.021 C 
HETATM    6  C14 UNL     1      -2.862  10.547  16.227  1.00  0.00    -0.070 C 
HETATM    7  C15 UNL     1      -4.186  10.536  15.995  1.00  0.00    -0.022 C 
HETATM    8  C16 UNL     1      -4.945   9.364  15.454  1.00  0.00     0.034 C 
HETATM    9  C17 UNL     1      -4.147   8.041  15.387  1.00  0.00     0.013 C 
HETATM   10  C18 UNL     1      -4.903   6.914  14.589  1.00  0.00     0.018 C 
HETATM   11  C19 UNL     1      -5.690   7.409  13.359  1.00  0.00     0.023 C 
HETATM   12  C20 UNL     1      -5.912   6.211  15.523  1.00  0.00     0.023 C 
HETATM   13  C21 UNL     1      -3.902   5.844  14.140  1.00  0.00     0.135 C 
HETATM   14  O1  UNL     1      -4.097   5.114  13.169  1.00  0.00    -0.297 OA
HETATM   15  C22 UNL     1      -2.684   5.663  15.002  1.00  0.00     0.080 C 
HETATM   16  C23 UNL     1      -1.847   6.931  15.049  1.00  0.00     0.017 C 
HETATM   17  C24 UNL     1      -2.644   8.274  14.976  1.00  0.00    -0.031 C 
HETATM   18  C25 UNL     1      -2.533   8.823  13.533  1.00  0.00     0.016 C 
HETATM   19  C26 UNL     1      -2.015   9.291  16.016  1.00  0.00     0.024 C 
HETATM   20  C27 UNL     1      -0.522   9.622  15.780  1.00  0.00     0.010 C 
HETATM   21  C28 UNL     1       0.109  10.601  16.799  1.00  0.00     0.011 C 
HETATM   22  C29 UNL     1      -0.906  11.455  17.593  1.00  0.00    -0.029 C 
HETATM   23  C30 UNL     1      -1.316  10.681  18.887  1.00  0.00     0.016 C 
ENDROOT
BRANCH   1  24
HETATM   24  C7  UNL     1       0.553  13.056  19.220  1.00  0.00    -0.014 C 
HETATM   25  C8  UNL     1       0.135  14.216  20.131  1.00  0.00     0.010 C 
BRANCH  24  26
HETATM   26  C6  UNL     1       0.628  11.736  20.039  1.00  0.00     0.008 C 
BRANCH  26  27
HETATM   27  C5  UNL     1       2.038  11.227  20.376  1.00  0.00     0.028 C 
BRANCH  27  28
HETATM   28  C4  UNL     1       2.024   9.940  21.155  1.00  0.00    -0.025 C 
HETATM   29  C2  UNL     1       2.621   9.667  22.331  1.00  0.00    -0.091 C 
HETATM   30  C1  UNL     1       3.447  10.630  23.139  1.00  0.00     0.042 C 
HETATM   31  C3  UNL     1       2.496   8.299  22.952  1.00  0.00     0.042 C 
ENDBRANCH  27  28
ENDBRANCH  26  27
ENDBRANCH  24  26
ENDBRANCH   1  24
TORSDOF 4
ENDMDL
MODEL 5
REMARK minimizedAffinity -8.57074642
REMARK CNNscore 0.485479534
REMARK CNNaffinity 6.92493248
REMARK  4 active torsions:
REMARK  status: ('A' for Active; 'I' for Inactive)
REMARK    1  A    between atoms: C4_4  and  C5_5 
REMARK    2  A    between atoms: C5_5  and  C6_6 
REMARK    3  A    between atoms: C6_6  and  C7_7 
REMARK    4  A    between atoms: C7_7  and  C9_9 
ROOT
HETATM    1  C9  UNL     1      -5.494   6.845  14.810  1.00  0.00    -0.002 C 
HETATM    2  C10 UNL     1      -5.855   8.221  14.171  1.00  0.00     0.007 C 
HETATM    3  C11 UNL     1      -4.625   8.704  13.381  1.00  0.00     0.015 C 
HETATM    4  C12 UNL     1      -3.480   7.779  13.838  1.00  0.00    -0.013 C 
HETATM    5  C13 UNL     1      -2.950   8.383  15.179  1.00  0.00     0.021 C 
HETATM    6  C14 UNL     1      -2.263   7.637  12.928  1.00  0.00    -0.070 C 
HETATM    7  C15 UNL     1      -1.825   8.644  12.153  1.00  0.00    -0.022 C 
HETATM    8  C16 UNL     1      -0.573   8.603  11.333  1.00  0.00     0.034 C 
HETATM    9  C17 UNL     1       0.100   7.215  11.233  1.00  0.00     0.013 C 
HETATM   10  C18 UNL     1       1.530   7.278  10.576  1.00  0.00     0.018 C 
HETATM   11  C19 UNL     1       2.362   8.519  10.954  1.00  0.00     0.023 C 
HETATM   12  C20 UNL     1       1.389   7.275   9.038  1.00  0.00     0.023 C 
HETATM   13  C21 UNL     1       2.321   6.018  10.947  1.00  0.00     0.135 C 
HETATM   14  O1  UNL     1       3.550   5.984  10.962  1.00  0.00    -0.297 OA
HETATM   15  C22 UNL     1       1.516   4.778  11.216  1.00  0.00     0.080 C 
HETATM   16  C23 UNL     1       0.583   4.970  12.401  1.00  0.00     0.017 C 
HETATM   17  C24 UNL     1       0.009   6.413  12.586  1.00  0.00    -0.031 C 
HETATM   18  C25 UNL     1       0.811   7.111  13.711  1.00  0.00     0.016 C 
HETATM   19  C26 UNL     1      -1.524   6.299  12.972  1.00  0.00     0.024 C 
HETATM   20  C27 UNL     1      -1.809   5.513  14.275  1.00  0.00     0.010 C 
HETATM   21  C28 UNL     1      -3.304   5.381  14.655  1.00  0.00     0.011 C 
HETATM   22  C29 UNL     1      -4.239   6.410  13.981  1.00  0.00    -0.029 C 
HETATM   23  C30 UNL     1      -4.735   5.827  12.619  1.00  0.00     0.016 C 
ENDROOT
BRANCH   1  24
HETATM   24  C7  UNL     1      -6.731   5.900  14.912  1.00  0.00    -0.014 C 
HETATM   25  C8  UNL     1      -7.222   5.756  16.357  1.00  0.00     0.010 C 
BRANCH  24  26
HETATM   26  C6  UNL     1      -7.882   6.428  14.009  1.00  0.00     0.008 C 
BRANCH  26  27
HETATM   27  C5  UNL     1      -9.114   6.985  14.739  1.00  0.00     0.028 C 
BRANCH  27  28
HETATM   28  C4  UNL     1     -10.387   6.810  13.955  1.00  0.00    -0.025 C 
HETATM   29  C2  UNL     1     -11.445   7.640  13.884  1.00  0.00    -0.091 C 
HETATM   30  C1  UNL     1     -11.574   8.961  14.592  1.00  0.00     0.042 C 
HETATM   31  C3  UNL     1     -12.643   7.279  13.042  1.00  0.00     0.042 C 
ENDBRANCH  27  28
ENDBRANCH  26  27
ENDBRANCH  24  26
ENDBRANCH   1  24
TORSDOF 4
ENDMDL
MODEL 6
REMARK minimizedAffinity -8.48603535
REMARK CNNscore 0.479518116
REMARK CNNaffinity 7.24026299
REMARK  4 active torsions:
REMARK  status: ('A' for Active; 'I' for Inactive)
REMARK    1  A    between atoms: C4_4  and  C5_5 
REMARK    2  A    between atoms: C5_5  and  C6_6 
REMARK    3  A    between atoms: C6_6  and  C7_7 
REMARK    4  A    between atoms: C7_7  and  C9_9 
ROOT
HETATM    1  C9  UNL     1      -3.032   6.861  14.341  1.00  0.00    -0.002 C 
HETATM    2  C10 UNL     1      -3.249   5.598  13.453  1.00  0.00     0.007 C 
HETATM    3  C11 UNL     1      -4.767   5.397  13.293  1.00  0.00     0.015 C 
HETATM    4  C12 UNL     1      -5.398   6.332  14.343  1.00  0.00    -0.013 C 
HETATM    5  C13 UNL     1      -5.359   5.547  15.695  1.00  0.00     0.021 C 
HETATM    6  C14 UNL     1      -6.848   6.762  14.145  1.00  0.00    -0.070 C 
HETATM    7  C15 UNL     1      -7.760   5.965  13.561  1.00  0.00    -0.022 C 
HETATM    8  C16 UNL     1      -9.218   6.284  13.446  1.00  0.00     0.034 C 
HETATM    9  C17 UNL     1      -9.607   7.727  13.840  1.00  0.00     0.013 C 
HETATM   10  C18 UNL     1     -11.165   7.932  13.939  1.00  0.00     0.018 C 
HETATM   11  C19 UNL     1     -11.940   6.733  14.521  1.00  0.00     0.023 C 
HETATM   12  C20 UNL     1     -11.738   8.205  12.532  1.00  0.00     0.023 C 
HETATM   13  C21 UNL     1     -11.466   9.175  14.784  1.00  0.00     0.135 C 
HETATM   14  O1  UNL     1     -12.528   9.330  15.386  1.00  0.00    -0.297 OA
HETATM   15  C22 UNL     1     -10.422  10.256  14.780  1.00  0.00     0.080 C 
HETATM   16  C23 UNL     1      -9.104   9.755  15.348  1.00  0.00     0.017 C 
HETATM   17  C24 UNL     1      -8.773   8.252  15.069  1.00  0.00    -0.031 C 
HETATM   18  C25 UNL     1      -9.087   7.443  16.350  1.00  0.00     0.016 C 
HETATM   19  C26 UNL     1      -7.238   8.137  14.690  1.00  0.00     0.024 C 
HETATM   20  C27 UNL     1      -6.260   8.635  15.781  1.00  0.00     0.010 C 
HETATM   21  C28 UNL     1      -4.759   8.543  15.417  1.00  0.00     0.011 C 
HETATM   22  C29 UNL     1      -4.428   7.566  14.265  1.00  0.00    -0.029 C 
HETATM   23  C30 UNL     1      -4.509   8.338  12.909  1.00  0.00     0.016 C 
ENDROOT
BRANCH   1  24
HETATM   24  C7  UNL     1      -1.739   7.641  13.951  1.00  0.00    -0.014 C 
HETATM   25  C8  UNL     1      -0.858   7.931  15.171  1.00  0.00     0.010 C 
BRANCH  24  26
HETATM   26  C6  UNL     1      -0.931   6.839  12.891  1.00  0.00     0.008 C 
BRANCH  26  27
HETATM   27  C5  UNL     1      -0.649   7.562  11.565  1.00  0.00     0.028 C 
BRANCH  27  28
HETATM   28  C4  UNL     1       0.501   6.960  10.804  1.00  0.00    -0.025 C 
HETATM   29  C2  UNL     1       0.941   7.272   9.569  1.00  0.00    -0.091 C 
HETATM   30  C1  UNL     1       0.357   8.327   8.670  1.00  0.00     0.042 C 
HETATM   31  C3  UNL     1       2.115   6.540   8.970  1.00  0.00     0.042 C 
ENDBRANCH  27  28
ENDBRANCH  26  27
ENDBRANCH  24  26
ENDBRANCH   1  24
TORSDOF 4
ENDMDL
MODEL 7
REMARK minimizedAffinity -6.05347204
REMARK CNNscore 0.437908024
REMARK CNNaffinity 5.58633804
REMARK  4 active torsions:
REMARK  status: ('A' for Active; 'I' for Inactive)
REMARK    1  A    between atoms: C4_4  and  C5_5 
REMARK    2  A    between atoms: C5_5  and  C6_6 
REMARK    3  A    between atoms: C6_6  and  C7_7 
REMARK    4  A    between atoms: C7_7  and  C9_9 
ROOT
HETATM    1  C9  UNL     1      -4.139 -10.633   4.538  1.00  0.00    -0.002 C 
HETATM    2  C10 UNL     1      -2.969 -11.311   5.313  1.00  0.00     0.007 C 
HETATM    3  C11 UNL     1      -3.336 -11.302   6.809  1.00  0.00     0.015 C 
HETATM    4  C12 UNL     1      -4.536 -10.339   6.910  1.00  0.00    -0.013 C 
HETATM    5  C13 UNL     1      -3.928  -8.900   6.972  1.00  0.00     0.021 C 
HETATM    6  C14 UNL     1      -5.456 -10.462   8.121  1.00  0.00    -0.070 C 
HETATM    7  C15 UNL     1      -5.005 -10.842   9.330  1.00  0.00    -0.022 C 
HETATM    8  C16 UNL     1      -5.833 -10.867  10.577  1.00  0.00     0.034 C 
HETATM    9  C17 UNL     1      -7.348 -10.645  10.362  1.00  0.00     0.013 C 
HETATM   10  C18 UNL     1      -8.130 -10.432  11.712  1.00  0.00     0.018 C 
HETATM   11  C19 UNL     1      -7.369  -9.620  12.779  1.00  0.00     0.023 C 
HETATM   12  C20 UNL     1      -8.461 -11.806  12.336  1.00  0.00     0.023 C 
HETATM   13  C21 UNL     1      -9.470  -9.746  11.427  1.00  0.00     0.135 C 
HETATM   14  O1  UNL     1     -10.068  -9.077  12.269  1.00  0.00    -0.297 OA
HETATM   15  C22 UNL     1     -10.077  -9.998  10.075  1.00  0.00     0.080 C 
HETATM   16  C23 UNL     1      -9.176  -9.488   8.962  1.00  0.00     0.017 C 
HETATM   17  C24 UNL     1      -7.639  -9.583   9.235  1.00  0.00    -0.031 C 
HETATM   18  C25 UNL     1      -7.133  -8.178   9.640  1.00  0.00     0.016 C 
HETATM   19  C26 UNL     1      -6.922 -10.081   7.912  1.00  0.00     0.024 C 
HETATM   20  C27 UNL     1      -7.121  -9.165   6.681  1.00  0.00     0.010 C 
HETATM   21  C28 UNL     1      -6.440  -9.649   5.378  1.00  0.00     0.011 C 
HETATM   22  C29 UNL     1      -5.305 -10.678   5.582  1.00  0.00    -0.029 C 
HETATM   23  C30 UNL     1      -5.916 -12.116   5.565  1.00  0.00     0.016 C 
ENDROOT
BRANCH   1  24
HETATM   24  C7  UNL     1      -4.337 -11.245   3.116  1.00  0.00    -0.014 C 
HETATM   25  C8  UNL     1      -5.141 -12.549   3.164  1.00  0.00     0.010 C 
BRANCH  24  26
HETATM   26  C6  UNL     1      -5.043 -10.219   2.186  1.00  0.00     0.008 C 
BRANCH  26  27
HETATM   27  C5  UNL     1      -6.396 -10.654   1.601  1.00  0.00     0.028 C 
BRANCH  27  28
HETATM   28  C4  UNL     1      -7.113  -9.536   0.895  1.00  0.00    -0.025 C 
HETATM   29  C2  UNL     1      -7.593  -9.513  -0.364  1.00  0.00    -0.091 C 
HETATM   30  C1  UNL     1      -7.513 -10.644  -1.353  1.00  0.00     0.042 C 
HETATM   31  C3  UNL     1      -8.281  -8.282  -0.897  1.00  0.00     0.042 C 
ENDBRANCH  27  28
ENDBRANCH  26  27
ENDBRANCH  24  26
ENDBRANCH   1  24
TORSDOF 4
ENDMDL
MODEL 8
REMARK minimizedAffinity -9.12147617
REMARK CNNscore 0.432467222
REMARK CNNaffinity 7.08810568
REMARK  4 active torsions:
REMARK  status: ('A' for Active; 'I' for Inactive)
REMARK    1  A    between atoms: C4_4  and  C5_5 
REMARK    2  A    between atoms: C5_5  and  C6_6 
REMARK    3  A    between atoms: C6_6  and  C7_7 
REMARK    4  A    between atoms: C7_7  and  C9_9 
ROOT
HETATM    1  C9  UNL     1       0.781   7.260  12.444  1.00  0.00    -0.002 C 
HETATM    2  C10 UNL     1       0.698   5.950  11.603  1.00  0.00     0.007 C 
HETATM    3  C11 UNL     1      -0.695   5.335  11.838  1.00  0.00     0.015 C 
HETATM    4  C12 UNL     1      -1.263   6.106  13.045  1.00  0.00    -0.013 C 
HETATM    5  C13 UNL     1      -0.662   5.419  14.315  1.00  0.00     0.021 C 
HETATM    6  C14 UNL     1      -2.775   6.114  13.245  1.00  0.00    -0.070 C 
HETATM    7  C15 UNL     1      -3.553   5.075  12.894  1.00  0.00    -0.022 C 
HETATM    8  C16 UNL     1      -5.020   4.977  13.173  1.00  0.00     0.034 C 
HETATM    9  C17 UNL     1      -5.675   6.275  13.700  1.00  0.00     0.013 C 
HETATM   10  C18 UNL     1      -7.148   6.051  14.209  1.00  0.00     0.018 C 
HETATM   11  C19 UNL     1      -7.385   4.711  14.933  1.00  0.00     0.023 C 
HETATM   12  C20 UNL     1      -8.118   6.097  13.008  1.00  0.00     0.023 C 
HETATM   13  C21 UNL     1      -7.549   7.198  15.142  1.00  0.00     0.135 C 
HETATM   14  O1  UNL     1      -8.419   7.083  16.004  1.00  0.00    -0.297 OA
HETATM   15  C22 UNL     1      -6.881   8.522  14.900  1.00  0.00     0.080 C 
HETATM   16  C23 UNL     1      -5.375   8.425  15.088  1.00  0.00     0.017 C 
HETATM   17  C24 UNL     1      -4.728   7.059  14.685  1.00  0.00    -0.031 C 
HETATM   18  C25 UNL     1      -4.465   6.250  15.978  1.00  0.00     0.016 C 
HETATM   19  C26 UNL     1      -3.374   7.352  13.917  1.00  0.00     0.024 C 
HETATM   20  C27 UNL     1      -2.322   8.144  14.730  1.00  0.00     0.010 C 
HETATM   21  C28 UNL     1      -1.001   8.450  13.985  1.00  0.00     0.011 C 
HETATM   22  C29 UNL     1      -0.725   7.554  12.757  1.00  0.00    -0.029 C 
HETATM   23  C30 UNL     1      -1.363   8.216  11.493  1.00  0.00     0.016 C 
ENDROOT
BRANCH   1  24
HETATM   24  C7  UNL     1       1.664   8.347  11.755  1.00  0.00    -0.014 C 
HETATM   25  C8  UNL     1       2.093   9.441  12.739  1.00  0.00     0.010 C 
BRANCH  24  26
HETATM   26  C6  UNL     1       2.918   7.688  11.113  1.00  0.00     0.008 C 
BRANCH  26  27
HETATM   27  C5  UNL     1       2.700   6.316  10.457  1.00  0.00     0.028 C 
BRANCH  27  28
HETATM   28  C4  UNL     1       2.241   6.418   9.027  1.00  0.00    -0.025 C 
HETATM   29  C2  UNL     1       2.487   7.400   8.138  1.00  0.00    -0.091 C 
HETATM   30  C1  UNL     1       3.305   8.635   8.400  1.00  0.00     0.042 C 
HETATM   31  C3  UNL     1       1.924   7.324   6.742  1.00  0.00     0.042 C 
ENDBRANCH  27  28
ENDBRANCH  26  27
ENDBRANCH  24  26
ENDBRANCH   1  24
TORSDOF 4
ENDMDL
MODEL 9
REMARK minimizedAffinity -7.8380475
REMARK CNNscore 0.412577599
REMARK CNNaffinity 6.60116196
REMARK  4 active torsions:
REMARK  status: ('A' for Active; 'I' for Inactive)
REMARK    1  A    between atoms: C4_4  and  C5_5 
REMARK    2  A    between atoms: C5_5  and  C6_6 
REMARK    3  A    between atoms: C6_6  and  C7_7 
REMARK    4  A    between atoms: C7_7  and  C9_9 
ROOT
HETATM    1  C9  UNL     1      -2.289   9.302  15.882  1.00  0.00    -0.002 C 
HETATM    2  C10 UNL     1      -1.122   8.988  16.866  1.00  0.00     0.007 C 
HETATM    3  C11 UNL     1       0.033   8.388  16.042  1.00  0.00     0.015 C 
HETATM    4  C12 UNL     1      -0.595   8.061  14.672  1.00  0.00    -0.013 C 
HETATM    5  C13 UNL     1      -1.296   6.674  14.842  1.00  0.00     0.021 C 
HETATM    6  C14 UNL     1       0.335   7.920  13.471  1.00  0.00    -0.070 C 
HETATM    7  C15 UNL     1       1.588   7.444  13.583  1.00  0.00    -0.022 C 
HETATM    8  C16 UNL     1       2.501   7.174  12.429  1.00  0.00     0.034 C 
HETATM    9  C17 UNL     1       2.006   7.701  11.063  1.00  0.00     0.013 C 
HETATM   10  C18 UNL     1       2.872   7.177   9.857  1.00  0.00     0.018 C 
HETATM   11  C19 UNL     1       3.363   5.723   9.997  1.00  0.00     0.023 C 
HETATM   12  C20 UNL     1       4.124   8.067   9.700  1.00  0.00     0.023 C 
HETATM   13  C21 UNL     1       2.074   7.310   8.555  1.00  0.00     0.135 C 
HETATM   14  O1  UNL     1       2.290   6.610   7.567  1.00  0.00    -0.297 OA
HETATM   15  C22 UNL     1       1.050   8.409   8.507  1.00  0.00     0.080 C 
HETATM   16  C23 UNL     1      -0.026   8.208   9.562  1.00  0.00     0.017 C 
HETATM   17  C24 UNL     1       0.446   7.545  10.897  1.00  0.00    -0.031 C 
HETATM   18  C25 UNL     1       0.028   6.055  10.870  1.00  0.00     0.016 C 
HETATM   19  C26 UNL     1      -0.242   8.303  12.107  1.00  0.00     0.024 C 
HETATM   20  C27 UNL     1      -1.789   8.276  12.095  1.00  0.00     0.010 C 
HETATM   21  C28 UNL     1      -2.474   9.026  13.263  1.00  0.00     0.011 C 
HETATM   22  C29 UNL     1      -1.570   9.279  14.491  1.00  0.00    -0.029 C 
HETATM   23  C30 UNL     1      -0.834  10.645  14.303  1.00  0.00     0.016 C 
ENDROOT
BRANCH   1  24
HETATM   24  C7  UNL     1      -3.108  10.555  16.319  1.00  0.00    -0.014 C 
HETATM   25  C8  UNL     1      -4.547  10.509  15.792  1.00  0.00     0.010 C 
BRANCH  24  26
HETATM   26  C6  UNL     1      -3.114  10.675  17.870  1.00  0.00     0.008 C 
BRANCH  26  27
HETATM   27  C5  UNL     1      -2.899  12.085  18.441  1.00  0.00     0.028 C 
BRANCH  27  28
HETATM   28  C4  UNL     1      -4.037  12.541  19.313  1.00  0.00    -0.025 C 
HETATM   29  C2  UNL     1      -5.125  13.255  18.963  1.00  0.00    -0.091 C 
HETATM   30  C1  UNL     1      -5.438  13.754  17.579  1.00  0.00     0.042 C 
HETATM   31  C3  UNL     1      -6.159  13.626  19.995  1.00  0.00     0.042 C 
ENDBRANCH  27  28
ENDBRANCH  26  27
ENDBRANCH  24  26
ENDBRANCH   1  24
TORSDOF 4
ENDMDL
