MODEL 1
REMARK minimizedAffinity -8.00927544
REMARK CNNscore 0.640555382
REMARK CNNaffinity 6.60830927
REMARK  11 active torsions:
REMARK  status: ('A' for Active; 'I' for Inactive)
REMARK    1  A    between atoms: C2_2  and  O1_3 
REMARK    2  A    between atoms: C2_2  and  C3_4 
REMARK    3  A    between atoms: C3_4  and  N1_5 
REMARK    4  A    between atoms: N1_5  and  C4_6 
REMARK    5  A    between atoms: C4_6  and  C5_7 
REMARK    6  A    between atoms: C6_8  and  C7_9 
REMARK    7  A    between atoms: C7_9  and  O2_10 
REMARK    8  A    between atoms: C7_9  and  C8_11 
REMARK    9  A    between atoms: C8_11  and  O3_13 
REMARK   10  A    between atoms: C8_11  and  C10_14 
REMARK   11  A    between atoms: C17_22  and  C18_23 
ROOT
HETATM    1  C10 UNL     1     -12.629  44.697 -27.020  1.00  0.00     0.034 C 
HETATM    2  C11 UNL     1     -12.845  46.202 -27.314  1.00  0.00     0.012 C 
HETATM    3  C12 UNL     1     -14.266  46.552 -26.826  1.00  0.00     0.044 C 
HETATM    4  C13 UNL     1     -14.650  45.392 -25.875  1.00  0.00     0.093 C 
HETATM    5  O4  UNL     1     -13.918  45.518 -24.623  1.00  0.00    -0.363 OA
HETATM    6  C14 UNL     1     -14.054  46.752 -23.911  1.00  0.00     0.263 C 
HETATM    7  C15 UNL     1     -14.655  46.553 -22.586  1.00  0.00    -0.080 C 
HETATM    8  C16 UNL     1     -15.182  46.517 -21.503  1.00  0.00    -0.093 C 
HETATM    9  C17 UNL     1     -15.870  46.493 -20.187  1.00  0.00     0.121 C 
HETATM   10  C24 UNL     1     -17.398  46.267 -20.323  1.00  0.00     0.190 C 
HETATM   11  O5  UNL     1     -17.773  44.905 -20.574  1.00  0.00    -0.384 OA
HETATM   12  C25 UNL     1     -17.707  44.520 -21.946  1.00  0.00     0.122 C 
HETATM   13  C26 UNL     1     -17.649  42.997 -22.012  1.00  0.00     0.033 C 
HETATM   14  C27 UNL     1     -18.038  42.422 -23.380  1.00  0.00     0.013 C 
HETATM   15  C28 UNL     1     -17.869  43.411 -24.564  1.00  0.00    -0.026 C 
HETATM   16  C29 UNL     1     -18.458  42.740 -25.836  1.00  0.00     0.016 C 
HETATM   17  C30 UNL     1     -18.762  44.659 -24.258  1.00  0.00     0.071 C 
HETATM   18  C31 UNL     1     -18.878  45.043 -22.766  1.00  0.00     0.045 C 
HETATM   19  C32 UNL     1     -18.414  45.882 -25.090  1.00  0.00     0.154 C 
HETATM   20  O6  UNL     1     -19.214  46.803 -25.254  1.00  0.00    -0.293 OA
HETATM   21  C33 UNL     1     -17.058  46.027 -25.655  1.00  0.00     0.057 C 
HETATM   22  C34 UNL     1     -16.096  45.104 -25.485  1.00  0.00    -0.036 C 
HETATM   23  C35 UNL     1     -16.335  43.765 -24.774  1.00  0.00     0.026 C 
HETATM   24  C36 UNL     1     -15.530  42.580 -25.384  1.00  0.00     0.011 C 
HETATM   25  C37 UNL     1     -14.095  42.926 -25.800  1.00  0.00     0.014 C 
HETATM   26  C38 UNL     1     -14.070  44.177 -26.696  1.00  0.00    -0.002 C 
HETATM   27  C39 UNL     1     -14.895  43.902 -27.983  1.00  0.00     0.019 C 
ENDROOT
BRANCH   1  28
HETATM   28  C8  UNL     1     -11.667  43.974 -28.020  1.00  0.00     0.087 C 
HETATM   29  C9  UNL     1     -12.315  43.574 -29.356  1.00  0.00     0.049 C 
BRANCH  28  30
HETATM   30  C7  UNL     1     -10.386  44.847 -28.339  1.00  0.00     0.181 C 
BRANCH  30  31
HETATM   31  C6  UNL     1     -10.467  45.672 -29.646  1.00  0.00     0.159 C 
HETATM   32  C5  UNL     1      -9.563  45.329 -30.843  1.00  0.00     0.051 C 
HETATM   33  C41 UNL     1      -9.601  46.641 -31.633  1.00  0.00     0.014 C 
HETATM   34  C40 UNL     1      -9.741  47.703 -30.547  1.00  0.00     0.173 C 
HETATM   35  C42 UNL     1     -10.783  46.694 -32.607  1.00  0.00     0.012 C 
HETATM   36  O7  UNL     1     -10.262  47.072 -29.371  1.00  0.00    -0.382 OA
BRANCH  32  37
HETATM   37  C4  UNL     1      -8.124  44.840 -30.574  1.00  0.00     0.277 C 
BRANCH  37  38
HETATM   38  N1  UNL     1      -7.183  45.003 -31.684  1.00  0.00     0.086 N 
HETATM   39  H8  UNL     1      -6.695  44.123 -31.852  1.00  0.00     0.315 HD
BRANCH  38  40
HETATM   40  C3  UNL     1      -6.177  46.032 -31.354  1.00  0.00     0.300 C 
BRANCH  40  41
HETATM   41  C2  UNL     1      -4.926  45.807 -32.224  1.00  0.00     0.142 C 
HETATM   42  C1  UNL     1      -4.708  44.336 -32.532  1.00  0.00     0.041 C 
BRANCH  41  43
HETATM   43  O1  UNL     1      -3.778  46.312 -31.538  1.00  0.00    -0.394 OA
HETATM   44  H5  UNL     1      -4.130  47.027 -30.969  1.00  0.00     0.210 HD
ENDBRANCH  41  43
ENDBRANCH  40  41
ENDBRANCH  38  40
ENDBRANCH  37  38
ENDBRANCH  32  37
ENDBRANCH  30  31
BRANCH  30  45
HETATM   45  O2  UNL     1     -10.183  45.730 -27.229  1.00  0.00    -0.390 OA
HETATM   46  H14 UNL     1     -10.972  46.310 -27.206  1.00  0.00     0.210 HD
ENDBRANCH  30  45
ENDBRANCH  28  30
BRANCH  28  47
HETATM   47  O3  UNL     1     -11.250  42.732 -27.432  1.00  0.00    -0.387 OA
HETATM   48  H18 UNL     1     -10.553  42.934 -26.772  1.00  0.00     0.210 HD
ENDBRANCH  28  47
ENDBRANCH   1  28
BRANCH   9  49
HETATM   49  C18 UNL     1     -15.604  47.797 -19.439  1.00  0.00    -0.040 A 
HETATM   50  C19 UNL     1     -14.444  48.558 -19.688  1.00  0.00     0.008 A 
HETATM   51  C20 UNL     1     -14.217  49.756 -19.010  1.00  0.00     0.001 A 
HETATM   52  C21 UNL     1     -15.144  50.216 -18.076  1.00  0.00     0.000 A 
HETATM   53  C22 UNL     1     -16.288  49.465 -17.811  1.00  0.00     0.001 A 
HETATM   54  C23 UNL     1     -16.524  48.267 -18.487  1.00  0.00     0.008 A 
ENDBRANCH   9  49
TORSDOF 11
ENDMDL
MODEL 2
REMARK minimizedAffinity -8.9042263
REMARK CNNscore 0.574429035
REMARK CNNaffinity 7.43646812
REMARK  11 active torsions:
REMARK  status: ('A' for Active; 'I' for Inactive)
REMARK    1  A    between atoms: C2_2  and  O1_3 
REMARK    2  A    between atoms: C2_2  and  C3_4 
REMARK    3  A    between atoms: C3_4  and  N1_5 
REMARK    4  A    between atoms: N1_5  and  C4_6 
REMARK    5  A    between atoms: C4_6  and  C5_7 
REMARK    6  A    between atoms: C6_8  and  C7_9 
REMARK    7  A    between atoms: C7_9  and  O2_10 
REMARK    8  A    between atoms: C7_9  and  C8_11 
REMARK    9  A    between atoms: C8_11  and  O3_13 
REMARK   10  A    between atoms: C8_11  and  C10_14 
REMARK   11  A    between atoms: C17_22  and  C18_23 
ROOT
HETATM    1  C10 UNL     1      -1.912  52.967  -9.387  1.00  0.00     0.034 C 
HETATM    2  C11 UNL     1      -1.880  52.020  -8.162  1.00  0.00     0.012 C 
HETATM    3  C12 UNL     1      -0.475  52.143  -7.540  1.00  0.00     0.044 C 
HETATM    4  C13 UNL     1       0.099  53.458  -8.124  1.00  0.00     0.093 C 
HETATM    5  O4  UNL     1      -0.552  54.600  -7.499  1.00  0.00    -0.363 OA
HETATM    6  C14 UNL     1      -0.499  54.679  -6.071  1.00  0.00     0.263 C 
HETATM    7  C15 UNL     1       0.212  55.880  -5.618  1.00  0.00    -0.080 C 
HETATM    8  C16 UNL     1       0.816  56.803  -5.131  1.00  0.00    -0.093 C 
HETATM    9  C17 UNL     1       1.594  57.910  -4.519  1.00  0.00     0.121 C 
HETATM   10  C24 UNL     1       3.124  57.718  -4.684  1.00  0.00     0.190 C 
HETATM   11  O5  UNL     1       3.624  58.050  -5.986  1.00  0.00    -0.384 OA
HETATM   12  C25 UNL     1       3.503  57.003  -6.948  1.00  0.00     0.122 C 
HETATM   13  C26 UNL     1       3.604  57.619  -8.340  1.00  0.00     0.033 C 
HETATM   14  C27 UNL     1       3.954  56.609  -9.439  1.00  0.00     0.013 C 
HETATM   15  C28 UNL     1       3.596  55.137  -9.097  1.00  0.00    -0.026 C 
HETATM   16  C29 UNL     1       4.162  54.233 -10.227  1.00  0.00     0.016 C 
HETATM   17  C30 UNL     1       4.370  54.763  -7.789  1.00  0.00     0.071 C 
HETATM   18  C31 UNL     1       4.550  55.912  -6.773  1.00  0.00     0.045 C 
HETATM   19  C32 UNL     1       3.834  53.523  -7.094  1.00  0.00     0.154 C 
HETATM   20  O6  UNL     1       4.517  52.884  -6.293  1.00  0.00    -0.293 OA
HETATM   21  C33 UNL     1       2.434  53.107  -7.304  1.00  0.00     0.057 C 
HETATM   22  C34 UNL     1       1.591  53.771  -8.113  1.00  0.00    -0.036 C 
HETATM   23  C35 UNL     1       2.023  54.965  -8.975  1.00  0.00     0.026 C 
HETATM   24  C36 UNL     1       1.308  55.031 -10.357  1.00  0.00     0.011 C 
HETATM   25  C37 UNL     1      -0.182  54.669 -10.327  1.00  0.00     0.014 C 
HETATM   26  C38 UNL     1      -0.405  53.324  -9.613  1.00  0.00    -0.002 C 
HETATM   27  C39 UNL     1       0.351  52.204 -10.380  1.00  0.00     0.019 C 
ENDROOT
BRANCH   1  28
HETATM   28  C8  UNL     1      -2.859  52.499 -10.541  1.00  0.00     0.087 C 
HETATM   29  C9  UNL     1      -4.064  53.420 -10.794  1.00  0.00     0.049 C 
BRANCH  28  30
HETATM   30  C7  UNL     1      -2.079  52.325 -11.907  1.00  0.00     0.181 C 
BRANCH  30  31
HETATM   31  C6  UNL     1      -1.865  50.858 -12.353  1.00  0.00     0.159 C 
HETATM   32  C5  UNL     1      -0.733  50.496 -13.331  1.00  0.00     0.051 C 
HETATM   33  C41 UNL     1      -1.217  49.143 -13.861  1.00  0.00     0.014 C 
HETATM   34  C40 UNL     1      -2.736  49.276 -13.838  1.00  0.00     0.173 C 
HETATM   35  C42 UNL     1      -0.755  47.979 -12.978  1.00  0.00     0.012 C 
HETATM   36  O7  UNL     1      -3.078  50.322 -12.919  1.00  0.00    -0.382 OA
BRANCH  32  37
HETATM   37  C4  UNL     1      -0.381  51.486 -14.461  1.00  0.00     0.277 C 
BRANCH  37  38
HETATM   38  N1  UNL     1       0.771  52.353 -14.207  1.00  0.00     0.086 N 
HETATM   39  H8  UNL     1       0.671  53.220 -14.735  1.00  0.00     0.315 HD
BRANCH  38  40
HETATM   40  C3  UNL     1       2.016  51.689 -14.641  1.00  0.00     0.300 C 
BRANCH  40  41
HETATM   41  C2  UNL     1       2.434  52.255 -16.012  1.00  0.00     0.142 C 
HETATM   42  C1  UNL     1       3.886  52.704 -16.019  1.00  0.00     0.041 C 
BRANCH  41  43
HETATM   43  O1  UNL     1       1.602  53.371 -16.335  1.00  0.00    -0.394 OA
HETATM   44  H5  UNL     1       0.761  53.190 -15.867  1.00  0.00     0.210 HD
ENDBRANCH  41  43
ENDBRANCH  40  41
ENDBRANCH  38  40
ENDBRANCH  37  38
ENDBRANCH  32  37
ENDBRANCH  30  31
BRANCH  30  45
HETATM   45  O2  UNL     1      -2.819  53.026 -12.914  1.00  0.00    -0.390 OA
HETATM   46  H14 UNL     1      -3.683  52.568 -12.974  1.00  0.00     0.210 HD
ENDBRANCH  30  45
ENDBRANCH  28  30
BRANCH  28  47
HETATM   47  O3  UNL     1      -3.438  51.237 -10.170  1.00  0.00    -0.387 OA
HETATM   48  H18 UNL     1      -2.762  50.543 -10.326  1.00  0.00     0.210 HD
ENDBRANCH  28  47
ENDBRANCH   1  28
BRANCH   9  49
HETATM   49  C18 UNL     1       1.243  58.034  -3.039  1.00  0.00    -0.040 A 
HETATM   50  C19 UNL     1       1.529  56.995  -2.131  1.00  0.00     0.008 A 
HETATM   51  C20 UNL     1       1.217  57.124  -0.777  1.00  0.00     0.001 A 
HETATM   52  C21 UNL     1       0.618  58.292  -0.307  1.00  0.00     0.000 A 
HETATM   53  C22 UNL     1       0.317  59.320  -1.198  1.00  0.00     0.001 A 
HETATM   54  C23 UNL     1       0.629  59.200  -2.554  1.00  0.00     0.008 A 
ENDBRANCH   9  49
TORSDOF 11
ENDMDL
MODEL 3
REMARK minimizedAffinity -8.33886242
REMARK CNNscore 0.475132972
REMARK CNNaffinity 6.82854843
REMARK  11 active torsions:
REMARK  status: ('A' for Active; 'I' for Inactive)
REMARK    1  A    between atoms: C2_2  and  O1_3 
REMARK    2  A    between atoms: C2_2  and  C3_4 
REMARK    3  A    between atoms: C3_4  and  N1_5 
REMARK    4  A    between atoms: N1_5  and  C4_6 
REMARK    5  A    between atoms: C4_6  and  C5_7 
REMARK    6  A    between atoms: C6_8  and  C7_9 
REMARK    7  A    between atoms: C7_9  and  O2_10 
REMARK    8  A    between atoms: C7_9  and  C8_11 
REMARK    9  A    between atoms: C8_11  and  O3_13 
REMARK   10  A    between atoms: C8_11  and  C10_14 
REMARK   11  A    between atoms: C17_22  and  C18_23 
ROOT
HETATM    1  C10 UNL     1       5.949  49.022  -8.095  1.00  0.00     0.034 C 
HETATM    2  C11 UNL     1       4.902  48.780  -6.980  1.00  0.00     0.012 C 
HETATM    3  C12 UNL     1       4.315  50.157  -6.612  1.00  0.00     0.044 C 
HETATM    4  C13 UNL     1       4.689  51.073  -7.804  1.00  0.00     0.093 C 
HETATM    5  O4  UNL     1       3.861  50.747  -8.955  1.00  0.00    -0.363 OA
HETATM    6  C14 UNL     1       2.442  50.800  -8.772  1.00  0.00     0.263 C 
HETATM    7  C15 UNL     1       1.817  51.803  -9.643  1.00  0.00    -0.080 C 
HETATM    8  C16 UNL     1       1.204  52.627 -10.273  1.00  0.00    -0.093 C 
HETATM    9  C17 UNL     1       0.441  53.668 -11.009  1.00  0.00     0.121 C 
HETATM   10  C24 UNL     1       0.685  55.091 -10.443  1.00  0.00     0.190 C 
HETATM   11  O5  UNL     1       1.930  55.680 -10.845  1.00  0.00    -0.384 OA
HETATM   12  C25 UNL     1       3.048  55.293 -10.048  1.00  0.00     0.122 C 
HETATM   13  C26 UNL     1       4.320  55.576 -10.843  1.00  0.00     0.033 C 
HETATM   14  C27 UNL     1       5.584  55.655  -9.977  1.00  0.00     0.013 C 
HETATM   15  C28 UNL     1       5.482  54.908  -8.621  1.00  0.00    -0.026 C 
HETATM   16  C29 UNL     1       6.765  55.223  -7.803  1.00  0.00     0.016 C 
HETATM   17  C30 UNL     1       4.282  55.533  -7.835  1.00  0.00     0.071 C 
HETATM   18  C31 UNL     1       3.094  56.003  -8.703  1.00  0.00     0.045 C 
HETATM   19  C32 UNL     1       3.786  54.672  -6.685  1.00  0.00     0.154 C 
HETATM   20  O6  UNL     1       3.127  55.146  -5.759  1.00  0.00    -0.293 OA
HETATM   21  C33 UNL     1       4.017  53.214  -6.704  1.00  0.00     0.057 C 
HETATM   22  C34 UNL     1       4.676  52.594  -7.697  1.00  0.00    -0.036 C 
HETATM   23  C35 UNL     1       5.338  53.345  -8.860  1.00  0.00     0.026 C 
HETATM   24  C36 UNL     1       6.665  52.694  -9.350  1.00  0.00     0.011 C 
HETATM   25  C37 UNL     1       6.647  51.161  -9.402  1.00  0.00     0.014 C 
HETATM   26  C38 UNL     1       6.162  50.573  -8.066  1.00  0.00    -0.002 C 
HETATM   27  C39 UNL     1       7.131  51.008  -6.932  1.00  0.00     0.019 C 
ENDROOT
BRANCH   1  28
HETATM   28  C8  UNL     1       7.133  47.999  -8.102  1.00  0.00     0.087 C 
HETATM   29  C9  UNL     1       6.708  46.525  -8.010  1.00  0.00     0.049 C 
BRANCH  28  30
HETATM   30  C7  UNL     1       8.047  48.167  -9.384  1.00  0.00     0.181 C 
BRANCH  30  31
HETATM   31  C6  UNL     1       8.822  46.895  -9.803  1.00  0.00     0.159 C 
HETATM   32  C5  UNL     1      10.024  46.405  -8.976  1.00  0.00     0.051 C 
HETATM   33  C41 UNL     1      10.744  45.515  -9.994  1.00  0.00     0.014 C 
HETATM   34  C40 UNL     1      10.449  46.192 -11.329  1.00  0.00     0.173 C 
HETATM   35  C42 UNL     1      10.215  44.077  -9.981  1.00  0.00     0.012 C 
HETATM   36  O7  UNL     1       9.286  47.014 -11.163  1.00  0.00    -0.382 OA
BRANCH  32  37
HETATM   37  C4  UNL     1      10.960  47.449  -8.333  1.00  0.00     0.277 C 
BRANCH  37  38
HETATM   38  N1  UNL     1      10.652  48.847  -8.639  1.00  0.00     0.086 N 
HETATM   39  H8  UNL     1      11.135  49.125  -9.494  1.00  0.00     0.315 HD
BRANCH  38  40
HETATM   40  C3  UNL     1      11.113  49.724  -7.544  1.00  0.00     0.300 C 
BRANCH  40  41
HETATM   41  C2  UNL     1      12.646  49.863  -7.624  1.00  0.00     0.142 C 
HETATM   42  C1  UNL     1      13.170  50.908  -6.654  1.00  0.00     0.041 C 
BRANCH  41  43
HETATM   43  O1  UNL     1      13.017  50.236  -8.953  1.00  0.00    -0.394 OA
HETATM   44  H5  UNL     1      12.306  49.867  -9.516  1.00  0.00     0.210 HD
ENDBRANCH  41  43
ENDBRANCH  40  41
ENDBRANCH  38  40
ENDBRANCH  37  38
ENDBRANCH  32  37
ENDBRANCH  30  31
BRANCH  30  45
HETATM   45  O2  UNL     1       7.200  48.586 -10.460  1.00  0.00    -0.390 OA
HETATM   46  H14 UNL     1       6.572  47.849 -10.605  1.00  0.00     0.210 HD
ENDBRANCH  30  45
ENDBRANCH  28  30
BRANCH  28  47
HETATM   47  O3  UNL     1       7.932  48.221  -6.929  1.00  0.00    -0.387 OA
HETATM   48  H18 UNL     1       8.495  49.007  -7.096  1.00  0.00     0.210 HD
ENDBRANCH  28  47
ENDBRANCH   1  28
BRANCH   9  49
HETATM   49  C18 UNL     1      -1.050  53.343 -10.968  1.00  0.00    -0.040 A 
HETATM   50  C19 UNL     1      -1.541  52.106 -11.432  1.00  0.00     0.008 A 
HETATM   51  C20 UNL     1      -2.904  51.813 -11.377  1.00  0.00     0.001 A 
HETATM   52  C21 UNL     1      -3.798  52.748 -10.856  1.00  0.00     0.000 A 
HETATM   53  C22 UNL     1      -3.327  53.980 -10.409  1.00  0.00     0.001 A 
HETATM   54  C23 UNL     1      -1.964  54.280 -10.457  1.00  0.00     0.008 A 
ENDBRANCH   9  49
TORSDOF 11
ENDMDL
MODEL 4
REMARK minimizedAffinity -8.33656216
REMARK CNNscore 0.345806867
REMARK CNNaffinity 6.6074791
REMARK  11 active torsions:
REMARK  status: ('A' for Active; 'I' for Inactive)
REMARK    1  A    between atoms: C2_2  and  O1_3 
REMARK    2  A    between atoms: C2_2  and  C3_4 
REMARK    3  A    between atoms: C3_4  and  N1_5 
REMARK    4  A    between atoms: N1_5  and  C4_6 
REMARK    5  A    between atoms: C4_6  and  C5_7 
REMARK    6  A    between atoms: C6_8  and  C7_9 
REMARK    7  A    between atoms: C7_9  and  O2_10 
REMARK    8  A    between atoms: C7_9  and  C8_11 
REMARK    9  A    between atoms: C8_11  and  O3_13 
REMARK   10  A    between atoms: C8_11  and  C10_14 
REMARK   11  A    between atoms: C17_22  and  C18_23 
ROOT
HETATM    1  C10 UNL     1       6.024  49.064  -7.932  1.00  0.00     0.034 C 
HETATM    2  C11 UNL     1       5.008  48.868  -6.781  1.00  0.00     0.012 C 
HETATM    3  C12 UNL     1       4.422  50.258  -6.462  1.00  0.00     0.044 C 
HETATM    4  C13 UNL     1       4.760  51.120  -7.703  1.00  0.00     0.093 C 
HETATM    5  O4  UNL     1       3.904  50.737  -8.817  1.00  0.00    -0.363 OA
HETATM    6  C14 UNL     1       2.491  50.791  -8.600  1.00  0.00     0.263 C 
HETATM    7  C15 UNL     1       1.837  51.751  -9.499  1.00  0.00    -0.080 C 
HETATM    8  C16 UNL     1       1.203  52.542 -10.150  1.00  0.00    -0.093 C 
HETATM    9  C17 UNL     1       0.415  53.543 -10.913  1.00  0.00     0.121 C 
HETATM   10  C24 UNL     1       0.665  54.992 -10.419  1.00  0.00     0.190 C 
HETATM   11  O5  UNL     1       1.895  55.569 -10.880  1.00  0.00    -0.384 OA
HETATM   12  C25 UNL     1       3.036  55.224 -10.096  1.00  0.00     0.122 C 
HETATM   13  C26 UNL     1       4.285  55.477 -10.935  1.00  0.00     0.033 C 
HETATM   14  C27 UNL     1       5.570  55.602 -10.107  1.00  0.00     0.013 C 
HETATM   15  C28 UNL     1       5.508  54.917  -8.715  1.00  0.00    -0.026 C 
HETATM   16  C29 UNL     1       6.809  55.276  -7.946  1.00  0.00     0.016 C 
HETATM   17  C30 UNL     1       4.324  55.572  -7.928  1.00  0.00     0.071 C 
HETATM   18  C31 UNL     1       3.111  55.996  -8.786  1.00  0.00     0.045 C 
HETATM   19  C32 UNL     1       3.863  54.762  -6.728  1.00  0.00     0.154 C 
HETATM   20  O6  UNL     1       3.225  55.275  -5.808  1.00  0.00    -0.293 OA
HETATM   21  C33 UNL     1       4.103  53.306  -6.685  1.00  0.00     0.057 C 
HETATM   22  C34 UNL     1       4.739  52.644  -7.666  1.00  0.00    -0.036 C 
HETATM   23  C35 UNL     1       5.367  53.344  -8.879  1.00  0.00     0.026 C 
HETATM   24  C36 UNL     1       6.686  52.678  -9.372  1.00  0.00     0.011 C 
HETATM   25  C37 UNL     1       6.676  51.145  -9.354  1.00  0.00     0.014 C 
HETATM   26  C38 UNL     1       6.228  50.616  -7.980  1.00  0.00    -0.002 C 
HETATM   27  C39 UNL     1       7.223  51.107  -6.892  1.00  0.00     0.019 C 
ENDROOT
BRANCH   1  28
HETATM   28  C8  UNL     1       7.214  48.048  -7.923  1.00  0.00     0.087 C 
HETATM   29  C9  UNL     1       7.171  47.001  -9.048  1.00  0.00     0.049 C 
BRANCH  28  30
HETATM   30  C7  UNL     1       8.615  48.783  -7.991  1.00  0.00     0.181 C 
BRANCH  30  31
HETATM   31  C6  UNL     1       9.685  48.238  -7.014  1.00  0.00     0.159 C 
HETATM   32  C5  UNL     1      11.067  48.908  -6.916  1.00  0.00     0.051 C 
HETATM   33  C41 UNL     1      11.898  47.787  -6.284  1.00  0.00     0.014 C 
HETATM   34  C40 UNL     1      11.257  46.518  -6.835  1.00  0.00     0.173 C 
HETATM   35  C42 UNL     1      11.835  47.814  -4.753  1.00  0.00     0.012 C 
HETATM   36  O7  UNL     1       9.928  46.839  -7.264  1.00  0.00    -0.382 OA
BRANCH  32  37
HETATM   37  C4  UNL     1      11.711  49.476  -8.198  1.00  0.00     0.277 C 
BRANCH  37  38
HETATM   38  N1  UNL     1      13.116  49.871  -8.077  1.00  0.00     0.086 N 
HETATM   39  H8  UNL     1      13.700  49.038  -7.991  1.00  0.00     0.315 HD
BRANCH  38  40
HETATM   40  C3  UNL     1      13.313  50.698  -6.871  1.00  0.00     0.300 C 
BRANCH  40  41
HETATM   41  C2  UNL     1      14.603  51.526  -7.036  1.00  0.00     0.142 C 
HETATM   42  C1  UNL     1      14.375  52.995  -6.724  1.00  0.00     0.041 C 
BRANCH  41  43
HETATM   43  O1  UNL     1      15.072  51.404  -8.380  1.00  0.00    -0.394 OA
HETATM   44  H5  UNL     1      14.747  50.528  -8.673  1.00  0.00     0.210 HD
ENDBRANCH  41  43
ENDBRANCH  40  41
ENDBRANCH  38  40
ENDBRANCH  37  38
ENDBRANCH  32  37
ENDBRANCH  30  31
BRANCH  30  45
HETATM   45  O2  UNL     1       9.094  48.667  -9.336  1.00  0.00    -0.390 OA
HETATM   46  H14 UNL     1       9.223  47.709  -9.488  1.00  0.00     0.210 HD
ENDBRANCH  30  45
ENDBRANCH  28  30
BRANCH  28  47
HETATM   47  O3  UNL     1       7.149  47.282  -6.709  1.00  0.00    -0.387 OA
HETATM   48  H18 UNL     1       7.505  47.840  -5.986  1.00  0.00     0.210 HD
ENDBRANCH  28  47
ENDBRANCH   1  28
BRANCH   9  49
HETATM   49  C18 UNL     1      -1.072  53.213 -10.819  1.00  0.00    -0.040 A 
HETATM   50  C19 UNL     1      -2.013  54.185 -10.424  1.00  0.00     0.008 A 
HETATM   51  C20 UNL     1      -3.372  53.877 -10.356  1.00  0.00     0.001 A 
HETATM   52  C21 UNL     1      -3.815  52.597 -10.684  1.00  0.00     0.000 A 
HETATM   53  C22 UNL     1      -2.893  51.623 -11.062  1.00  0.00     0.001 A 
HETATM   54  C23 UNL     1      -1.531  51.924 -11.136  1.00  0.00     0.008 A 
ENDBRANCH   9  49
TORSDOF 11
ENDMDL
MODEL 5
REMARK minimizedAffinity -7.74997616
REMARK CNNscore 0.294248253
REMARK CNNaffinity 6.39874983
REMARK  11 active torsions:
REMARK  status: ('A' for Active; 'I' for Inactive)
REMARK    1  A    between atoms: C2_2  and  O1_3 
REMARK    2  A    between atoms: C2_2  and  C3_4 
REMARK    3  A    between atoms: C3_4  and  N1_5 
REMARK    4  A    between atoms: N1_5  and  C4_6 
REMARK    5  A    between atoms: C4_6  and  C5_7 
REMARK    6  A    between atoms: C6_8  and  C7_9 
REMARK    7  A    between atoms: C7_9  and  O2_10 
REMARK    8  A    between atoms: C7_9  and  C8_11 
REMARK    9  A    between atoms: C8_11  and  O3_13 
REMARK   10  A    between atoms: C8_11  and  C10_14 
REMARK   11  A    between atoms: C17_22  and  C18_23 
ROOT
HETATM    1  C10 UNL     1     -13.137  44.591 -27.152  1.00  0.00     0.034 C 
HETATM    2  C11 UNL     1     -13.280  46.122 -27.337  1.00  0.00     0.012 C 
HETATM    3  C12 UNL     1     -14.680  46.506 -26.817  1.00  0.00     0.044 C 
HETATM    4  C13 UNL     1     -15.119  45.301 -25.948  1.00  0.00     0.093 C 
HETATM    5  O4  UNL     1     -14.378  45.301 -24.695  1.00  0.00    -0.363 OA
HETATM    6  C14 UNL     1     -14.451  46.486 -23.896  1.00  0.00     0.263 C 
HETATM    7  C15 UNL     1     -15.057  46.223 -22.585  1.00  0.00    -0.080 C 
HETATM    8  C16 UNL     1     -15.583  46.136 -21.504  1.00  0.00    -0.093 C 
HETATM    9  C17 UNL     1     -16.268  46.053 -20.189  1.00  0.00     0.121 C 
HETATM   10  C24 UNL     1     -17.806  45.912 -20.332  1.00  0.00     0.190 C 
HETATM   11  O5  UNL     1     -18.249  44.592 -20.676  1.00  0.00    -0.384 OA
HETATM   12  C25 UNL     1     -18.205  44.303 -22.073  1.00  0.00     0.122 C 
HETATM   13  C26 UNL     1     -18.223  42.787 -22.247  1.00  0.00     0.033 C 
HETATM   14  C27 UNL     1     -18.643  42.332 -23.650  1.00  0.00     0.013 C 
HETATM   15  C28 UNL     1     -18.428  43.393 -24.762  1.00  0.00    -0.026 C 
HETATM   16  C29 UNL     1     -19.053  42.844 -26.075  1.00  0.00     0.016 C 
HETATM   17  C30 UNL     1     -19.258  44.658 -24.363  1.00  0.00     0.071 C 
HETATM   18  C31 UNL     1     -19.351  44.940 -22.847  1.00  0.00     0.045 C 
HETATM   19  C32 UNL     1     -18.852  45.919 -25.108  1.00  0.00     0.154 C 
HETATM   20  O6  UNL     1     -19.606  46.887 -25.201  1.00  0.00    -0.293 OA
HETATM   21  C33 UNL     1     -17.491  46.036 -25.669  1.00  0.00     0.057 C 
HETATM   22  C34 UNL     1     -16.576  45.058 -25.571  1.00  0.00    -0.036 C 
HETATM   23  C35 UNL     1     -16.880  43.685 -24.956  1.00  0.00     0.026 C 
HETATM   24  C36 UNL     1     -16.136  42.508 -25.654  1.00  0.00     0.011 C 
HETATM   25  C37 UNL     1     -14.686  42.812 -26.052  1.00  0.00     0.014 C 
HETATM   26  C38 UNL     1     -14.601  44.121 -26.857  1.00  0.00    -0.002 C 
HETATM   27  C39 UNL     1     -15.442  43.980 -28.156  1.00  0.00     0.019 C 
ENDROOT
BRANCH   1  28
HETATM   28  C8  UNL     1     -12.215  43.895 -28.207  1.00  0.00     0.087 C 
HETATM   29  C9  UNL     1     -12.329  44.463 -29.631  1.00  0.00     0.049 C 
BRANCH  28  30
HETATM   30  C7  UNL     1     -10.692  43.943 -27.780  1.00  0.00     0.181 C 
BRANCH  30  31
HETATM   31  C6  UNL     1     -10.428  43.694 -26.275  1.00  0.00     0.159 C 
HETATM   32  C5  UNL     1     -10.356  44.873 -25.289  1.00  0.00     0.051 C 
HETATM   33  C41 UNL     1      -9.595  44.238 -24.120  1.00  0.00     0.014 C 
HETATM   34  C40 UNL     1      -8.672  43.234 -24.802  1.00  0.00     0.173 C 
HETATM   35  C42 UNL     1     -10.534  43.537 -23.133  1.00  0.00     0.012 C 
HETATM   36  O7  UNL     1      -9.213  42.939 -26.096  1.00  0.00    -0.382 OA
BRANCH  32  37
HETATM   37  C4  UNL     1      -9.724  46.199 -25.759  1.00  0.00     0.277 C 
BRANCH  37  38
HETATM   38  N1  UNL     1      -8.754  46.798 -24.840  1.00  0.00     0.086 N 
HETATM   39  H8  UNL     1      -9.190  46.942 -23.928  1.00  0.00     0.315 HD
BRANCH  38  40
HETATM   40  C3  UNL     1      -8.308  48.110 -25.349  1.00  0.00     0.300 C 
BRANCH  40  41
HETATM   41  C2  UNL     1      -9.356  48.644 -26.345  1.00  0.00     0.142 C 
HETATM   42  C1  UNL     1      -8.879  48.530 -27.783  1.00  0.00     0.041 C 
BRANCH  41  43
HETATM   43  O1  UNL     1      -9.627  50.017 -26.054  1.00  0.00    -0.394 OA
HETATM   44  H5  UNL     1      -9.449  50.101 -25.094  1.00  0.00     0.210 HD
ENDBRANCH  41  43
ENDBRANCH  40  41
ENDBRANCH  38  40
ENDBRANCH  37  38
ENDBRANCH  32  37
ENDBRANCH  30  31
BRANCH  30  45
HETATM   45  O2  UNL     1      -9.999  42.959 -28.555  1.00  0.00    -0.390 OA
HETATM   46  H14 UNL     1     -10.382  42.097 -28.291  1.00  0.00     0.210 HD
ENDBRANCH  30  45
ENDBRANCH  28  30
BRANCH  28  47
HETATM   47  O3  UNL     1     -12.621  42.522 -28.329  1.00  0.00    -0.387 OA
HETATM   48  H18 UNL     1     -12.257  42.035 -27.561  1.00  0.00     0.210 HD
ENDBRANCH  28  47
ENDBRANCH   1  28
BRANCH   9  49
HETATM   49  C18 UNL     1     -15.936  47.285 -19.352  1.00  0.00    -0.040 A 
HETATM   50  C19 UNL     1     -16.951  48.124 -18.851  1.00  0.00     0.008 A 
HETATM   51  C20 UNL     1     -16.637  49.240 -18.075  1.00  0.00     0.001 A 
HETATM   52  C21 UNL     1     -15.306  49.536 -17.784  1.00  0.00     0.000 A 
HETATM   53  C22 UNL     1     -14.293  48.722 -18.286  1.00  0.00     0.001 A 
HETATM   54  C23 UNL     1     -14.599  47.602 -19.061  1.00  0.00     0.008 A 
ENDBRANCH   9  49
TORSDOF 11
ENDMDL
MODEL 6
REMARK minimizedAffinity -8.29818058
REMARK CNNscore 0.293529093
REMARK CNNaffinity 6.14012289
REMARK  11 active torsions:
REMARK  status: ('A' for Active; 'I' for Inactive)
REMARK    1  A    between atoms: C2_2  and  O1_3 
REMARK    2  A    between atoms: C2_2  and  C3_4 
REMARK    3  A    between atoms: C3_4  and  N1_5 
REMARK    4  A    between atoms: N1_5  and  C4_6 
REMARK    5  A    between atoms: C4_6  and  C5_7 
REMARK    6  A    between atoms: C6_8  and  C7_9 
REMARK    7  A    between atoms: C7_9  and  O2_10 
REMARK    8  A    between atoms: C7_9  and  C8_11 
REMARK    9  A    between atoms: C8_11  and  O3_13 
REMARK   10  A    between atoms: C8_11  and  C10_14 
REMARK   11  A    between atoms: C17_22  and  C18_23 
ROOT
HETATM    1  C10 UNL     1     -12.065  45.719 -25.825  1.00  0.00     0.034 C 
HETATM    2  C11 UNL     1     -11.716  44.222 -26.005  1.00  0.00     0.012 C 
HETATM    3  C12 UNL     1     -12.949  43.418 -25.545  1.00  0.00     0.044 C 
HETATM    4  C13 UNL     1     -14.109  44.444 -25.547  1.00  0.00     0.093 C 
HETATM    5  O4  UNL     1     -14.501  44.742 -26.916  1.00  0.00    -0.363 OA
HETATM    6  C14 UNL     1     -14.876  43.635 -27.742  1.00  0.00     0.263 C 
HETATM    7  C15 UNL     1     -16.270  43.738 -28.191  1.00  0.00    -0.080 C 
HETATM    8  C16 UNL     1     -17.410  43.691 -28.579  1.00  0.00    -0.093 C 
HETATM    9  C17 UNL     1     -18.823  43.599 -29.028  1.00  0.00     0.121 C 
HETATM   10  C24 UNL     1     -19.785  43.215 -27.873  1.00  0.00     0.190 C 
HETATM   11  O5  UNL     1     -20.107  44.299 -26.990  1.00  0.00    -0.384 OA
HETATM   12  C25 UNL     1     -19.144  44.526 -25.962  1.00  0.00     0.122 C 
HETATM   13  C26 UNL     1     -19.342  45.942 -25.428  1.00  0.00     0.033 C 
HETATM   14  C27 UNL     1     -18.721  46.172 -24.044  1.00  0.00     0.013 C 
HETATM   15  C28 UNL     1     -17.569  45.196 -23.686  1.00  0.00    -0.026 C 
HETATM   16  C29 UNL     1     -17.169  45.451 -22.206  1.00  0.00     0.016 C 
HETATM   17  C30 UNL     1     -18.152  43.745 -23.752  1.00  0.00     0.071 C 
HETATM   18  C31 UNL     1     -19.235  43.514 -24.829  1.00  0.00     0.045 C 
HETATM   19  C32 UNL     1     -17.091  42.661 -23.830  1.00  0.00     0.154 C 
HETATM   20  O6  UNL     1     -17.334  41.494 -23.522  1.00  0.00    -0.293 OA
HETATM   21  C33 UNL     1     -15.753  42.977 -24.367  1.00  0.00     0.057 C 
HETATM   22  C34 UNL     1     -15.407  44.207 -24.783  1.00  0.00    -0.036 C 
HETATM   23  C35 UNL     1     -16.329  45.426 -24.651  1.00  0.00     0.026 C 
HETATM   24  C36 UNL     1     -15.574  46.752 -24.343  1.00  0.00     0.011 C 
HETATM   25  C37 UNL     1     -14.253  46.930 -25.102  1.00  0.00     0.014 C 
HETATM   26  C38 UNL     1     -13.356  45.690 -24.939  1.00  0.00    -0.002 C 
HETATM   27  C39 UNL     1     -13.027  45.489 -23.434  1.00  0.00     0.019 C 
ENDROOT
BRANCH   1  28
HETATM   28  C8  UNL     1     -10.837  46.636 -25.510  1.00  0.00     0.087 C 
HETATM   29  C9  UNL     1      -9.541  45.879 -25.177  1.00  0.00     0.049 C 
BRANCH  28  30
HETATM   30  C7  UNL     1     -10.529  47.635 -26.699  1.00  0.00     0.181 C 
BRANCH  30  31
HETATM   31  C6  UNL     1     -10.844  47.086 -28.111  1.00  0.00     0.159 C 
HETATM   32  C5  UNL     1      -9.705  46.731 -29.083  1.00  0.00     0.051 C 
HETATM   33  C41 UNL     1     -10.441  46.752 -30.426  1.00  0.00     0.014 C 
HETATM   34  C40 UNL     1     -11.509  47.822 -30.228  1.00  0.00     0.173 C 
HETATM   35  C42 UNL     1     -11.076  45.398 -30.758  1.00  0.00     0.012 C 
HETATM   36  O7  UNL     1     -11.716  47.990 -28.820  1.00  0.00    -0.382 OA
BRANCH  32  37
HETATM   37  C4  UNL     1      -8.432  47.603 -29.089  1.00  0.00     0.277 C 
BRANCH  37  38
HETATM   38  N1  UNL     1      -7.544  47.417 -30.238  1.00  0.00     0.086 N 
HETATM   39  H8  UNL     1      -7.396  46.420 -30.399  1.00  0.00     0.315 HD
BRANCH  38  40
HETATM   40  C3  UNL     1      -6.232  48.041 -29.977  1.00  0.00     0.300 C 
BRANCH  40  41
HETATM   41  C2  UNL     1      -5.520  48.292 -31.320  1.00  0.00     0.142 C 
HETATM   42  C1  UNL     1      -4.874  47.028 -31.862  1.00  0.00     0.041 C 
BRANCH  41  43
HETATM   43  O1  UNL     1      -4.510  49.288 -31.140  1.00  0.00    -0.394 OA
HETATM   44  H5  UNL     1      -4.838  49.833 -30.395  1.00  0.00     0.210 HD
ENDBRANCH  41  43
ENDBRANCH  40  41
ENDBRANCH  38  40
ENDBRANCH  37  38
ENDBRANCH  32  37
ENDBRANCH  30  31
BRANCH  30  45
HETATM   45  O2  UNL     1     -11.295  48.823 -26.467  1.00  0.00    -0.390 OA
HETATM   46  H14 UNL     1     -12.232  48.546 -26.512  1.00  0.00     0.210 HD
ENDBRANCH  30  45
ENDBRANCH  28  30
BRANCH  28  47
HETATM   47  O3  UNL     1     -11.129  47.396 -24.326  1.00  0.00    -0.387 OA
HETATM   48  H18 UNL     1     -11.723  48.132 -24.585  1.00  0.00     0.210 HD
ENDBRANCH  28  47
ENDBRANCH   1  28
BRANCH   9  49
HETATM   49  C18 UNL     1     -18.942  42.582 -30.160  1.00  0.00    -0.040 A 
HETATM   50  C19 UNL     1     -19.060  41.203 -29.895  1.00  0.00     0.008 A 
HETATM   51  C20 UNL     1     -19.183  40.284 -30.937  1.00  0.00     0.001 A 
HETATM   52  C21 UNL     1     -19.192  40.726 -32.260  1.00  0.00     0.000 A 
HETATM   53  C22 UNL     1     -19.061  42.085 -32.535  1.00  0.00     0.001 A 
HETATM   54  C23 UNL     1     -18.941  43.012 -31.498  1.00  0.00     0.008 A 
ENDBRANCH   9  49
TORSDOF 11
ENDMDL
MODEL 7
REMARK minimizedAffinity -9.06920052
REMARK CNNscore 0.268199742
REMARK CNNaffinity 6.77465057
REMARK  11 active torsions:
REMARK  status: ('A' for Active; 'I' for Inactive)
REMARK    1  A    between atoms: C2_2  and  O1_3 
REMARK    2  A    between atoms: C2_2  and  C3_4 
REMARK    3  A    between atoms: C3_4  and  N1_5 
REMARK    4  A    between atoms: N1_5  and  C4_6 
REMARK    5  A    between atoms: C4_6  and  C5_7 
REMARK    6  A    between atoms: C6_8  and  C7_9 
REMARK    7  A    between atoms: C7_9  and  O2_10 
REMARK    8  A    between atoms: C7_9  and  C8_11 
REMARK    9  A    between atoms: C8_11  and  O3_13 
REMARK   10  A    between atoms: C8_11  and  C10_14 
REMARK   11  A    between atoms: C17_22  and  C18_23 
ROOT
HETATM    1  C10 UNL     1      -9.044  45.322 -31.822  1.00  0.00     0.034 C 
HETATM    2  C11 UNL     1      -9.189  46.814 -32.209  1.00  0.00     0.012 C 
HETATM    3  C12 UNL     1      -9.515  47.582 -30.912  1.00  0.00     0.044 C 
HETATM    4  C13 UNL     1      -9.107  46.617 -29.772  1.00  0.00     0.093 C 
HETATM    5  O4  UNL     1      -7.656  46.558 -29.671  1.00  0.00    -0.363 OA
HETATM    6  C14 UNL     1      -6.966  47.797 -29.483  1.00  0.00     0.263 C 
HETATM    7  C15 UNL     1      -6.231  47.824 -28.212  1.00  0.00    -0.080 C 
HETATM    8  C16 UNL     1      -5.631  47.977 -27.178  1.00  0.00    -0.093 C 
HETATM    9  C17 UNL     1      -4.926  48.197 -25.889  1.00  0.00     0.121 C 
HETATM   10  C24 UNL     1      -5.907  48.428 -24.711  1.00  0.00     0.190 C 
HETATM   11  O5  UNL     1      -6.514  47.231 -24.205  1.00  0.00    -0.384 OA
HETATM   12  C25 UNL     1      -7.665  46.803 -24.932  1.00  0.00     0.122 C 
HETATM   13  C26 UNL     1      -7.906  45.329 -24.619  1.00  0.00     0.033 C 
HETATM   14  C27 UNL     1      -9.329  44.855 -24.938  1.00  0.00     0.013 C 
HETATM   15  C28 UNL     1     -10.072  45.714 -25.997  1.00  0.00    -0.026 C 
HETATM   16  C29 UNL     1     -11.539  45.209 -26.079  1.00  0.00     0.016 C 
HETATM   17  C30 UNL     1     -10.129  47.179 -25.448  1.00  0.00     0.071 C 
HETATM   18  C31 UNL     1      -8.907  47.623 -24.614  1.00  0.00     0.045 C 
HETATM   19  C32 UNL     1     -10.449  48.218 -26.509  1.00  0.00     0.154 C 
HETATM   20  O6  UNL     1     -10.890  49.330 -26.214  1.00  0.00    -0.293 OA
HETATM   21  C33 UNL     1     -10.152  47.940 -27.927  1.00  0.00     0.057 C 
HETATM   22  C34 UNL     1      -9.617  46.780 -28.345  1.00  0.00    -0.036 C 
HETATM   23  C35 UNL     1      -9.355  45.593 -27.408  1.00  0.00     0.026 C 
HETATM   24  C36 UNL     1      -9.588  44.205 -28.075  1.00  0.00     0.011 C 
HETATM   25  C37 UNL     1      -9.095  44.100 -29.524  1.00  0.00     0.014 C 
HETATM   26  C38 UNL     1      -9.640  45.260 -30.375  1.00  0.00    -0.002 C 
HETATM   27  C39 UNL     1     -11.193  45.203 -30.385  1.00  0.00     0.019 C 
ENDROOT
BRANCH   1  28
HETATM   28  C8  UNL     1      -9.447  44.318 -32.952  1.00  0.00     0.087 C 
HETATM   29  C9  UNL     1     -10.095  43.016 -32.453  1.00  0.00     0.049 C 
BRANCH  28  30
HETATM   30  C7  UNL     1     -10.426  44.980 -34.006  1.00  0.00     0.181 C 
BRANCH  30  31
HETATM   31  C6  UNL     1     -10.496  44.260 -35.373  1.00  0.00     0.159 C 
HETATM   32  C5  UNL     1     -10.266  45.040 -36.680  1.00  0.00     0.051 C 
HETATM   33  C41 UNL     1     -10.924  44.109 -37.704  1.00  0.00     0.014 C 
HETATM   34  C40 UNL     1     -12.061  43.465 -36.917  1.00  0.00     0.173 C 
HETATM   35  C42 UNL     1      -9.950  43.047 -38.227  1.00  0.00     0.012 C 
HETATM   36  O7  UNL     1     -11.761  43.583 -35.521  1.00  0.00    -0.382 OA
BRANCH  32  37
HETATM   37  C4  UNL     1     -10.780  46.491 -36.781  1.00  0.00     0.277 C 
BRANCH  37  38
HETATM   38  N1  UNL     1     -12.229  46.658 -36.651  1.00  0.00     0.086 N 
HETATM   39  H8  UNL     1     -12.644  45.796 -36.296  1.00  0.00     0.315 HD
BRANCH  38  40
HETATM   40  C3  UNL     1     -12.830  46.951 -37.967  1.00  0.00     0.300 C 
BRANCH  40  41
HETATM   41  C2  UNL     1     -13.723  48.202 -37.843  1.00  0.00     0.142 C 
HETATM   42  C1  UNL     1     -14.485  48.481 -39.128  1.00  0.00     0.041 C 
BRANCH  41  43
HETATM   43  O1  UNL     1     -12.908  49.334 -37.532  1.00  0.00    -0.394 OA
HETATM   44  H5  UNL     1     -12.141  48.957 -37.054  1.00  0.00     0.210 HD
ENDBRANCH  41  43
ENDBRANCH  40  41
ENDBRANCH  38  40
ENDBRANCH  37  38
ENDBRANCH  32  37
ENDBRANCH  30  31
BRANCH  30  45
HETATM   45  O2  UNL     1     -11.730  45.011 -33.415  1.00  0.00    -0.390 OA
HETATM   46  H14 UNL     1     -11.983  44.075 -33.283  1.00  0.00     0.210 HD
ENDBRANCH  30  45
ENDBRANCH  28  30
BRANCH  28  47
HETATM   47  O3  UNL     1      -8.253  43.894 -33.629  1.00  0.00    -0.387 OA
HETATM   48  H18 UNL     1      -7.987  44.612 -34.241  1.00  0.00     0.210 HD
ENDBRANCH  28  47
ENDBRANCH   1  28
BRANCH   9  49
HETATM   49  C18 UNL     1      -3.977  49.386 -26.014  1.00  0.00    -0.040 A 
HETATM   50  C19 UNL     1      -2.962  49.411 -26.992  1.00  0.00     0.008 A 
HETATM   51  C20 UNL     1      -2.110  50.509 -27.108  1.00  0.00     0.001 A 
HETATM   52  C21 UNL     1      -2.257  51.600 -26.252  1.00  0.00     0.000 A 
HETATM   53  C22 UNL     1      -3.246  51.581 -25.272  1.00  0.00     0.001 A 
HETATM   54  C23 UNL     1      -4.106  50.487 -25.152  1.00  0.00     0.008 A 
ENDBRANCH   9  49
TORSDOF 11
ENDMDL
MODEL 8
REMARK minimizedAffinity -9.82173347
REMARK CNNscore 0.242819875
REMARK CNNaffinity 6.80814362
REMARK  11 active torsions:
REMARK  status: ('A' for Active; 'I' for Inactive)
REMARK    1  A    between atoms: C2_2  and  O1_3 
REMARK    2  A    between atoms: C2_2  and  C3_4 
REMARK    3  A    between atoms: C3_4  and  N1_5 
REMARK    4  A    between atoms: N1_5  and  C4_6 
REMARK    5  A    between atoms: C4_6  and  C5_7 
REMARK    6  A    between atoms: C6_8  and  C7_9 
REMARK    7  A    between atoms: C7_9  and  O2_10 
REMARK    8  A    between atoms: C7_9  and  C8_11 
REMARK    9  A    between atoms: C8_11  and  O3_13 
REMARK   10  A    between atoms: C8_11  and  C10_14 
REMARK   11  A    between atoms: C17_22  and  C18_23 
ROOT
HETATM    1  C10 UNL     1      -6.710  46.322 -31.049  1.00  0.00     0.034 C 
HETATM    2  C11 UNL     1      -6.686  47.850 -31.296  1.00  0.00     0.012 C 
HETATM    3  C12 UNL     1      -7.330  48.511 -30.061  1.00  0.00     0.044 C 
HETATM    4  C13 UNL     1      -7.291  47.417 -28.966  1.00  0.00     0.093 C 
HETATM    5  O4  UNL     1      -5.929  47.254 -28.480  1.00  0.00    -0.363 OA
HETATM    6  C14 UNL     1      -5.273  48.422 -27.976  1.00  0.00     0.263 C 
HETATM    7  C15 UNL     1      -4.920  48.280 -26.558  1.00  0.00    -0.080 C 
HETATM    8  C16 UNL     1      -4.626  48.294 -25.389  1.00  0.00    -0.093 C 
HETATM    9  C17 UNL     1      -4.299  48.344 -23.941  1.00  0.00     0.121 C 
HETATM   10  C24 UNL     1      -5.561  48.527 -23.057  1.00  0.00     0.190 C 
HETATM   11  O5  UNL     1      -6.328  47.329 -22.870  1.00  0.00    -0.384 OA
HETATM   12  C25 UNL     1      -7.247  47.049 -23.926  1.00  0.00     0.122 C 
HETATM   13  C26 UNL     1      -7.619  45.571 -23.853  1.00  0.00     0.033 C 
HETATM   14  C27 UNL     1      -8.914  45.224 -24.598  1.00  0.00     0.013 C 
HETATM   15  C28 UNL     1      -9.301  46.226 -25.718  1.00  0.00    -0.026 C 
HETATM   16  C29 UNL     1     -10.705  45.829 -26.252  1.00  0.00     0.016 C 
HETATM   17  C30 UNL     1      -9.454  47.633 -25.050  1.00  0.00     0.071 C 
HETATM   18  C31 UNL     1      -8.497  47.915 -23.871  1.00  0.00     0.045 C 
HETATM   19  C32 UNL     1      -9.428  48.788 -26.037  1.00  0.00     0.154 C 
HETATM   20  O6  UNL     1      -9.892  49.892 -25.754  1.00  0.00    -0.293 OA
HETATM   21  C33 UNL     1      -8.758  48.626 -27.342  1.00  0.00     0.057 C 
HETATM   22  C34 UNL     1      -8.172  47.478 -27.723  1.00  0.00    -0.036 C 
HETATM   23  C35 UNL     1      -8.225  46.193 -26.885  1.00  0.00     0.026 C 
HETATM   24  C36 UNL     1      -8.314  44.893 -27.738  1.00  0.00     0.011 C 
HETATM   25  C37 UNL     1      -7.442  44.893 -29.000  1.00  0.00     0.014 C 
HETATM   26  C38 UNL     1      -7.686  46.162 -29.836  1.00  0.00    -0.002 C 
HETATM   27  C39 UNL     1      -9.176  46.209 -30.275  1.00  0.00     0.019 C 
ENDROOT
BRANCH   1  28
HETATM   28  C8  UNL     1      -6.819  45.458 -32.349  1.00  0.00     0.087 C 
HETATM   29  C9  UNL     1      -7.510  44.098 -32.159  1.00  0.00     0.049 C 
BRANCH  28  30
HETATM   30  C7  UNL     1      -7.570  46.232 -33.508  1.00  0.00     0.181 C 
BRANCH  30  31
HETATM   31  C6  UNL     1      -8.800  45.498 -34.093  1.00  0.00     0.159 C 
HETATM   32  C5  UNL     1      -9.143  45.617 -35.588  1.00  0.00     0.051 C 
HETATM   33  C41 UNL     1     -10.620  45.209 -35.589  1.00  0.00     0.014 C 
HETATM   34  C40 UNL     1     -11.124  45.701 -34.237  1.00  0.00     0.173 C 
HETATM   35  C42 UNL     1     -10.800  43.693 -35.722  1.00  0.00     0.012 C 
HETATM   36  O7  UNL     1      -9.994  45.863 -33.371  1.00  0.00    -0.382 OA
BRANCH  32  37
HETATM   37  C4  UNL     1      -8.898  46.962 -36.303  1.00  0.00     0.277 C 
BRANCH  37  38
HETATM   38  N1  UNL     1      -8.483  46.866 -37.704  1.00  0.00     0.086 N 
HETATM   39  H8  UNL     1      -7.496  47.112 -37.787  1.00  0.00     0.315 HD
BRANCH  38  40
HETATM   40  C3  UNL     1      -9.264  47.805 -38.534  1.00  0.00     0.300 C 
BRANCH  40  41
HETATM   41  C2  UNL     1      -8.366  48.996 -38.924  1.00  0.00     0.142 C 
HETATM   42  C1  UNL     1      -6.890  48.656 -38.798  1.00  0.00     0.041 C 
BRANCH  41  43
HETATM   43  O1  UNL     1      -8.660  50.106 -38.073  1.00  0.00    -0.394 OA
HETATM   44  H5  UNL     1      -9.596  49.974 -37.817  1.00  0.00     0.210 HD
ENDBRANCH  41  43
ENDBRANCH  40  41
ENDBRANCH  38  40
ENDBRANCH  37  38
ENDBRANCH  32  37
ENDBRANCH  30  31
BRANCH  30  45
HETATM   45  O2  UNL     1      -7.977  47.500 -32.981  1.00  0.00    -0.390 OA
HETATM   46  H14 UNL     1      -8.612  47.296 -32.264  1.00  0.00     0.210 HD
ENDBRANCH  30  45
ENDBRANCH  28  30
BRANCH  28  47
HETATM   47  O3  UNL     1      -5.491  45.132 -32.791  1.00  0.00    -0.387 OA
HETATM   48  H18 UNL     1      -5.125  45.923 -33.242  1.00  0.00     0.210 HD
ENDBRANCH  28  47
ENDBRANCH   1  28
BRANCH   9  49
HETATM   49  C18 UNL     1      -3.310  49.474 -23.672  1.00  0.00    -0.040 A 
HETATM   50  C19 UNL     1      -2.200  49.287 -22.824  1.00  0.00     0.008 A 
HETATM   51  C20 UNL     1      -1.293  50.322 -22.596  1.00  0.00     0.001 A 
HETATM   52  C21 UNL     1      -1.476  51.559 -23.213  1.00  0.00     0.000 A 
HETATM   53  C22 UNL     1      -2.578  51.761 -24.042  1.00  0.00     0.001 A 
HETATM   54  C23 UNL     1      -3.489  50.729 -24.277  1.00  0.00     0.008 A 
ENDBRANCH   9  49
TORSDOF 11
ENDMDL
MODEL 9
REMARK minimizedAffinity -8.28261185
REMARK CNNscore 0.204860717
REMARK CNNaffinity 7.08324051
REMARK  11 active torsions:
REMARK  status: ('A' for Active; 'I' for Inactive)
REMARK    1  A    between atoms: C2_2  and  O1_3 
REMARK    2  A    between atoms: C2_2  and  C3_4 
REMARK    3  A    between atoms: C3_4  and  N1_5 
REMARK    4  A    between atoms: N1_5  and  C4_6 
REMARK    5  A    between atoms: C4_6  and  C5_7 
REMARK    6  A    between atoms: C6_8  and  C7_9 
REMARK    7  A    between atoms: C7_9  and  O2_10 
REMARK    8  A    between atoms: C7_9  and  C8_11 
REMARK    9  A    between atoms: C8_11  and  O3_13 
REMARK   10  A    between atoms: C8_11  and  C10_14 
REMARK   11  A    between atoms: C17_22  and  C18_23 
ROOT
HETATM    1  C10 UNL     1      -7.839  47.264 -23.796  1.00  0.00     0.034 C 
HETATM    2  C11 UNL     1      -8.346  48.670 -24.198  1.00  0.00     0.012 C 
HETATM    3  C12 UNL     1      -7.515  49.691 -23.396  1.00  0.00     0.044 C 
HETATM    4  C13 UNL     1      -6.277  48.896 -22.914  1.00  0.00     0.093 C 
HETATM    5  O4  UNL     1      -5.375  48.661 -24.032  1.00  0.00    -0.363 OA
HETATM    6  C14 UNL     1      -4.921  49.811 -24.753  1.00  0.00     0.263 C 
HETATM    7  C15 UNL     1      -3.462  49.962 -24.676  1.00  0.00    -0.080 C 
HETATM    8  C16 UNL     1      -2.284  50.213 -24.641  1.00  0.00    -0.093 C 
HETATM    9  C17 UNL     1      -0.842  50.560 -24.570  1.00  0.00     0.121 C 
HETATM   10  C24 UNL     1      -0.437  51.124 -23.183  1.00  0.00     0.190 C 
HETATM   11  O5  UNL     1      -0.276  50.127 -22.165  1.00  0.00    -0.384 OA
HETATM   12  C25 UNL     1      -1.491  49.737 -21.526  1.00  0.00     0.122 C 
HETATM   13  C26 UNL     1      -1.263  48.386 -20.853  1.00  0.00     0.033 C 
HETATM   14  C27 UNL     1      -2.291  48.059 -19.763  1.00  0.00     0.013 C 
HETATM   15  C28 UNL     1      -3.642  48.810 -19.906  1.00  0.00    -0.026 C 
HETATM   16  C29 UNL     1      -4.497  48.500 -18.646  1.00  0.00     0.016 C 
HETATM   17  C30 UNL     1      -3.326  50.342 -19.871  1.00  0.00     0.071 C 
HETATM   18  C31 UNL     1      -1.985  50.759 -20.513  1.00  0.00     0.045 C 
HETATM   19  C32 UNL     1      -4.455  51.213 -20.397  1.00  0.00     0.154 C 
HETATM   20  O6  UNL     1      -4.539  52.407 -20.112  1.00  0.00    -0.293 OA
HETATM   21  C33 UNL     1      -5.437  50.651 -21.345  1.00  0.00     0.057 C 
HETATM   22  C34 UNL     1      -5.399  49.375 -21.763  1.00  0.00    -0.036 C 
HETATM   23  C35 UNL     1      -4.394  48.347 -21.225  1.00  0.00     0.026 C 
HETATM   24  C36 UNL     1      -4.976  46.908 -21.103  1.00  0.00     0.011 C 
HETATM   25  C37 UNL     1      -5.886  46.483 -22.263  1.00  0.00     0.014 C 
HETATM   26  C38 UNL     1      -6.977  47.538 -22.518  1.00  0.00    -0.002 C 
HETATM   27  C39 UNL     1      -7.853  47.690 -21.244  1.00  0.00     0.019 C 
ENDROOT
BRANCH   1  28
HETATM   28  C8  UNL     1      -8.925  46.140 -23.865  1.00  0.00     0.087 C 
HETATM   29  C9  UNL     1      -9.340  45.565 -22.501  1.00  0.00     0.049 C 
BRANCH  28  30
HETATM   30  C7  UNL     1     -10.234  46.632 -24.608  1.00  0.00     0.181 C 
BRANCH  30  31
HETATM   31  C6  UNL     1     -10.547  45.895 -25.933  1.00  0.00     0.159 C 
HETATM   32  C5  UNL     1     -10.115  46.496 -27.282  1.00  0.00     0.051 C 
HETATM   33  C41 UNL     1     -11.045  45.758 -28.250  1.00  0.00     0.014 C 
HETATM   34  C40 UNL     1     -12.309  45.537 -27.426  1.00  0.00     0.173 C 
HETATM   35  C42 UNL     1     -10.453  44.423 -28.714  1.00  0.00     0.012 C 
HETATM   36  O7  UNL     1     -11.961  45.632 -26.040  1.00  0.00    -0.382 OA
BRANCH  32  37
HETATM   37  C4  UNL     1     -10.162  48.028 -27.464  1.00  0.00     0.277 C 
BRANCH  37  38
HETATM   38  N1  UNL     1      -8.894  48.660 -27.833  1.00  0.00     0.086 N 
HETATM   39  H8  UNL     1      -9.058  49.634 -28.090  1.00  0.00     0.315 HD
BRANCH  38  40
HETATM   40  C3  UNL     1      -8.299  47.971 -28.995  1.00  0.00     0.300 C 
BRANCH  40  41
HETATM   41  C2  UNL     1      -6.818  47.669 -28.695  1.00  0.00     0.142 C 
HETATM   42  C1  UNL     1      -6.590  47.369 -27.223  1.00  0.00     0.041 C 
BRANCH  41  43
HETATM   43  O1  UNL     1      -6.022  48.796 -29.068  1.00  0.00    -0.394 OA
HETATM   44  H5  UNL     1      -6.529  49.224 -29.788  1.00  0.00     0.210 HD
ENDBRANCH  41  43
ENDBRANCH  40  41
ENDBRANCH  38  40
ENDBRANCH  37  38
ENDBRANCH  32  37
ENDBRANCH  30  31
BRANCH  30  45
HETATM   45  O2  UNL     1     -11.328  46.466 -23.700  1.00  0.00    -0.390 OA
HETATM   46  H14 UNL     1     -11.392  45.503 -23.535  1.00  0.00     0.210 HD
ENDBRANCH  30  45
ENDBRANCH  28  30
BRANCH  28  47
HETATM   47  O3  UNL     1      -8.376  45.021 -24.580  1.00  0.00    -0.387 OA
HETATM   48  H18 UNL     1      -8.410  45.234 -25.537  1.00  0.00     0.210 HD
ENDBRANCH  28  47
ENDBRANCH   1  28
BRANCH   9  49
HETATM   49  C18 UNL     1      -0.497  51.570 -25.661  1.00  0.00    -0.040 A 
HETATM   50  C19 UNL     1      -0.354  51.172 -27.006  1.00  0.00     0.008 A 
HETATM   51  C20 UNL     1      -0.054  52.106 -27.998  1.00  0.00     0.001 A 
HETATM   52  C21 UNL     1       0.106  53.450 -27.666  1.00  0.00     0.000 A 
HETATM   53  C22 UNL     1      -0.018  53.853 -26.338  1.00  0.00     0.001 A 
HETATM   54  C23 UNL     1      -0.321  52.925 -25.339  1.00  0.00     0.008 A 
ENDBRANCH   9  49
TORSDOF 11
ENDMDL
