MODEL 1
REMARK minimizedAffinity -7.49139118
REMARK CNNscore 0.53486979
REMARK CNNaffinity 6.4471755
REMARK  9 active torsions:
REMARK  status: ('A' for Active; 'I' for Inactive)
REMARK    1  A    between atoms: C2_2  and  C3_3 
REMARK    2  A    between atoms: C2_2  and  C9_12 
REMARK    3  A    between atoms: C3_3  and  C4_4 
REMARK    4  A    between atoms: C4_4  and  O1_5 
REMARK    5  A    between atoms: C4_4  and  C5_6 
REMARK    6  A    between atoms: C5_6  and  O2_7 
REMARK    7  A    between atoms: C5_6  and  C6_8 
REMARK    8  A    between atoms: C6_8  and  O3_11 
REMARK    9  A    between atoms: C16_19  and  O4_20 
ROOT
HETATM    1  C9  UNL     1       2.193  54.172 -10.075  1.00  0.00     0.097 A 
HETATM    2  C10 UNL     1       2.187  55.555 -10.687  1.00  0.00     0.042 C 
HETATM    3  C11 UNL     1       3.379  56.271 -10.025  1.00  0.00     0.016 C 
HETATM    4  C12 UNL     1       3.466  55.707  -8.568  1.00  0.00    -0.002 C 
HETATM    5  C13 UNL     1       2.424  56.508  -7.728  1.00  0.00     0.019 C 
HETATM    6  C14 UNL     1       2.976  54.256  -8.755  1.00  0.00     0.104 A 
HETATM    7  C15 UNL     1       3.713  53.088  -8.175  1.00  0.00     0.074 C 
HETATM    8  C16 UNL     1       4.621  53.367  -6.958  1.00  0.00     0.126 C 
HETATM    9  C17 UNL     1       4.869  54.860  -6.617  1.00  0.00     0.032 C 
HETATM   10  C18 UNL     1       5.991  55.187  -5.516  1.00  0.00    -0.032 C 
HETATM   11  C19 UNL     1       5.713  54.330  -4.248  1.00  0.00     0.016 C 
HETATM   12  C20 UNL     1       7.409  54.865  -6.021  1.00  0.00     0.017 C 
HETATM   13  C21 UNL     1       8.489  55.129  -4.998  1.00  0.00     0.080 C 
HETATM   14  C22 UNL     1       8.542  56.598  -4.707  1.00  0.00     0.135 C 
HETATM   15  O5  UNL     1       9.643  57.136  -4.540  1.00  0.00    -0.297 OA
HETATM   16  C23 UNL     1       7.230  57.371  -4.473  1.00  0.00     0.017 C 
HETATM   17  C24 UNL     1       7.485  58.812  -4.975  1.00  0.00     0.023 C 
HETATM   18  C25 UNL     1       7.088  57.466  -2.933  1.00  0.00     0.023 C 
HETATM   19  C26 UNL     1       5.908  56.714  -5.082  1.00  0.00     0.009 C 
HETATM   20  C27 UNL     1       5.144  57.564  -6.132  1.00  0.00     0.007 C 
HETATM   21  C28 UNL     1       5.415  57.165  -7.576  1.00  0.00     0.011 C 
HETATM   22  C29 UNL     1       4.935  55.730  -7.928  1.00  0.00    -0.027 C 
HETATM   23  C30 UNL     1       5.953  55.175  -8.970  1.00  0.00     0.016 C 
HETATM   24  O6  UNL     1       1.555  54.129  -8.782  1.00  0.00    -0.362 OA
ENDROOT
BRANCH   1  25
HETATM   25  C2  UNL     1       1.743  52.998 -10.930  1.00  0.00     0.022 C 
HETATM   26  C1  UNL     1       2.865  52.154 -11.548  1.00  0.00     0.013 C 
BRANCH  25  27
HETATM   27  C3  UNL     1       0.667  53.326 -11.993  1.00  0.00     0.041 C 
BRANCH  27  28
HETATM   28  C4  UNL     1      -0.667  52.583 -11.836  1.00  0.00     0.150 C 
BRANCH  28  29
HETATM   29  O1  UNL     1      -1.297  52.523 -13.124  1.00  0.00    -0.393 OA
HETATM   30  H8  UNL     1      -1.557  53.450 -13.310  1.00  0.00     0.210 HD
ENDBRANCH  28  29
BRANCH  28  31
HETATM   31  C5  UNL     1      -1.643  53.326 -10.888  1.00  0.00     0.180 C 
BRANCH  31  32
HETATM   32  O2  UNL     1      -1.356  54.731 -11.057  1.00  0.00    -0.390 OA
HETATM   33  H10 UNL     1      -1.836  55.218 -10.363  1.00  0.00     0.210 HD
ENDBRANCH  31  32
BRANCH  31  34
HETATM   34  C6  UNL     1      -3.149  53.019 -11.196  1.00  0.00     0.079 C 
HETATM   35  C7  UNL     1      -3.461  51.536 -10.959  1.00  0.00     0.048 C 
HETATM   36  C8  UNL     1      -4.087  53.869 -10.332  1.00  0.00     0.048 C 
BRANCH  34  37
HETATM   37  O3  UNL     1      -3.489  53.299 -12.556  1.00  0.00    -0.388 OA
HETATM   38  H17 UNL     1      -2.746  53.799 -12.958  1.00  0.00     0.210 HD
ENDBRANCH  34  37
ENDBRANCH  31  34
ENDBRANCH  28  31
ENDBRANCH  27  28
ENDBRANCH  25  27
ENDBRANCH   1  25
BRANCH   8  39
HETATM   39  O4  UNL     1       4.020  52.728  -5.823  1.00  0.00    -0.395 OA
HETATM   40  H28 UNL     1       3.950  51.777  -6.019  1.00  0.00     0.210 HD
ENDBRANCH   8  39
TORSDOF 9
ENDMDL
MODEL 2
REMARK minimizedAffinity -7.51427317
REMARK CNNscore 0.472214878
REMARK CNNaffinity 6.55363894
REMARK  9 active torsions:
REMARK  status: ('A' for Active; 'I' for Inactive)
REMARK    1  A    between atoms: C2_2  and  C3_3 
REMARK    2  A    between atoms: C2_2  and  C9_12 
REMARK    3  A    between atoms: C3_3  and  C4_4 
REMARK    4  A    between atoms: C4_4  and  O1_5 
REMARK    5  A    between atoms: C4_4  and  C5_6 
REMARK    6  A    between atoms: C5_6  and  O2_7 
REMARK    7  A    between atoms: C5_6  and  C6_8 
REMARK    8  A    between atoms: C6_8  and  O3_11 
REMARK    9  A    between atoms: C16_19  and  O4_20 
ROOT
HETATM    1  C9  UNL     1      -1.736  53.019  -9.966  1.00  0.00     0.097 A 
HETATM    2  C10 UNL     1      -2.121  52.397  -8.643  1.00  0.00     0.042 C 
HETATM    3  C11 UNL     1      -1.161  53.043  -7.625  1.00  0.00     0.016 C 
HETATM    4  C12 UNL     1       0.185  53.274  -8.388  1.00  0.00    -0.002 C 
HETATM    5  C13 UNL     1       0.946  51.913  -8.353  1.00  0.00     0.019 C 
HETATM    6  C14 UNL     1      -0.304  53.558  -9.824  1.00  0.00     0.104 A 
HETATM    7  C15 UNL     1       0.208  54.717 -10.623  1.00  0.00     0.074 C 
HETATM    8  C16 UNL     1       1.591  55.280 -10.232  1.00  0.00     0.126 C 
HETATM    9  C17 UNL     1       2.195  54.753  -8.904  1.00  0.00     0.032 C 
HETATM   10  C18 UNL     1       3.510  55.489  -8.349  1.00  0.00    -0.032 C 
HETATM   11  C19 UNL     1       4.564  55.558  -9.491  1.00  0.00     0.016 C 
HETATM   12  C20 UNL     1       3.213  56.922  -7.872  1.00  0.00     0.017 C 
HETATM   13  C21 UNL     1       4.436  57.658  -7.374  1.00  0.00     0.080 C 
HETATM   14  C22 UNL     1       4.952  56.975  -6.144  1.00  0.00     0.135 C 
HETATM   15  O5  UNL     1       5.387  57.666  -5.215  1.00  0.00    -0.297 OA
HETATM   16  C23 UNL     1       5.073  55.439  -6.125  1.00  0.00     0.017 C 
HETATM   17  C24 UNL     1       4.850  55.010  -4.656  1.00  0.00     0.023 C 
HETATM   18  C25 UNL     1       6.562  55.148  -6.441  1.00  0.00     0.023 C 
HETATM   19  C26 UNL     1       4.152  54.648  -7.162  1.00  0.00     0.009 C 
HETATM   20  C27 UNL     1       3.130  53.655  -6.548  1.00  0.00     0.007 C 
HETATM   21  C28 UNL     1       1.710  54.198  -6.456  1.00  0.00     0.011 C 
HETATM   22  C29 UNL     1       1.064  54.496  -7.838  1.00  0.00    -0.027 C 
HETATM   23  C30 UNL     1       0.141  55.734  -7.628  1.00  0.00     0.016 C 
HETATM   24  O6  UNL     1      -0.595  52.379 -10.574  1.00  0.00    -0.362 OA
ENDROOT
BRANCH   1  25
HETATM   25  C2  UNL     1      -2.826  53.257 -10.999  1.00  0.00     0.022 C 
HETATM   26  C1  UNL     1      -4.109  53.914 -10.477  1.00  0.00     0.013 C 
BRANCH  25  27
HETATM   27  C3  UNL     1      -3.168  52.041 -11.895  1.00  0.00     0.041 C 
BRANCH  27  28
HETATM   28  C4  UNL     1      -2.958  52.248 -13.401  1.00  0.00     0.150 C 
BRANCH  28  29
HETATM   29  O1  UNL     1      -3.879  53.256 -13.843  1.00  0.00    -0.393 OA
HETATM   30  H8  UNL     1      -4.758  52.826 -13.779  1.00  0.00     0.210 HD
ENDBRANCH  28  29
BRANCH  28  31
HETATM   31  C5  UNL     1      -3.262  50.965 -14.217  1.00  0.00     0.180 C 
BRANCH  31  32
HETATM   32  O2  UNL     1      -2.467  51.071 -15.418  1.00  0.00    -0.390 OA
HETATM   33  H10 UNL     1      -2.753  50.365 -16.026  1.00  0.00     0.210 HD
ENDBRANCH  31  32
BRANCH  31  34
HETATM   34  C6  UNL     1      -2.928  49.648 -13.436  1.00  0.00     0.079 C 
HETATM   35  C7  UNL     1      -1.463  49.644 -12.979  1.00  0.00     0.048 C 
HETATM   36  C8  UNL     1      -3.831  49.474 -12.210  1.00  0.00     0.048 C 
BRANCH  34  37
HETATM   37  O3  UNL     1      -3.111  48.482 -14.242  1.00  0.00    -0.388 OA
HETATM   38  H17 UNL     1      -3.585  48.749 -15.058  1.00  0.00     0.210 HD
ENDBRANCH  34  37
ENDBRANCH  31  34
ENDBRANCH  28  31
ENDBRANCH  27  28
ENDBRANCH  25  27
ENDBRANCH   1  25
BRANCH   8  39
HETATM   39  O4  UNL     1       2.495  54.973 -11.303  1.00  0.00    -0.395 OA
HETATM   40  H28 UNL     1       2.146  55.384 -12.114  1.00  0.00     0.210 HD
ENDBRANCH   8  39
TORSDOF 9
ENDMDL
MODEL 3
REMARK minimizedAffinity -8.20562458
REMARK CNNscore 0.446386248
REMARK CNNaffinity 6.12836218
REMARK  9 active torsions:
REMARK  status: ('A' for Active; 'I' for Inactive)
REMARK    1  A    between atoms: C2_2  and  C3_3 
REMARK    2  A    between atoms: C2_2  and  C9_12 
REMARK    3  A    between atoms: C3_3  and  C4_4 
REMARK    4  A    between atoms: C4_4  and  O1_5 
REMARK    5  A    between atoms: C4_4  and  C5_6 
REMARK    6  A    between atoms: C5_6  and  O2_7 
REMARK    7  A    between atoms: C5_6  and  C6_8 
REMARK    8  A    between atoms: C6_8  and  O3_11 
REMARK    9  A    between atoms: C16_19  and  O4_20 
ROOT
HETATM    1  C9  UNL     1      -9.697  47.177 -29.640  1.00  0.00     0.097 A 
HETATM    2  C10 UNL     1     -10.704  47.214 -30.767  1.00  0.00     0.042 C 
HETATM    3  C11 UNL     1     -12.071  47.179 -30.057  1.00  0.00     0.016 C 
HETATM    4  C12 UNL     1     -11.872  46.296 -28.781  1.00  0.00    -0.002 C 
HETATM    5  C13 UNL     1     -11.996  44.814 -29.252  1.00  0.00     0.019 C 
HETATM    6  C14 UNL     1     -10.406  46.600 -28.405  1.00  0.00     0.104 A 
HETATM    7  C15 UNL     1     -10.000  46.941 -27.004  1.00  0.00     0.074 C 
HETATM    8  C16 UNL     1     -10.925  46.455 -25.869  1.00  0.00     0.126 C 
HETATM    9  C17 UNL     1     -12.300  45.882 -26.303  1.00  0.00     0.032 C 
HETATM   10  C18 UNL     1     -13.376  45.592 -25.147  1.00  0.00    -0.032 C 
HETATM   11  C19 UNL     1     -12.702  44.733 -24.040  1.00  0.00     0.016 C 
HETATM   12  C20 UNL     1     -13.900  46.890 -24.506  1.00  0.00     0.017 C 
HETATM   13  C21 UNL     1     -14.892  46.654 -23.389  1.00  0.00     0.080 C 
HETATM   14  C22 UNL     1     -16.124  46.014 -23.953  1.00  0.00     0.135 C 
HETATM   15  O5  UNL     1     -17.229  46.356 -23.516  1.00  0.00    -0.297 OA
HETATM   16  C23 UNL     1     -15.983  44.845 -24.947  1.00  0.00     0.017 C 
HETATM   17  C24 UNL     1     -17.208  44.932 -25.888  1.00  0.00     0.023 C 
HETATM   18  C25 UNL     1     -16.179  43.566 -24.095  1.00  0.00     0.023 C 
HETATM   19  C26 UNL     1     -14.592  44.748 -25.727  1.00  0.00     0.009 C 
HETATM   20  C27 UNL     1     -14.668  44.844 -27.273  1.00  0.00     0.007 C 
HETATM   21  C28 UNL     1     -14.322  46.218 -27.831  1.00  0.00     0.011 C 
HETATM   22  C29 UNL     1     -12.852  46.648 -27.564  1.00  0.00    -0.027 C 
HETATM   23  C30 UNL     1     -12.882  48.194 -27.365  1.00  0.00     0.016 C 
HETATM   24  O6  UNL     1      -9.454  45.841 -29.150  1.00  0.00    -0.362 OA
ENDROOT
BRANCH   1  25
HETATM   25  C2  UNL     1      -8.385  47.926 -29.815  1.00  0.00     0.022 C 
HETATM   26  C1  UNL     1      -8.425  49.128 -30.766  1.00  0.00     0.013 C 
BRANCH  25  27
HETATM   27  C3  UNL     1      -7.151  47.040 -30.115  1.00  0.00     0.041 C 
BRANCH  27  28
HETATM   28  C4  UNL     1      -5.789  47.732 -29.969  1.00  0.00     0.150 C 
BRANCH  28  29
HETATM   29  O1  UNL     1      -5.850  48.595 -28.824  1.00  0.00    -0.393 OA
HETATM   30  H8  UNL     1      -6.458  49.315 -29.095  1.00  0.00     0.210 HD
ENDBRANCH  28  29
BRANCH  28  31
HETATM   31  C5  UNL     1      -5.449  48.624 -31.191  1.00  0.00     0.180 C 
BRANCH  31  32
HETATM   32  O2  UNL     1      -4.502  49.602 -30.708  1.00  0.00    -0.390 OA
HETATM   33  H10 UNL     1      -4.389  50.274 -31.404  1.00  0.00     0.210 HD
ENDBRANCH  31  32
BRANCH  31  34
HETATM   34  C6  UNL     1      -4.856  47.813 -32.395  1.00  0.00     0.079 C 
HETATM   35  C7  UNL     1      -4.425  46.411 -31.946  1.00  0.00     0.048 C 
HETATM   36  C8  UNL     1      -5.867  47.681 -33.539  1.00  0.00     0.048 C 
BRANCH  34  37
HETATM   37  O3  UNL     1      -3.698  48.442 -32.949  1.00  0.00    -0.388 OA
HETATM   38  H17 UNL     1      -3.632  49.345 -32.570  1.00  0.00     0.210 HD
ENDBRANCH  34  37
ENDBRANCH  31  34
ENDBRANCH  28  31
ENDBRANCH  27  28
ENDBRANCH  25  27
ENDBRANCH   1  25
BRANCH   8  39
HETATM   39  O4  UNL     1     -10.214  45.444 -25.142  1.00  0.00    -0.395 OA
HETATM   40  H28 UNL     1      -9.394  45.843 -24.802  1.00  0.00     0.210 HD
ENDBRANCH   8  39
TORSDOF 9
ENDMDL
MODEL 4
REMARK minimizedAffinity -7.79947805
REMARK CNNscore 0.444226295
REMARK CNNaffinity 5.76682663
REMARK  9 active torsions:
REMARK  status: ('A' for Active; 'I' for Inactive)
REMARK    1  A    between atoms: C2_2  and  C3_3 
REMARK    2  A    between atoms: C2_2  and  C9_12 
REMARK    3  A    between atoms: C3_3  and  C4_4 
REMARK    4  A    between atoms: C4_4  and  O1_5 
REMARK    5  A    between atoms: C4_4  and  C5_6 
REMARK    6  A    between atoms: C5_6  and  O2_7 
REMARK    7  A    between atoms: C5_6  and  C6_8 
REMARK    8  A    between atoms: C6_8  and  O3_11 
REMARK    9  A    between atoms: C16_19  and  O4_20 
ROOT
HETATM    1  C9  UNL     1     -10.575  44.527 -28.127  1.00  0.00     0.097 A 
HETATM    2  C10 UNL     1     -11.143  44.379 -29.520  1.00  0.00     0.042 C 
HETATM    3  C11 UNL     1     -12.622  44.785 -29.373  1.00  0.00     0.016 C 
HETATM    4  C12 UNL     1     -13.059  44.317 -27.945  1.00  0.00    -0.002 C 
HETATM    5  C13 UNL     1     -13.411  42.802 -28.072  1.00  0.00     0.019 C 
HETATM    6  C14 UNL     1     -11.752  44.480 -27.140  1.00  0.00     0.104 A 
HETATM    7  C15 UNL     1     -11.720  45.164 -25.808  1.00  0.00     0.074 C 
HETATM    8  C16 UNL     1     -13.041  45.207 -25.011  1.00  0.00     0.126 C 
HETATM    9  C17 UNL     1     -14.316  44.758 -25.773  1.00  0.00     0.032 C 
HETATM   10  C18 UNL     1     -15.731  45.015 -25.058  1.00  0.00    -0.032 C 
HETATM   11  C19 UNL     1     -15.673  44.441 -23.614  1.00  0.00     0.016 C 
HETATM   12  C20 UNL     1     -16.072  46.514 -24.973  1.00  0.00     0.017 C 
HETATM   13  C21 UNL     1     -17.383  46.796 -24.275  1.00  0.00     0.080 C 
HETATM   14  C22 UNL     1     -18.504  46.223 -25.086  1.00  0.00     0.135 C 
HETATM   15  O5  UNL     1     -19.562  46.857 -25.176  1.00  0.00    -0.297 OA
HETATM   16  C23 UNL     1     -18.373  44.799 -25.659  1.00  0.00     0.017 C 
HETATM   17  C24 UNL     1     -19.185  44.790 -26.976  1.00  0.00     0.023 C 
HETATM   18  C25 UNL     1     -19.145  43.893 -24.667  1.00  0.00     0.023 C 
HETATM   19  C26 UNL     1     -16.886  44.243 -25.830  1.00  0.00     0.009 C 
HETATM   20  C27 UNL     1     -16.457  43.871 -27.274  1.00  0.00     0.007 C 
HETATM   21  C28 UNL     1     -15.614  44.932 -27.969  1.00  0.00     0.011 C 
HETATM   22  C29 UNL     1     -14.238  45.180 -27.289  1.00  0.00    -0.027 C 
HETATM   23  C30 UNL     1     -13.927  46.695 -27.479  1.00  0.00     0.016 C 
HETATM   24  O6  UNL     1     -10.847  43.386 -27.287  1.00  0.00    -0.362 OA
ENDROOT
BRANCH   1  25
HETATM   25  C2  UNL     1      -9.126  44.963 -27.977  1.00  0.00     0.022 C 
HETATM   26  C1  UNL     1      -8.481  44.680 -26.615  1.00  0.00     0.013 C 
BRANCH  25  27
HETATM   27  C3  UNL     1      -8.820  46.412 -28.428  1.00  0.00     0.041 C 
BRANCH  27  28
HETATM   28  C4  UNL     1      -7.783  46.551 -29.551  1.00  0.00     0.150 C 
BRANCH  28  29
HETATM   29  O1  UNL     1      -6.628  45.781 -29.186  1.00  0.00    -0.393 OA
HETATM   30  H8  UNL     1      -6.237  46.273 -28.433  1.00  0.00     0.210 HD
ENDBRANCH  28  29
BRANCH  28  31
HETATM   31  C5  UNL     1      -7.311  48.016 -29.735  1.00  0.00     0.180 C 
BRANCH  31  32
HETATM   32  O2  UNL     1      -7.712  48.708 -28.532  1.00  0.00    -0.390 OA
HETATM   33  H10 UNL     1      -7.576  49.662 -28.679  1.00  0.00     0.210 HD
ENDBRANCH  31  32
BRANCH  31  34
HETATM   34  C6  UNL     1      -5.765  48.139 -29.965  1.00  0.00     0.079 C 
HETATM   35  C7  UNL     1      -5.006  48.010 -28.638  1.00  0.00     0.048 C 
HETATM   36  C8  UNL     1      -5.253  47.069 -30.936  1.00  0.00     0.048 C 
BRANCH  34  37
HETATM   37  O3  UNL     1      -5.402  49.402 -30.527  1.00  0.00    -0.388 OA
HETATM   38  H17 UNL     1      -6.224  49.852 -30.818  1.00  0.00     0.210 HD
ENDBRANCH  34  37
ENDBRANCH  31  34
ENDBRANCH  28  31
ENDBRANCH  27  28
ENDBRANCH  25  27
ENDBRANCH   1  25
BRANCH   8  39
HETATM   39  O4  UNL     1     -12.873  44.366 -23.861  1.00  0.00    -0.395 OA
HETATM   40  H28 UNL     1     -12.122  44.712 -23.347  1.00  0.00     0.210 HD
ENDBRANCH   8  39
TORSDOF 9
ENDMDL
MODEL 5
REMARK minimizedAffinity -7.69613838
REMARK CNNscore 0.413349211
REMARK CNNaffinity 6.15772676
REMARK  9 active torsions:
REMARK  status: ('A' for Active; 'I' for Inactive)
REMARK    1  A    between atoms: C2_2  and  C3_3 
REMARK    2  A    between atoms: C2_2  and  C9_12 
REMARK    3  A    between atoms: C3_3  and  C4_4 
REMARK    4  A    between atoms: C4_4  and  O1_5 
REMARK    5  A    between atoms: C4_4  and  C5_6 
REMARK    6  A    between atoms: C5_6  and  O2_7 
REMARK    7  A    between atoms: C5_6  and  C6_8 
REMARK    8  A    between atoms: C6_8  and  O3_11 
REMARK    9  A    between atoms: C16_19  and  O4_20 
ROOT
HETATM    1  C9  UNL     1     -13.533  46.838 -26.718  1.00  0.00     0.097 A 
HETATM    2  C10 UNL     1     -14.414  46.127 -27.720  1.00  0.00     0.042 C 
HETATM    3  C11 UNL     1     -13.433  45.612 -28.791  1.00  0.00     0.016 C 
HETATM    4  C12 UNL     1     -12.293  46.680 -28.882  1.00  0.00    -0.002 C 
HETATM    5  C13 UNL     1     -12.829  47.812 -29.812  1.00  0.00     0.019 C 
HETATM    6  C14 UNL     1     -12.218  47.195 -27.429  1.00  0.00     0.104 A 
HETATM    7  C15 UNL     1     -10.916  47.335 -26.702  1.00  0.00     0.074 C 
HETATM    8  C16 UNL     1      -9.646  47.492 -27.565  1.00  0.00     0.126 C 
HETATM    9  C17 UNL     1      -9.816  47.242 -29.087  1.00  0.00     0.032 C 
HETATM   10  C18 UNL     1      -8.480  47.162 -29.974  1.00  0.00    -0.032 C 
HETATM   11  C19 UNL     1      -7.605  48.412 -29.675  1.00  0.00     0.016 C 
HETATM   12  C20 UNL     1      -7.653  45.901 -29.661  1.00  0.00     0.017 C 
HETATM   13  C21 UNL     1      -6.370  45.809 -30.455  1.00  0.00     0.080 C 
HETATM   14  C22 UNL     1      -6.701  45.664 -31.909  1.00  0.00     0.135 C 
HETATM   15  O5  UNL     1      -6.016  44.906 -32.606  1.00  0.00    -0.297 OA
HETATM   16  C23 UNL     1      -7.781  46.568 -32.533  1.00  0.00     0.017 C 
HETATM   17  C24 UNL     1      -8.430  45.740 -33.667  1.00  0.00     0.023 C 
HETATM   18  C25 UNL     1      -6.998  47.712 -33.225  1.00  0.00     0.023 C 
HETATM   19  C26 UNL     1      -8.844  47.197 -31.521  1.00  0.00     0.009 C 
HETATM   20  C27 UNL     1     -10.329  46.818 -31.767  1.00  0.00     0.007 C 
HETATM   21  C28 UNL     1     -10.851  45.714 -30.856  1.00  0.00     0.011 C 
HETATM   22  C29 UNL     1     -10.873  46.105 -29.352  1.00  0.00    -0.027 C 
HETATM   23  C30 UNL     1     -10.566  44.799 -28.560  1.00  0.00     0.016 C 
HETATM   24  O6  UNL     1     -13.200  48.184 -27.119  1.00  0.00    -0.362 OA
ENDROOT
BRANCH   1  25
HETATM   25  C2  UNL     1     -13.931  46.805 -25.251  1.00  0.00     0.022 C 
HETATM   26  C1  UNL     1     -13.609  45.506 -24.502  1.00  0.00     0.013 C 
BRANCH  25  27
HETATM   27  C3  UNL     1     -15.379  47.258 -24.946  1.00  0.00     0.041 C 
BRANCH  27  28
HETATM   28  C4  UNL     1     -16.337  46.150 -24.487  1.00  0.00     0.150 C 
BRANCH  28  29
HETATM   29  O1  UNL     1     -16.772  45.430 -25.650  1.00  0.00    -0.393 OA
HETATM   30  H8  UNL     1     -17.347  46.064 -26.127  1.00  0.00     0.210 HD
ENDBRANCH  28  29
BRANCH  28  31
HETATM   31  C5  UNL     1     -17.608  46.719 -23.805  1.00  0.00     0.180 C 
BRANCH  31  32
HETATM   32  O2  UNL     1     -18.427  47.235 -24.876  1.00  0.00    -0.390 OA
HETATM   33  H10 UNL     1     -19.156  47.742 -24.475  1.00  0.00     0.210 HD
ENDBRANCH  31  32
BRANCH  31  34
HETATM   34  C6  UNL     1     -18.387  45.645 -22.969  1.00  0.00     0.079 C 
HETATM   35  C7  UNL     1     -18.623  46.139 -21.536  1.00  0.00     0.048 C 
HETATM   36  C8  UNL     1     -19.738  45.305 -23.607  1.00  0.00     0.048 C 
BRANCH  34  37
HETATM   37  O3  UNL     1     -17.667  44.414 -22.867  1.00  0.00    -0.388 OA
HETATM   38  H17 UNL     1     -16.918  44.448 -23.500  1.00  0.00     0.210 HD
ENDBRANCH  34  37
ENDBRANCH  31  34
ENDBRANCH  28  31
ENDBRANCH  27  28
ENDBRANCH  25  27
ENDBRANCH   1  25
BRANCH   8  39
HETATM   39  O4  UNL     1      -9.160  48.827 -27.369  1.00  0.00    -0.395 OA
HETATM   40  H28 UNL     1      -8.976  48.941 -26.420  1.00  0.00     0.210 HD
ENDBRANCH   8  39
TORSDOF 9
ENDMDL
MODEL 6
REMARK minimizedAffinity -8.15456104
REMARK CNNscore 0.402697116
REMARK CNNaffinity 6.38746405
REMARK  9 active torsions:
REMARK  status: ('A' for Active; 'I' for Inactive)
REMARK    1  A    between atoms: C2_2  and  C3_3 
REMARK    2  A    between atoms: C2_2  and  C9_12 
REMARK    3  A    between atoms: C3_3  and  C4_4 
REMARK    4  A    between atoms: C4_4  and  O1_5 
REMARK    5  A    between atoms: C4_4  and  C5_6 
REMARK    6  A    between atoms: C5_6  and  O2_7 
REMARK    7  A    between atoms: C5_6  and  C6_8 
REMARK    8  A    between atoms: C6_8  and  O3_11 
REMARK    9  A    between atoms: C16_19  and  O4_20 
ROOT
HETATM    1  C9  UNL     1      -9.763  46.604 -23.682  1.00  0.00     0.097 A 
HETATM    2  C10 UNL     1     -10.019  45.881 -22.379  1.00  0.00     0.042 C 
HETATM    3  C11 UNL     1      -8.886  46.357 -21.450  1.00  0.00     0.016 C 
HETATM    4  C12 UNL     1      -7.637  46.573 -22.367  1.00  0.00    -0.002 C 
HETATM    5  C13 UNL     1      -6.988  45.167 -22.560  1.00  0.00     0.019 C 
HETATM    6  C14 UNL     1      -8.286  47.030 -23.691  1.00  0.00     0.104 A 
HETATM    7  C15 UNL     1      -7.792  48.226 -24.446  1.00  0.00     0.074 C 
HETATM    8  C16 UNL     1      -6.330  48.654 -24.201  1.00  0.00     0.126 C 
HETATM    9  C17 UNL     1      -5.600  47.958 -23.021  1.00  0.00     0.032 C 
HETATM   10  C18 UNL     1      -4.170  48.546 -22.590  1.00  0.00    -0.032 C 
HETATM   11  C19 UNL     1      -3.272  48.658 -23.855  1.00  0.00     0.016 C 
HETATM   12  C20 UNL     1      -4.287  49.941 -21.950  1.00  0.00     0.017 C 
HETATM   13  C21 UNL     1      -2.955  50.541 -21.561  1.00  0.00     0.080 C 
HETATM   14  C22 UNL     1      -2.338  49.706 -20.481  1.00  0.00     0.135 C 
HETATM   15  O5  UNL     1      -1.731  50.271 -19.562  1.00  0.00    -0.297 OA
HETATM   16  C23 UNL     1      -2.338  48.172 -20.616  1.00  0.00     0.017 C 
HETATM   17  C24 UNL     1      -2.400  47.614 -19.175  1.00  0.00     0.023 C 
HETATM   18  C25 UNL     1      -0.931  47.815 -21.160  1.00  0.00     0.023 C 
HETATM   19  C26 UNL     1      -3.447  47.551 -21.583  1.00  0.00     0.009 C 
HETATM   20  C27 UNL     1      -4.456  46.572 -20.925  1.00  0.00     0.007 C 
HETATM   21  C28 UNL     1      -5.804  47.196 -20.590  1.00  0.00     0.011 C 
HETATM   22  C29 UNL     1      -6.599  47.672 -21.838  1.00  0.00    -0.027 C 
HETATM   23  C30 UNL     1      -7.386  48.942 -21.392  1.00  0.00     0.016 C 
HETATM   24  O6  UNL     1      -8.765  45.954 -24.497  1.00  0.00    -0.362 OA
ENDROOT
BRANCH   1  25
HETATM   25  C2  UNL     1     -10.956  47.016 -24.530  1.00  0.00     0.022 C 
HETATM   26  C1  UNL     1     -12.324  46.529 -24.037  1.00  0.00     0.013 C 
BRANCH  25  27
HETATM   27  C3  UNL     1     -10.808  46.763 -26.050  1.00  0.00     0.041 C 
BRANCH  27  28
HETATM   28  C4  UNL     1     -10.540  48.008 -26.906  1.00  0.00     0.150 C 
BRANCH  28  29
HETATM   29  O1  UNL     1     -11.604  48.944 -26.673  1.00  0.00    -0.393 OA
HETATM   30  H8  UNL     1     -12.388  48.528 -27.090  1.00  0.00     0.210 HD
ENDBRANCH  28  29
BRANCH  28  31
HETATM   31  C5  UNL     1     -10.541  47.689 -28.423  1.00  0.00     0.180 C 
BRANCH  31  32
HETATM   32  O2  UNL     1     -11.646  48.435 -28.977  1.00  0.00    -0.390 OA
HETATM   33  H10 UNL     1     -11.777  48.135 -29.895  1.00  0.00     0.210 HD
ENDBRANCH  31  32
BRANCH  31  34
HETATM   34  C6  UNL     1      -9.195  48.070 -29.130  1.00  0.00     0.079 C 
HETATM   35  C7  UNL     1      -8.111  47.025 -28.836  1.00  0.00     0.048 C 
HETATM   36  C8  UNL     1      -9.369  48.193 -30.647  1.00  0.00     0.048 C 
BRANCH  34  37
HETATM   37  O3  UNL     1      -8.686  49.328 -28.678  1.00  0.00    -0.388 OA
HETATM   38  H17 UNL     1      -9.388  49.768 -28.154  1.00  0.00     0.210 HD
ENDBRANCH  34  37
ENDBRANCH  31  34
ENDBRANCH  28  31
ENDBRANCH  27  28
ENDBRANCH  25  27
ENDBRANCH   1  25
BRANCH   8  39
HETATM   39  O4  UNL     1      -5.602  48.395 -25.409  1.00  0.00    -0.395 OA
HETATM   40  H28 UNL     1      -6.020  48.907 -26.124  1.00  0.00     0.210 HD
ENDBRANCH   8  39
TORSDOF 9
ENDMDL
MODEL 7
REMARK minimizedAffinity -8.55907822
REMARK CNNscore 0.396441936
REMARK CNNaffinity 6.89640284
REMARK  9 active torsions:
REMARK  status: ('A' for Active; 'I' for Inactive)
REMARK    1  A    between atoms: C2_2  and  C3_3 
REMARK    2  A    between atoms: C2_2  and  C9_12 
REMARK    3  A    between atoms: C3_3  and  C4_4 
REMARK    4  A    between atoms: C4_4  and  O1_5 
REMARK    5  A    between atoms: C4_4  and  C5_6 
REMARK    6  A    between atoms: C5_6  and  O2_7 
REMARK    7  A    between atoms: C5_6  and  C6_8 
REMARK    8  A    between atoms: C6_8  and  O3_11 
REMARK    9  A    between atoms: C16_19  and  O4_20 
ROOT
HETATM    1  C9  UNL     1      -0.585  51.574 -22.675  1.00  0.00     0.097 A 
HETATM    2  C10 UNL     1       0.260  51.941 -21.477  1.00  0.00     0.042 C 
HETATM    3  C11 UNL     1      -0.040  50.835 -20.447  1.00  0.00     0.016 C 
HETATM    4  C12 UNL     1      -1.538  50.436 -20.664  1.00  0.00    -0.002 C 
HETATM    5  C13 UNL     1      -2.386  51.490 -19.888  1.00  0.00     0.019 C 
HETATM    6  C14 UNL     1      -1.709  50.649 -22.183  1.00  0.00     0.104 A 
HETATM    7  C15 UNL     1      -2.355  49.621 -23.060  1.00  0.00     0.074 C 
HETATM    8  C16 UNL     1      -3.321  48.627 -22.381  1.00  0.00     0.126 C 
HETATM    9  C17 UNL     1      -3.334  48.636 -20.829  1.00  0.00     0.032 C 
HETATM   10  C18 UNL     1      -4.141  47.461 -20.092  1.00  0.00    -0.032 C 
HETATM   11  C19 UNL     1      -5.573  47.383 -20.693  1.00  0.00     0.016 C 
HETATM   12  C20 UNL     1      -3.462  46.091 -20.273  1.00  0.00     0.017 C 
HETATM   13  C21 UNL     1      -4.214  44.953 -19.619  1.00  0.00     0.080 C 
HETATM   14  C22 UNL     1      -4.215  45.155 -18.135  1.00  0.00     0.135 C 
HETATM   15  O5  UNL     1      -4.085  44.171 -17.397  1.00  0.00    -0.297 OA
HETATM   16  C23 UNL     1      -4.531  46.549 -17.560  1.00  0.00     0.017 C 
HETATM   17  C24 UNL     1      -3.736  46.658 -16.238  1.00  0.00     0.023 C 
HETATM   18  C25 UNL     1      -6.028  46.493 -17.164  1.00  0.00     0.023 C 
HETATM   19  C26 UNL     1      -4.294  47.785 -18.544  1.00  0.00     0.009 C 
HETATM   20  C27 UNL     1      -3.258  48.841 -18.076  1.00  0.00     0.007 C 
HETATM   21  C28 UNL     1      -1.886  48.698 -18.723  1.00  0.00     0.011 C 
HETATM   22  C29 UNL     1      -1.894  48.927 -20.260  1.00  0.00    -0.027 C 
HETATM   23  C30 UNL     1      -0.809  47.974 -20.846  1.00  0.00     0.016 C 
HETATM   24  O6  UNL     1      -1.956  52.006 -22.548  1.00  0.00    -0.362 OA
ENDROOT
BRANCH   1  25
HETATM   25  C2  UNL     1      -0.053  51.895 -24.063  1.00  0.00     0.022 C 
HETATM   26  C1  UNL     1      -0.019  53.382 -24.437  1.00  0.00     0.013 C 
BRANCH  25  27
HETATM   27  C3  UNL     1      -0.665  51.063 -25.217  1.00  0.00     0.041 C 
BRANCH  27  28
HETATM   28  C4  UNL     1      -1.955  51.627 -25.828  1.00  0.00     0.150 C 
BRANCH  28  29
HETATM   29  O1  UNL     1      -2.232  52.886 -25.197  1.00  0.00    -0.393 OA
HETATM   30  H8  UNL     1      -2.483  52.647 -24.280  1.00  0.00     0.210 HD
ENDBRANCH  28  29
BRANCH  28  31
HETATM   31  C5  UNL     1      -3.177  50.710 -25.566  1.00  0.00     0.180 C 
BRANCH  31  32
HETATM   32  O2  UNL     1      -4.298  51.601 -25.374  1.00  0.00    -0.390 OA
HETATM   33  H10 UNL     1      -5.048  51.070 -25.050  1.00  0.00     0.210 HD
ENDBRANCH  31  32
BRANCH  31  34
HETATM   34  C6  UNL     1      -3.453  49.706 -26.738  1.00  0.00     0.079 C 
HETATM   35  C7  UNL     1      -3.272  50.395 -28.098  1.00  0.00     0.048 C 
HETATM   36  C8  UNL     1      -2.523  48.490 -26.670  1.00  0.00     0.048 C 
BRANCH  34  37
HETATM   37  O3  UNL     1      -4.788  49.196 -26.710  1.00  0.00    -0.388 OA
HETATM   38  H17 UNL     1      -5.190  49.447 -25.851  1.00  0.00     0.210 HD
ENDBRANCH  34  37
ENDBRANCH  31  34
ENDBRANCH  28  31
ENDBRANCH  27  28
ENDBRANCH  25  27
ENDBRANCH   1  25
BRANCH   8  39
HETATM   39  O4  UNL     1      -4.642  48.925 -22.854  1.00  0.00    -0.395 OA
HETATM   40  H28 UNL     1      -4.640  48.831 -23.823  1.00  0.00     0.210 HD
ENDBRANCH   8  39
TORSDOF 9
ENDMDL
MODEL 8
REMARK minimizedAffinity -7.95080805
REMARK CNNscore 0.381102264
REMARK CNNaffinity 5.87397909
REMARK  9 active torsions:
REMARK  status: ('A' for Active; 'I' for Inactive)
REMARK    1  A    between atoms: C2_2  and  C3_3 
REMARK    2  A    between atoms: C2_2  and  C9_12 
REMARK    3  A    between atoms: C3_3  and  C4_4 
REMARK    4  A    between atoms: C4_4  and  O1_5 
REMARK    5  A    between atoms: C4_4  and  C5_6 
REMARK    6  A    between atoms: C5_6  and  O2_7 
REMARK    7  A    between atoms: C5_6  and  C6_8 
REMARK    8  A    between atoms: C6_8  and  O3_11 
REMARK    9  A    between atoms: C16_19  and  O4_20 
ROOT
HETATM    1  C9  UNL     1     -14.068  45.021 -26.659  1.00  0.00     0.097 A 
HETATM    2  C10 UNL     1     -14.935  45.642 -27.731  1.00  0.00     0.042 C 
HETATM    3  C11 UNL     1     -13.973  45.869 -28.914  1.00  0.00     0.016 C 
HETATM    4  C12 UNL     1     -12.583  46.208 -28.281  1.00  0.00    -0.002 C 
HETATM    5  C13 UNL     1     -12.624  47.727 -27.927  1.00  0.00     0.019 C 
HETATM    6  C14 UNL     1     -12.608  45.373 -26.984  1.00  0.00     0.104 A 
HETATM    7  C15 UNL     1     -11.456  44.508 -26.574  1.00  0.00     0.074 C 
HETATM    8  C16 UNL     1     -10.068  44.875 -27.142  1.00  0.00     0.126 C 
HETATM    9  C17 UNL     1     -10.049  45.944 -28.267  1.00  0.00     0.032 C 
HETATM   10  C18 UNL     1      -8.661  46.173 -29.041  1.00  0.00    -0.032 C 
HETATM   11  C19 UNL     1      -7.534  46.399 -27.993  1.00  0.00     0.016 C 
HETATM   12  C20 UNL     1      -8.279  44.964 -29.914  1.00  0.00     0.017 C 
HETATM   13  C21 UNL     1      -6.960  45.132 -30.633  1.00  0.00     0.080 C 
HETATM   14  C22 UNL     1      -7.075  46.257 -31.616  1.00  0.00     0.135 C 
HETATM   15  O5  UNL     1      -6.522  46.148 -32.716  1.00  0.00    -0.297 OA
HETATM   16  C23 UNL     1      -7.744  47.575 -31.182  1.00  0.00     0.017 C 
HETATM   17  C24 UNL     1      -8.402  48.160 -32.453  1.00  0.00     0.023 C 
HETATM   18  C25 UNL     1      -6.572  48.523 -30.824  1.00  0.00     0.023 C 
HETATM   19  C26 UNL     1      -8.742  47.482 -29.939  1.00  0.00     0.009 C 
HETATM   20  C27 UNL     1     -10.212  47.898 -30.210  1.00  0.00     0.007 C 
HETATM   21  C28 UNL     1     -11.162  46.728 -30.430  1.00  0.00     0.011 C 
HETATM   22  C29 UNL     1     -11.321  45.811 -29.185  1.00  0.00    -0.027 C 
HETATM   23  C30 UNL     1     -11.523  44.366 -29.734  1.00  0.00     0.016 C 
HETATM   24  O6  UNL     1     -13.314  45.998 -25.912  1.00  0.00    -0.362 OA
ENDROOT
BRANCH   1  25
HETATM   25  C2  UNL     1     -14.695  44.002 -25.721  1.00  0.00     0.022 C 
HETATM   26  C1  UNL     1     -15.193  42.708 -26.377  1.00  0.00     0.013 C 
BRANCH  25  27
HETATM   27  C3  UNL     1     -15.765  44.562 -24.753  1.00  0.00     0.041 C 
BRANCH  27  28
HETATM   28  C4  UNL     1     -17.219  44.444 -25.232  1.00  0.00     0.150 C 
BRANCH  28  29
HETATM   29  O1  UNL     1     -17.236  43.598 -26.392  1.00  0.00    -0.393 OA
HETATM   30  H8  UNL     1     -16.795  44.130 -27.087  1.00  0.00     0.210 HD
ENDBRANCH  28  29
BRANCH  28  31
HETATM   31  C5  UNL     1     -17.808  45.812 -25.660  1.00  0.00     0.180 C 
BRANCH  31  32
HETATM   32  O2  UNL     1     -18.441  45.580 -26.938  1.00  0.00    -0.390 OA
HETATM   33  H10 UNL     1     -18.682  46.447 -27.312  1.00  0.00     0.210 HD
ENDBRANCH  31  32
BRANCH  31  34
HETATM   34  C6  UNL     1     -18.831  46.390 -24.623  1.00  0.00     0.079 C 
HETATM   35  C7  UNL     1     -20.183  45.674 -24.735  1.00  0.00     0.048 C 
HETATM   36  C8  UNL     1     -18.315  46.256 -23.186  1.00  0.00     0.048 C 
BRANCH  34  37
HETATM   37  O3  UNL     1     -19.083  47.782 -24.833  1.00  0.00    -0.388 OA
HETATM   38  H17 UNL     1     -18.418  48.118 -25.471  1.00  0.00     0.210 HD
ENDBRANCH  34  37
ENDBRANCH  31  34
ENDBRANCH  28  31
ENDBRANCH  27  28
ENDBRANCH  25  27
ENDBRANCH   1  25
BRANCH   8  39
HETATM   39  O4  UNL     1      -9.270  45.345 -26.047  1.00  0.00    -0.395 OA
HETATM   40  H28 UNL     1      -9.220  44.631 -25.387  1.00  0.00     0.210 HD
ENDBRANCH   8  39
TORSDOF 9
ENDMDL
MODEL 9
REMARK minimizedAffinity -7.72034168
REMARK CNNscore 0.320632428
REMARK CNNaffinity 6.22553492
REMARK  9 active torsions:
REMARK  status: ('A' for Active; 'I' for Inactive)
REMARK    1  A    between atoms: C2_2  and  C3_3 
REMARK    2  A    between atoms: C2_2  and  C9_12 
REMARK    3  A    between atoms: C3_3  and  C4_4 
REMARK    4  A    between atoms: C4_4  and  O1_5 
REMARK    5  A    between atoms: C4_4  and  C5_6 
REMARK    6  A    between atoms: C5_6  and  O2_7 
REMARK    7  A    between atoms: C5_6  and  C6_8 
REMARK    8  A    between atoms: C6_8  and  O3_11 
REMARK    9  A    between atoms: C16_19  and  O4_20 
ROOT
HETATM    1  C9  UNL     1       2.244  54.695 -10.369  1.00  0.00     0.097 A 
HETATM    2  C10 UNL     1       3.102  53.529 -10.805  1.00  0.00     0.042 C 
HETATM    3  C11 UNL     1       4.104  53.340  -9.649  1.00  0.00     0.016 C 
HETATM    4  C12 UNL     1       4.387  54.771  -9.084  1.00  0.00    -0.002 C 
HETATM    5  C13 UNL     1       5.469  55.401 -10.016  1.00  0.00     0.019 C 
HETATM    6  C14 UNL     1       3.034  55.478  -9.308  1.00  0.00     0.104 A 
HETATM    7  C15 UNL     1       2.369  56.280  -8.232  1.00  0.00     0.074 C 
HETATM    8  C16 UNL     1       3.277  56.845  -7.118  1.00  0.00     0.126 C 
HETATM    9  C17 UNL     1       4.737  56.321  -7.092  1.00  0.00     0.032 C 
HETATM   10  C18 UNL     1       5.633  56.699  -5.815  1.00  0.00    -0.032 C 
HETATM   11  C19 UNL     1       5.553  58.235  -5.584  1.00  0.00     0.016 C 
HETATM   12  C20 UNL     1       5.148  55.989  -4.537  1.00  0.00     0.017 C 
HETATM   13  C21 UNL     1       5.949  56.348  -3.306  1.00  0.00     0.080 C 
HETATM   14  C22 UNL     1       7.354  55.856  -3.474  1.00  0.00     0.135 C 
HETATM   15  O5  UNL     1       7.942  55.379  -2.496  1.00  0.00    -0.297 OA
HETATM   16  C23 UNL     1       8.085  56.093  -4.809  1.00  0.00     0.017 C 
HETATM   17  C24 UNL     1       9.061  54.905  -4.981  1.00  0.00     0.023 C 
HETATM   18  C25 UNL     1       8.965  57.346  -4.570  1.00  0.00     0.023 C 
HETATM   19  C26 UNL     1       7.157  56.339  -6.086  1.00  0.00     0.009 C 
HETATM   20  C27 UNL     1       7.305  55.318  -7.244  1.00  0.00     0.007 C 
HETATM   21  C28 UNL     1       6.222  54.248  -7.276  1.00  0.00     0.011 C 
HETATM   22  C29 UNL     1       4.796  54.810  -7.536  1.00  0.00    -0.027 C 
HETATM   23  C30 UNL     1       3.819  53.905  -6.728  1.00  0.00     0.016 C 
HETATM   24  O6  UNL     1       2.858  55.973 -10.636  1.00  0.00    -0.362 OA
ENDROOT
BRANCH   1  25
HETATM   25  C2  UNL     1       0.781  54.712 -10.779  1.00  0.00     0.022 C 
HETATM   26  C1  UNL     1      -0.216  55.110  -9.683  1.00  0.00     0.013 C 
BRANCH  25  27
HETATM   27  C3  UNL     1       0.286  53.447 -11.524  1.00  0.00     0.041 C 
BRANCH  27  28
HETATM   28  C4  UNL     1      -0.990  52.806 -10.964  1.00  0.00     0.150 C 
BRANCH  28  29
HETATM   29  O1  UNL     1      -0.638  51.532 -10.403  1.00  0.00    -0.393 OA
HETATM   30  H8  UNL     1      -0.411  50.980 -11.180  1.00  0.00     0.210 HD
ENDBRANCH  28  29
BRANCH  28  31
HETATM   31  C5  UNL     1      -2.046  52.539 -12.067  1.00  0.00     0.180 C 
BRANCH  31  32
HETATM   32  O2  UNL     1      -1.987  51.119 -12.327  1.00  0.00    -0.390 OA
HETATM   33  H10 UNL     1      -2.519  50.940 -13.123  1.00  0.00     0.210 HD
ENDBRANCH  31  32
BRANCH  31  34
HETATM   34  C6  UNL     1      -3.493  52.974 -11.649  1.00  0.00     0.079 C 
HETATM   35  C7  UNL     1      -4.300  51.769 -11.149  1.00  0.00     0.048 C 
HETATM   36  C8  UNL     1      -3.466  54.044 -10.553  1.00  0.00     0.048 C 
BRANCH  34  37
HETATM   37  O3  UNL     1      -4.224  53.534 -12.743  1.00  0.00    -0.388 OA
HETATM   38  H17 UNL     1      -3.595  53.693 -13.478  1.00  0.00     0.210 HD
ENDBRANCH  34  37
ENDBRANCH  31  34
ENDBRANCH  28  31
ENDBRANCH  27  28
ENDBRANCH  25  27
ENDBRANCH   1  25
BRANCH   8  39
HETATM   39  O4  UNL     1       3.302  58.271  -7.271  1.00  0.00    -0.395 OA
HETATM   40  H28 UNL     1       2.387  58.594  -7.199  1.00  0.00     0.210 HD
ENDBRANCH   8  39
TORSDOF 9
ENDMDL
