MODEL 1
REMARK minimizedAffinity -9.76064205
REMARK  9 active torsions:
REMARK  status: ('A' for Active; 'I' for Inactive)
REMARK    1  A    between atoms: C2_2  and  C30_34 
REMARK    2  A    between atoms: C3_3  and  C4_4 
REMARK    3  A    between atoms: C4_4  and  C5_5 
REMARK    4  A    between atoms: C5_5  and  C6_6 
REMARK    5  A    between atoms: C6_6  and  C8_8 
REMARK    6  A    between atoms: C10_10  and  O1_12 
REMARK    7  A    between atoms: C14_15  and  O2_16 
REMARK    8  A    between atoms: C25_28  and  O4_29 
REMARK    9  A    between atoms: C30_34  and  O5_35 
ROOT
HETATM    1  C8  UNL     1      -0.211  51.487 -21.286  1.00  0.00     0.005 C 
HETATM    2  C9  UNL     1      -0.516  52.254 -19.999  1.00  0.00     0.048 C 
HETATM    3  C10 UNL     1      -1.454  51.315 -19.210  1.00  0.00     0.079 C 
HETATM    4  C11 UNL     1      -0.634  50.498 -18.203  1.00  0.00     0.051 C 
HETATM    5  C12 UNL     1      -2.146  50.492 -20.289  1.00  0.00    -0.030 C 
HETATM    6  C13 UNL     1      -3.007  49.457 -20.128  1.00  0.00    -0.011 C 
HETATM    7  C14 UNL     1      -3.584  49.063 -18.787  1.00  0.00     0.151 C 
HETATM    8  C15 UNL     1      -5.100  48.863 -18.825  1.00  0.00     0.043 C 
HETATM    9  C16 UNL     1      -5.554  47.904 -19.949  1.00  0.00     0.015 C 
HETATM   10  C17 UNL     1      -7.077  47.530 -19.863  1.00  0.00     0.018 C 
HETATM   11  C18 UNL     1      -7.986  48.696 -19.426  1.00  0.00     0.023 C 
HETATM   12  C19 UNL     1      -7.243  46.418 -18.796  1.00  0.00     0.023 C 
HETATM   13  C20 UNL     1      -7.657  46.946 -21.166  1.00  0.00     0.135 C 
HETATM   14  O3  UNL     1      -8.778  46.416 -21.173  1.00  0.00    -0.297 OA
HETATM   15  C21 UNL     1      -6.944  47.140 -22.483  1.00  0.00     0.080 C 
HETATM   16  C22 UNL     1      -5.442  47.322 -22.369  1.00  0.00     0.020 C 
HETATM   17  C23 UNL     1      -5.033  48.408 -21.344  1.00  0.00    -0.004 C 
HETATM   18  C24 UNL     1      -5.674  49.763 -21.742  1.00  0.00     0.019 C 
HETATM   19  C25 UNL     1      -3.443  48.551 -21.291  1.00  0.00     0.092 C 
HETATM   20  C26 UNL     1      -2.827  48.925 -22.670  1.00  0.00     0.044 C 
HETATM   21  C27 UNL     1      -1.486  49.652 -22.553  1.00  0.00     0.017 C 
HETATM   22  C28 UNL     1      -1.605  50.899 -21.657  1.00  0.00    -0.013 C 
HETATM   23  C29 UNL     1      -2.545  51.944 -22.294  1.00  0.00     0.021 C 
ENDROOT
BRANCH   1  24
HETATM   24  C6  UNL     1       0.554  52.253 -22.405  1.00  0.00    -0.013 C 
HETATM   25  C7  UNL     1       1.156  53.543 -21.836  1.00  0.00     0.010 C 
BRANCH  24  26
HETATM   26  C5  UNL     1      -0.167  52.473 -23.764  1.00  0.00     0.008 C 
BRANCH  26  27
HETATM   27  C4  UNL     1      -0.058  51.402 -24.864  1.00  0.00     0.028 C 
BRANCH  27  28
HETATM   28  C3  UNL     1       1.064  51.624 -25.838  1.00  0.00    -0.022 C 
HETATM   29  C2  UNL     1       0.999  51.793 -27.175  1.00  0.00    -0.064 C 
HETATM   30  C1  UNL     1      -0.266  51.790 -27.991  1.00  0.00     0.045 C 
BRANCH  29  31
HETATM   31  C30 UNL     1       2.264  51.981 -27.978  1.00  0.00     0.197 C 
BRANCH  31  32
HETATM   32  O5  UNL     1       3.375  51.443 -27.282  1.00  0.00    -0.397 OA
HETATM   33  H48 UNL     1       3.171  51.455 -26.333  1.00  0.00     0.209 HD
ENDBRANCH  31  32
ENDBRANCH  29  31
ENDBRANCH  27  28
ENDBRANCH  26  27
ENDBRANCH  24  26
ENDBRANCH   1  24
BRANCH   3  34
HETATM   34  O1  UNL     1      -2.431  52.092 -18.526  1.00  0.00    -0.386 OA
HETATM   35  H19 UNL     1      -1.954  52.722 -17.961  1.00  0.00     0.211 HD
ENDBRANCH   3  34
BRANCH   7  36
HETATM   36  O2  UNL     1      -2.961  47.832 -18.410  1.00  0.00    -0.391 OA
HETATM   37  H21 UNL     1      -3.210  47.665 -17.484  1.00  0.00     0.210 HD
ENDBRANCH   7  36
BRANCH  19  38
HETATM   38  O4  UNL     1      -2.879  47.248 -21.025  1.00  0.00    -0.384 OA
HETATM   39  H38 UNL     1      -2.727  47.182 -20.059  1.00  0.00     0.211 HD
ENDBRANCH  19  38
TORSDOF 9
ENDMDL
MODEL 2
REMARK minimizedAffinity -9.74330425
REMARK  9 active torsions:
REMARK  status: ('A' for Active; 'I' for Inactive)
REMARK    1  A    between atoms: C2_2  and  C30_34 
REMARK    2  A    between atoms: C3_3  and  C4_4 
REMARK    3  A    between atoms: C4_4  and  C5_5 
REMARK    4  A    between atoms: C5_5  and  C6_6 
REMARK    5  A    between atoms: C6_6  and  C8_8 
REMARK    6  A    between atoms: C10_10  and  O1_12 
REMARK    7  A    between atoms: C14_15  and  O2_16 
REMARK    8  A    between atoms: C25_28  and  O4_29 
REMARK    9  A    between atoms: C30_34  and  O5_35 
ROOT
HETATM    1  C8  UNL     1      -1.511  51.374 -23.171  1.00  0.00     0.005 C 
HETATM    2  C9  UNL     1      -1.400  50.704 -24.540  1.00  0.00     0.048 C 
HETATM    3  C10 UNL     1      -2.825  50.182 -24.825  1.00  0.00     0.079 C 
HETATM    4  C11 UNL     1      -3.581  51.200 -25.690  1.00  0.00     0.051 C 
HETATM    5  C12 UNL     1      -3.418  49.955 -23.440  1.00  0.00    -0.030 C 
HETATM    6  C13 UNL     1      -4.683  49.582 -23.123  1.00  0.00    -0.011 C 
HETATM    7  C14 UNL     1      -5.695  49.133 -24.153  1.00  0.00     0.151 C 
HETATM    8  C15 UNL     1      -6.406  47.836 -23.765  1.00  0.00     0.043 C 
HETATM    9  C16 UNL     1      -7.015  47.883 -22.345  1.00  0.00     0.015 C 
HETATM   10  C17 UNL     1      -7.921  46.643 -22.021  1.00  0.00     0.018 C 
HETATM   11  C18 UNL     1      -7.394  45.312 -22.593  1.00  0.00     0.023 C 
HETATM   12  C19 UNL     1      -9.312  46.878 -22.665  1.00  0.00     0.023 C 
HETATM   13  C20 UNL     1      -8.190  46.433 -20.518  1.00  0.00     0.135 C 
HETATM   14  O3  UNL     1      -9.054  45.628 -20.139  1.00  0.00    -0.297 OA
HETATM   15  C21 UNL     1      -7.311  47.086 -19.479  1.00  0.00     0.080 C 
HETATM   16  C22 UNL     1      -6.645  48.373 -19.930  1.00  0.00     0.020 C 
HETATM   17  C23 UNL     1      -5.910  48.240 -21.286  1.00  0.00    -0.004 C 
HETATM   18  C24 UNL     1      -4.833  47.128 -21.182  1.00  0.00     0.019 C 
HETATM   19  C25 UNL     1      -5.226  49.626 -21.686  1.00  0.00     0.092 C 
HETATM   20  C26 UNL     1      -4.203  50.122 -20.622  1.00  0.00     0.044 C 
HETATM   21  C27 UNL     1      -3.127  51.040 -21.204  1.00  0.00     0.017 C 
HETATM   22  C28 UNL     1      -2.399  50.367 -22.382  1.00  0.00    -0.013 C 
HETATM   23  C29 UNL     1      -1.617  49.125 -21.906  1.00  0.00     0.021 C 
ENDROOT
BRANCH   1  24
HETATM   24  C6  UNL     1      -0.184  51.830 -22.494  1.00  0.00    -0.013 C 
HETATM   25  C7  UNL     1      -0.441  52.177 -21.024  1.00  0.00     0.010 C 
BRANCH  24  26
HETATM   26  C5  UNL     1       0.679  52.896 -23.224  1.00  0.00     0.008 C 
BRANCH  26  27
HETATM   27  C4  UNL     1       0.374  53.245 -24.693  1.00  0.00     0.028 C 
BRANCH  27  28
HETATM   28  C3  UNL     1       1.171  52.462 -25.697  1.00  0.00    -0.022 C 
HETATM   29  C2  UNL     1       1.035  52.426 -27.038  1.00  0.00    -0.064 C 
HETATM   30  C1  UNL     1       0.011  53.195 -27.829  1.00  0.00     0.045 C 
BRANCH  29  31
HETATM   31  C30 UNL     1       1.936  51.544 -27.869  1.00  0.00     0.197 C 
BRANCH  31  32
HETATM   32  O5  UNL     1       3.263  51.584 -27.370  1.00  0.00    -0.397 OA
HETATM   33  H48 UNL     1       3.386  52.430 -26.908  1.00  0.00     0.209 HD
ENDBRANCH  31  32
ENDBRANCH  29  31
ENDBRANCH  27  28
ENDBRANCH  26  27
ENDBRANCH  24  26
ENDBRANCH   1  24
BRANCH   3  34
HETATM   34  O1  UNL     1      -2.743  48.933 -25.502  1.00  0.00    -0.386 OA
HETATM   35  H19 UNL     1      -2.219  49.076 -26.307  1.00  0.00     0.211 HD
ENDBRANCH   3  34
BRANCH   7  36
HETATM   36  O2  UNL     1      -6.664  50.179 -24.270  1.00  0.00    -0.391 OA
HETATM   37  H21 UNL     1      -7.217  49.962 -25.040  1.00  0.00     0.210 HD
ENDBRANCH   7  36
BRANCH  19  38
HETATM   38  O4  UNL     1      -6.240  50.655 -21.666  1.00  0.00    -0.384 OA
HETATM   39  H38 UNL     1      -6.574  50.759 -22.581  1.00  0.00     0.211 HD
ENDBRANCH  19  38
TORSDOF 9
ENDMDL
MODEL 3
REMARK minimizedAffinity -9.37826157
REMARK  9 active torsions:
REMARK  status: ('A' for Active; 'I' for Inactive)
REMARK    1  A    between atoms: C2_2  and  C30_34 
REMARK    2  A    between atoms: C3_3  and  C4_4 
REMARK    3  A    between atoms: C4_4  and  C5_5 
REMARK    4  A    between atoms: C5_5  and  C6_6 
REMARK    5  A    between atoms: C6_6  and  C8_8 
REMARK    6  A    between atoms: C10_10  and  O1_12 
REMARK    7  A    between atoms: C14_15  and  O2_16 
REMARK    8  A    between atoms: C25_28  and  O4_29 
REMARK    9  A    between atoms: C30_34  and  O5_35 
ROOT
HETATM    1  C8  UNL     1      -1.362  51.884 -23.984  1.00  0.00     0.005 C 
HETATM    2  C9  UNL     1      -1.230  50.913 -25.158  1.00  0.00     0.048 C 
HETATM    3  C10 UNL     1      -2.607  50.219 -25.235  1.00  0.00     0.079 C 
HETATM    4  C11 UNL     1      -3.483  50.929 -26.276  1.00  0.00     0.051 C 
HETATM    5  C12 UNL     1      -3.133  50.285 -23.807  1.00  0.00    -0.030 C 
HETATM    6  C13 UNL     1      -4.347  49.893 -23.344  1.00  0.00    -0.011 C 
HETATM    7  C14 UNL     1      -5.342  49.124 -24.182  1.00  0.00     0.151 C 
HETATM    8  C15 UNL     1      -5.914  47.904 -23.460  1.00  0.00     0.043 C 
HETATM    9  C16 UNL     1      -6.481  48.242 -22.061  1.00  0.00     0.015 C 
HETATM   10  C17 UNL     1      -7.255  47.044 -21.404  1.00  0.00     0.018 C 
HETATM   11  C18 UNL     1      -6.621  45.664 -21.669  1.00  0.00     0.023 C 
HETATM   12  C19 UNL     1      -8.681  46.997 -22.012  1.00  0.00     0.023 C 
HETATM   13  C20 UNL     1      -7.457  47.183 -19.883  1.00  0.00     0.135 C 
HETATM   14  O3  UNL     1      -8.228  46.423 -19.278  1.00  0.00    -0.297 OA
HETATM   15  C21 UNL     1      -6.612  48.140 -19.076  1.00  0.00     0.080 C 
HETATM   16  C22 UNL     1      -6.086  49.332 -19.856  1.00  0.00     0.020 C 
HETATM   17  C23 UNL     1      -5.383  48.937 -21.178  1.00  0.00    -0.004 C 
HETATM   18  C24 UNL     1      -4.202  47.979 -20.869  1.00  0.00     0.019 C 
HETATM   19  C25 UNL     1      -4.847  50.238 -21.932  1.00  0.00     0.092 C 
HETATM   20  C26 UNL     1      -3.844  51.062 -21.072  1.00  0.00     0.044 C 
HETATM   21  C27 UNL     1      -2.878  51.900 -21.912  1.00  0.00     0.017 C 
HETATM   22  C28 UNL     1      -2.126  51.026 -22.933  1.00  0.00    -0.013 C 
HETATM   23  C29 UNL     1      -1.215  50.007 -22.216  1.00  0.00     0.021 C 
ENDROOT
BRANCH   1  24
HETATM   24  C6  UNL     1      -0.065  52.601 -23.506  1.00  0.00    -0.013 C 
HETATM   25  C7  UNL     1       1.030  52.461 -24.570  1.00  0.00     0.010 C 
BRANCH  24  26
HETATM   26  C5  UNL     1       0.447  52.301 -22.070  1.00  0.00     0.008 C 
BRANCH  26  27
HETATM   27  C4  UNL     1       0.627  53.458 -21.071  1.00  0.00     0.028 C 
BRANCH  27  28
HETATM   28  C3  UNL     1       1.097  53.036 -19.708  1.00  0.00    -0.022 C 
HETATM   29  C2  UNL     1       0.394  52.450 -18.717  1.00  0.00    -0.064 C 
HETATM   30  C1  UNL     1      -1.067  52.090 -18.784  1.00  0.00     0.045 C 
BRANCH  29  31
HETATM   31  C30 UNL     1       1.061  52.125 -17.402  1.00  0.00     0.197 C 
BRANCH  31  32
HETATM   32  O5  UNL     1       1.374  53.317 -16.700  1.00  0.00    -0.397 OA
HETATM   33  H48 UNL     1       1.475  54.032 -17.350  1.00  0.00     0.209 HD
ENDBRANCH  31  32
ENDBRANCH  29  31
ENDBRANCH  27  28
ENDBRANCH  26  27
ENDBRANCH  24  26
ENDBRANCH   1  24
BRANCH   3  34
HETATM   34  O1  UNL     1      -2.427  48.855 -25.598  1.00  0.00    -0.386 OA
HETATM   35  H19 UNL     1      -1.944  48.843 -26.441  1.00  0.00     0.211 HD
ENDBRANCH   3  34
BRANCH   7  36
HETATM   36  O2  UNL     1      -6.409  50.024 -24.494  1.00  0.00    -0.391 OA
HETATM   37  H21 UNL     1      -6.963  49.580 -25.160  1.00  0.00     0.210 HD
ENDBRANCH   7  36
BRANCH  19  38
HETATM   38  O4  UNL     1      -5.954  51.151 -22.105  1.00  0.00    -0.384 OA
HETATM   39  H38 UNL     1      -6.324  51.002 -22.999  1.00  0.00     0.211 HD
ENDBRANCH  19  38
TORSDOF 9
ENDMDL
MODEL 4
REMARK minimizedAffinity -8.95153999
REMARK  9 active torsions:
REMARK  status: ('A' for Active; 'I' for Inactive)
REMARK    1  A    between atoms: C2_2  and  C30_34 
REMARK    2  A    between atoms: C3_3  and  C4_4 
REMARK    3  A    between atoms: C4_4  and  C5_5 
REMARK    4  A    between atoms: C5_5  and  C6_6 
REMARK    5  A    between atoms: C6_6  and  C8_8 
REMARK    6  A    between atoms: C10_10  and  O1_12 
REMARK    7  A    between atoms: C14_15  and  O2_16 
REMARK    8  A    between atoms: C25_28  and  O4_29 
REMARK    9  A    between atoms: C30_34  and  O5_35 
ROOT
HETATM    1  C8  UNL     1      -4.133  49.533 -23.964  1.00  0.00     0.005 C 
HETATM    2  C9  UNL     1      -4.417  48.086 -23.559  1.00  0.00     0.048 C 
HETATM    3  C10 UNL     1      -4.396  48.112 -22.015  1.00  0.00     0.079 C 
HETATM    4  C11 UNL     1      -5.828  48.252 -21.484  1.00  0.00     0.051 C 
HETATM    5  C12 UNL     1      -3.472  49.276 -21.678  1.00  0.00    -0.030 C 
HETATM    6  C13 UNL     1      -3.180  49.784 -20.455  1.00  0.00    -0.011 C 
HETATM    7  C14 UNL     1      -3.602  49.123 -19.163  1.00  0.00     0.151 C 
HETATM    8  C15 UNL     1      -2.460  49.001 -18.153  1.00  0.00     0.043 C 
HETATM    9  C16 UNL     1      -1.732  50.342 -17.901  1.00  0.00     0.015 C 
HETATM   10  C17 UNL     1      -0.703  50.271 -16.718  1.00  0.00     0.018 C 
HETATM   11  C18 UNL     1       0.075  48.942 -16.639  1.00  0.00     0.023 C 
HETATM   12  C19 UNL     1      -1.486  50.403 -15.386  1.00  0.00     0.023 C 
HETATM   13  C20 UNL     1       0.327  51.418 -16.709  1.00  0.00     0.135 C 
HETATM   14  O3  UNL     1       1.056  51.602 -15.722  1.00  0.00    -0.297 OA
HETATM   15  C21 UNL     1       0.576  52.241 -17.950  1.00  0.00     0.080 C 
HETATM   16  C22 UNL     1      -0.605  52.325 -18.901  1.00  0.00     0.020 C 
HETATM   17  C23 UNL     1      -1.206  50.943 -19.255  1.00  0.00    -0.004 C 
HETATM   18  C24 UNL     1      -0.110  50.050 -19.893  1.00  0.00     0.019 C 
HETATM   19  C25 UNL     1      -2.430  51.112 -20.266  1.00  0.00     0.092 C 
HETATM   20  C26 UNL     1      -2.022  51.820 -21.591  1.00  0.00     0.044 C 
HETATM   21  C27 UNL     1      -2.929  51.462 -22.769  1.00  0.00     0.017 C 
HETATM   22  C28 UNL     1      -3.003  49.937 -22.971  1.00  0.00    -0.013 C 
HETATM   23  C29 UNL     1      -1.624  49.369 -23.370  1.00  0.00     0.021 C 
ENDROOT
BRANCH   1  24
HETATM   24  C6  UNL     1      -3.881  49.811 -25.475  1.00  0.00    -0.013 C 
HETATM   25  C7  UNL     1      -3.454  48.519 -26.179  1.00  0.00     0.010 C 
BRANCH  24  26
HETATM   26  C5  UNL     1      -2.990  51.027 -25.854  1.00  0.00     0.008 C 
BRANCH  26  27
HETATM   27  C4  UNL     1      -1.868  50.853 -26.894  1.00  0.00     0.028 C 
BRANCH  27  28
HETATM   28  C3  UNL     1      -0.479  50.987 -26.338  1.00  0.00    -0.022 C 
HETATM   29  C2  UNL     1       0.639  51.422 -26.956  1.00  0.00    -0.064 C 
HETATM   30  C1  UNL     1       0.718  51.875 -28.389  1.00  0.00     0.045 C 
BRANCH  29  31
HETATM   31  C30 UNL     1       1.952  51.457 -26.212  1.00  0.00     0.197 C 
BRANCH  31  32
HETATM   32  O5  UNL     1       3.007  51.809 -27.091  1.00  0.00    -0.397 OA
HETATM   33  H48 UNL     1       2.749  51.553 -27.991  1.00  0.00     0.209 HD
ENDBRANCH  31  32
ENDBRANCH  29  31
ENDBRANCH  27  28
ENDBRANCH  26  27
ENDBRANCH  24  26
ENDBRANCH   1  24
BRANCH   3  34
HETATM   34  O1  UNL     1      -3.813  46.906 -21.533  1.00  0.00    -0.386 OA
HETATM   35  H19 UNL     1      -4.331  46.170 -21.897  1.00  0.00     0.211 HD
ENDBRANCH   3  34
BRANCH   7  36
HETATM   36  O2  UNL     1      -4.639  49.932 -18.599  1.00  0.00    -0.391 OA
HETATM   37  H21 UNL     1      -5.016  49.425 -17.859  1.00  0.00     0.210 HD
ENDBRANCH   7  36
BRANCH  19  38
HETATM   38  O4  UNL     1      -3.377  52.035 -19.683  1.00  0.00    -0.384 OA
HETATM   39  H38 UNL     1      -4.061  51.505 -19.223  1.00  0.00     0.211 HD
ENDBRANCH  19  38
TORSDOF 9
ENDMDL
MODEL 5
REMARK minimizedAffinity -8.93023205
REMARK  9 active torsions:
REMARK  status: ('A' for Active; 'I' for Inactive)
REMARK    1  A    between atoms: C2_2  and  C30_34 
REMARK    2  A    between atoms: C3_3  and  C4_4 
REMARK    3  A    between atoms: C4_4  and  C5_5 
REMARK    4  A    between atoms: C5_5  and  C6_6 
REMARK    5  A    between atoms: C6_6  and  C8_8 
REMARK    6  A    between atoms: C10_10  and  O1_12 
REMARK    7  A    between atoms: C14_15  and  O2_16 
REMARK    8  A    between atoms: C25_28  and  O4_29 
REMARK    9  A    between atoms: C30_34  and  O5_35 
ROOT
HETATM    1  C8  UNL     1      -1.663  51.840 -22.036  1.00  0.00     0.005 C 
HETATM    2  C9  UNL     1      -2.333  51.965 -23.404  1.00  0.00     0.048 C 
HETATM    3  C10 UNL     1      -3.753  51.399 -23.186  1.00  0.00     0.079 C 
HETATM    4  C11 UNL     1      -4.728  52.551 -22.908  1.00  0.00     0.051 C 
HETATM    5  C12 UNL     1      -3.584  50.414 -22.035  1.00  0.00    -0.030 C 
HETATM    6  C13 UNL     1      -4.546  49.707 -21.392  1.00  0.00    -0.011 C 
HETATM    7  C14 UNL     1      -5.981  49.646 -21.863  1.00  0.00     0.151 C 
HETATM    8  C15 UNL     1      -6.533  48.220 -21.913  1.00  0.00     0.043 C 
HETATM    9  C16 UNL     1      -6.331  47.448 -20.589  1.00  0.00     0.015 C 
HETATM   10  C17 UNL     1      -7.076  46.067 -20.561  1.00  0.00     0.018 C 
HETATM   11  C18 UNL     1      -7.056  45.314 -21.906  1.00  0.00     0.023 C 
HETATM   12  C19 UNL     1      -8.567  46.328 -20.224  1.00  0.00     0.023 C 
HETATM   13  C20 UNL     1      -6.568  45.099 -19.475  1.00  0.00     0.135 C 
HETATM   14  O3  UNL     1      -7.202  44.067 -19.204  1.00  0.00    -0.297 OA
HETATM   15  C21 UNL     1      -5.219  45.304 -18.828  1.00  0.00     0.080 C 
HETATM   16  C22 UNL     1      -4.739  46.744 -18.806  1.00  0.00     0.020 C 
HETATM   17  C23 UNL     1      -4.810  47.434 -20.190  1.00  0.00    -0.004 C 
HETATM   18  C24 UNL     1      -3.955  46.636 -21.209  1.00  0.00     0.019 C 
HETATM   19  C25 UNL     1      -4.278  48.936 -20.090  1.00  0.00     0.092 C 
HETATM   20  C26 UNL     1      -2.812  49.022 -19.575  1.00  0.00     0.044 C 
HETATM   21  C27 UNL     1      -2.086  50.289 -20.034  1.00  0.00     0.017 C 
HETATM   22  C28 UNL     1      -2.132  50.431 -21.567  1.00  0.00    -0.013 C 
HETATM   23  C29 UNL     1      -1.356  49.285 -22.248  1.00  0.00     0.021 C 
ENDROOT
BRANCH   1  24
HETATM   24  C6  UNL     1      -0.136  52.139 -21.963  1.00  0.00    -0.013 C 
HETATM   25  C7  UNL     1       0.158  53.068 -20.780  1.00  0.00     0.010 C 
BRANCH  24  26
HETATM   26  C5  UNL     1       0.584  52.578 -23.269  1.00  0.00     0.008 C 
BRANCH  26  27
HETATM   27  C4  UNL     1       0.042  52.107 -24.631  1.00  0.00     0.028 C 
BRANCH  27  28
HETATM   28  C3  UNL     1       1.077  52.020 -25.716  1.00  0.00    -0.022 C 
HETATM   29  C2  UNL     1       0.900  51.794 -27.034  1.00  0.00    -0.064 C 
HETATM   30  C1  UNL     1      -0.428  51.571 -27.707  1.00  0.00     0.045 C 
BRANCH  29  31
HETATM   31  C30 UNL     1       2.092  51.722 -27.958  1.00  0.00     0.197 C 
BRANCH  31  32
HETATM   32  O5  UNL     1       3.291  51.948 -27.236  1.00  0.00    -0.397 OA
HETATM   33  H48 UNL     1       3.076  52.481 -26.453  1.00  0.00     0.209 HD
ENDBRANCH  31  32
ENDBRANCH  29  31
ENDBRANCH  27  28
ENDBRANCH  26  27
ENDBRANCH  24  26
ENDBRANCH   1  24
BRANCH   3  34
HETATM   34  O1  UNL     1      -4.159  50.685 -24.348  1.00  0.00    -0.386 OA
HETATM   35  H19 UNL     1      -4.103  51.300 -25.098  1.00  0.00     0.211 HD
ENDBRANCH   3  34
BRANCH   7  36
HETATM   36  O2  UNL     1      -6.757  50.414 -20.939  1.00  0.00    -0.391 OA
HETATM   37  H21 UNL     1      -7.644  50.506 -21.329  1.00  0.00     0.210 HD
ENDBRANCH   7  36
BRANCH  19  38
HETATM   38  O4  UNL     1      -5.026  49.614 -19.055  1.00  0.00    -0.384 OA
HETATM   39  H38 UNL     1      -5.764  50.092 -19.488  1.00  0.00     0.211 HD
ENDBRANCH  19  38
TORSDOF 9
ENDMDL
MODEL 6
REMARK minimizedAffinity -8.90574646
REMARK  9 active torsions:
REMARK  status: ('A' for Active; 'I' for Inactive)
REMARK    1  A    between atoms: C2_2  and  C30_34 
REMARK    2  A    between atoms: C3_3  and  C4_4 
REMARK    3  A    between atoms: C4_4  and  C5_5 
REMARK    4  A    between atoms: C5_5  and  C6_6 
REMARK    5  A    between atoms: C6_6  and  C8_8 
REMARK    6  A    between atoms: C10_10  and  O1_12 
REMARK    7  A    between atoms: C14_15  and  O2_16 
REMARK    8  A    between atoms: C25_28  and  O4_29 
REMARK    9  A    between atoms: C30_34  and  O5_35 
ROOT
HETATM    1  C8  UNL     1      -3.494  48.741 -24.404  1.00  0.00     0.005 C 
HETATM    2  C9  UNL     1      -2.561  49.225 -23.294  1.00  0.00     0.048 C 
HETATM    3  C10 UNL     1      -3.008  48.431 -22.047  1.00  0.00     0.079 C 
HETATM    4  C11 UNL     1      -2.117  47.194 -21.879  1.00  0.00     0.051 C 
HETATM    5  C12 UNL     1      -4.478  48.129 -22.310  1.00  0.00    -0.030 C 
HETATM    6  C13 UNL     1      -5.323  47.377 -21.562  1.00  0.00    -0.011 C 
HETATM    7  C14 UNL     1      -4.968  46.851 -20.191  1.00  0.00     0.151 C 
HETATM    8  C15 UNL     1      -6.059  47.109 -19.151  1.00  0.00     0.043 C 
HETATM    9  C16 UNL     1      -7.455  46.623 -19.608  1.00  0.00     0.015 C 
HETATM   10  C17 UNL     1      -8.534  46.693 -18.470  1.00  0.00     0.018 C 
HETATM   11  C18 UNL     1      -8.406  47.927 -17.555  1.00  0.00     0.023 C 
HETATM   12  C19 UNL     1      -8.359  45.449 -17.560  1.00  0.00     0.023 C 
HETATM   13  C20 UNL     1      -9.988  46.635 -18.977  1.00  0.00     0.135 C 
HETATM   14  O3  UNL     1     -10.926  46.466 -18.182  1.00  0.00    -0.297 OA
HETATM   15  C21 UNL     1     -10.315  46.930 -20.421  1.00  0.00     0.080 C 
HETATM   16  C22 UNL     1      -9.188  46.642 -21.397  1.00  0.00     0.020 C 
HETATM   17  C23 UNL     1      -7.840  47.281 -20.982  1.00  0.00    -0.004 C 
HETATM   18  C24 UNL     1      -8.014  48.817 -20.857  1.00  0.00     0.019 C 
HETATM   19  C25 UNL     1      -6.712  46.946 -22.061  1.00  0.00     0.092 C 
HETATM   20  C26 UNL     1      -7.074  47.452 -23.488  1.00  0.00     0.044 C 
HETATM   21  C27 UNL     1      -5.847  47.713 -24.363  1.00  0.00     0.017 C 
HETATM   22  C28 UNL     1      -4.870  48.685 -23.677  1.00  0.00    -0.013 C 
HETATM   23  C29 UNL     1      -5.512  50.077 -23.503  1.00  0.00     0.021 C 
ENDROOT
BRANCH   1  24
HETATM   24  C6  UNL     1      -3.441  49.504 -25.760  1.00  0.00    -0.013 C 
HETATM   25  C7  UNL     1      -3.111  48.528 -26.895  1.00  0.00     0.010 C 
BRANCH  24  26
HETATM   26  C5  UNL     1      -2.605  50.813 -25.828  1.00  0.00     0.008 C 
BRANCH  26  27
HETATM   27  C4  UNL     1      -1.528  50.970 -26.917  1.00  0.00     0.028 C 
BRANCH  27  28
HETATM   28  C3  UNL     1      -0.117  50.957 -26.401  1.00  0.00    -0.022 C 
HETATM   29  C2  UNL     1       1.016  51.327 -27.034  1.00  0.00    -0.064 C 
HETATM   30  C1  UNL     1       1.093  51.845 -28.445  1.00  0.00     0.045 C 
BRANCH  29  31
HETATM   31  C30 UNL     1       2.348  51.211 -26.334  1.00  0.00     0.197 C 
BRANCH  31  32
HETATM   32  O5  UNL     1       3.403  51.545 -27.221  1.00  0.00    -0.397 OA
HETATM   33  H48 UNL     1       3.100  51.372 -28.128  1.00  0.00     0.209 HD
ENDBRANCH  31  32
ENDBRANCH  29  31
ENDBRANCH  27  28
ENDBRANCH  26  27
ENDBRANCH  24  26
ENDBRANCH   1  24
BRANCH   3  34
HETATM   34  O1  UNL     1      -2.907  49.265 -20.898  1.00  0.00    -0.386 OA
HETATM   35  H19 UNL     1      -1.987  49.574 -20.846  1.00  0.00     0.211 HD
ENDBRANCH   3  34
BRANCH   7  36
HETATM   36  O2  UNL     1      -4.773  45.440 -20.322  1.00  0.00    -0.391 OA
HETATM   37  H21 UNL     1      -4.391  45.132 -19.482  1.00  0.00     0.210 HD
ENDBRANCH   7  36
BRANCH  19  38
HETATM   38  O4  UNL     1      -6.656  45.512 -22.229  1.00  0.00    -0.384 OA
HETATM   39  H38 UNL     1      -5.947  45.173 -21.644  1.00  0.00     0.211 HD
ENDBRANCH  19  38
TORSDOF 9
ENDMDL
MODEL 7
REMARK minimizedAffinity -8.86853027
REMARK  9 active torsions:
REMARK  status: ('A' for Active; 'I' for Inactive)
REMARK    1  A    between atoms: C2_2  and  C30_34 
REMARK    2  A    between atoms: C3_3  and  C4_4 
REMARK    3  A    between atoms: C4_4  and  C5_5 
REMARK    4  A    between atoms: C5_5  and  C6_6 
REMARK    5  A    between atoms: C6_6  and  C8_8 
REMARK    6  A    between atoms: C10_10  and  O1_12 
REMARK    7  A    between atoms: C14_15  and  O2_16 
REMARK    8  A    between atoms: C25_28  and  O4_29 
REMARK    9  A    between atoms: C30_34  and  O5_35 
ROOT
HETATM    1  C8  UNL     1      -1.473  52.124 -21.754  1.00  0.00     0.005 C 
HETATM    2  C9  UNL     1      -1.277  51.732 -23.219  1.00  0.00     0.048 C 
HETATM    3  C10 UNL     1      -2.659  51.202 -23.659  1.00  0.00     0.079 C 
HETATM    4  C11 UNL     1      -3.444  52.324 -24.350  1.00  0.00     0.051 C 
HETATM    5  C12 UNL     1      -3.284  50.686 -22.368  1.00  0.00    -0.030 C 
HETATM    6  C13 UNL     1      -4.535  50.195 -22.183  1.00  0.00    -0.011 C 
HETATM    7  C14 UNL     1      -5.483  49.898 -23.322  1.00  0.00     0.151 C 
HETATM    8  C15 UNL     1      -6.130  48.516 -23.216  1.00  0.00     0.043 C 
HETATM    9  C16 UNL     1      -6.788  48.262 -21.840  1.00  0.00     0.015 C 
HETATM   10  C17 UNL     1      -7.630  46.938 -21.795  1.00  0.00     0.018 C 
HETATM   11  C18 UNL     1      -7.006  45.769 -22.582  1.00  0.00     0.023 C 
HETATM   12  C19 UNL     1      -9.010  47.220 -22.444  1.00  0.00     0.023 C 
HETATM   13  C20 UNL     1      -7.936  46.434 -20.371  1.00  0.00     0.135 C 
HETATM   14  O3  UNL     1      -8.764  45.528 -20.188  1.00  0.00    -0.297 OA
HETATM   15  C21 UNL     1      -7.132  46.922 -19.190  1.00  0.00     0.080 C 
HETATM   16  C22 UNL     1      -6.528  48.304 -19.362  1.00  0.00     0.020 C 
HETATM   17  C23 UNL     1      -5.741  48.468 -20.686  1.00  0.00    -0.004 C 
HETATM   18  C24 UNL     1      -4.605  47.414 -20.744  1.00  0.00     0.019 C 
HETATM   19  C25 UNL     1      -5.127  49.938 -20.788  1.00  0.00     0.092 C 
HETATM   20  C26 UNL     1      -4.172  50.275 -19.606  1.00  0.00     0.044 C 
HETATM   21  C27 UNL     1      -3.132  51.341 -19.958  1.00  0.00     0.017 C 
HETATM   22  C28 UNL     1      -2.326  50.942 -21.208  1.00  0.00    -0.013 C 
HETATM   23  C29 UNL     1      -1.490  49.673 -20.940  1.00  0.00     0.021 C 
ENDROOT
BRANCH   1  24
HETATM   24  C6  UNL     1      -0.199  52.510 -20.947  1.00  0.00    -0.013 C 
HETATM   25  C7  UNL     1       1.030  51.820 -21.549  1.00  0.00     0.010 C 
BRANCH  24  26
HETATM   26  C5  UNL     1      -0.255  52.399 -19.398  1.00  0.00     0.008 C 
BRANCH  26  27
HETATM   27  C4  UNL     1       0.418  51.204 -18.697  1.00  0.00     0.028 C 
BRANCH  27  28
HETATM   28  C3  UNL     1       0.288  51.207 -17.201  1.00  0.00    -0.022 C 
HETATM   29  C2  UNL     1       1.117  51.747 -16.283  1.00  0.00    -0.064 C 
HETATM   30  C1  UNL     1       2.394  52.482 -16.592  1.00  0.00     0.045 C 
BRANCH  29  31
HETATM   31  C30 UNL     1       0.808  51.615 -14.811  1.00  0.00     0.197 C 
BRANCH  31  32
HETATM   32  O5  UNL     1       0.719  52.895 -14.209  1.00  0.00    -0.397 OA
HETATM   33  H48 UNL     1       1.255  53.513 -14.733  1.00  0.00     0.209 HD
ENDBRANCH  31  32
ENDBRANCH  29  31
ENDBRANCH  27  28
ENDBRANCH  26  27
ENDBRANCH  24  26
ENDBRANCH   1  24
BRANCH   3  34
HETATM   34  O1  UNL     1      -2.481  50.109 -24.553  1.00  0.00    -0.386 OA
HETATM   35  H19 UNL     1      -1.939  50.429 -25.294  1.00  0.00     0.211 HD
ENDBRANCH   3  34
BRANCH   7  36
HETATM   36  O2  UNL     1      -6.507  50.896 -23.284  1.00  0.00    -0.391 OA
HETATM   37  H21 UNL     1      -7.021  50.801 -24.104  1.00  0.00     0.210 HD
ENDBRANCH   7  36
BRANCH  19  38
HETATM   38  O4  UNL     1      -6.200  50.891 -20.620  1.00  0.00    -0.384 OA
HETATM   39  H38 UNL     1      -6.508  51.150 -21.513  1.00  0.00     0.211 HD
ENDBRANCH  19  38
TORSDOF 9
ENDMDL
MODEL 8
REMARK minimizedAffinity -8.85406685
REMARK  9 active torsions:
REMARK  status: ('A' for Active; 'I' for Inactive)
REMARK    1  A    between atoms: C2_2  and  C30_34 
REMARK    2  A    between atoms: C3_3  and  C4_4 
REMARK    3  A    between atoms: C4_4  and  C5_5 
REMARK    4  A    between atoms: C5_5  and  C6_6 
REMARK    5  A    between atoms: C6_6  and  C8_8 
REMARK    6  A    between atoms: C10_10  and  O1_12 
REMARK    7  A    between atoms: C14_15  and  O2_16 
REMARK    8  A    between atoms: C25_28  and  O4_29 
REMARK    9  A    between atoms: C30_34  and  O5_35 
ROOT
HETATM    1  C8  UNL     1      -2.863  50.519 -24.878  1.00  0.00     0.005 C 
HETATM    2  C9  UNL     1      -3.833  51.700 -24.937  1.00  0.00     0.048 C 
HETATM    3  C10 UNL     1      -4.514  51.703 -23.551  1.00  0.00     0.079 C 
HETATM    4  C11 UNL     1      -3.795  52.694 -22.627  1.00  0.00     0.051 C 
HETATM    5  C12 UNL     1      -4.446  50.248 -23.104  1.00  0.00    -0.030 C 
HETATM    6  C13 UNL     1      -4.827  49.720 -21.914  1.00  0.00    -0.011 C 
HETATM    7  C14 UNL     1      -5.586  50.504 -20.868  1.00  0.00     0.151 C 
HETATM    8  C15 UNL     1      -6.802  49.753 -20.324  1.00  0.00     0.043 C 
HETATM    9  C16 UNL     1      -6.461  48.325 -19.837  1.00  0.00     0.015 C 
HETATM   10  C17 UNL     1      -7.653  47.628 -19.089  1.00  0.00     0.018 C 
HETATM   11  C18 UNL     1      -9.038  47.929 -19.696  1.00  0.00     0.023 C 
HETATM   12  C19 UNL     1      -7.685  48.158 -17.632  1.00  0.00     0.023 C 
HETATM   13  C20 UNL     1      -7.514  46.098 -18.972  1.00  0.00     0.135 C 
HETATM   14  O3  UNL     1      -8.269  45.453 -18.228  1.00  0.00    -0.297 OA
HETATM   15  C21 UNL     1      -6.566  45.338 -19.868  1.00  0.00     0.080 C 
HETATM   16  C22 UNL     1      -5.378  46.144 -20.362  1.00  0.00     0.020 C 
HETATM   17  C23 UNL     1      -5.777  47.502 -20.988  1.00  0.00    -0.004 C 
HETATM   18  C24 UNL     1      -6.746  47.258 -22.175  1.00  0.00     0.019 C 
HETATM   19  C25 UNL     1      -4.480  48.283 -21.495  1.00  0.00     0.092 C 
HETATM   20  C26 UNL     1      -3.667  47.478 -22.550  1.00  0.00     0.044 C 
HETATM   21  C27 UNL     1      -2.836  48.368 -23.477  1.00  0.00     0.017 C 
HETATM   22  C28 UNL     1      -3.715  49.429 -24.165  1.00  0.00    -0.013 C 
HETATM   23  C29 UNL     1      -4.744  48.764 -25.103  1.00  0.00     0.021 C 
ENDROOT
BRANCH   1  24
HETATM   24  C6  UNL     1      -2.159  50.112 -26.206  1.00  0.00    -0.013 C 
HETATM   25  C7  UNL     1      -2.596  48.701 -26.616  1.00  0.00     0.010 C 
BRANCH  24  26
HETATM   26  C5  UNL     1      -0.623  50.323 -26.312  1.00  0.00     0.008 C 
BRANCH  26  27
HETATM   27  C4  UNL     1      -0.066  51.377 -27.286  1.00  0.00     0.028 C 
BRANCH  27  28
HETATM   28  C3  UNL     1      -0.090  52.784 -26.761  1.00  0.00    -0.022 C 
HETATM   29  C2  UNL     1       0.244  53.232 -25.533  1.00  0.00    -0.064 C 
HETATM   30  C1  UNL     1       0.723  52.371 -24.395  1.00  0.00     0.045 C 
BRANCH  29  31
HETATM   31  C30 UNL     1       0.124  54.700 -25.203  1.00  0.00     0.197 C 
BRANCH  31  32
HETATM   32  O5  UNL     1       0.225  55.481 -26.382  1.00  0.00    -0.397 OA
HETATM   33  H48 UNL     1       0.736  54.977 -27.035  1.00  0.00     0.209 HD
ENDBRANCH  31  32
ENDBRANCH  29  31
ENDBRANCH  27  28
ENDBRANCH  26  27
ENDBRANCH  24  26
ENDBRANCH   1  24
BRANCH   3  34
HETATM   34  O1  UNL     1      -5.879  52.076 -23.699  1.00  0.00    -0.386 OA
HETATM   35  H19 UNL     1      -5.895  52.944 -24.136  1.00  0.00     0.211 HD
ENDBRANCH   3  34
BRANCH   7  36
HETATM   36  O2  UNL     1      -4.675  50.756 -19.794  1.00  0.00    -0.391 OA
HETATM   37  H21 UNL     1      -5.113  51.392 -19.201  1.00  0.00     0.210 HD
ENDBRANCH   7  36
BRANCH  19  38
HETATM   38  O4  UNL     1      -3.557  48.394 -20.389  1.00  0.00    -0.384 OA
HETATM   39  H38 UNL     1      -3.701  49.267 -19.969  1.00  0.00     0.211 HD
ENDBRANCH  19  38
TORSDOF 9
ENDMDL
MODEL 9
REMARK minimizedAffinity -8.84867764
REMARK  9 active torsions:
REMARK  status: ('A' for Active; 'I' for Inactive)
REMARK    1  A    between atoms: C2_2  and  C30_34 
REMARK    2  A    between atoms: C3_3  and  C4_4 
REMARK    3  A    between atoms: C4_4  and  C5_5 
REMARK    4  A    between atoms: C5_5  and  C6_6 
REMARK    5  A    between atoms: C6_6  and  C8_8 
REMARK    6  A    between atoms: C10_10  and  O1_12 
REMARK    7  A    between atoms: C14_15  and  O2_16 
REMARK    8  A    between atoms: C25_28  and  O4_29 
REMARK    9  A    between atoms: C30_34  and  O5_35 
ROOT
HETATM    1  C8  UNL     1      -5.498  48.601 -20.670  1.00  0.00     0.005 C 
HETATM    2  C9  UNL     1      -4.273  47.914 -20.063  1.00  0.00     0.048 C 
HETATM    3  C10 UNL     1      -3.092  48.829 -20.453  1.00  0.00     0.079 C 
HETATM    4  C11 UNL     1      -2.784  49.791 -19.299  1.00  0.00     0.051 C 
HETATM    5  C12 UNL     1      -3.556  49.502 -21.740  1.00  0.00    -0.030 C 
HETATM    6  C13 UNL     1      -2.925  50.468 -22.452  1.00  0.00    -0.011 C 
HETATM    7  C14 UNL     1      -1.510  50.916 -22.165  1.00  0.00     0.151 C 
HETATM    8  C15 UNL     1      -0.639  50.981 -23.420  1.00  0.00     0.043 C 
HETATM    9  C16 UNL     1      -1.282  51.806 -24.559  1.00  0.00     0.015 C 
HETATM   10  C17 UNL     1      -0.309  52.052 -25.767  1.00  0.00     0.018 C 
HETATM   11  C18 UNL     1       0.599  50.851 -26.098  1.00  0.00     0.023 C 
HETATM   12  C19 UNL     1       0.633  53.228 -25.397  1.00  0.00     0.023 C 
HETATM   13  C20 UNL     1      -1.016  52.479 -27.068  1.00  0.00     0.135 C 
HETATM   14  O3  UNL     1      -0.359  52.908 -28.029  1.00  0.00    -0.297 OA
HETATM   15  C21 UNL     1      -2.495  52.244 -27.256  1.00  0.00     0.080 C 
HETATM   16  C22 UNL     1      -3.298  52.201 -25.968  1.00  0.00     0.020 C 
HETATM   17  C23 UNL     1      -2.706  51.240 -24.909  1.00  0.00    -0.004 C 
HETATM   18  C24 UNL     1      -2.626  49.807 -25.499  1.00  0.00     0.019 C 
HETATM   19  C25 UNL     1      -3.610  51.238 -23.593  1.00  0.00     0.092 C 
HETATM   20  C26 UNL     1      -5.080  50.810 -23.873  1.00  0.00     0.044 C 
HETATM   21  C27 UNL     1      -5.777  50.213 -22.649  1.00  0.00     0.017 C 
HETATM   22  C28 UNL     1      -4.971  49.035 -22.069  1.00  0.00    -0.013 C 
HETATM   23  C29 UNL     1      -4.908  47.867 -23.075  1.00  0.00     0.021 C 
ENDROOT
BRANCH   1  24
HETATM   24  C6  UNL     1      -6.843  47.817 -20.631  1.00  0.00    -0.013 C 
HETATM   25  C7  UNL     1      -6.567  46.309 -20.601  1.00  0.00     0.010 C 
BRANCH  24  26
HETATM   26  C5  UNL     1      -7.945  48.208 -21.655  1.00  0.00     0.008 C 
BRANCH  26  27
HETATM   27  C4  UNL     1      -8.307  47.235 -22.791  1.00  0.00     0.028 C 
BRANCH  27  28
HETATM   28  C3  UNL     1      -9.052  47.863 -23.934  1.00  0.00    -0.022 C 
HETATM   29  C2  UNL     1      -8.636  48.069 -25.201  1.00  0.00    -0.064 C 
HETATM   30  C1  UNL     1      -7.280  47.698 -25.741  1.00  0.00     0.045 C 
BRANCH  29  31
HETATM   31  C30 UNL     1      -9.545  48.745 -26.198  1.00  0.00     0.197 C 
BRANCH  31  32
HETATM   32  O5  UNL     1      -9.576  50.144 -25.969  1.00  0.00    -0.397 OA
HETATM   33  H48 UNL     1      -9.365  50.301 -25.034  1.00  0.00     0.209 HD
ENDBRANCH  31  32
ENDBRANCH  29  31
ENDBRANCH  27  28
ENDBRANCH  26  27
ENDBRANCH  24  26
ENDBRANCH   1  24
BRANCH   3  34
HETATM   34  O1  UNL     1      -1.951  48.027 -20.738  1.00  0.00    -0.386 OA
HETATM   35  H19 UNL     1      -1.774  47.488 -19.950  1.00  0.00     0.211 HD
ENDBRANCH   3  34
BRANCH   7  36
HETATM   36  O2  UNL     1      -1.594  52.222 -21.587  1.00  0.00    -0.391 OA
HETATM   37  H21 UNL     1      -0.705  52.440 -21.259  1.00  0.00     0.210 HD
ENDBRANCH   7  36
BRANCH  19  38
HETATM   38  O4  UNL     1      -3.749  52.602 -23.137  1.00  0.00    -0.384 OA
HETATM   39  H38 UNL     1      -3.065  52.757 -22.453  1.00  0.00     0.211 HD
ENDBRANCH  19  38
TORSDOF 9
ENDMDL
