MODEL 1
REMARK minimizedAffinity -10.0799484
REMARK  5 active torsions:
REMARK  status: ('A' for Active; 'I' for Inactive)
REMARK    1  A    between atoms: N1_1  and  C1_2 
REMARK    2  A    between atoms: C4_5  and  C5_6 
REMARK       I    between atoms: C5_6  and  N2_8 
REMARK    3  A    between atoms: C10_13  and  S1_14 
REMARK    4  A    between atoms: S1_14  and  N3_17 
REMARK    5  A    between atoms: C12_19  and  C13_20 
ROOT
HETATM    1  C5  UNL     1       0.740   6.001  12.538  1.00  0.00     0.258 C 
HETATM    2  O1  UNL     1       1.088   5.738  11.391  1.00  0.00    -0.267 OA
HETATM    3  N2  UNL     1      -0.465   5.668  13.139  1.00  0.00    -0.313 N 
HETATM    4  C6  UNL     1      -0.883   6.036  14.505  1.00  0.00     0.137 A 
HETATM    5  C7  UNL     1      -2.301   5.491  14.719  1.00  0.00     0.061 A 
HETATM    6  C8  UNL     1      -2.596   4.849  13.403  1.00  0.00    -0.028 A 
HETATM    7  C9  UNL     1      -3.764   4.198  13.030  1.00  0.00     0.034 A 
HETATM    8  C10 UNL     1      -3.828   3.657  11.742  1.00  0.00     0.080 A 
HETATM    9  C20 UNL     1      -2.735   3.744  10.861  1.00  0.00     0.027 A 
HETATM   10  C21 UNL     1      -1.568   4.409  11.254  1.00  0.00     0.032 A 
HETATM   11  C22 UNL     1      -1.513   4.959  12.525  1.00  0.00     0.043 A 
ENDROOT
BRANCH   8  12
HETATM   12  S1  UNL     1      -5.306   2.817  11.206  1.00  0.00     0.268 S 
HETATM   13  O2  UNL     1      -5.113   1.404  11.478  1.00  0.00    -0.200 OA
HETATM   14  O3  UNL     1      -5.602   3.273   9.867  1.00  0.00    -0.200 OA
BRANCH  12  15
HETATM   15  N3  UNL     1      -6.429   3.380  12.293  1.00  0.00    -0.221 N 
HETATM   16  C11 UNL     1      -6.580   4.834  12.495  1.00  0.00     0.176 C 
HETATM   17  C12 UNL     1      -7.996   4.909  13.108  1.00  0.00     0.138 C 
HETATM   18  N4  UNL     1      -8.326   3.542  13.448  1.00  0.00    -0.332 N 
HETATM   19  C19 UNL     1      -7.509   2.656  12.801  1.00  0.00     0.332 C 
HETATM   20  H18 UNL     1      -9.254   3.238  13.702  1.00  0.00     0.165 HD
HETATM   21  O4  UNL     1      -7.742   1.472  12.659  1.00  0.00    -0.246 OA
BRANCH  17  22
HETATM   22  C13 UNL     1      -8.122   5.844  14.282  1.00  0.00    -0.034 A 
HETATM   23  C14 UNL     1      -7.201   5.778  15.338  1.00  0.00     0.009 A 
HETATM   24  C15 UNL     1      -7.317   6.631  16.438  1.00  0.00     0.001 A 
HETATM   25  C16 UNL     1      -8.356   7.557  16.498  1.00  0.00     0.000 A 
HETATM   26  C17 UNL     1      -9.281   7.633  15.458  1.00  0.00     0.001 A 
HETATM   27  C18 UNL     1      -9.166   6.782  14.357  1.00  0.00     0.009 A 
ENDBRANCH  17  22
ENDBRANCH  12  15
ENDBRANCH   8  12
BRANCH   1  28
HETATM   28  C4  UNL     1       1.692   6.767  13.366  1.00  0.00     0.032 A 
HETATM   29  C3  UNL     1       2.731   7.460  12.744  1.00  0.00     0.019 A 
HETATM   30  C2  UNL     1       3.617   8.208  13.523  1.00  0.00     0.024 A 
HETATM   31  C1  UNL     1       3.504   8.223  14.918  1.00  0.00     0.005 A 
HETATM   32  C24 UNL     1       2.433   7.552  15.520  1.00  0.00     0.024 A 
HETATM   33  C23 UNL     1       1.538   6.803  14.752  1.00  0.00     0.019 A 
BRANCH  31  34
HETATM   34  N1  UNL     1       4.316   9.073  15.679  1.00  0.00    -0.303 NA
HETATM   35  H1  UNL     1       4.416   8.778  16.647  1.00  0.00     0.124 HD
HETATM   36  H2  UNL     1       5.216   9.269  15.252  1.00  0.00     0.124 HD
ENDBRANCH  31  34
ENDBRANCH   1  28
TORSDOF 5
ENDMDL
MODEL 2
REMARK minimizedAffinity -10.0155334
REMARK  5 active torsions:
REMARK  status: ('A' for Active; 'I' for Inactive)
REMARK    1  A    between atoms: N1_1  and  C1_2 
REMARK    2  A    between atoms: C4_5  and  C5_6 
REMARK       I    between atoms: C5_6  and  N2_8 
REMARK    3  A    between atoms: C10_13  and  S1_14 
REMARK    4  A    between atoms: S1_14  and  N3_17 
REMARK    5  A    between atoms: C12_19  and  C13_20 
ROOT
HETATM    1  C5  UNL     1      -4.089   6.291  14.458  1.00  0.00     0.258 C 
HETATM    2  O1  UNL     1      -4.300   7.211  15.243  1.00  0.00    -0.267 OA
HETATM    3  N2  UNL     1      -2.872   5.946  13.888  1.00  0.00    -0.313 N 
HETATM    4  C6  UNL     1      -2.648   4.867  12.910  1.00  0.00     0.137 A 
HETATM    5  C7  UNL     1      -1.161   4.883  12.532  1.00  0.00     0.061 A 
HETATM    6  C8  UNL     1      -0.641   6.027  13.341  1.00  0.00    -0.028 A 
HETATM    7  C9  UNL     1       0.661   6.503  13.379  1.00  0.00     0.034 A 
HETATM    8  C10 UNL     1       0.936   7.588  14.218  1.00  0.00     0.080 A 
HETATM    9  C20 UNL     1      -0.068   8.160  15.019  1.00  0.00     0.027 A 
HETATM   10  C21 UNL     1      -1.377   7.668  14.963  1.00  0.00     0.032 A 
HETATM   11  C22 UNL     1      -1.650   6.604  14.118  1.00  0.00     0.043 A 
ENDROOT
BRANCH   8  12
HETATM   12  S1  UNL     1       2.590   8.247  14.301  1.00  0.00     0.268 S 
HETATM   13  O2  UNL     1       3.322   7.437  15.257  1.00  0.00    -0.200 OA
HETATM   14  O3  UNL     1       2.478   9.676  14.484  1.00  0.00    -0.200 OA
BRANCH  12  15
HETATM   15  N3  UNL     1       3.178   7.880  12.791  1.00  0.00    -0.221 N 
HETATM   16  C11 UNL     1       2.396   8.252  11.596  1.00  0.00     0.176 C 
HETATM   17  C12 UNL     1       3.487   8.235  10.503  1.00  0.00     0.138 C 
HETATM   18  N4  UNL     1       4.623   7.585  11.122  1.00  0.00    -0.332 N 
HETATM   19  C19 UNL     1       4.503   7.565  12.485  1.00  0.00     0.332 C 
HETATM   20  H18 UNL     1       5.550   7.583  10.725  1.00  0.00     0.165 HD
HETATM   21  O4  UNL     1       5.418   7.366  13.260  1.00  0.00    -0.246 OA
BRANCH  17  22
HETATM   22  C13 UNL     1       3.074   7.572   9.216  1.00  0.00    -0.034 A 
HETATM   23  C14 UNL     1       3.224   6.186   9.056  1.00  0.00     0.009 A 
HETATM   24  C15 UNL     1       2.857   5.563   7.861  1.00  0.00     0.001 A 
HETATM   25  C16 UNL     1       2.339   6.318   6.810  1.00  0.00     0.000 A 
HETATM   26  C17 UNL     1       2.186   7.696   6.952  1.00  0.00     0.001 A 
HETATM   27  C18 UNL     1       2.552   8.320   8.147  1.00  0.00     0.009 A 
ENDBRANCH  17  22
ENDBRANCH  12  15
ENDBRANCH   8  12
BRANCH   1  28
HETATM   28  C4  UNL     1      -5.250   5.472  14.060  1.00  0.00     0.032 A 
HETATM   29  C3  UNL     1      -5.107   4.540  13.032  1.00  0.00     0.019 A 
HETATM   30  C2  UNL     1      -6.198   3.744  12.673  1.00  0.00     0.024 A 
HETATM   31  C1  UNL     1      -7.440   3.913  13.295  1.00  0.00     0.005 A 
HETATM   32  C24 UNL     1      -7.554   4.826  14.350  1.00  0.00     0.024 A 
HETATM   33  C23 UNL     1      -6.470   5.626  14.720  1.00  0.00     0.019 A 
BRANCH  31  34
HETATM   34  N1  UNL     1      -8.490   3.028  13.017  1.00  0.00    -0.303 NA
HETATM   35  H1  UNL     1      -9.408   3.412  13.224  1.00  0.00     0.124 HD
HETATM   36  H2  UNL     1      -8.452   2.628  12.085  1.00  0.00     0.124 HD
ENDBRANCH  31  34
ENDBRANCH   1  28
TORSDOF 5
ENDMDL
MODEL 3
REMARK minimizedAffinity -9.81800842
REMARK  5 active torsions:
REMARK  status: ('A' for Active; 'I' for Inactive)
REMARK    1  A    between atoms: N1_1  and  C1_2 
REMARK    2  A    between atoms: C4_5  and  C5_6 
REMARK       I    between atoms: C5_6  and  N2_8 
REMARK    3  A    between atoms: C10_13  and  S1_14 
REMARK    4  A    between atoms: S1_14  and  N3_17 
REMARK    5  A    between atoms: C12_19  and  C13_20 
ROOT
HETATM    1  C5  UNL     1      -1.013   6.592  12.604  1.00  0.00     0.258 C 
HETATM    2  O1  UNL     1      -1.296   7.619  13.216  1.00  0.00    -0.267 OA
HETATM    3  N2  UNL     1      -1.862   5.533  12.318  1.00  0.00    -0.313 N 
HETATM    4  C6  UNL     1      -1.489   4.287  11.623  1.00  0.00     0.137 A 
HETATM    5  C7  UNL     1      -2.735   3.395  11.570  1.00  0.00     0.061 A 
HETATM    6  C8  UNL     1      -3.752   4.226  12.283  1.00  0.00    -0.028 A 
HETATM    7  C9  UNL     1      -5.075   3.896  12.538  1.00  0.00     0.034 A 
HETATM    8  C10 UNL     1      -5.862   4.831  13.219  1.00  0.00     0.080 A 
HETATM    9  C20 UNL     1      -5.338   6.077  13.608  1.00  0.00     0.027 A 
HETATM   10  C21 UNL     1      -3.999   6.389  13.346  1.00  0.00     0.032 A 
HETATM   11  C22 UNL     1      -3.217   5.453  12.686  1.00  0.00     0.043 A 
ENDROOT
BRANCH   8  12
HETATM   12  S1  UNL     1      -7.567   4.458  13.581  1.00  0.00     0.268 S 
HETATM   13  O2  UNL     1      -7.570   3.343  14.509  1.00  0.00    -0.200 OA
HETATM   14  O3  UNL     1      -8.267   4.366  12.320  1.00  0.00    -0.200 OA
BRANCH  12  15
HETATM   15  N3  UNL     1      -8.036   5.808  14.429  1.00  0.00    -0.221 N 
HETATM   16  C11 UNL     1      -9.177   6.610  13.947  1.00  0.00     0.176 C 
HETATM   17  C12 UNL     1      -9.581   7.365  15.233  1.00  0.00     0.138 C 
HETATM   18  N4  UNL     1      -8.485   7.147  16.152  1.00  0.00    -0.332 N 
HETATM   19  C19 UNL     1      -7.702   6.097  15.753  1.00  0.00     0.332 C 
HETATM   20  H18 UNL     1      -8.529   7.362  17.137  1.00  0.00     0.165 HD
HETATM   21  O4  UNL     1      -6.915   5.508  16.467  1.00  0.00    -0.246 OA
BRANCH  17  22
HETATM   22  C13 UNL     1      -9.885   8.826  15.032  1.00  0.00    -0.034 A 
HETATM   23  C14 UNL     1     -11.008   9.216  14.284  1.00  0.00     0.009 A 
HETATM   24  C15 UNL     1     -11.292  10.568  14.080  1.00  0.00     0.001 A 
HETATM   25  C16 UNL     1     -10.457  11.546  14.618  1.00  0.00     0.000 A 
HETATM   26  C17 UNL     1      -9.339  11.175  15.360  1.00  0.00     0.001 A 
HETATM   27  C18 UNL     1      -9.053   9.824  15.566  1.00  0.00     0.009 A 
ENDBRANCH  17  22
ENDBRANCH  12  15
ENDBRANCH   8  12
BRANCH   1  28
HETATM   28  C4  UNL     1       0.380   6.457  12.136  1.00  0.00     0.032 A 
HETATM   29  C3  UNL     1       0.697   5.451  11.223  1.00  0.00     0.019 A 
HETATM   30  C2  UNL     1       2.009   5.339  10.757  1.00  0.00     0.024 A 
HETATM   31  C1  UNL     1       3.013   6.187  11.240  1.00  0.00     0.005 A 
HETATM   32  C24 UNL     1       2.668   7.213  12.127  1.00  0.00     0.024 A 
HETATM   33  C23 UNL     1       1.358   7.337  12.598  1.00  0.00     0.019 A 
BRANCH  31  34
HETATM   34  N1  UNL     1       4.295   6.149  10.677  1.00  0.00    -0.303 NA
HETATM   35  H1  UNL     1       5.018   6.519  11.288  1.00  0.00     0.124 HD
HETATM   36  H2  UNL     1       4.550   5.240  10.301  1.00  0.00     0.124 HD
ENDBRANCH  31  34
ENDBRANCH   1  28
TORSDOF 5
ENDMDL
MODEL 4
REMARK minimizedAffinity -9.44615555
REMARK  5 active torsions:
REMARK  status: ('A' for Active; 'I' for Inactive)
REMARK    1  A    between atoms: N1_1  and  C1_2 
REMARK    2  A    between atoms: C4_5  and  C5_6 
REMARK       I    between atoms: C5_6  and  N2_8 
REMARK    3  A    between atoms: C10_13  and  S1_14 
REMARK    4  A    between atoms: S1_14  and  N3_17 
REMARK    5  A    between atoms: C12_19  and  C13_20 
ROOT
HETATM    1  C5  UNL     1      -4.755   5.509  13.252  1.00  0.00     0.258 C 
HETATM    2  O1  UNL     1      -4.096   6.376  13.819  1.00  0.00    -0.267 OA
HETATM    3  N2  UNL     1      -6.137   5.444  13.155  1.00  0.00    -0.313 N 
HETATM    4  C6  UNL     1      -6.911   4.368  12.510  1.00  0.00     0.137 A 
HETATM    5  C7  UNL     1      -8.399   4.698  12.683  1.00  0.00     0.061 A 
HETATM    6  C8  UNL     1      -8.352   5.974  13.459  1.00  0.00    -0.028 A 
HETATM    7  C9  UNL     1      -9.431   6.723  13.907  1.00  0.00     0.034 A 
HETATM    8  C10 UNL     1      -9.162   7.899  14.614  1.00  0.00     0.080 A 
HETATM    9  C20 UNL     1      -7.840   8.325  14.841  1.00  0.00     0.027 A 
HETATM   10  C21 UNL     1      -6.766   7.553  14.386  1.00  0.00     0.032 A 
HETATM   11  C22 UNL     1      -7.036   6.379  13.700  1.00  0.00     0.043 A 
ENDROOT
BRANCH   8  12
HETATM   12  S1  UNL     1     -10.508   8.898  15.219  1.00  0.00     0.268 S 
HETATM   13  O2  UNL     1     -10.306  10.240  14.705  1.00  0.00    -0.200 OA
HETATM   14  O3  UNL     1     -10.615   8.665  16.641  1.00  0.00    -0.200 OA
BRANCH  12  15
HETATM   15  N3  UNL     1     -11.804   8.248  14.407  1.00  0.00    -0.221 N 
HETATM   16  C11 UNL     1     -12.949   7.716  15.171  1.00  0.00     0.176 C 
HETATM   17  C12 UNL     1     -14.062   7.736  14.101  1.00  0.00     0.138 C 
HETATM   18  N4  UNL     1     -13.372   7.968  12.850  1.00  0.00    -0.332 N 
HETATM   19  C19 UNL     1     -12.110   8.454  13.060  1.00  0.00     0.332 C 
HETATM   20  H18 UNL     1     -13.840   8.212  11.990  1.00  0.00     0.165 HD
HETATM   21  O4  UNL     1     -11.431   9.012  12.220  1.00  0.00    -0.246 OA
BRANCH  17  22
HETATM   22  C13 UNL     1     -14.922   6.500  14.066  1.00  0.00    -0.034 A 
HETATM   23  C14 UNL     1     -16.142   6.510  13.373  1.00  0.00     0.009 A 
HETATM   24  C15 UNL     1     -16.954   5.374  13.346  1.00  0.00     0.001 A 
HETATM   25  C16 UNL     1     -16.558   4.216  14.014  1.00  0.00     0.000 A 
HETATM   26  C17 UNL     1     -15.351   4.192  14.709  1.00  0.00     0.001 A 
HETATM   27  C18 UNL     1     -14.538   5.327  14.736  1.00  0.00     0.009 A 
ENDBRANCH  17  22
ENDBRANCH  12  15
ENDBRANCH   8  12
BRANCH   1  28
HETATM   28  C4  UNL     1      -4.004   4.407  12.619  1.00  0.00     0.032 A 
HETATM   29  C3  UNL     1      -4.617   3.163  12.468  1.00  0.00     0.019 A 
HETATM   30  C2  UNL     1      -3.918   2.127  11.844  1.00  0.00     0.024 A 
HETATM   31  C1  UNL     1      -2.596   2.310  11.422  1.00  0.00     0.005 A 
HETATM   32  C24 UNL     1      -2.011   3.576  11.548  1.00  0.00     0.024 A 
HETATM   33  C23 UNL     1      -2.701   4.621  12.168  1.00  0.00     0.019 A 
BRANCH  31  34
HETATM   34  N1  UNL     1      -1.949   1.309  10.688  1.00  0.00    -0.303 NA
HETATM   35  H1  UNL     1      -0.935   1.368  10.728  1.00  0.00     0.124 HD
HETATM   36  H2  UNL     1      -2.278   0.371  10.895  1.00  0.00     0.124 HD
ENDBRANCH  31  34
ENDBRANCH   1  28
TORSDOF 5
ENDMDL
MODEL 5
REMARK minimizedAffinity -9.42416954
REMARK  5 active torsions:
REMARK  status: ('A' for Active; 'I' for Inactive)
REMARK    1  A    between atoms: N1_1  and  C1_2 
REMARK    2  A    between atoms: C4_5  and  C5_6 
REMARK       I    between atoms: C5_6  and  N2_8 
REMARK    3  A    between atoms: C10_13  and  S1_14 
REMARK    4  A    between atoms: S1_14  and  N3_17 
REMARK    5  A    between atoms: C12_19  and  C13_20 
ROOT
HETATM    1  C5  UNL     1      -3.887   5.488  13.647  1.00  0.00     0.258 C 
HETATM    2  O1  UNL     1      -3.352   4.384  13.590  1.00  0.00    -0.267 OA
HETATM    3  N2  UNL     1      -3.253   6.715  13.772  1.00  0.00    -0.313 N 
HETATM    4  C6  UNL     1      -3.918   8.026  13.888  1.00  0.00     0.137 A 
HETATM    5  C7  UNL     1      -2.823   9.089  14.047  1.00  0.00     0.061 A 
HETATM    6  C8  UNL     1      -1.576   8.266  14.027  1.00  0.00    -0.028 A 
HETATM    7  C9  UNL     1      -0.271   8.719  14.147  1.00  0.00     0.034 A 
HETATM    8  C10 UNL     1       0.757   7.772  14.095  1.00  0.00     0.080 A 
HETATM    9  C20 UNL     1       0.480   6.407  13.898  1.00  0.00     0.027 A 
HETATM   10  C21 UNL     1      -0.845   5.969  13.785  1.00  0.00     0.032 A 
HETATM   11  C22 UNL     1      -1.862   6.908  13.855  1.00  0.00     0.043 A 
ENDROOT
BRANCH   8  12
HETATM   12  S1  UNL     1       2.454   8.296  14.250  1.00  0.00     0.268 S 
HETATM   13  O2  UNL     1       3.092   7.395  15.192  1.00  0.00    -0.200 OA
HETATM   14  O3  UNL     1       2.447   9.721  14.487  1.00  0.00    -0.200 OA
BRANCH  12  15
HETATM   15  N3  UNL     1       3.057   7.942  12.743  1.00  0.00    -0.221 N 
HETATM   16  C11 UNL     1       2.250   8.247  11.546  1.00  0.00     0.176 C 
HETATM   17  C12 UNL     1       3.336   8.278  10.448  1.00  0.00     0.138 C 
HETATM   18  N4  UNL     1       4.511   7.709  11.072  1.00  0.00    -0.332 N 
HETATM   19  C19 UNL     1       4.398   7.703  12.436  1.00  0.00     0.332 C 
HETATM   20  H18 UNL     1       5.436   7.756  10.670  1.00  0.00     0.165 HD
HETATM   21  O4  UNL     1       5.326   7.571  13.209  1.00  0.00    -0.246 OA
BRANCH  17  22
HETATM   22  C13 UNL     1       2.959   7.572   9.173  1.00  0.00    -0.034 A 
HETATM   23  C14 UNL     1       3.171   6.191   9.043  1.00  0.00     0.009 A 
HETATM   24  C15 UNL     1       2.838   5.528   7.859  1.00  0.00     0.001 A 
HETATM   25  C16 UNL     1       2.292   6.237   6.791  1.00  0.00     0.000 A 
HETATM   26  C17 UNL     1       2.078   7.609   6.904  1.00  0.00     0.001 A 
HETATM   27  C18 UNL     1       2.410   8.273   8.087  1.00  0.00     0.009 A 
ENDBRANCH  17  22
ENDBRANCH  12  15
ENDBRANCH   8  12
BRANCH   1  28
HETATM   28  C4  UNL     1      -5.362   5.517  13.597  1.00  0.00     0.032 A 
HETATM   29  C3  UNL     1      -6.051   6.471  14.346  1.00  0.00     0.019 A 
HETATM   30  C2  UNL     1      -7.445   6.519  14.278  1.00  0.00     0.024 A 
HETATM   31  C1  UNL     1      -8.155   5.587  13.512  1.00  0.00     0.005 A 
HETATM   32  C24 UNL     1      -7.445   4.662  12.738  1.00  0.00     0.024 A 
HETATM   33  C23 UNL     1      -6.050   4.606  12.795  1.00  0.00     0.019 A 
BRANCH  31  34
HETATM   34  N1  UNL     1      -9.539   5.720  13.351  1.00  0.00    -0.303 NA
HETATM   35  H1  UNL     1     -10.003   4.853  13.093  1.00  0.00     0.124 HD
HETATM   36  H2  UNL     1     -10.001   6.174  14.133  1.00  0.00     0.124 HD
ENDBRANCH  31  34
ENDBRANCH   1  28
TORSDOF 5
ENDMDL
MODEL 6
REMARK minimizedAffinity -9.2862854
REMARK  5 active torsions:
REMARK  status: ('A' for Active; 'I' for Inactive)
REMARK    1  A    between atoms: N1_1  and  C1_2 
REMARK    2  A    between atoms: C4_5  and  C5_6 
REMARK       I    between atoms: C5_6  and  N2_8 
REMARK    3  A    between atoms: C10_13  and  S1_14 
REMARK    4  A    between atoms: S1_14  and  N3_17 
REMARK    5  A    between atoms: C12_19  and  C13_20 
ROOT
HETATM    1  C5  UNL     1      -7.206   5.116  13.837  1.00  0.00     0.258 C 
HETATM    2  O1  UNL     1      -7.090   5.216  15.055  1.00  0.00    -0.267 OA
HETATM    3  N2  UNL     1      -8.205   5.667  13.048  1.00  0.00    -0.313 N 
HETATM    4  C6  UNL     1      -8.354   5.495  11.591  1.00  0.00     0.137 A 
HETATM    5  C7  UNL     1      -9.619   6.247  11.161  1.00  0.00     0.061 A 
HETATM    6  C8  UNL     1     -10.121   6.792  12.459  1.00  0.00    -0.028 A 
HETATM    7  C9  UNL     1     -11.260   7.556  12.663  1.00  0.00     0.034 A 
HETATM    8  C10 UNL     1     -11.543   7.972  13.968  1.00  0.00     0.080 A 
HETATM    9  C20 UNL     1     -10.686   7.651  15.036  1.00  0.00     0.027 A 
HETATM   10  C21 UNL     1      -9.544   6.875  14.810  1.00  0.00     0.032 A 
HETATM   11  C22 UNL     1      -9.276   6.450  13.518  1.00  0.00     0.043 A 
ENDROOT
BRANCH   8  12
HETATM   12  S1  UNL     1     -12.998   8.950  14.291  1.00  0.00     0.268 S 
HETATM   13  O2  UNL     1     -12.951  10.090  13.394  1.00  0.00    -0.200 OA
HETATM   14  O3  UNL     1     -13.081   9.145  15.720  1.00  0.00    -0.200 OA
BRANCH  12  15
HETATM   15  N3  UNL     1     -14.208   7.947  13.751  1.00  0.00    -0.221 N 
HETATM   16  C11 UNL     1     -14.727   6.891  14.641  1.00  0.00     0.176 C 
HETATM   17  C12 UNL     1     -16.102   6.603  13.998  1.00  0.00     0.138 C 
HETATM   18  N4  UNL     1     -16.059   7.270  12.714  1.00  0.00    -0.332 N 
HETATM   19  C19 UNL     1     -15.052   8.195  12.668  1.00  0.00     0.332 C 
HETATM   20  H18 UNL     1     -16.871   7.418  12.133  1.00  0.00     0.165 HD
HETATM   21  O4  UNL     1     -14.972   9.094  11.853  1.00  0.00    -0.246 OA
BRANCH  17  22
HETATM   22  C13 UNL     1     -16.444   5.141  13.879  1.00  0.00    -0.034 A 
HETATM   23  C14 UNL     1     -15.721   4.186  14.611  1.00  0.00     0.009 A 
HETATM   24  C15 UNL     1     -16.021   2.826  14.498  1.00  0.00     0.001 A 
HETATM   25  C16 UNL     1     -17.043   2.404  13.649  1.00  0.00     0.000 A 
HETATM   26  C17 UNL     1     -17.767   3.340  12.914  1.00  0.00     0.001 A 
HETATM   27  C18 UNL     1     -17.470   4.700  13.026  1.00  0.00     0.009 A 
ENDBRANCH  17  22
ENDBRANCH  12  15
ENDBRANCH   8  12
BRANCH   1  28
HETATM   28  C4  UNL     1      -6.189   4.312  13.132  1.00  0.00     0.032 A 
HETATM   29  C3  UNL     1      -6.567   3.115  12.523  1.00  0.00     0.019 A 
HETATM   30  C2  UNL     1      -5.612   2.367  11.832  1.00  0.00     0.024 A 
HETATM   31  C1  UNL     1      -4.274   2.776  11.795  1.00  0.00     0.005 A 
HETATM   32  C24 UNL     1      -3.921   3.998  12.380  1.00  0.00     0.024 A 
HETATM   33  C23 UNL     1      -4.868   4.758  13.071  1.00  0.00     0.019 A 
BRANCH  31  34
HETATM   34  N1  UNL     1      -3.351   2.088  10.998  1.00  0.00    -0.303 NA
HETATM   35  H1  UNL     1      -2.386   2.221  11.289  1.00  0.00     0.124 HD
HETATM   36  H2  UNL     1      -3.573   1.106  10.871  1.00  0.00     0.124 HD
ENDBRANCH  31  34
ENDBRANCH   1  28
TORSDOF 5
ENDMDL
MODEL 7
REMARK minimizedAffinity -9.26114082
REMARK  5 active torsions:
REMARK  status: ('A' for Active; 'I' for Inactive)
REMARK    1  A    between atoms: N1_1  and  C1_2 
REMARK    2  A    between atoms: C4_5  and  C5_6 
REMARK       I    between atoms: C5_6  and  N2_8 
REMARK    3  A    between atoms: C10_13  and  S1_14 
REMARK    4  A    between atoms: S1_14  and  N3_17 
REMARK    5  A    between atoms: C12_19  and  C13_20 
ROOT
HETATM    1  C5  UNL     1      -3.557   9.854  15.486  1.00  0.00     0.258 C 
HETATM    2  O1  UNL     1      -4.520   9.730  14.734  1.00  0.00    -0.267 OA
HETATM    3  N2  UNL     1      -2.364   9.149  15.432  1.00  0.00    -0.313 N 
HETATM    4  C6  UNL     1      -1.237   9.279  16.375  1.00  0.00     0.137 A 
HETATM    5  C7  UNL     1      -0.156   8.279  15.947  1.00  0.00     0.061 A 
HETATM    6  C8  UNL     1      -0.785   7.620  14.762  1.00  0.00    -0.028 A 
HETATM    7  C9  UNL     1      -0.243   6.611  13.979  1.00  0.00     0.034 A 
HETATM    8  C10 UNL     1      -1.004   6.139  12.904  1.00  0.00     0.080 A 
HETATM    9  C20 UNL     1      -2.264   6.688  12.608  1.00  0.00     0.027 A 
HETATM   10  C21 UNL     1      -2.795   7.702  13.414  1.00  0.00     0.032 A 
HETATM   11  C22 UNL     1      -2.047   8.155  14.489  1.00  0.00     0.043 A 
ENDROOT
BRANCH   8  12
HETATM   12  S1  UNL     1      -0.362   4.838  11.868  1.00  0.00     0.268 S 
HETATM   13  O2  UNL     1       0.584   4.084  12.670  1.00  0.00    -0.200 OA
HETATM   14  O3  UNL     1       0.050   5.441  10.621  1.00  0.00    -0.200 OA
BRANCH  12  15
HETATM   15  N3  UNL     1      -1.703   3.881  11.656  1.00  0.00    -0.221 N 
HETATM   16  C11 UNL     1      -3.048   4.475  11.780  1.00  0.00     0.176 C 
HETATM   17  C12 UNL     1      -3.906   3.446  11.011  1.00  0.00     0.138 C 
HETATM   18  N4  UNL     1      -3.039   2.302  10.828  1.00  0.00    -0.332 N 
HETATM   19  C19 UNL     1      -1.726   2.635  11.026  1.00  0.00     0.332 C 
HETATM   20  H18 UNL     1      -3.248   1.535  10.206  1.00  0.00     0.165 HD
HETATM   21  O4  UNL     1      -0.778   1.973  10.652  1.00  0.00    -0.246 OA
BRANCH  17  22
HETATM   22  C13 UNL     1      -5.205   3.086  11.682  1.00  0.00    -0.034 A 
HETATM   23  C14 UNL     1      -5.809   1.845  11.427  1.00  0.00     0.009 A 
HETATM   24  C15 UNL     1      -7.021   1.506  12.034  1.00  0.00     0.001 A 
HETATM   25  C16 UNL     1      -7.645   2.403  12.899  1.00  0.00     0.000 A 
HETATM   26  C17 UNL     1      -7.059   3.640  13.160  1.00  0.00     0.001 A 
HETATM   27  C18 UNL     1      -5.847   3.980  12.555  1.00  0.00     0.009 A 
ENDBRANCH  17  22
ENDBRANCH  12  15
ENDBRANCH   8  12
BRANCH   1  28
HETATM   28  C4  UNL     1      -3.683  10.842  16.575  1.00  0.00     0.032 A 
HETATM   29  C3  UNL     1      -3.571  10.416  17.898  1.00  0.00     0.019 A 
HETATM   30  C2  UNL     1      -3.661  11.354  18.929  1.00  0.00     0.024 A 
HETATM   31  C1  UNL     1      -3.918  12.701  18.649  1.00  0.00     0.005 A 
HETATM   32  C24 UNL     1      -3.991  13.115  17.314  1.00  0.00     0.024 A 
HETATM   33  C23 UNL     1      -3.898  12.187  16.273  1.00  0.00     0.019 A 
BRANCH  31  34
HETATM   34  N1  UNL     1      -3.883  13.651  19.677  1.00  0.00    -0.303 NA
HETATM   35  H1  UNL     1      -4.403  14.498  19.464  1.00  0.00     0.124 HD
HETATM   36  H2  UNL     1      -4.131  13.278  20.588  1.00  0.00     0.124 HD
ENDBRANCH  31  34
ENDBRANCH   1  28
TORSDOF 5
ENDMDL
MODEL 8
REMARK minimizedAffinity -9.22833347
REMARK  5 active torsions:
REMARK  status: ('A' for Active; 'I' for Inactive)
REMARK    1  A    between atoms: N1_1  and  C1_2 
REMARK    2  A    between atoms: C4_5  and  C5_6 
REMARK       I    between atoms: C5_6  and  N2_8 
REMARK    3  A    between atoms: C10_13  and  S1_14 
REMARK    4  A    between atoms: S1_14  and  N3_17 
REMARK    5  A    between atoms: C12_19  and  C13_20 
ROOT
HETATM    1  C5  UNL     1      -6.779   5.306  13.725  1.00  0.00     0.258 C 
HETATM    2  O1  UNL     1      -6.810   4.080  13.673  1.00  0.00    -0.267 OA
HETATM    3  N2  UNL     1      -5.692   6.123  13.450  1.00  0.00    -0.313 N 
HETATM    4  C6  UNL     1      -5.662   7.593  13.565  1.00  0.00     0.137 A 
HETATM    5  C7  UNL     1      -4.245   8.058  13.203  1.00  0.00     0.061 A 
HETATM    6  C8  UNL     1      -3.551   6.765  12.919  1.00  0.00    -0.028 A 
HETATM    7  C9  UNL     1      -2.225   6.591  12.548  1.00  0.00     0.034 A 
HETATM    8  C10 UNL     1      -1.777   5.285  12.321  1.00  0.00     0.080 A 
HETATM    9  C20 UNL     1      -2.648   4.187  12.437  1.00  0.00     0.027 A 
HETATM   10  C21 UNL     1      -3.980   4.384  12.817  1.00  0.00     0.032 A 
HETATM   11  C22 UNL     1      -4.417   5.677  13.058  1.00  0.00     0.043 A 
ENDROOT
BRANCH   8  12
HETATM   12  S1  UNL     1      -0.082   4.999  11.849  1.00  0.00     0.268 S 
HETATM   13  O2  UNL     1       0.055   5.439  10.472  1.00  0.00    -0.200 OA
HETATM   14  O3  UNL     1       0.248   3.643  12.222  1.00  0.00    -0.200 OA
BRANCH  12  15
HETATM   15  N3  UNL     1       0.724   6.096  12.800  1.00  0.00    -0.221 N 
HETATM   16  C11 UNL     1       0.289   6.309  14.194  1.00  0.00     0.176 C 
HETATM   17  C12 UNL     1       1.559   6.931  14.816  1.00  0.00     0.138 C 
HETATM   18  N4  UNL     1       2.400   7.265  13.687  1.00  0.00    -0.332 N 
HETATM   19  C19 UNL     1       2.001   6.606  12.556  1.00  0.00     0.332 C 
HETATM   20  H18 UNL     1       3.373   7.522  13.771  1.00  0.00     0.165 HD
HETATM   21  O4  UNL     1       2.683   6.458  11.561  1.00  0.00    -0.246 OA
BRANCH  17  22
HETATM   22  C13 UNL     1       1.303   8.111  15.715  1.00  0.00    -0.034 A 
HETATM   23  C14 UNL     1      -0.006   8.580  15.907  1.00  0.00     0.009 A 
HETATM   24  C15 UNL     1      -0.254   9.683  16.728  1.00  0.00     0.001 A 
HETATM   25  C16 UNL     1       0.803  10.332  17.364  1.00  0.00     0.000 A 
HETATM   26  C17 UNL     1       2.108   9.880  17.181  1.00  0.00     0.001 A 
HETATM   27  C18 UNL     1       2.357   8.778  16.361  1.00  0.00     0.009 A 
ENDBRANCH  17  22
ENDBRANCH  12  15
ENDBRANCH   8  12
BRANCH   1  28
HETATM   28  C4  UNL     1      -8.020   5.989  14.139  1.00  0.00     0.032 A 
HETATM   29  C3  UNL     1      -9.055   6.141  13.216  1.00  0.00     0.019 A 
HETATM   30  C2  UNL     1     -10.241   6.762  13.614  1.00  0.00     0.024 A 
HETATM   31  C1  UNL     1     -10.377   7.280  14.907  1.00  0.00     0.005 A 
HETATM   32  C24 UNL     1      -9.342   7.085  15.829  1.00  0.00     0.024 A 
HETATM   33  C23 UNL     1      -8.152   6.463  15.444  1.00  0.00     0.019 A 
BRANCH  31  34
HETATM   34  N1  UNL     1     -11.610   7.787  15.334  1.00  0.00    -0.303 NA
HETATM   35  H1  UNL     1     -11.535   8.434  16.115  1.00  0.00     0.124 HD
HETATM   36  H2  UNL     1     -12.177   8.170  14.583  1.00  0.00     0.124 HD
ENDBRANCH  31  34
ENDBRANCH   1  28
TORSDOF 5
ENDMDL
MODEL 9
REMARK minimizedAffinity -9.22683239
REMARK  5 active torsions:
REMARK  status: ('A' for Active; 'I' for Inactive)
REMARK    1  A    between atoms: N1_1  and  C1_2 
REMARK    2  A    between atoms: C4_5  and  C5_6 
REMARK       I    between atoms: C5_6  and  N2_8 
REMARK    3  A    between atoms: C10_13  and  S1_14 
REMARK    4  A    between atoms: S1_14  and  N3_17 
REMARK    5  A    between atoms: C12_19  and  C13_20 
ROOT
HETATM    1  C5  UNL     1      -2.729   7.772  12.922  1.00  0.00     0.258 C 
HETATM    2  O1  UNL     1      -2.772   8.959  12.611  1.00  0.00    -0.267 OA
HETATM    3  N2  UNL     1      -1.790   6.837  12.510  1.00  0.00    -0.313 N 
HETATM    4  C6  UNL     1      -1.784   5.404  12.857  1.00  0.00     0.137 A 
HETATM    5  C7  UNL     1      -0.588   4.759  12.145  1.00  0.00     0.061 A 
HETATM    6  C8  UNL     1       0.002   5.916  11.406  1.00  0.00    -0.028 A 
HETATM    7  C9  UNL     1       1.115   5.901  10.577  1.00  0.00     0.034 A 
HETATM    8  C10 UNL     1       1.505   7.106   9.986  1.00  0.00     0.080 A 
HETATM    9  C20 UNL     1       0.810   8.302  10.244  1.00  0.00     0.027 A 
HETATM   10  C21 UNL     1      -0.312   8.295  11.080  1.00  0.00     0.032 A 
HETATM   11  C22 UNL     1      -0.707   7.095  11.650  1.00  0.00     0.043 A 
ENDROOT
BRANCH   8  12
HETATM   12  S1  UNL     1       2.922   7.146   8.906  1.00  0.00     0.268 S 
HETATM   13  O2  UNL     1       2.999   8.486   8.354  1.00  0.00    -0.200 OA
HETATM   14  O3  UNL     1       2.835   5.997   8.033  1.00  0.00    -0.200 OA
BRANCH  12  15
HETATM   15  N3  UNL     1       4.175   6.985   9.985  1.00  0.00    -0.221 N 
HETATM   16  C11 UNL     1       4.428   8.053  10.970  1.00  0.00     0.176 C 
HETATM   17  C12 UNL     1       5.246   7.293  12.038  1.00  0.00     0.138 C 
HETATM   18  N4  UNL     1       5.603   6.039  11.409  1.00  0.00    -0.332 N 
HETATM   19  C19 UNL     1       4.822   5.792  10.312  1.00  0.00     0.332 C 
HETATM   20  H18 UNL     1       5.985   5.251  11.910  1.00  0.00     0.165 HD
HETATM   21  O4  UNL     1       4.692   4.706   9.783  1.00  0.00    -0.246 OA
BRANCH  17  22
HETATM   22  C13 UNL     1       6.445   8.040  12.559  1.00  0.00    -0.034 A 
HETATM   23  C14 UNL     1       6.677   9.366  12.161  1.00  0.00     0.009 A 
HETATM   24  C15 UNL     1       7.793  10.064  12.627  1.00  0.00     0.001 A 
HETATM   25  C16 UNL     1       8.692   9.445  13.494  1.00  0.00     0.000 A 
HETATM   26  C17 UNL     1       8.477   8.129  13.897  1.00  0.00     0.001 A 
HETATM   27  C18 UNL     1       7.361   7.430  13.432  1.00  0.00     0.009 A 
ENDBRANCH  17  22
ENDBRANCH  12  15
ENDBRANCH   8  12
BRANCH   1  28
HETATM   28  C4  UNL     1      -3.795   7.276  13.813  1.00  0.00     0.032 A 
HETATM   29  C3  UNL     1      -3.480   6.931  15.128  1.00  0.00     0.019 A 
HETATM   30  C2  UNL     1      -4.493   6.488  15.981  1.00  0.00     0.024 A 
HETATM   31  C1  UNL     1      -5.803   6.335  15.515  1.00  0.00     0.005 A 
HETATM   32  C24 UNL     1      -6.108   6.722  14.205  1.00  0.00     0.024 A 
HETATM   33  C23 UNL     1      -5.104   7.169  13.342  1.00  0.00     0.019 A 
BRANCH  31  34
HETATM   34  N1  UNL     1      -6.833   6.012  16.408  1.00  0.00    -0.303 NA
HETATM   35  H1  UNL     1      -7.642   5.592  15.958  1.00  0.00     0.124 HD
HETATM   36  H2  UNL     1      -6.524   5.469  17.208  1.00  0.00     0.124 HD
ENDBRANCH  31  34
ENDBRANCH   1  28
TORSDOF 5
ENDMDL
