MODEL 1
REMARK minimizedAffinity -9.71649742
REMARK  5 active torsions:
REMARK  status: ('A' for Active; 'I' for Inactive)
REMARK    1  A    between atoms: C2_2  and  C25_28 
REMARK    2  A    between atoms: C3_3  and  C4_4 
REMARK    3  A    between atoms: C4_4  and  C6_6 
REMARK    4  A    between atoms: C15_15  and  O1_16 
REMARK    5  A    between atoms: C25_28  and  C27_30 
ROOT
HETATM    1  C6  UNL     1      -1.880   5.458  13.318  1.00  0.00     0.001 C 
HETATM    2  C7  UNL     1      -1.946   4.690  11.963  1.00  0.00     0.006 C 
HETATM    3  C8  UNL     1      -0.662   5.027  11.189  1.00  0.00     0.009 C 
HETATM    4  C9  UNL     1       0.172   5.810  12.195  1.00  0.00     0.036 C 
HETATM    5  C10 UNL     1       1.402   6.585  11.710  1.00  0.00     0.123 C 
HETATM    6  C11 UNL     1       1.213   7.528  10.546  1.00  0.00     0.014 C 
HETATM    7  C12 UNL     1       2.355   8.082  10.115  1.00  0.00     0.014 C 
HETATM    8  C13 UNL     1       3.566   7.698  10.937  1.00  0.00     0.124 C 
HETATM    9  C14 UNL     1       4.872   8.251  10.357  1.00  0.00     0.078 C 
HETATM   10  C15 UNL     1       6.079   7.873  11.218  1.00  0.00     0.121 C 
HETATM   11  C16 UNL     1       5.898   8.249  12.689  1.00  0.00     0.033 C 
HETATM   12  C17 UNL     1       4.593   7.703  13.268  1.00  0.00     0.015 C 
HETATM   13  C18 UNL     1       3.341   8.105  12.436  1.00  0.00     0.001 C 
HETATM   14  C19 UNL     1       3.135   9.636  12.578  1.00  0.00     0.019 C 
HETATM   15  C20 UNL     1       2.089   7.272  12.940  1.00  0.00     0.039 C 
HETATM   16  C21 UNL     1       1.098   8.023  13.853  1.00  0.00     0.010 C 
HETATM   17  C22 UNL     1      -0.122   7.171  14.251  1.00  0.00     0.010 C 
HETATM   18  C23 UNL     1      -0.867   6.611  13.022  1.00  0.00    -0.033 C 
HETATM   19  C24 UNL     1      -1.557   7.761  12.256  1.00  0.00     0.016 C 
HETATM   20  O2  UNL     1       3.667   6.247  10.906  1.00  0.00    -0.223 OA
HETATM   21  O3  UNL     1       2.355   5.603  11.217  1.00  0.00    -0.224 OA
ENDROOT
BRANCH   1  22
HETATM   22  C4  UNL     1      -3.296   5.802  13.855  1.00  0.00     0.009 C 
HETATM   23  C5  UNL     1      -3.382   5.782  15.382  1.00  0.00     0.014 C 
BRANCH  22  24
HETATM   24  C3  UNL     1      -4.310   4.804  13.321  1.00  0.00    -0.019 C 
HETATM   25  C2  UNL     1      -5.630   4.986  13.100  1.00  0.00    -0.083 C 
HETATM   26  C1  UNL     1      -6.380   6.259  13.396  1.00  0.00     0.043 C 
BRANCH  25  27
HETATM   27  C25 UNL     1      -6.505   3.865  12.523  1.00  0.00     0.013 C 
HETATM   28  C26 UNL     1      -7.416   3.296  13.621  1.00  0.00     0.015 C 
BRANCH  27  29
HETATM   29  C27 UNL     1      -5.682   2.764  11.787  1.00  0.00    -0.015 C 
HETATM   30  C28 UNL     1      -5.302   3.201  10.364  1.00  0.00     0.010 C 
HETATM   31  C29 UNL     1      -6.440   1.434  11.707  1.00  0.00     0.010 C 
ENDBRANCH  27  29
ENDBRANCH  25  27
ENDBRANCH  22  24
ENDBRANCH   1  22
BRANCH  10  32
HETATM   32  O1  UNL     1       7.245   8.518  10.709  1.00  0.00    -0.395 OA
HETATM   33  H20 UNL     1       7.121   9.480  10.787  1.00  0.00     0.210 HD
ENDBRANCH  10  32
TORSDOF 5
ENDMDL
MODEL 2
REMARK minimizedAffinity -9.68580246
REMARK  5 active torsions:
REMARK  status: ('A' for Active; 'I' for Inactive)
REMARK    1  A    between atoms: C2_2  and  C25_28 
REMARK    2  A    between atoms: C3_3  and  C4_4 
REMARK    3  A    between atoms: C4_4  and  C6_6 
REMARK    4  A    between atoms: C15_15  and  O1_16 
REMARK    5  A    between atoms: C25_28  and  C27_30 
ROOT
HETATM    1  C6  UNL     1      -5.789   6.200  13.553  1.00  0.00     0.001 C 
HETATM    2  C7  UNL     1      -6.018   7.713  13.852  1.00  0.00     0.006 C 
HETATM    3  C8  UNL     1      -4.675   8.426  13.631  1.00  0.00     0.009 C 
HETATM    4  C9  UNL     1      -3.784   7.343  13.035  1.00  0.00     0.036 C 
HETATM    5  C10 UNL     1      -2.271   7.576  12.952  1.00  0.00     0.123 C 
HETATM    6  C11 UNL     1      -1.565   8.005  14.215  1.00  0.00     0.014 C 
HETATM    7  C12 UNL     1      -0.269   8.292  14.034  1.00  0.00     0.014 C 
HETATM    8  C13 UNL     1       0.215   8.051  12.620  1.00  0.00     0.124 C 
HETATM    9  C14 UNL     1       1.667   8.493  12.411  1.00  0.00     0.078 C 
HETATM   10  C15 UNL     1       2.143   8.216  10.984  1.00  0.00     0.121 C 
HETATM   11  C16 UNL     1       1.917   6.765  10.555  1.00  0.00     0.033 C 
HETATM   12  C17 UNL     1       0.470   6.319  10.769  1.00  0.00     0.015 C 
HETATM   13  C18 UNL     1      -0.032   6.552  12.224  1.00  0.00     0.001 C 
HETATM   14  C19 UNL     1       0.740   5.588  13.163  1.00  0.00     0.019 C 
HETATM   15  C20 UNL     1      -1.600   6.330  12.278  1.00  0.00     0.039 C 
HETATM   16  C21 UNL     1      -2.076   4.986  12.867  1.00  0.00     0.010 C 
HETATM   17  C22 UNL     1      -3.610   4.868  12.944  1.00  0.00     0.010 C 
HETATM   18  C23 UNL     1      -4.244   6.035  13.728  1.00  0.00    -0.033 C 
HETATM   19  C24 UNL     1      -3.873   5.928  15.223  1.00  0.00     0.016 C 
HETATM   20  O2  UNL     1      -0.609   8.860  11.736  1.00  0.00    -0.223 OA
HETATM   21  O3  UNL     1      -2.062   8.687  12.037  1.00  0.00    -0.224 OA
ENDROOT
BRANCH   1  22
HETATM   22  C4  UNL     1      -6.753   5.299  14.371  1.00  0.00     0.009 C 
HETATM   23  C5  UNL     1      -7.014   3.943  13.713  1.00  0.00     0.014 C 
BRANCH  22  24
HETATM   24  C3  UNL     1      -8.093   5.994  14.545  1.00  0.00    -0.019 C 
HETATM   25  C2  UNL     1      -9.014   6.290  13.601  1.00  0.00    -0.083 C 
HETATM   26  C1  UNL     1      -8.853   6.008  12.130  1.00  0.00     0.043 C 
BRANCH  25  27
HETATM   27  C25 UNL     1     -10.338   6.975  13.965  1.00  0.00     0.013 C 
HETATM   28  C26 UNL     1     -11.123   7.307  12.686  1.00  0.00     0.015 C 
BRANCH  27  29
HETATM   29  C27 UNL     1     -10.152   8.210  14.899  1.00  0.00    -0.015 C 
HETATM   30  C28 UNL     1     -10.898   9.440  14.362  1.00  0.00     0.010 C 
HETATM   31  C29 UNL     1      -8.674   8.574  15.086  1.00  0.00     0.010 C 
ENDBRANCH  27  29
ENDBRANCH  25  27
ENDBRANCH  22  24
ENDBRANCH   1  22
BRANCH  10  32
HETATM   32  O1  UNL     1       3.532   8.524  10.878  1.00  0.00    -0.395 OA
HETATM   33  H20 UNL     1       4.023   7.927  11.471  1.00  0.00     0.210 HD
ENDBRANCH  10  32
TORSDOF 5
ENDMDL
MODEL 3
REMARK minimizedAffinity -9.66486835
REMARK  5 active torsions:
REMARK  status: ('A' for Active; 'I' for Inactive)
REMARK    1  A    between atoms: C2_2  and  C25_28 
REMARK    2  A    between atoms: C3_3  and  C4_4 
REMARK    3  A    between atoms: C4_4  and  C6_6 
REMARK    4  A    between atoms: C15_15  and  O1_16 
REMARK    5  A    between atoms: C25_28  and  C27_30 
ROOT
HETATM    1  C6  UNL     1      -4.426   7.230  13.417  1.00  0.00     0.001 C 
HETATM    2  C7  UNL     1      -4.041   8.476  14.271  1.00  0.00     0.006 C 
HETATM    3  C8  UNL     1      -2.535   8.710  14.076  1.00  0.00     0.009 C 
HETATM    4  C9  UNL     1      -2.155   7.723  12.980  1.00  0.00     0.036 C 
HETATM    5  C10 UNL     1      -0.673   7.436  12.709  1.00  0.00     0.123 C 
HETATM    6  C11 UNL     1       0.187   7.055  13.890  1.00  0.00     0.014 C 
HETATM    7  C12 UNL     1       1.486   6.928  13.587  1.00  0.00     0.014 C 
HETATM    8  C13 UNL     1       1.790   7.122  12.117  1.00  0.00     0.124 C 
HETATM    9  C14 UNL     1       3.292   7.085  11.816  1.00  0.00     0.078 C 
HETATM   10  C15 UNL     1       3.574   7.256  10.322  1.00  0.00     0.121 C 
HETATM   11  C16 UNL     1       2.789   6.271   9.455  1.00  0.00     0.033 C 
HETATM   12  C17 UNL     1       1.291   6.302   9.758  1.00  0.00     0.015 C 
HETATM   13  C18 UNL     1       0.969   6.090  11.265  1.00  0.00     0.001 C 
HETATM   14  C19 UNL     1       1.340   4.631  11.640  1.00  0.00     0.019 C 
HETATM   15  C20 UNL     1      -0.560   6.417  11.524  1.00  0.00     0.039 C 
HETATM   16  C21 UNL     1      -1.499   5.201  11.673  1.00  0.00     0.010 C 
HETATM   17  C22 UNL     1      -2.955   5.595  11.983  1.00  0.00     0.010 C 
HETATM   18  C23 UNL     1      -3.061   6.491  13.234  1.00  0.00    -0.033 C 
HETATM   19  C24 UNL     1      -2.708   5.676  14.497  1.00  0.00     0.016 C 
HETATM   20  O2  UNL     1       1.313   8.445  11.747  1.00  0.00    -0.223 OA
HETATM   21  O3  UNL     1      -0.082   8.675  12.228  1.00  0.00    -0.224 OA
ENDROOT
BRANCH   1  22
HETATM   22  C4  UNL     1      -5.635   6.466  14.022  1.00  0.00     0.009 C 
HETATM   23  C5  UNL     1      -5.491   6.201  15.521  1.00  0.00     0.014 C 
BRANCH  22  24
HETATM   24  C3  UNL     1      -5.802   5.124  13.329  1.00  0.00    -0.019 C 
HETATM   25  C2  UNL     1      -6.878   4.650  12.665  1.00  0.00    -0.083 C 
HETATM   26  C1  UNL     1      -8.186   5.384  12.520  1.00  0.00     0.043 C 
BRANCH  25  27
HETATM   27  C25 UNL     1      -6.858   3.269  11.994  1.00  0.00     0.013 C 
HETATM   28  C26 UNL     1      -7.508   2.230  12.920  1.00  0.00     0.015 C 
BRANCH  27  29
HETATM   29  C27 UNL     1      -5.438   2.845  11.509  1.00  0.00    -0.015 C 
HETATM   30  C28 UNL     1      -5.139   3.384  10.102  1.00  0.00     0.010 C 
HETATM   31  C29 UNL     1      -5.263   1.321  11.500  1.00  0.00     0.010 C 
ENDBRANCH  27  29
ENDBRANCH  25  27
ENDBRANCH  22  24
ENDBRANCH   1  22
BRANCH  10  32
HETATM   32  O1  UNL     1       4.970   7.085  10.080  1.00  0.00    -0.395 OA
HETATM   33  H20 UNL     1       5.212   6.173  10.321  1.00  0.00     0.210 HD
ENDBRANCH  10  32
TORSDOF 5
ENDMDL
MODEL 4
REMARK minimizedAffinity -9.20797348
REMARK  5 active torsions:
REMARK  status: ('A' for Active; 'I' for Inactive)
REMARK    1  A    between atoms: C2_2  and  C25_28 
REMARK    2  A    between atoms: C3_3  and  C4_4 
REMARK    3  A    between atoms: C4_4  and  C6_6 
REMARK    4  A    between atoms: C15_15  and  O1_16 
REMARK    5  A    between atoms: C25_28  and  C27_30 
ROOT
HETATM    1  C6  UNL     1      -3.079   3.644  12.605  1.00  0.00     0.001 C 
HETATM    2  C7  UNL     1      -2.478   3.635  11.166  1.00  0.00     0.006 C 
HETATM    3  C8  UNL     1      -1.363   4.693  11.136  1.00  0.00     0.009 C 
HETATM    4  C9  UNL     1      -1.236   5.127  12.591  1.00  0.00     0.036 C 
HETATM    5  C10 UNL     1      -0.436   6.389  12.931  1.00  0.00     0.123 C 
HETATM    6  C11 UNL     1      -0.780   7.652  12.179  1.00  0.00     0.014 C 
HETATM    7  C12 UNL     1       0.036   8.679  12.455  1.00  0.00     0.014 C 
HETATM    8  C13 UNL     1       1.071   8.366  13.514  1.00  0.00     0.124 C 
HETATM    9  C14 UNL     1       2.060   9.516  13.730  1.00  0.00     0.078 C 
HETATM   10  C15 UNL     1       3.080   9.188  14.822  1.00  0.00     0.121 C 
HETATM   11  C16 UNL     1       2.424   8.740  16.129  1.00  0.00     0.033 C 
HETATM   12  C17 UNL     1       1.432   7.597  15.915  1.00  0.00     0.015 C 
HETATM   13  C18 UNL     1       0.356   7.916  14.837  1.00  0.00     0.001 C 
HETATM   14  C19 UNL     1      -0.564   9.036  15.388  1.00  0.00     0.019 C 
HETATM   15  C20 UNL     1      -0.440   6.591  14.485  1.00  0.00     0.039 C 
HETATM   16  C21 UNL     1      -1.841   6.452  15.116  1.00  0.00     0.010 C 
HETATM   17  C22 UNL     1      -2.577   5.172  14.680  1.00  0.00     0.010 C 
HETATM   18  C23 UNL     1      -2.683   5.056  13.145  1.00  0.00    -0.033 C 
HETATM   19  C24 UNL     1      -3.640   6.138  12.600  1.00  0.00     0.016 C 
HETATM   20  O2  UNL     1       1.840   7.224  13.043  1.00  0.00    -0.223 OA
HETATM   21  O3  UNL     1       0.947   6.126  12.565  1.00  0.00    -0.224 OA
ENDROOT
BRANCH   1  22
HETATM   22  C4  UNL     1      -4.571   3.214  12.608  1.00  0.00     0.009 C 
HETATM   23  C5  UNL     1      -4.957   2.367  11.395  1.00  0.00     0.014 C 
BRANCH  22  24
HETATM   24  C3  UNL     1      -5.466   4.442  12.619  1.00  0.00    -0.019 C 
HETATM   25  C2  UNL     1      -6.705   4.573  13.140  1.00  0.00    -0.083 C 
HETATM   26  C1  UNL     1      -7.479   3.460  13.798  1.00  0.00     0.043 C 
BRANCH  25  27
HETATM   27  C25 UNL     1      -7.457   5.910  13.086  1.00  0.00     0.013 C 
HETATM   28  C26 UNL     1      -7.248   6.679  14.400  1.00  0.00     0.015 C 
BRANCH  27  29
HETATM   29  C27 UNL     1      -8.962   5.751  12.710  1.00  0.00    -0.015 C 
HETATM   30  C28 UNL     1      -9.206   6.052  11.223  1.00  0.00     0.010 C 
HETATM   31  C29 UNL     1      -9.866   6.661  13.551  1.00  0.00     0.010 C 
ENDBRANCH  27  29
ENDBRANCH  25  27
ENDBRANCH  22  24
ENDBRANCH   1  22
BRANCH  10  32
HETATM   32  O1  UNL     1       3.891  10.334  15.073  1.00  0.00    -0.395 OA
HETATM   33  H20 UNL     1       3.319  11.045  15.412  1.00  0.00     0.210 HD
ENDBRANCH  10  32
TORSDOF 5
ENDMDL
MODEL 5
REMARK minimizedAffinity -9.15407085
REMARK  5 active torsions:
REMARK  status: ('A' for Active; 'I' for Inactive)
REMARK    1  A    between atoms: C2_2  and  C25_28 
REMARK    2  A    between atoms: C3_3  and  C4_4 
REMARK    3  A    between atoms: C4_4  and  C6_6 
REMARK    4  A    between atoms: C15_15  and  O1_16 
REMARK    5  A    between atoms: C25_28  and  C27_30 
ROOT
HETATM    1  C6  UNL     1       1.585   6.982  10.236  1.00  0.00     0.001 C 
HETATM    2  C7  UNL     1       2.005   5.588  10.793  1.00  0.00     0.006 C 
HETATM    3  C8  UNL     1       0.995   5.217  11.890  1.00  0.00     0.009 C 
HETATM    4  C9  UNL     1      -0.065   6.307  11.790  1.00  0.00     0.036 C 
HETATM    5  C10 UNL     1      -1.091   6.462  12.918  1.00  0.00     0.123 C 
HETATM    6  C11 UNL     1      -0.562   6.564  14.329  1.00  0.00     0.014 C 
HETATM    7  C12 UNL     1      -1.524   6.587  15.262  1.00  0.00     0.014 C 
HETATM    8  C13 UNL     1      -2.926   6.581  14.690  1.00  0.00     0.124 C 
HETATM    9  C14 UNL     1      -4.004   6.493  15.774  1.00  0.00     0.078 C 
HETATM   10  C15 UNL     1      -5.413   6.515  15.176  1.00  0.00     0.121 C 
HETATM   11  C16 UNL     1      -5.638   7.701  14.236  1.00  0.00     0.033 C 
HETATM   12  C17 UNL     1      -4.559   7.794  13.157  1.00  0.00     0.015 C 
HETATM   13  C18 UNL     1      -3.115   7.814  13.736  1.00  0.00     0.001 C 
HETATM   14  C19 UNL     1      -2.918   9.150  14.500  1.00  0.00     0.019 C 
HETATM   15  C20 UNL     1      -2.075   7.627  12.555  1.00  0.00     0.039 C 
HETATM   16  C21 UNL     1      -1.356   8.905  12.074  1.00  0.00     0.010 C 
HETATM   17  C22 UNL     1      -0.318   8.636  10.969  1.00  0.00     0.010 C 
HETATM   18  C23 UNL     1       0.724   7.582  11.395  1.00  0.00    -0.033 C 
HETATM   19  C24 UNL     1       1.630   8.155  12.507  1.00  0.00     0.016 C 
HETATM   20  O2  UNL     1      -3.052   5.390  13.865  1.00  0.00    -0.223 OA
HETATM   21  O3  UNL     1      -1.895   5.250  12.930  1.00  0.00    -0.224 OA
ENDROOT
BRANCH   1  22
HETATM   22  C4  UNL     1       2.804   7.778   9.697  1.00  0.00     0.009 C 
HETATM   23  C5  UNL     1       2.906   7.765   8.171  1.00  0.00     0.014 C 
BRANCH  22  24
HETATM   24  C3  UNL     1       4.093   7.193  10.251  1.00  0.00    -0.019 C 
HETATM   25  C2  UNL     1       5.217   7.843  10.625  1.00  0.00    -0.083 C 
HETATM   26  C1  UNL     1       5.422   9.331  10.516  1.00  0.00     0.043 C 
BRANCH  25  27
HETATM   27  C25 UNL     1       6.423   7.086  11.198  1.00  0.00     0.013 C 
HETATM   28  C26 UNL     1       6.429   5.641  10.675  1.00  0.00     0.015 C 
BRANCH  27  29
HETATM   29  C27 UNL     1       6.515   7.168  12.753  1.00  0.00    -0.015 C 
HETATM   30  C28 UNL     1       5.246   7.785  13.360  1.00  0.00     0.010 C 
HETATM   31  C29 UNL     1       7.729   7.982  13.216  1.00  0.00     0.010 C 
ENDBRANCH  27  29
ENDBRANCH  25  27
ENDBRANCH  22  24
ENDBRANCH   1  22
BRANCH  10  32
HETATM   32  O1  UNL     1      -6.375   6.562  16.228  1.00  0.00    -0.395 OA
HETATM   33  H20 UNL     1      -6.252   7.395  16.717  1.00  0.00     0.210 HD
ENDBRANCH  10  32
TORSDOF 5
ENDMDL
MODEL 6
REMARK minimizedAffinity -9.02207756
REMARK  5 active torsions:
REMARK  status: ('A' for Active; 'I' for Inactive)
REMARK    1  A    between atoms: C2_2  and  C25_28 
REMARK    2  A    between atoms: C3_3  and  C4_4 
REMARK    3  A    between atoms: C4_4  and  C6_6 
REMARK    4  A    between atoms: C15_15  and  O1_16 
REMARK    5  A    between atoms: C25_28  and  C27_30 
ROOT
HETATM    1  C6  UNL     1      -5.402   7.328  13.669  1.00  0.00     0.001 C 
HETATM    2  C7  UNL     1      -5.826   8.466  14.648  1.00  0.00     0.006 C 
HETATM    3  C8  UNL     1      -4.543   9.190  15.082  1.00  0.00     0.009 C 
HETATM    4  C9  UNL     1      -3.464   8.576  14.199  1.00  0.00     0.036 C 
HETATM    5  C10 UNL     1      -1.988   8.818  14.537  1.00  0.00     0.123 C 
HETATM    6  C11 UNL     1      -1.543   8.529  15.950  1.00  0.00     0.014 C 
HETATM    7  C12 UNL     1      -0.270   8.870  16.191  1.00  0.00     0.014 C 
HETATM    8  C13 UNL     1       0.459   9.399  14.974  1.00  0.00     0.124 C 
HETATM    9  C14 UNL     1       1.874   9.886  15.301  1.00  0.00     0.078 C 
HETATM   10  C15 UNL     1       2.601  10.392  14.053  1.00  0.00     0.121 C 
HETATM   11  C16 UNL     1       2.593   9.375  12.911  1.00  0.00     0.033 C 
HETATM   12  C17 UNL     1       1.182   8.882  12.587  1.00  0.00     0.015 C 
HETATM   13  C18 UNL     1       0.430   8.324  13.830  1.00  0.00     0.001 C 
HETATM   14  C19 UNL     1       1.132   7.013  14.273  1.00  0.00     0.019 C 
HETATM   15  C20 UNL     1      -1.096   8.105  13.463  1.00  0.00     0.039 C 
HETATM   16  C21 UNL     1      -1.525   6.650  13.181  1.00  0.00     0.010 C 
HETATM   17  C22 UNL     1      -3.031   6.509  12.894  1.00  0.00     0.010 C 
HETATM   18  C23 UNL     1      -3.898   7.097  14.026  1.00  0.00    -0.033 C 
HETATM   19  C24 UNL     1      -3.765   6.229  15.296  1.00  0.00     0.016 C 
HETATM   20  O2  UNL     1      -0.287  10.549  14.489  1.00  0.00    -0.223 OA
HETATM   21  O3  UNL     1      -1.745  10.243  14.376  1.00  0.00    -0.224 OA
ENDROOT
BRANCH   1  22
HETATM   22  C4  UNL     1      -6.391   6.132  13.712  1.00  0.00     0.009 C 
HETATM   23  C5  UNL     1      -6.631   5.599  15.125  1.00  0.00     0.014 C 
BRANCH  22  24
HETATM   24  C3  UNL     1      -5.857   4.986  12.869  1.00  0.00    -0.019 C 
HETATM   25  C2  UNL     1      -6.517   3.897  12.419  1.00  0.00    -0.083 C 
HETATM   26  C1  UNL     1      -7.960   3.584  12.720  1.00  0.00     0.043 C 
BRANCH  25  27
HETATM   27  C25 UNL     1      -5.819   2.844  11.545  1.00  0.00     0.013 C 
HETATM   28  C26 UNL     1      -6.471   1.470  11.763  1.00  0.00     0.015 C 
BRANCH  27  29
HETATM   29  C27 UNL     1      -4.272   2.818  11.738  1.00  0.00    -0.015 C 
HETATM   30  C28 UNL     1      -3.552   3.582  10.616  1.00  0.00     0.010 C 
HETATM   31  C29 UNL     1      -3.722   1.388  11.791  1.00  0.00     0.010 C 
ENDBRANCH  27  29
ENDBRANCH  25  27
ENDBRANCH  22  24
ENDBRANCH   1  22
BRANCH  10  32
HETATM   32  O1  UNL     1       3.951  10.711  14.387  1.00  0.00    -0.395 OA
HETATM   33  H20 UNL     1       4.396   9.893  14.673  1.00  0.00     0.210 HD
ENDBRANCH  10  32
TORSDOF 5
ENDMDL
MODEL 7
REMARK minimizedAffinity -9.01370716
REMARK  5 active torsions:
REMARK  status: ('A' for Active; 'I' for Inactive)
REMARK    1  A    between atoms: C2_2  and  C25_28 
REMARK    2  A    between atoms: C3_3  and  C4_4 
REMARK    3  A    between atoms: C4_4  and  C6_6 
REMARK    4  A    between atoms: C15_15  and  O1_16 
REMARK    5  A    between atoms: C25_28  and  C27_30 
ROOT
HETATM    1  C6  UNL     1      -2.271   6.830  13.625  1.00  0.00     0.001 C 
HETATM    2  C7  UNL     1      -2.479   5.811  12.463  1.00  0.00     0.006 C 
HETATM    3  C8  UNL     1      -1.158   5.740  11.682  1.00  0.00     0.009 C 
HETATM    4  C9  UNL     1      -0.193   6.561  12.528  1.00  0.00     0.036 C 
HETATM    5  C10 UNL     1       1.156   6.983  11.934  1.00  0.00     0.123 C 
HETATM    6  C11 UNL     1       1.137   7.671  10.590  1.00  0.00     0.014 C 
HETATM    7  C12 UNL     1       2.358   7.907  10.092  1.00  0.00     0.014 C 
HETATM    8  C13 UNL     1       3.483   7.500  11.020  1.00  0.00     0.124 C 
HETATM    9  C14 UNL     1       4.865   7.675  10.383  1.00  0.00     0.078 C 
HETATM   10  C15 UNL     1       5.987   7.283  11.347  1.00  0.00     0.121 C 
HETATM   11  C16 UNL     1       5.882   7.994  12.698  1.00  0.00     0.033 C 
HETATM   12  C17 UNL     1       4.501   7.826  13.332  1.00  0.00     0.015 C 
HETATM   13  C18 UNL     1       3.339   8.254  12.389  1.00  0.00     0.001 C 
HETATM   14  C19 UNL     1       3.415   9.792  12.195  1.00  0.00     0.019 C 
HETATM   15  C20 UNL     1       1.960   7.786  13.013  1.00  0.00     0.039 C 
HETATM   16  C21 UNL     1       1.123   8.879  13.710  1.00  0.00     0.010 C 
HETATM   17  C22 UNL     1      -0.229   8.363  14.236  1.00  0.00     0.010 C 
HETATM   18  C23 UNL     1      -1.067   7.693  13.127  1.00  0.00    -0.033 C 
HETATM   19  C24 UNL     1      -1.540   8.754  12.110  1.00  0.00     0.016 C 
HETATM   20  O2  UNL     1       3.319   6.083  11.302  1.00  0.00    -0.223 OA
HETATM   21  O3  UNL     1       1.913   5.765  11.695  1.00  0.00    -0.224 OA
ENDROOT
BRANCH   1  22
HETATM   22  C4  UNL     1      -3.599   7.526  14.026  1.00  0.00     0.009 C 
HETATM   23  C5  UNL     1      -3.811   7.596  15.539  1.00  0.00     0.014 C 
BRANCH  22  24
HETATM   24  C3  UNL     1      -4.780   6.778  13.428  1.00  0.00    -0.019 C 
HETATM   25  C2  UNL     1      -5.820   6.203  14.069  1.00  0.00    -0.083 C 
HETATM   26  C1  UNL     1      -5.986   6.160  15.566  1.00  0.00     0.043 C 
BRANCH  25  27
HETATM   27  C25 UNL     1      -6.950   5.509  13.295  1.00  0.00     0.013 C 
HETATM   28  C26 UNL     1      -8.312   5.963  13.841  1.00  0.00     0.015 C 
BRANCH  27  29
HETATM   29  C27 UNL     1      -6.799   3.957  13.254  1.00  0.00    -0.015 C 
HETATM   30  C28 UNL     1      -5.717   3.522  12.254  1.00  0.00     0.010 C 
HETATM   31  C29 UNL     1      -8.115   3.260  12.889  1.00  0.00     0.010 C 
ENDBRANCH  27  29
ENDBRANCH  25  27
ENDBRANCH  22  24
ENDBRANCH   1  22
BRANCH  10  32
HETATM   32  O1  UNL     1       7.249   7.586  10.755  1.00  0.00    -0.395 OA
HETATM   33  H20 UNL     1       7.301   8.549  10.623  1.00  0.00     0.210 HD
ENDBRANCH  10  32
TORSDOF 5
ENDMDL
MODEL 8
REMARK minimizedAffinity -8.94504547
REMARK  5 active torsions:
REMARK  status: ('A' for Active; 'I' for Inactive)
REMARK    1  A    between atoms: C2_2  and  C25_28 
REMARK    2  A    between atoms: C3_3  and  C4_4 
REMARK    3  A    between atoms: C4_4  and  C6_6 
REMARK    4  A    between atoms: C15_15  and  O1_16 
REMARK    5  A    between atoms: C25_28  and  C27_30 
ROOT
HETATM    1  C6  UNL     1      -3.375   4.778  13.517  1.00  0.00     0.001 C 
HETATM    2  C7  UNL     1      -2.140   4.931  12.579  1.00  0.00     0.006 C 
HETATM    3  C8  UNL     1      -1.455   6.256  12.945  1.00  0.00     0.009 C 
HETATM    4  C9  UNL     1      -2.199   6.715  14.193  1.00  0.00     0.036 C 
HETATM    5  C10 UNL     1      -2.012   8.152  14.693  1.00  0.00     0.123 C 
HETATM    6  C11 UNL     1      -2.208   9.266  13.693  1.00  0.00     0.014 C 
HETATM    7  C12 UNL     1      -1.921  10.481  14.181  1.00  0.00     0.014 C 
HETATM    8  C13 UNL     1      -1.535  10.473  15.644  1.00  0.00     0.124 C 
HETATM    9  C14 UNL     1      -1.102  11.854  16.147  1.00  0.00     0.078 C 
HETATM   10  C15 UNL     1      -0.742  11.828  17.634  1.00  0.00     0.121 C 
HETATM   11  C16 UNL     1      -1.848  11.222  18.500  1.00  0.00     0.033 C 
HETATM   12  C17 UNL     1      -2.286   9.847  17.996  1.00  0.00     0.015 C 
HETATM   13  C18 UNL     1      -2.697   9.848  16.495  1.00  0.00     0.001 C 
HETATM   14  C19 UNL     1      -4.004  10.671  16.352  1.00  0.00     0.019 C 
HETATM   15  C20 UNL     1      -2.859   8.353  15.996  1.00  0.00     0.039 C 
HETATM   16  C21 UNL     1      -4.307   7.832  15.870  1.00  0.00     0.010 C 
HETATM   17  C22 UNL     1      -4.387   6.395  15.321  1.00  0.00     0.010 C 
HETATM   18  C23 UNL     1      -3.660   6.247  13.969  1.00  0.00    -0.033 C 
HETATM   19  C24 UNL     1      -4.426   7.017  12.872  1.00  0.00     0.016 C 
HETATM   20  O2  UNL     1      -0.389   9.589  15.786  1.00  0.00    -0.223 OA
HETATM   21  O3  UNL     1      -0.621   8.283  15.097  1.00  0.00    -0.224 OA
ENDROOT
BRANCH   1  22
HETATM   22  C4  UNL     1      -4.507   3.949  12.851  1.00  0.00     0.009 C 
HETATM   23  C5  UNL     1      -4.248   3.657  11.372  1.00  0.00     0.014 C 
BRANCH  22  24
HETATM   24  C3  UNL     1      -5.826   4.697  12.951  1.00  0.00    -0.019 C 
HETATM   25  C2  UNL     1      -7.066   4.191  13.131  1.00  0.00    -0.083 C 
HETATM   26  C1  UNL     1      -7.385   2.722  13.228  1.00  0.00     0.043 C 
BRANCH  25  27
HETATM   27  C25 UNL     1      -8.293   5.106  13.240  1.00  0.00     0.013 C 
HETATM   28  C26 UNL     1      -8.632   5.691  11.860  1.00  0.00     0.015 C 
BRANCH  27  29
HETATM   29  C27 UNL     1      -8.146   6.200  14.342  1.00  0.00    -0.015 C 
HETATM   30  C28 UNL     1      -7.884   5.577  15.721  1.00  0.00     0.010 C 
HETATM   31  C29 UNL     1      -9.386   7.097  14.434  1.00  0.00     0.010 C 
ENDBRANCH  27  29
ENDBRANCH  25  27
ENDBRANCH  22  24
ENDBRANCH   1  22
BRANCH  10  32
HETATM   32  O1  UNL     1      -0.473  13.156  18.080  1.00  0.00    -0.395 OA
HETATM   33  H20 UNL     1      -1.287  13.681  17.985  1.00  0.00     0.210 HD
ENDBRANCH  10  32
TORSDOF 5
ENDMDL
MODEL 9
REMARK minimizedAffinity -8.92091751
REMARK  5 active torsions:
REMARK  status: ('A' for Active; 'I' for Inactive)
REMARK    1  A    between atoms: C2_2  and  C25_28 
REMARK    2  A    between atoms: C3_3  and  C4_4 
REMARK    3  A    between atoms: C4_4  and  C6_6 
REMARK    4  A    between atoms: C15_15  and  O1_16 
REMARK    5  A    between atoms: C25_28  and  C27_30 
ROOT
HETATM    1  C6  UNL     1      -0.009   7.663  14.522  1.00  0.00     0.001 C 
HETATM    2  C7  UNL     1      -0.229   9.201  14.389  1.00  0.00     0.006 C 
HETATM    3  C8  UNL     1      -1.746   9.444  14.418  1.00  0.00     0.009 C 
HETATM    4  C9  UNL     1      -2.325   8.076  14.757  1.00  0.00     0.036 C 
HETATM    5  C10 UNL     1      -3.829   7.834  14.583  1.00  0.00     0.123 C 
HETATM    6  C11 UNL     1      -4.440   8.194  13.250  1.00  0.00     0.014 C 
HETATM    7  C12 UNL     1      -5.772   8.054  13.216  1.00  0.00     0.014 C 
HETATM    8  C13 UNL     1      -6.358   7.496  14.495  1.00  0.00     0.124 C 
HETATM    9  C14 UNL     1      -7.889   7.453  14.473  1.00  0.00     0.078 C 
HETATM   10  C15 UNL     1      -8.459   6.861  15.764  1.00  0.00     0.121 C 
HETATM   11  C16 UNL     1      -7.850   5.502  16.111  1.00  0.00     0.033 C 
HETATM   12  C17 UNL     1      -6.322   5.541  16.127  1.00  0.00     0.015 C 
HETATM   13  C18 UNL     1      -5.711   6.101  14.811  1.00  0.00     0.001 C 
HETATM   14  C19 UNL     1      -5.990   5.082  13.675  1.00  0.00     0.019 C 
HETATM   15  C20 UNL     1      -4.163   6.367  15.024  1.00  0.00     0.039 C 
HETATM   16  C21 UNL     1      -3.204   5.316  14.427  1.00  0.00     0.010 C 
HETATM   17  C22 UNL     1      -1.718   5.673  14.620  1.00  0.00     0.010 C 
HETATM   18  C23 UNL     1      -1.378   7.068  14.058  1.00  0.00    -0.033 C 
HETATM   19  C24 UNL     1      -1.471   7.052  12.516  1.00  0.00     0.016 C 
HETATM   20  O2  UNL     1      -5.972   8.391  15.575  1.00  0.00    -0.223 OA
HETATM   21  O3  UNL     1      -4.512   8.701  15.529  1.00  0.00    -0.224 OA
ENDROOT
BRANCH   1  22
HETATM   22  C4  UNL     1       1.301   7.206  13.823  1.00  0.00     0.009 C 
HETATM   23  C5  UNL     1       2.562   7.583  14.602  1.00  0.00     0.014 C 
BRANCH  22  24
HETATM   24  C3  UNL     1       1.402   7.838  12.445  1.00  0.00    -0.019 C 
HETATM   25  C2  UNL     1       1.500   7.225  11.245  1.00  0.00    -0.083 C 
HETATM   26  C1  UNL     1       1.573   5.733  11.050  1.00  0.00     0.043 C 
BRANCH  25  27
HETATM   27  C25 UNL     1       1.563   8.029   9.940  1.00  0.00     0.013 C 
HETATM   28  C26 UNL     1       0.205   7.969   9.223  1.00  0.00     0.015 C 
BRANCH  27  29
HETATM   29  C27 UNL     1       2.752   7.612   9.021  1.00  0.00    -0.015 C 
HETATM   30  C28 UNL     1       3.332   8.819   8.268  1.00  0.00     0.010 C 
HETATM   31  C29 UNL     1       2.344   6.544   7.999  1.00  0.00     0.010 C 
ENDBRANCH  27  29
ENDBRANCH  25  27
ENDBRANCH  22  24
ENDBRANCH   1  22
BRANCH  10  32
HETATM   32  O1  UNL     1      -9.873   6.724  15.640  1.00  0.00    -0.395 OA
HETATM   33  H20 UNL     1     -10.056   6.091  14.923  1.00  0.00     0.210 HD
ENDBRANCH  10  32
TORSDOF 5
ENDMDL
