MODEL 1
REMARK minimizedAffinity -8.26089573
REMARK CNNscore 0.786950529
REMARK CNNaffinity 7.56284714
REMARK  10 active torsions:
REMARK  status: ('A' for Active; 'I' for Inactive)
REMARK    1  A    between atoms: C2_2  and  C3_3 
REMARK    2  A    between atoms: C3_3  and  C4_4 
REMARK    3  A    between atoms: C4_4  and  O1_5 
REMARK    4  A    between atoms: O1_5  and  C5_6 
REMARK    5  A    between atoms: C5_6  and  C6_7 
REMARK    6  A    between atoms: C10_11  and  C12_13 
REMARK    7  A    between atoms: C12_13  and  C13_15 
REMARK    8  A    between atoms: C13_15  and  S1_16 
REMARK    9  A    between atoms: S1_16  and  C14_17 
REMARK   10  A    between atoms: C15_20  and  C16_21 
ROOT
HETATM    1  C12 UNL     1      -0.406  51.540 -19.814  1.00  0.00     0.171 C 
HETATM    2  O2  UNL     1       0.526  50.831 -20.207  1.00  0.00    -0.294 OA
ENDROOT
BRANCH   1   3
HETATM    3  C10 UNL     1      -1.657  50.891 -19.184  1.00  0.00     0.129 C 
HETATM    4  C9  UNL     1      -1.858  49.452 -19.654  1.00  0.00     0.076 C 
HETATM    5  C8  UNL     1      -2.857  49.575 -20.794  1.00  0.00     0.141 C 
HETATM    6  C7  UNL     1      -3.735  48.345 -20.929  1.00  0.00     0.065 C 
HETATM    7  C22 UNL     1      -3.581  50.833 -20.440  1.00  0.00     0.279 C 
HETATM    8  C23 UNL     1      -2.229  49.708 -22.145  1.00  0.00     0.278 C 
HETATM    9  C6  UNL     1      -3.836  48.102 -22.425  1.00  0.00     0.157 C 
HETATM   10  O6  UNL     1      -2.723  48.782 -23.011  1.00  0.00    -0.313 OA
HETATM   11  O3  UNL     1      -2.875  51.553 -19.521  1.00  0.00    -0.301 OA
HETATM   12  O4  UNL     1      -4.643  51.205 -20.910  1.00  0.00    -0.264 OA
HETATM   13  O5  UNL     1      -1.392  50.544 -22.448  1.00  0.00    -0.264 OA
HETATM   14  C11 UNL     1      -1.487  50.965 -17.666  1.00  0.00     0.055 C 
BRANCH   9  15
HETATM   15  C5  UNL     1      -5.148  48.578 -23.061  1.00  0.00     0.200 C 
BRANCH  15  16
HETATM   16  O1  UNL     1      -4.902  49.255 -24.292  1.00  0.00    -0.389 OA
BRANCH  16  17
HETATM   17  C4  UNL     1      -4.903  48.412 -25.441  1.00  0.00     0.167 C 
BRANCH  17  18
HETATM   18  C3  UNL     1      -3.626  48.543 -26.271  1.00  0.00     0.026 C 
BRANCH  18  19
HETATM   19  C2  UNL     1      -3.831  48.363 -27.778  1.00  0.00    -0.002 C 
HETATM   20  C1  UNL     1      -5.253  47.992 -28.173  1.00  0.00     0.005 C 
ENDBRANCH  18  19
ENDBRANCH  17  18
ENDBRANCH  16  17
ENDBRANCH  15  16
ENDBRANCH   9  15
ENDBRANCH   1   3
BRANCH   1  21
HETATM   21  C13 UNL     1      -0.393  53.063 -19.875  1.00  0.00     0.164 C 
BRANCH  21  22
HETATM   22  S1  UNL     1       1.253  53.721 -20.260  1.00  0.00    -0.085 SA
BRANCH  22  23
HETATM   23  C14 UNL     1       1.140  53.841 -21.972  1.00  0.00     0.161 A 
HETATM   24  N1  UNL     1       0.583  53.008 -22.813  1.00  0.00    -0.320 N 
HETATM   25  C15 UNL     1       0.844  53.590 -24.044  1.00  0.00     0.134 A 
ATOM     26  H1  UNL     1       0.081  52.143 -22.613  1.00  0.00     0.169 HD
HETATM   27  N2  UNL     1       1.456  54.782 -23.962  1.00  0.00    -0.283 N 
HETATM   28  N3  UNL     1       1.649  54.906 -22.638  1.00  0.00    -0.278 N 
ATOM     29  H2  UNL     1       1.710  55.426 -24.711  1.00  0.00     0.188 HD
HETATM   30  H26 UNL     1       2.113  55.725 -22.263  1.00  0.00     0.189 HD
BRANCH  25  31
HETATM   31  C16 UNL     1       0.408  52.974 -25.292  1.00  0.00     0.031 A 
HETATM   32  C17 UNL     1       0.374  51.568 -25.356  1.00  0.00     0.017 A 
HETATM   33  C18 UNL     1      -0.050  50.907 -26.512  1.00  0.00     0.001 A 
HETATM   34  C19 UNL     1      -0.442  51.642 -27.626  1.00  0.00     0.002 A 
HETATM   35  C20 UNL     1      -0.399  53.036 -27.586  1.00  0.00     0.025 A 
HETATM   36  C21 UNL     1       0.027  53.704 -26.430  1.00  0.00     0.048 A 
HETATM   37 CL1  UNL     1       0.107  55.432 -26.528  1.00  0.00    -0.083 Cl
ENDBRANCH  25  31
ENDBRANCH  22  23
ENDBRANCH  21  22
ENDBRANCH   1  21
TORSDOF 10
ENDMDL
MODEL 2
REMARK minimizedAffinity -7.25696659
REMARK CNNscore 0.285130799
REMARK CNNaffinity 6.35800695
REMARK  10 active torsions:
REMARK  status: ('A' for Active; 'I' for Inactive)
REMARK    1  A    between atoms: C2_2  and  C3_3 
REMARK    2  A    between atoms: C3_3  and  C4_4 
REMARK    3  A    between atoms: C4_4  and  O1_5 
REMARK    4  A    between atoms: O1_5  and  C5_6 
REMARK    5  A    between atoms: C5_6  and  C6_7 
REMARK    6  A    between atoms: C10_11  and  C12_13 
REMARK    7  A    between atoms: C12_13  and  C13_15 
REMARK    8  A    between atoms: C13_15  and  S1_16 
REMARK    9  A    between atoms: S1_16  and  C14_17 
REMARK   10  A    between atoms: C15_20  and  C16_21 
ROOT
HETATM    1  C12 UNL     1      -0.814  50.278 -13.369  1.00  0.00     0.171 C 
HETATM    2  O2  UNL     1      -0.136  49.300 -13.035  1.00  0.00    -0.294 OA
ENDROOT
BRANCH   1   3
HETATM    3  C10 UNL     1      -1.855  50.866 -12.393  1.00  0.00     0.129 C 
HETATM    4  C9  UNL     1      -1.874  52.392 -12.423  1.00  0.00     0.076 C 
HETATM    5  C8  UNL     1      -0.987  52.794 -11.255  1.00  0.00     0.141 C 
HETATM    6  C7  UNL     1      -1.403  54.117 -10.640  1.00  0.00     0.065 C 
HETATM    7  C22 UNL     1      -1.107  51.610 -10.351  1.00  0.00     0.279 C 
HETATM    8  C23 UNL     1       0.446  53.013 -11.624  1.00  0.00     0.278 C 
HETATM    9  C6  UNL     1      -0.097  54.842 -10.361  1.00  0.00     0.157 C 
HETATM   10  O6  UNL     1       0.883  54.231 -11.205  1.00  0.00    -0.313 OA
HETATM   11  O3  UNL     1      -1.607  50.536 -11.027  1.00  0.00    -0.301 OA
HETATM   12  O4  UNL     1      -0.785  51.572  -9.176  1.00  0.00    -0.264 OA
HETATM   13  O5  UNL     1       1.148  52.206 -12.214  1.00  0.00    -0.264 OA
HETATM   14  C11 UNL     1      -3.215  50.281 -12.777  1.00  0.00     0.055 C 
BRANCH   9  15
HETATM   15  C5  UNL     1       0.356  54.797  -8.897  1.00  0.00     0.200 C 
BRANCH  15  16
HETATM   16  O1  UNL     1       1.140  55.943  -8.570  1.00  0.00    -0.389 OA
BRANCH  16  17
HETATM   17  C4  UNL     1       2.515  55.667  -8.317  1.00  0.00     0.167 C 
BRANCH  17  18
HETATM   18  C3  UNL     1       3.454  56.644  -9.025  1.00  0.00     0.026 C 
BRANCH  18  19
HETATM   19  C2  UNL     1       3.494  56.490 -10.549  1.00  0.00    -0.002 C 
HETATM   20  C1  UNL     1       4.187  55.224 -11.029  1.00  0.00     0.005 C 
ENDBRANCH  18  19
ENDBRANCH  17  18
ENDBRANCH  16  17
ENDBRANCH  15  16
ENDBRANCH   9  15
ENDBRANCH   1   3
BRANCH   1  21
HETATM   21  C13 UNL     1      -0.663  50.991 -14.707  1.00  0.00     0.164 C 
BRANCH  21  22
HETATM   22  S1  UNL     1       0.976  50.738 -15.441  1.00  0.00    -0.085 SA
BRANCH  22  23
HETATM   23  C14 UNL     1       0.756  51.522 -16.956  1.00  0.00     0.161 A 
HETATM   24  N1  UNL     1       0.250  51.035 -18.060  1.00  0.00    -0.320 N 
HETATM   25  C15 UNL     1       0.376  52.091 -18.950  1.00  0.00     0.134 A 
ATOM     26  H1  UNL     1      -0.141  50.107 -18.226  1.00  0.00     0.169 HD
HETATM   27  N2  UNL     1       0.855  53.215 -18.394  1.00  0.00    -0.283 N 
HETATM   28  N3  UNL     1       1.105  52.819 -17.135  1.00  0.00    -0.278 N 
ATOM     29  H2  UNL     1       0.993  54.132 -18.818  1.00  0.00     0.188 HD
HETATM   30  H26 UNL     1       1.495  53.468 -16.462  1.00  0.00     0.189 HD
BRANCH  25  31
HETATM   31  C16 UNL     1      -0.057  51.980 -20.339  1.00  0.00     0.031 A 
HETATM   32  C17 UNL     1      -1.040  51.020 -20.647  1.00  0.00     0.017 A 
HETATM   33  C18 UNL     1      -1.517  50.868 -21.952  1.00  0.00     0.001 A 
HETATM   34  C19 UNL     1      -1.016  51.671 -22.971  1.00  0.00     0.002 A 
HETATM   35  C20 UNL     1      -0.030  52.616 -22.686  1.00  0.00     0.025 A 
HETATM   36  C21 UNL     1       0.454  52.772 -21.380  1.00  0.00     0.048 A 
HETATM   37 CL1  UNL     1       1.728  53.925 -21.166  1.00  0.00    -0.083 Cl
ENDBRANCH  25  31
ENDBRANCH  22  23
ENDBRANCH  21  22
ENDBRANCH   1  21
TORSDOF 10
ENDMDL
MODEL 3
REMARK minimizedAffinity -7.81514263
REMARK CNNscore 0.234678775
REMARK CNNaffinity 6.49958229
REMARK  10 active torsions:
REMARK  status: ('A' for Active; 'I' for Inactive)
REMARK    1  A    between atoms: C2_2  and  C3_3 
REMARK    2  A    between atoms: C3_3  and  C4_4 
REMARK    3  A    between atoms: C4_4  and  O1_5 
REMARK    4  A    between atoms: O1_5  and  C5_6 
REMARK    5  A    between atoms: C5_6  and  C6_7 
REMARK    6  A    between atoms: C10_11  and  C12_13 
REMARK    7  A    between atoms: C12_13  and  C13_15 
REMARK    8  A    between atoms: C13_15  and  S1_16 
REMARK    9  A    between atoms: S1_16  and  C14_17 
REMARK   10  A    between atoms: C15_20  and  C16_21 
ROOT
HETATM    1  C12 UNL     1      -2.845  49.906 -20.274  1.00  0.00     0.171 C 
HETATM    2  O2  UNL     1      -3.873  49.222 -20.239  1.00  0.00    -0.294 OA
ENDROOT
BRANCH   1   3
HETATM    3  C10 UNL     1      -1.499  49.300 -19.822  1.00  0.00     0.129 C 
HETATM    4  C9  UNL     1      -1.622  48.547 -18.500  1.00  0.00     0.076 C 
HETATM    5  C8  UNL     1      -1.179  49.561 -17.458  1.00  0.00     0.141 C 
HETATM    6  C7  UNL     1      -0.533  48.907 -16.251  1.00  0.00     0.065 C 
HETATM    7  C22 UNL     1      -0.280  50.452 -18.251  1.00  0.00     0.279 C 
HETATM    8  C23 UNL     1      -2.298  50.359 -16.867  1.00  0.00     0.278 C 
HETATM    9  C6  UNL     1      -1.081  49.669 -15.056  1.00  0.00     0.157 C 
HETATM   10  O6  UNL     1      -2.281  50.301 -15.508  1.00  0.00    -0.313 OA
HETATM   11  O3  UNL     1      -0.483  50.275 -19.589  1.00  0.00    -0.301 OA
HETATM   12  O4  UNL     1       0.516  51.256 -17.796  1.00  0.00    -0.264 OA
HETATM   13  O5  UNL     1      -3.119  50.994 -17.510  1.00  0.00    -0.264 OA
HETATM   14  C11 UNL     1      -1.017  48.383 -20.948  1.00  0.00     0.055 C 
BRANCH   9  15
HETATM   15  C5  UNL     1      -0.119  50.708 -14.467  1.00  0.00     0.200 C 
BRANCH  15  16
HETATM   16  O1  UNL     1       1.237  50.362 -14.744  1.00  0.00    -0.389 OA
BRANCH  16  17
HETATM   17  C4  UNL     1       2.153  50.670 -13.696  1.00  0.00     0.167 C 
BRANCH  17  18
HETATM   18  C3  UNL     1       3.199  51.705 -14.110  1.00  0.00     0.026 C 
BRANCH  18  19
HETATM   19  C2  UNL     1       3.124  52.124 -15.581  1.00  0.00    -0.002 C 
HETATM   20  C1  UNL     1       4.477  52.393 -16.222  1.00  0.00     0.005 C 
ENDBRANCH  18  19
ENDBRANCH  17  18
ENDBRANCH  16  17
ENDBRANCH  15  16
ENDBRANCH   9  15
ENDBRANCH   1   3
BRANCH   1  21
HETATM   21  C13 UNL     1      -2.802  51.341 -20.785  1.00  0.00     0.164 C 
BRANCH  21  22
HETATM   22  S1  UNL     1      -3.407  51.483 -22.489  1.00  0.00    -0.085 SA
BRANCH  22  23
HETATM   23  C14 UNL     1      -1.931  51.810 -23.310  1.00  0.00     0.161 A 
HETATM   24  N1  UNL     1      -1.644  51.630 -24.574  1.00  0.00    -0.320 N 
HETATM   25  C15 UNL     1      -0.313  52.012 -24.646  1.00  0.00     0.134 A 
ATOM     26  H1  UNL     1      -2.250  51.292 -25.322  1.00  0.00     0.169 HD
HETATM   27  N2  UNL     1       0.176  52.496 -23.494  1.00  0.00    -0.283 N 
HETATM   28  N3  UNL     1      -0.866  52.337 -22.660  1.00  0.00    -0.278 N 
ATOM     29  H2  UNL     1       1.099  52.883 -23.301  1.00  0.00     0.188 HD
HETATM   30  H26 UNL     1      -0.790  52.611 -21.688  1.00  0.00     0.189 HD
BRANCH  25  31
HETATM   31  C16 UNL     1       0.435  51.955 -25.897  1.00  0.00     0.031 A 
HETATM   32  C17 UNL     1       1.804  51.635 -25.832  1.00  0.00     0.017 A 
HETATM   33  C18 UNL     1       2.581  51.545 -26.990  1.00  0.00     0.001 A 
HETATM   34  C19 UNL     1       2.002  51.777 -28.233  1.00  0.00     0.002 A 
HETATM   35  C20 UNL     1       0.650  52.111 -28.315  1.00  0.00     0.025 A 
HETATM   36  C21 UNL     1      -0.134  52.206 -27.157  1.00  0.00     0.048 A 
HETATM   37 CL1  UNL     1      -1.779  52.699 -27.382  1.00  0.00    -0.083 Cl
ENDBRANCH  25  31
ENDBRANCH  22  23
ENDBRANCH  21  22
ENDBRANCH   1  21
TORSDOF 10
ENDMDL
MODEL 4
REMARK minimizedAffinity -8.1696701
REMARK CNNscore 0.21913901
REMARK CNNaffinity 6.70715523
REMARK  10 active torsions:
REMARK  status: ('A' for Active; 'I' for Inactive)
REMARK    1  A    between atoms: C2_2  and  C3_3 
REMARK    2  A    between atoms: C3_3  and  C4_4 
REMARK    3  A    between atoms: C4_4  and  O1_5 
REMARK    4  A    between atoms: O1_5  and  C5_6 
REMARK    5  A    between atoms: C5_6  and  C6_7 
REMARK    6  A    between atoms: C10_11  and  C12_13 
REMARK    7  A    between atoms: C12_13  and  C13_15 
REMARK    8  A    between atoms: C13_15  and  S1_16 
REMARK    9  A    between atoms: S1_16  and  C14_17 
REMARK   10  A    between atoms: C15_20  and  C16_21 
ROOT
HETATM    1  C12 UNL     1      -2.039  48.936 -20.339  1.00  0.00     0.171 C 
HETATM    2  O2  UNL     1      -0.830  48.728 -20.483  1.00  0.00    -0.294 OA
ENDROOT
BRANCH   1   3
HETATM    3  C10 UNL     1      -3.027  48.561 -21.464  1.00  0.00     0.129 C 
HETATM    4  C9  UNL     1      -2.334  48.429 -22.818  1.00  0.00     0.076 C 
HETATM    5  C8  UNL     1      -2.555  49.782 -23.476  1.00  0.00     0.141 C 
HETATM    6  C7  UNL     1      -2.630  49.684 -24.989  1.00  0.00     0.065 C 
HETATM    7  C22 UNL     1      -3.807  50.252 -22.810  1.00  0.00     0.279 C 
HETATM    8  C23 UNL     1      -1.451  50.763 -23.241  1.00  0.00     0.278 C 
HETATM    9  C6  UNL     1      -1.840  50.881 -25.493  1.00  0.00     0.157 C 
HETATM   10  O6  UNL     1      -0.991  51.278 -24.414  1.00  0.00    -0.313 OA
HETATM   11  O3  UNL     1      -4.048  49.535 -21.675  1.00  0.00    -0.301 OA
HETATM   12  O4  UNL     1      -4.521  51.165 -23.190  1.00  0.00    -0.264 OA
HETATM   13  O5  UNL     1      -1.018  51.080 -22.145  1.00  0.00    -0.264 OA
HETATM   14  C11 UNL     1      -3.705  47.253 -21.051  1.00  0.00     0.055 C 
BRANCH   9  15
HETATM   15  C5  UNL     1      -2.701  52.061 -25.959  1.00  0.00     0.200 C 
BRANCH  15  16
HETATM   16  O1  UNL     1      -1.888  53.115 -26.472  1.00  0.00    -0.389 OA
BRANCH  16  17
HETATM   17  C4  UNL     1      -1.006  52.724 -27.522  1.00  0.00     0.167 C 
BRANCH  17  18
HETATM   18  C3  UNL     1       0.465  52.953 -27.174  1.00  0.00     0.026 C 
BRANCH  18  19
HETATM   19  C2  UNL     1       1.390  51.792 -27.549  1.00  0.00    -0.002 C 
HETATM   20  C1  UNL     1       2.316  51.346 -26.427  1.00  0.00     0.005 C 
ENDBRANCH  18  19
ENDBRANCH  17  18
ENDBRANCH  16  17
ENDBRANCH  15  16
ENDBRANCH   9  15
ENDBRANCH   1   3
BRANCH   1  21
HETATM   21  C13 UNL     1      -2.649  49.520 -19.070  1.00  0.00     0.164 C 
BRANCH  21  22
HETATM   22  S1  UNL     1      -2.812  51.325 -19.154  1.00  0.00    -0.085 SA
BRANCH  22  23
HETATM   23  C14 UNL     1      -1.245  51.797 -18.624  1.00  0.00     0.161 A 
HETATM   24  N1  UNL     1      -0.556  51.343 -17.609  1.00  0.00    -0.320 N 
HETATM   25  C15 UNL     1       0.590  52.122 -17.640  1.00  0.00     0.134 A 
ATOM     26  H1  UNL     1      -0.802  50.599 -16.956  1.00  0.00     0.169 HD
HETATM   27  N2  UNL     1       0.649  52.960 -18.687  1.00  0.00    -0.283 N 
HETATM   28  N3  UNL     1      -0.536  52.746 -19.282  1.00  0.00    -0.278 N 
ATOM     29  H2  UNL     1       1.400  53.594 -18.959  1.00  0.00     0.188 HD
HETATM   30  H26 UNL     1      -0.789  53.260 -20.117  1.00  0.00     0.189 HD
BRANCH  25  31
HETATM   31  C16 UNL     1       1.653  51.962 -16.653  1.00  0.00     0.031 A 
HETATM   32  C17 UNL     1       2.843  52.689 -16.843  1.00  0.00     0.017 A 
HETATM   33  C18 UNL     1       3.898  52.601 -15.931  1.00  0.00     0.001 A 
HETATM   34  C19 UNL     1       3.781  51.780 -14.814  1.00  0.00     0.002 A 
HETATM   35  C20 UNL     1       2.615  51.040 -14.618  1.00  0.00     0.025 A 
HETATM   36  C21 UNL     1       1.555  51.123 -15.531  1.00  0.00     0.048 A 
HETATM   37 CL1  UNL     1       0.192  50.101 -15.218  1.00  0.00    -0.083 Cl
ENDBRANCH  25  31
ENDBRANCH  22  23
ENDBRANCH  21  22
ENDBRANCH   1  21
TORSDOF 10
ENDMDL
MODEL 5
REMARK minimizedAffinity -7.44338179
REMARK CNNscore 0.145555675
REMARK CNNaffinity 5.40009546
REMARK  10 active torsions:
REMARK  status: ('A' for Active; 'I' for Inactive)
REMARK    1  A    between atoms: C2_2  and  C3_3 
REMARK    2  A    between atoms: C3_3  and  C4_4 
REMARK    3  A    between atoms: C4_4  and  O1_5 
REMARK    4  A    between atoms: O1_5  and  C5_6 
REMARK    5  A    between atoms: C5_6  and  C6_7 
REMARK    6  A    between atoms: C10_11  and  C12_13 
REMARK    7  A    between atoms: C12_13  and  C13_15 
REMARK    8  A    between atoms: C13_15  and  S1_16 
REMARK    9  A    between atoms: S1_16  and  C14_17 
REMARK   10  A    between atoms: C15_20  and  C16_21 
ROOT
HETATM    1  C12 UNL     1       0.493  50.985 -15.197  1.00  0.00     0.171 C 
HETATM    2  O2  UNL     1       1.715  50.897 -15.356  1.00  0.00    -0.294 OA
ENDROOT
BRANCH   1   3
HETATM    3  C10 UNL     1      -0.452  49.994 -15.909  1.00  0.00     0.129 C 
HETATM    4  C9  UNL     1       0.091  49.553 -17.265  1.00  0.00     0.076 C 
HETATM    5  C8  UNL     1      -0.606  50.473 -18.256  1.00  0.00     0.141 C 
HETATM    6  C7  UNL     1      -0.815  49.815 -19.607  1.00  0.00     0.065 C 
HETATM    7  C22 UNL     1      -1.859  50.827 -17.524  1.00  0.00     0.279 C 
HETATM    8  C23 UNL     1       0.164  51.713 -18.584  1.00  0.00     0.278 C 
HETATM    9  C6  UNL     1      -0.492  50.901 -20.621  1.00  0.00     0.157 C 
HETATM   10  O6  UNL     1       0.310  51.861 -19.929  1.00  0.00    -0.313 OA
HETATM   11  O3  UNL     1      -1.740  50.538 -16.196  1.00  0.00    -0.301 OA
HETATM   12  O4  UNL     1      -2.855  51.332 -18.013  1.00  0.00    -0.264 OA
HETATM   13  O5  UNL     1       0.599  52.504 -17.762  1.00  0.00    -0.264 OA
HETATM   14  C11 UNL     1      -0.647  48.802 -14.969  1.00  0.00     0.055 C 
BRANCH   9  15
HETATM   15  C5  UNL     1      -1.719  51.577 -21.242  1.00  0.00     0.200 C 
BRANCH  15  16
HETATM   16  O1  UNL     1      -2.645  50.607 -21.729  1.00  0.00    -0.389 OA
BRANCH  16  17
HETATM   17  C4  UNL     1      -2.540  50.335 -23.124  1.00  0.00     0.167 C 
BRANCH  17  18
HETATM   18  C3  UNL     1      -3.001  48.923 -23.487  1.00  0.00     0.026 C 
BRANCH  18  19
HETATM   19  C2  UNL     1      -3.764  48.830 -24.812  1.00  0.00    -0.002 C 
HETATM   20  C1  UNL     1      -2.881  48.571 -26.023  1.00  0.00     0.005 C 
ENDBRANCH  18  19
ENDBRANCH  17  18
ENDBRANCH  16  17
ENDBRANCH  15  16
ENDBRANCH   9  15
ENDBRANCH   1   3
BRANCH   1  21
HETATM   21  C13 UNL     1      -0.168  52.014 -14.287  1.00  0.00     0.164 C 
BRANCH  21  22
HETATM   22  S1  UNL     1      -0.217  51.471 -12.557  1.00  0.00    -0.085 SA
BRANCH  22  23
HETATM   23  C14 UNL     1       0.850  52.619 -11.847  1.00  0.00     0.161 A 
HETATM   24  N1  UNL     1       2.110  52.473 -11.530  1.00  0.00    -0.320 N 
HETATM   25  C15 UNL     1       2.427  53.693 -10.953  1.00  0.00     0.134 A 
ATOM     26  H1  UNL     1       2.713  51.662 -11.672  1.00  0.00     0.169 HD
HETATM   27  N2  UNL     1       1.429  54.590 -10.996  1.00  0.00    -0.283 N 
HETATM   28  N3  UNL     1       0.435  53.874 -11.550  1.00  0.00    -0.278 N 
ATOM     29  H2  UNL     1       1.425  55.562 -10.687  1.00  0.00     0.188 HD
HETATM   30  H26 UNL     1      -0.473  54.294 -11.703  1.00  0.00     0.189 HD
BRANCH  25  31
HETATM   31  C16 UNL     1       3.760  53.972 -10.428  1.00  0.00     0.031 A 
HETATM   32  C17 UNL     1       4.434  52.933  -9.760  1.00  0.00     0.017 A 
HETATM   33  C18 UNL     1       5.721  53.119  -9.246  1.00  0.00     0.001 A 
HETATM   34  C19 UNL     1       6.352  54.350  -9.389  1.00  0.00     0.002 A 
HETATM   35  C20 UNL     1       5.692  55.396 -10.034  1.00  0.00     0.025 A 
HETATM   36  C21 UNL     1       4.401  55.216 -10.550  1.00  0.00     0.048 A 
HETATM   37 CL1  UNL     1       3.658  56.608 -11.264  1.00  0.00    -0.083 Cl
ENDBRANCH  25  31
ENDBRANCH  22  23
ENDBRANCH  21  22
ENDBRANCH   1  21
TORSDOF 10
ENDMDL
MODEL 6
REMARK minimizedAffinity -7.10075235
REMARK CNNscore 0.142197371
REMARK CNNaffinity 5.33727837
REMARK  10 active torsions:
REMARK  status: ('A' for Active; 'I' for Inactive)
REMARK    1  A    between atoms: C2_2  and  C3_3 
REMARK    2  A    between atoms: C3_3  and  C4_4 
REMARK    3  A    between atoms: C4_4  and  O1_5 
REMARK    4  A    between atoms: O1_5  and  C5_6 
REMARK    5  A    between atoms: C5_6  and  C6_7 
REMARK    6  A    between atoms: C10_11  and  C12_13 
REMARK    7  A    between atoms: C12_13  and  C13_15 
REMARK    8  A    between atoms: C13_15  and  S1_16 
REMARK    9  A    between atoms: S1_16  and  C14_17 
REMARK   10  A    between atoms: C15_20  and  C16_21 
ROOT
HETATM    1  C12 UNL     1      -1.446  50.972 -17.630  1.00  0.00     0.171 C 
HETATM    2  O2  UNL     1      -2.474  51.340 -17.051  1.00  0.00    -0.294 OA
ENDROOT
BRANCH   1   3
HETATM    3  C10 UNL     1      -1.211  51.357 -19.106  1.00  0.00     0.129 C 
HETATM    4  C9  UNL     1      -2.521  51.524 -19.873  1.00  0.00     0.076 C 
HETATM    5  C8  UNL     1      -2.717  50.181 -20.560  1.00  0.00     0.141 C 
HETATM    6  C7  UNL     1      -3.467  50.307 -21.873  1.00  0.00     0.065 C 
HETATM    7  C22 UNL     1      -1.314  49.683 -20.677  1.00  0.00     0.279 C 
HETATM    8  C23 UNL     1      -3.542  49.209 -19.777  1.00  0.00     0.278 C 
HETATM    9  C6  UNL     1      -4.428  49.131 -21.886  1.00  0.00     0.157 C 
HETATM   10  O6  UNL     1      -4.571  48.723 -20.523  1.00  0.00    -0.313 OA
HETATM   11  O3  UNL     1      -0.485  50.375 -19.843  1.00  0.00    -0.301 OA
HETATM   12  O4  UNL     1      -0.936  48.768 -21.390  1.00  0.00    -0.264 OA
HETATM   13  O5  UNL     1      -3.323  48.876 -18.623  1.00  0.00    -0.264 OA
HETATM   14  C11 UNL     1      -0.391  52.648 -19.111  1.00  0.00     0.055 C 
BRANCH   9  15
HETATM   15  C5  UNL     1      -3.978  47.949 -22.753  1.00  0.00     0.200 C 
BRANCH  15  16
HETATM   16  O1  UNL     1      -3.225  48.400 -23.878  1.00  0.00    -0.389 OA
BRANCH  16  17
HETATM   17  C4  UNL     1      -3.975  48.517 -25.084  1.00  0.00     0.167 C 
BRANCH  17  18
HETATM   18  C3  UNL     1      -3.095  48.481 -26.333  1.00  0.00     0.026 C 
BRANCH  18  19
HETATM   19  C2  UNL     1      -3.736  49.109 -27.575  1.00  0.00    -0.002 C 
HETATM   20  C1  UNL     1      -4.825  48.258 -28.211  1.00  0.00     0.005 C 
ENDBRANCH  18  19
ENDBRANCH  17  18
ENDBRANCH  16  17
ENDBRANCH  15  16
ENDBRANCH   9  15
ENDBRANCH   1   3
BRANCH   1  21
HETATM   21  C13 UNL     1      -0.338  50.172 -16.955  1.00  0.00     0.164 C 
BRANCH  21  22
HETATM   22  S1  UNL     1       1.063  51.214 -16.465  1.00  0.00    -0.085 SA
BRANCH  22  23
HETATM   23  C14 UNL     1       0.532  51.728 -14.912  1.00  0.00     0.161 A 
HETATM   24  N1  UNL     1      -0.611  51.491 -14.322  1.00  0.00    -0.320 N 
HETATM   25  C15 UNL     1      -0.496  52.192 -13.131  1.00  0.00     0.134 A 
ATOM     26  H1  UNL     1      -1.395  50.929 -14.655  1.00  0.00     0.169 HD
HETATM   27  N2  UNL     1       0.706  52.763 -12.952  1.00  0.00    -0.283 N 
HETATM   28  N3  UNL     1       1.330  52.468 -14.105  1.00  0.00    -0.278 N 
ATOM     29  H2  UNL     1       1.055  53.285 -12.148  1.00  0.00     0.188 HD
HETATM   30  H26 UNL     1       2.277  52.786 -14.270  1.00  0.00     0.189 HD
BRANCH  25  31
HETATM   31  C16 UNL     1      -1.574  52.220 -12.149  1.00  0.00     0.031 A 
HETATM   32  C17 UNL     1      -1.227  52.137 -10.787  1.00  0.00     0.017 A 
HETATM   33  C18 UNL     1      -2.204  52.175  -9.789  1.00  0.00     0.001 A 
HETATM   34  C19 UNL     1      -3.546  52.292 -10.136  1.00  0.00     0.002 A 
HETATM   35  C20 UNL     1      -3.909  52.358 -11.481  1.00  0.00     0.025 A 
HETATM   36  C21 UNL     1      -2.934  52.319 -12.487  1.00  0.00     0.048 A 
HETATM   37 CL1  UNL     1      -3.514  52.335 -14.119  1.00  0.00    -0.083 Cl
ENDBRANCH  25  31
ENDBRANCH  22  23
ENDBRANCH  21  22
ENDBRANCH   1  21
TORSDOF 10
ENDMDL
MODEL 7
REMARK minimizedAffinity -8.01800251
REMARK CNNscore 0.140916824
REMARK CNNaffinity 6.62350225
REMARK  10 active torsions:
REMARK  status: ('A' for Active; 'I' for Inactive)
REMARK    1  A    between atoms: C2_2  and  C3_3 
REMARK    2  A    between atoms: C3_3  and  C4_4 
REMARK    3  A    between atoms: C4_4  and  O1_5 
REMARK    4  A    between atoms: O1_5  and  C5_6 
REMARK    5  A    between atoms: C5_6  and  C6_7 
REMARK    6  A    between atoms: C10_11  and  C12_13 
REMARK    7  A    between atoms: C12_13  and  C13_15 
REMARK    8  A    between atoms: C13_15  and  S1_16 
REMARK    9  A    between atoms: S1_16  and  C14_17 
REMARK   10  A    between atoms: C15_20  and  C16_21 
ROOT
HETATM    1  C12 UNL     1      -3.645  49.184 -21.872  1.00  0.00     0.171 C 
HETATM    2  O2  UNL     1      -4.241  50.114 -21.318  1.00  0.00    -0.294 OA
ENDROOT
BRANCH   1   3
HETATM    3  C10 UNL     1      -2.468  48.487 -21.159  1.00  0.00     0.129 C 
HETATM    4  C9  UNL     1      -2.693  48.373 -19.653  1.00  0.00     0.076 C 
HETATM    5  C8  UNL     1      -1.949  49.569 -19.079  1.00  0.00     0.141 C 
HETATM    6  C7  UNL     1      -1.413  49.302 -17.685  1.00  0.00     0.065 C 
HETATM    7  C22 UNL     1      -0.907  49.816 -20.121  1.00  0.00     0.279 C 
HETATM    8  C23 UNL     1      -2.796  50.789 -18.903  1.00  0.00     0.278 C 
HETATM    9  C6  UNL     1      -1.681  50.585 -16.916  1.00  0.00     0.157 C 
HETATM   10  O6  UNL     1      -2.711  51.269 -17.633  1.00  0.00    -0.313 OA
HETATM   11  O3  UNL     1      -1.229  49.184 -21.286  1.00  0.00    -0.301 OA
HETATM   12  O4  UNL     1       0.091  50.505 -19.986  1.00  0.00    -0.264 OA
HETATM   13  O5  UNL     1      -3.471  51.304 -19.780  1.00  0.00    -0.264 OA
HETATM   14  C11 UNL     1      -2.299  47.111 -21.806  1.00  0.00     0.055 C 
BRANCH   9  15
HETATM   15  C5  UNL     1      -0.456  51.492 -16.745  1.00  0.00     0.200 C 
BRANCH  15  16
HETATM   16  O1  UNL     1       0.132  51.318 -15.456  1.00  0.00    -0.389 OA
BRANCH  16  17
HETATM   17  C4  UNL     1       1.385  51.974 -15.284  1.00  0.00     0.167 C 
BRANCH  17  18
HETATM   18  C3  UNL     1       2.006  52.421 -16.608  1.00  0.00     0.026 C 
BRANCH  18  19
HETATM   19  C2  UNL     1       3.394  53.055 -16.472  1.00  0.00    -0.002 C 
HETATM   20  C1  UNL     1       4.471  52.096 -15.989  1.00  0.00     0.005 C 
ENDBRANCH  18  19
ENDBRANCH  17  18
ENDBRANCH  16  17
ENDBRANCH  15  16
ENDBRANCH   9  15
ENDBRANCH   1   3
BRANCH   1  21
HETATM   21  C13 UNL     1      -4.028  48.633 -23.241  1.00  0.00     0.164 C 
BRANCH  21  22
HETATM   22  S1  UNL     1      -5.065  49.787 -24.181  1.00  0.00    -0.085 SA
BRANCH  22  23
HETATM   23  C14 UNL     1      -3.851  50.749 -24.929  1.00  0.00     0.161 A 
HETATM   24  N1  UNL     1      -2.629  50.412 -25.253  1.00  0.00    -0.320 N 
HETATM   25  C15 UNL     1      -2.108  51.591 -25.763  1.00  0.00     0.134 A 
ATOM     26  H1  UNL     1      -2.171  49.505 -25.154  1.00  0.00     0.169 HD
HETATM   27  N2  UNL     1      -3.001  52.591 -25.838  1.00  0.00    -0.283 N 
HETATM   28  N3  UNL     1      -4.091  52.034 -25.284  1.00  0.00    -0.278 N 
ATOM     29  H2  UNL     1      -2.882  53.531 -26.217  1.00  0.00     0.188 HD
HETATM   30  H26 UNL     1      -4.946  52.568 -25.189  1.00  0.00     0.189 HD
BRANCH  25  31
HETATM   31  C16 UNL     1      -0.733  51.679 -26.241  1.00  0.00     0.031 A 
HETATM   32  C17 UNL     1      -0.504  51.522 -27.621  1.00  0.00     0.017 A 
HETATM   33  C18 UNL     1       0.785  51.611 -28.155  1.00  0.00     0.001 A 
HETATM   34  C19 UNL     1       1.867  51.855 -27.315  1.00  0.00     0.002 A 
HETATM   35  C20 UNL     1       1.660  51.997 -25.943  1.00  0.00     0.025 A 
HETATM   36  C21 UNL     1       0.371  51.907 -25.402  1.00  0.00     0.048 A 
HETATM   37 CL1  UNL     1       0.252  52.028 -23.679  1.00  0.00    -0.083 Cl
ENDBRANCH  25  31
ENDBRANCH  22  23
ENDBRANCH  21  22
ENDBRANCH   1  21
TORSDOF 10
ENDMDL
MODEL 8
REMARK minimizedAffinity -7.98582268
REMARK CNNscore 0.117436096
REMARK CNNaffinity 6.39028358
REMARK  10 active torsions:
REMARK  status: ('A' for Active; 'I' for Inactive)
REMARK    1  A    between atoms: C2_2  and  C3_3 
REMARK    2  A    between atoms: C3_3  and  C4_4 
REMARK    3  A    between atoms: C4_4  and  O1_5 
REMARK    4  A    between atoms: O1_5  and  C5_6 
REMARK    5  A    between atoms: C5_6  and  C6_7 
REMARK    6  A    between atoms: C10_11  and  C12_13 
REMARK    7  A    between atoms: C12_13  and  C13_15 
REMARK    8  A    between atoms: C13_15  and  S1_16 
REMARK    9  A    between atoms: S1_16  and  C14_17 
REMARK   10  A    between atoms: C15_20  and  C16_21 
ROOT
HETATM    1  C12 UNL     1      -4.100  49.709 -21.908  1.00  0.00     0.171 C 
HETATM    2  O2  UNL     1      -4.318  50.808 -21.387  1.00  0.00    -0.294 OA
ENDROOT
BRANCH   1   3
HETATM    3  C10 UNL     1      -3.889  49.606 -23.434  1.00  0.00     0.129 C 
HETATM    4  C9  UNL     1      -2.410  49.539 -23.807  1.00  0.00     0.076 C 
HETATM    5  C8  UNL     1      -2.054  50.977 -24.151  1.00  0.00     0.141 C 
HETATM    6  C7  UNL     1      -0.954  51.067 -25.193  1.00  0.00     0.065 C 
HETATM    7  C22 UNL     1      -3.375  51.532 -24.576  1.00  0.00     0.279 C 
HETATM    8  C23 UNL     1      -1.514  51.765 -23.000  1.00  0.00     0.278 C 
HETATM    9  C6  UNL     1      -0.057  52.196 -24.713  1.00  0.00     0.157 C 
HETATM   10  O6  UNL     1      -0.324  52.346 -23.316  1.00  0.00    -0.313 OA
HETATM   11  O3  UNL     1      -4.393  50.727 -24.157  1.00  0.00    -0.301 OA
HETATM   12  O4  UNL     1      -3.551  52.572 -25.189  1.00  0.00    -0.264 OA
HETATM   13  O5  UNL     1      -2.065  51.891 -21.918  1.00  0.00    -0.264 OA
HETATM   14  C11 UNL     1      -4.643  48.363 -23.910  1.00  0.00     0.055 C 
BRANCH   9  15
HETATM   15  C5  UNL     1      -0.264  53.529 -25.442  1.00  0.00     0.200 C 
BRANCH  15  16
HETATM   16  O1  UNL     1       0.578  53.618 -26.590  1.00  0.00    -0.389 OA
BRANCH  16  17
HETATM   17  C4  UNL     1       0.058  52.984 -27.757  1.00  0.00     0.167 C 
BRANCH  17  18
HETATM   18  C3  UNL     1       0.945  51.842 -28.253  1.00  0.00     0.026 C 
BRANCH  18  19
HETATM   19  C2  UNL     1       2.383  51.885 -27.729  1.00  0.00    -0.002 C 
HETATM   20  C1  UNL     1       2.601  51.105 -26.442  1.00  0.00     0.005 C 
ENDBRANCH  18  19
ENDBRANCH  17  18
ENDBRANCH  16  17
ENDBRANCH  15  16
ENDBRANCH   9  15
ENDBRANCH   1   3
BRANCH   1  21
HETATM   21  C13 UNL     1      -3.982  48.410 -21.120  1.00  0.00     0.164 C 
BRANCH  21  22
HETATM   22  S1  UNL     1      -2.349  47.641 -21.301  1.00  0.00    -0.085 SA
BRANCH  22  23
HETATM   23  C14 UNL     1      -1.427  48.630 -20.239  1.00  0.00     0.161 A 
HETATM   24  N1  UNL     1      -1.221  48.478 -18.956  1.00  0.00    -0.320 N 
HETATM   25  C15 UNL     1      -0.461  49.591 -18.630  1.00  0.00     0.134 A 
ATOM     26  H1  UNL     1      -1.541  47.726 -18.345  1.00  0.00     0.169 HD
HETATM   27  N2  UNL     1      -0.132  50.351 -19.686  1.00  0.00    -0.283 N 
HETATM   28  N3  UNL     1      -0.774  49.729 -20.690  1.00  0.00    -0.278 N 
ATOM     29  H2  UNL     1       0.454  51.185 -19.719  1.00  0.00     0.188 HD
HETATM   30  H26 UNL     1      -0.720  50.090 -21.634  1.00  0.00     0.189 HD
BRANCH  25  31
HETATM   31  C16 UNL     1      -0.009  49.840 -17.266  1.00  0.00     0.031 A 
HETATM   32  C17 UNL     1      -0.169  48.809 -16.321  1.00  0.00     0.017 A 
HETATM   33  C18 UNL     1       0.255  48.967 -14.999  1.00  0.00     0.001 A 
HETATM   34  C19 UNL     1       0.843  50.162 -14.599  1.00  0.00     0.002 A 
HETATM   35  C20 UNL     1       0.995  51.201 -15.518  1.00  0.00     0.025 A 
HETATM   36  C21 UNL     1       0.569  51.048 -16.844  1.00  0.00     0.048 A 
HETATM   37 CL1  UNL     1       0.744  52.433 -17.870  1.00  0.00    -0.083 Cl
ENDBRANCH  25  31
ENDBRANCH  22  23
ENDBRANCH  21  22
ENDBRANCH   1  21
TORSDOF 10
ENDMDL
MODEL 9
REMARK minimizedAffinity -7.41595793
REMARK CNNscore 0.113395497
REMARK CNNaffinity 5.83874846
REMARK  10 active torsions:
REMARK  status: ('A' for Active; 'I' for Inactive)
REMARK    1  A    between atoms: C2_2  and  C3_3 
REMARK    2  A    between atoms: C3_3  and  C4_4 
REMARK    3  A    between atoms: C4_4  and  O1_5 
REMARK    4  A    between atoms: O1_5  and  C5_6 
REMARK    5  A    between atoms: C5_6  and  C6_7 
REMARK    6  A    between atoms: C10_11  and  C12_13 
REMARK    7  A    between atoms: C12_13  and  C13_15 
REMARK    8  A    between atoms: C13_15  and  S1_16 
REMARK    9  A    between atoms: S1_16  and  C14_17 
REMARK   10  A    between atoms: C15_20  and  C16_21 
ROOT
HETATM    1  C12 UNL     1      -3.863  49.608 -23.581  1.00  0.00     0.171 C 
HETATM    2  O2  UNL     1      -2.919  48.830 -23.410  1.00  0.00    -0.294 OA
ENDROOT
BRANCH   1   3
HETATM    3  C10 UNL     1      -3.863  50.986 -22.886  1.00  0.00     0.129 C 
HETATM    4  C9  UNL     1      -2.451  51.531 -22.686  1.00  0.00     0.076 C 
HETATM    5  C8  UNL     1      -2.105  51.138 -21.258  1.00  0.00     0.141 C 
HETATM    6  C7  UNL     1      -1.155  52.122 -20.602  1.00  0.00     0.065 C 
HETATM    7  C22 UNL     1      -3.456  51.045 -20.625  1.00  0.00     0.279 C 
HETATM    8  C23 UNL     1      -1.393  49.828 -21.140  1.00  0.00     0.278 C 
HETATM    9  C6  UNL     1      -0.170  51.256 -19.834  1.00  0.00     0.157 C 
HETATM   10  O6  UNL     1      -0.242  49.956 -20.426  1.00  0.00    -0.313 OA
HETATM   11  O3  UNL     1      -4.430  50.966 -21.577  1.00  0.00    -0.301 OA
HETATM   12  O4  UNL     1      -3.684  51.014 -19.428  1.00  0.00    -0.264 OA
HETATM   13  O5  UNL     1      -1.789  48.772 -21.606  1.00  0.00    -0.264 OA
HETATM   14  C11 UNL     1      -4.709  51.926 -23.748  1.00  0.00     0.055 C 
BRANCH   9  15
HETATM   15  C5  UNL     1      -0.437  51.172 -18.326  1.00  0.00     0.200 C 
BRANCH  15  16
HETATM   16  O1  UNL     1      -0.215  49.849 -17.842  1.00  0.00    -0.389 OA
BRANCH  16  17
HETATM   17  C4  UNL     1      -1.393  49.166 -17.420  1.00  0.00     0.167 C 
BRANCH  17  18
HETATM   18  C3  UNL     1      -1.807  49.527 -15.993  1.00  0.00     0.026 C 
BRANCH  18  19
HETATM   19  C2  UNL     1      -2.961  50.530 -15.906  1.00  0.00    -0.002 C 
HETATM   20  C1  UNL     1      -3.046  51.269 -14.579  1.00  0.00     0.005 C 
ENDBRANCH  18  19
ENDBRANCH  17  18
ENDBRANCH  16  17
ENDBRANCH  15  16
ENDBRANCH   9  15
ENDBRANCH   1   3
BRANCH   1  21
HETATM   21  C13 UNL     1      -5.049  49.310 -24.491  1.00  0.00     0.164 C 
BRANCH  21  22
HETATM   22  S1  UNL     1      -4.543  48.526 -26.046  1.00  0.00    -0.085 SA
BRANCH  22  23
HETATM   23  C14 UNL     1      -3.359  49.653 -26.584  1.00  0.00     0.161 A 
HETATM   24  N1  UNL     1      -2.064  49.622 -26.404  1.00  0.00    -0.320 N 
HETATM   25  C15 UNL     1      -1.641  50.800 -27.001  1.00  0.00     0.134 A 
ATOM     26  H1  UNL     1      -1.503  48.908 -25.938  1.00  0.00     0.169 HD
HETATM   27  N2  UNL     1      -2.623  51.484 -27.608  1.00  0.00    -0.283 N 
HETATM   28  N3  UNL     1      -3.704  50.743 -27.310  1.00  0.00    -0.278 N 
ATOM     29  H2  UNL     1      -2.564  52.344 -28.153  1.00  0.00     0.188 HD
HETATM   30  H26 UNL     1      -4.622  51.025 -27.632  1.00  0.00     0.189 HD
BRANCH  25  31
HETATM   31  C16 UNL     1      -0.235  51.189 -27.020  1.00  0.00     0.031 A 
HETATM   32  C17 UNL     1       0.389  51.342 -28.272  1.00  0.00     0.017 A 
HETATM   33  C18 UNL     1       1.729  51.730 -28.370  1.00  0.00     0.001 A 
HETATM   34  C19 UNL     1       2.467  51.966 -27.216  1.00  0.00     0.002 A 
HETATM   35  C20 UNL     1       1.870  51.803 -25.966  1.00  0.00     0.025 A 
HETATM   36  C21 UNL     1       0.528  51.412 -25.862  1.00  0.00     0.048 A 
HETATM   37 CL1  UNL     1      -0.079  51.172 -24.257  1.00  0.00    -0.083 Cl
ENDBRANCH  25  31
ENDBRANCH  22  23
ENDBRANCH  21  22
ENDBRANCH   1  21
TORSDOF 10
ENDMDL
