MODEL 1
REMARK minimizedAffinity -9.03804588
REMARK  12 active torsions:
REMARK  status: ('A' for Active; 'I' for Inactive)
REMARK    1  A    between atoms: C2_2  and  C4_4 
REMARK    2  A    between atoms: C13_13  and  C14_14 
REMARK    3  A    between atoms: C14_14  and  C16_16 
REMARK    4  A    between atoms: C16_16  and  C17_17 
REMARK    5  A    between atoms: C17_17  and  C18_18 
REMARK    6  A    between atoms: C19_19  and  C21_21 
REMARK    7  A    between atoms: C21_21  and  O2_23 
REMARK    8  A    between atoms: C27_29  and  C28_30 
REMARK    9  A    between atoms: C28_30  and  C29_31 
REMARK   10  A    between atoms: C29_31  and  C30_32 
REMARK   11  A    between atoms: C30_32  and  O4_34 
REMARK   12  A    between atoms: O4_34  and  C31_35 
ROOT
HETATM    1  C4  UNL     1      -0.881  51.484 -18.683  1.00  0.00     0.022 C 
HETATM    2  C5  UNL     1      -2.249  51.006 -18.170  1.00  0.00     0.010 C 
HETATM    3  C6  UNL     1      -3.308  51.253 -19.230  1.00  0.00     0.007 C 
HETATM    4  C7  UNL     1      -3.118  50.328 -20.446  1.00  0.00     0.004 C 
HETATM    5  C8  UNL     1      -1.668  50.367 -21.012  1.00  0.00    -0.027 A 
HETATM    6  C9  UNL     1      -1.475  50.315 -22.555  1.00  0.00     0.011 C 
HETATM    7  C10 UNL     1      -2.699  50.178 -23.475  1.00  0.00     0.011 C 
HETATM    8  C11 UNL     1      -3.930  49.629 -22.764  1.00  0.00    -0.032 C 
HETATM    9  C12 UNL     1      -3.654  48.150 -22.397  1.00  0.00     0.016 C 
HETATM   10  C13 UNL     1      -5.267  49.766 -23.559  1.00  0.00    -0.002 C 
HETATM   11  C22 UNL     1      -6.346  49.817 -22.451  1.00  0.00     0.006 C 
HETATM   12  C23 UNL     1      -5.617  50.132 -21.132  1.00  0.00     0.011 C 
HETATM   13  C24 UNL     1      -4.195  50.566 -21.534  1.00  0.00    -0.032 C 
HETATM   14  C25 UNL     1      -4.252  52.090 -21.880  1.00  0.00     0.016 C 
HETATM   15  C26 UNL     1      -0.689  49.444 -20.297  1.00  0.00     0.022 A 
HETATM   16  C27 UNL     1      -0.523  50.926 -20.082  1.00  0.00    -0.024 A 
ENDROOT
BRANCH  10  17
HETATM   17  C14 UNL     1      -5.577  48.839 -24.774  1.00  0.00    -0.014 C 
HETATM   18  C15 UNL     1      -6.601  47.780 -24.322  1.00  0.00     0.010 C 
BRANCH  17  19
HETATM   19  C16 UNL     1      -4.362  48.142 -25.440  1.00  0.00     0.008 C 
BRANCH  19  20
HETATM   20  C17 UNL     1      -3.916  48.794 -26.757  1.00  0.00     0.028 C 
BRANCH  20  21
HETATM   21  C18 UNL     1      -2.474  49.226 -26.693  1.00  0.00    -0.013 C 
HETATM   22  C19 UNL     1      -1.949  50.449 -26.910  1.00  0.00     0.008 C 
HETATM   23  C20 UNL     1      -0.487  50.726 -26.707  1.00  0.00     0.055 C 
BRANCH  22  24
HETATM   24  C21 UNL     1      -2.726  51.635 -27.336  1.00  0.00     0.171 C 
HETATM   25  O1  UNL     1      -2.809  52.682 -26.721  1.00  0.00    -0.646 OA
BRANCH  24  26
HETATM   26  O2  UNL     1      -3.276  51.504 -28.553  1.00  0.00    -0.773 OA
HETATM   27  H32 UNL     1      -3.713  52.366 -28.702  1.00  0.00     0.167 HD
ENDBRANCH  24  26
ENDBRANCH  22  24
ENDBRANCH  20  21
ENDBRANCH  19  20
ENDBRANCH  17  19
ENDBRANCH  10  17
BRANCH  16  28
HETATM   28  C28 UNL     1       0.601  51.743 -20.749  1.00  0.00     0.020 C 
BRANCH  28  29
HETATM   29  C29 UNL     1       0.385  53.243 -20.886  1.00  0.00     0.112 C 
BRANCH  29  30
HETATM   30  C30 UNL     1       1.229  53.823 -21.993  1.00  0.00     0.258 C 
HETATM   31  O3  UNL     1       1.916  54.828 -21.875  1.00  0.00    -0.265 OA
BRANCH  30  32
HETATM   32  O4  UNL     1       1.095  53.090 -23.132  1.00  0.00    -0.322 OA
BRANCH  32  33
HETATM   33  C31 UNL     1      -0.121  53.297 -23.866  1.00  0.00     0.174 C 
HETATM   34  C32 UNL     1       0.163  53.997 -25.182  1.00  0.00     0.034 C 
ENDBRANCH  32  33
ENDBRANCH  30  32
ENDBRANCH  29  30
ENDBRANCH  28  29
ENDBRANCH  16  28
BRANCH   1  35
HETATM   35  C2  UNL     1       0.190  51.281 -17.610  1.00  0.00    -0.088 C 
HETATM   36  C1  UNL     1       1.069  52.254 -17.312  1.00  0.00     0.014 C 
HETATM   37  C3  UNL     1       0.239  49.966 -16.880  1.00  0.00     0.043 C 
ENDBRANCH   1  35
TORSDOF 12
ENDMDL
MODEL 2
REMARK minimizedAffinity -9.00438976
REMARK  12 active torsions:
REMARK  status: ('A' for Active; 'I' for Inactive)
REMARK    1  A    between atoms: C2_2  and  C4_4 
REMARK    2  A    between atoms: C13_13  and  C14_14 
REMARK    3  A    between atoms: C14_14  and  C16_16 
REMARK    4  A    between atoms: C16_16  and  C17_17 
REMARK    5  A    between atoms: C17_17  and  C18_18 
REMARK    6  A    between atoms: C19_19  and  C21_21 
REMARK    7  A    between atoms: C21_21  and  O2_23 
REMARK    8  A    between atoms: C27_29  and  C28_30 
REMARK    9  A    between atoms: C28_30  and  C29_31 
REMARK   10  A    between atoms: C29_31  and  C30_32 
REMARK   11  A    between atoms: C30_32  and  O4_34 
REMARK   12  A    between atoms: O4_34  and  C31_35 
ROOT
HETATM    1  C4  UNL     1      -0.985  51.413 -18.749  1.00  0.00     0.022 C 
HETATM    2  C5  UNL     1      -2.386  50.929 -18.346  1.00  0.00     0.010 C 
HETATM    3  C6  UNL     1      -3.365  51.194 -19.477  1.00  0.00     0.007 C 
HETATM    4  C7  UNL     1      -3.085  50.287 -20.690  1.00  0.00     0.004 C 
HETATM    5  C8  UNL     1      -1.597  50.332 -21.146  1.00  0.00    -0.027 A 
HETATM    6  C9  UNL     1      -1.291  50.303 -22.671  1.00  0.00     0.011 C 
HETATM    7  C10 UNL     1      -2.444  50.182 -23.681  1.00  0.00     0.011 C 
HETATM    8  C11 UNL     1      -3.724  49.624 -23.071  1.00  0.00    -0.032 C 
HETATM    9  C12 UNL     1      -3.476  48.139 -22.707  1.00  0.00     0.016 C 
HETATM   10  C13 UNL     1      -4.999  49.774 -23.961  1.00  0.00    -0.002 C 
HETATM   11  C22 UNL     1      -6.156  49.810 -22.935  1.00  0.00     0.006 C 
HETATM   12  C23 UNL     1      -5.527  50.104 -21.561  1.00  0.00     0.011 C 
HETATM   13  C24 UNL     1      -4.079  50.542 -21.851  1.00  0.00    -0.032 C 
HETATM   14  C25 UNL     1      -4.110  52.071 -22.177  1.00  0.00     0.016 C 
HETATM   15  C26 UNL     1      -0.674  49.397 -20.375  1.00  0.00     0.022 A 
HETATM   16  C27 UNL     1      -0.524  50.876 -20.126  1.00  0.00    -0.024 A 
ENDROOT
BRANCH  10  17
HETATM   17  C14 UNL     1      -5.219  48.866 -25.209  1.00  0.00    -0.014 C 
HETATM   18  C15 UNL     1      -6.154  47.709 -24.805  1.00  0.00     0.010 C 
BRANCH  17  19
HETATM   19  C16 UNL     1      -3.944  48.296 -25.884  1.00  0.00     0.008 C 
BRANCH  19  20
HETATM   20  C17 UNL     1      -3.960  48.383 -27.417  1.00  0.00     0.028 C 
BRANCH  20  21
HETATM   21  C18 UNL     1      -5.333  48.097 -27.967  1.00  0.00    -0.013 C 
HETATM   22  C19 UNL     1      -5.745  48.102 -29.252  1.00  0.00     0.008 C 
HETATM   23  C20 UNL     1      -7.139  47.694 -29.634  1.00  0.00     0.055 C 
BRANCH  22  24
HETATM   24  C21 UNL     1      -4.895  48.473 -30.407  1.00  0.00     0.171 C 
HETATM   25  O1  UNL     1      -4.583  47.730 -31.320  1.00  0.00    -0.646 OA
BRANCH  24  26
HETATM   26  O2  UNL     1      -4.561  49.772 -30.429  1.00  0.00    -0.773 OA
HETATM   27  H32 UNL     1      -4.044  49.862 -31.254  1.00  0.00     0.167 HD
ENDBRANCH  24  26
ENDBRANCH  22  24
ENDBRANCH  20  21
ENDBRANCH  19  20
ENDBRANCH  17  19
ENDBRANCH  10  17
BRANCH  16  28
HETATM   28  C28 UNL     1       0.646  51.701 -20.696  1.00  0.00     0.020 C 
BRANCH  28  29
HETATM   29  C29 UNL     1       0.452  53.207 -20.799  1.00  0.00     0.112 C 
BRANCH  29  30
HETATM   30  C30 UNL     1       1.171  53.776 -21.995  1.00  0.00     0.258 C 
HETATM   31  O3  UNL     1       1.770  54.842 -21.991  1.00  0.00    -0.265 OA
BRANCH  30  32
HETATM   32  O4  UNL     1       1.037  52.953 -23.071  1.00  0.00    -0.322 OA
BRANCH  32  33
HETATM   33  C31 UNL     1       0.019  53.322 -24.014  1.00  0.00     0.174 C 
HETATM   34  C32 UNL     1       0.526  53.164 -25.435  1.00  0.00     0.034 C 
ENDBRANCH  32  33
ENDBRANCH  30  32
ENDBRANCH  29  30
ENDBRANCH  28  29
ENDBRANCH  16  28
BRANCH   1  35
HETATM   35  C2  UNL     1       0.004  51.192 -17.603  1.00  0.00    -0.088 C 
HETATM   36  C1  UNL     1      -0.003  50.053 -16.889  1.00  0.00     0.014 C 
HETATM   37  C3  UNL     1       1.000  52.276 -17.293  1.00  0.00     0.043 C 
ENDBRANCH   1  35
TORSDOF 12
ENDMDL
MODEL 3
REMARK minimizedAffinity -8.99826336
REMARK  12 active torsions:
REMARK  status: ('A' for Active; 'I' for Inactive)
REMARK    1  A    between atoms: C2_2  and  C4_4 
REMARK    2  A    between atoms: C13_13  and  C14_14 
REMARK    3  A    between atoms: C14_14  and  C16_16 
REMARK    4  A    between atoms: C16_16  and  C17_17 
REMARK    5  A    between atoms: C17_17  and  C18_18 
REMARK    6  A    between atoms: C19_19  and  C21_21 
REMARK    7  A    between atoms: C21_21  and  O2_23 
REMARK    8  A    between atoms: C27_29  and  C28_30 
REMARK    9  A    between atoms: C28_30  and  C29_31 
REMARK   10  A    between atoms: C29_31  and  C30_32 
REMARK   11  A    between atoms: C30_32  and  O4_34 
REMARK   12  A    between atoms: O4_34  and  C31_35 
ROOT
HETATM    1  C4  UNL     1      -2.563  49.597 -25.178  1.00  0.00     0.022 C 
HETATM    2  C5  UNL     1      -3.657  48.822 -24.427  1.00  0.00     0.010 C 
HETATM    3  C6  UNL     1      -3.079  48.224 -23.155  1.00  0.00     0.007 C 
HETATM    4  C7  UNL     1      -2.739  49.315 -22.122  1.00  0.00     0.004 C 
HETATM    5  C8  UNL     1      -1.859  50.454 -22.716  1.00  0.00    -0.027 A 
HETATM    6  C9  UNL     1      -0.736  51.059 -21.826  1.00  0.00     0.011 C 
HETATM    7  C10 UNL     1      -0.551  50.563 -20.383  1.00  0.00     0.011 C 
HETATM    8  C11 UNL     1      -1.788  49.873 -19.820  1.00  0.00    -0.032 C 
HETATM    9  C12 UNL     1      -2.894  50.941 -19.639  1.00  0.00     0.016 C 
HETATM   10  C13 UNL     1      -1.555  49.082 -18.494  1.00  0.00    -0.002 C 
HETATM   11  C22 UNL     1      -2.647  47.986 -18.527  1.00  0.00     0.006 C 
HETATM   12  C23 UNL     1      -3.158  47.909 -19.977  1.00  0.00     0.011 C 
HETATM   13  C24 UNL     1      -2.154  48.720 -20.817  1.00  0.00    -0.032 C 
HETATM   14  C25 UNL     1      -0.965  47.767 -21.172  1.00  0.00     0.016 C 
HETATM   15  C26 UNL     1      -2.643  51.541 -23.440  1.00  0.00     0.022 A 
HETATM   16  C27 UNL     1      -1.809  50.612 -24.284  1.00  0.00    -0.024 A 
ENDROOT
BRANCH  10  17
HETATM   17  C14 UNL     1      -1.373  49.826 -17.135  1.00  0.00    -0.014 C 
HETATM   18  C15 UNL     1      -2.764  50.267 -16.638  1.00  0.00     0.010 C 
BRANCH  17  19
HETATM   19  C16 UNL     1      -0.408  51.041 -17.136  1.00  0.00     0.008 C 
BRANCH  19  20
HETATM   20  C17 UNL     1       0.669  50.978 -16.043  1.00  0.00     0.028 C 
BRANCH  20  21
HETATM   21  C18 UNL     1       1.839  51.868 -16.376  1.00  0.00    -0.013 C 
HETATM   22  C19 UNL     1       2.952  52.104 -15.651  1.00  0.00     0.008 C 
HETATM   23  C20 UNL     1       4.073  52.951 -16.183  1.00  0.00     0.055 C 
BRANCH  22  24
HETATM   24  C21 UNL     1       3.209  51.556 -14.300  1.00  0.00     0.171 C 
HETATM   25  O1  UNL     1       3.927  50.605 -14.049  1.00  0.00    -0.646 OA
BRANCH  24  26
HETATM   26  O2  UNL     1       2.647  52.276 -13.316  1.00  0.00    -0.773 OA
HETATM   27  H32 UNL     1       2.935  51.816 -12.502  1.00  0.00     0.167 HD
ENDBRANCH  24  26
ENDBRANCH  22  24
ENDBRANCH  20  21
ENDBRANCH  19  20
ENDBRANCH  17  19
ENDBRANCH  10  17
BRANCH  16  28
HETATM   28  C28 UNL     1      -0.468  51.038 -24.914  1.00  0.00     0.020 C 
BRANCH  28  29
HETATM   29  C29 UNL     1      -0.143  52.525 -24.922  1.00  0.00     0.112 C 
BRANCH  29  30
HETATM   30  C30 UNL     1       0.209  53.006 -26.307  1.00  0.00     0.258 C 
HETATM   31  O3  UNL     1       0.387  54.180 -26.599  1.00  0.00    -0.265 OA
BRANCH  30  32
HETATM   32  O4  UNL     1       0.273  51.960 -27.176  1.00  0.00    -0.322 OA
BRANCH  32  33
HETATM   33  C31 UNL     1       1.482  51.861 -27.943  1.00  0.00     0.174 C 
HETATM   34  C32 UNL     1       2.660  51.533 -27.043  1.00  0.00     0.034 C 
ENDBRANCH  32  33
ENDBRANCH  30  32
ENDBRANCH  29  30
ENDBRANCH  28  29
ENDBRANCH  16  28
BRANCH   1  35
HETATM   35  C2  UNL     1      -3.118  50.170 -26.483  1.00  0.00    -0.088 C 
HETATM   36  C1  UNL     1      -3.179  51.497 -26.689  1.00  0.00     0.014 C 
HETATM   37  C3  UNL     1      -3.590  49.215 -27.546  1.00  0.00     0.043 C 
ENDBRANCH   1  35
TORSDOF 12
ENDMDL
MODEL 4
REMARK minimizedAffinity -8.79271126
REMARK  12 active torsions:
REMARK  status: ('A' for Active; 'I' for Inactive)
REMARK    1  A    between atoms: C2_2  and  C4_4 
REMARK    2  A    between atoms: C13_13  and  C14_14 
REMARK    3  A    between atoms: C14_14  and  C16_16 
REMARK    4  A    between atoms: C16_16  and  C17_17 
REMARK    5  A    between atoms: C17_17  and  C18_18 
REMARK    6  A    between atoms: C19_19  and  C21_21 
REMARK    7  A    between atoms: C21_21  and  O2_23 
REMARK    8  A    between atoms: C27_29  and  C28_30 
REMARK    9  A    between atoms: C28_30  and  C29_31 
REMARK   10  A    between atoms: C29_31  and  C30_32 
REMARK   11  A    between atoms: C30_32  and  O4_34 
REMARK   12  A    between atoms: O4_34  and  C31_35 
ROOT
HETATM    1  C4  UNL     1      -2.297  50.109 -24.597  1.00  0.00     0.022 C 
HETATM    2  C5  UNL     1      -3.319  49.244 -23.844  1.00  0.00     0.010 C 
HETATM    3  C6  UNL     1      -2.685  48.686 -22.581  1.00  0.00     0.007 C 
HETATM    4  C7  UNL     1      -2.424  49.793 -21.542  1.00  0.00     0.004 C 
HETATM    5  C8  UNL     1      -1.643  51.002 -22.135  1.00  0.00    -0.027 A 
HETATM    6  C9  UNL     1      -0.564  51.689 -21.249  1.00  0.00     0.011 C 
HETATM    7  C10 UNL     1      -0.329  51.199 -19.811  1.00  0.00     0.011 C 
HETATM    8  C11 UNL     1      -1.501  50.409 -19.243  1.00  0.00    -0.032 C 
HETATM    9  C12 UNL     1      -2.688  51.385 -19.046  1.00  0.00     0.016 C 
HETATM   10  C13 UNL     1      -1.196  49.630 -17.925  1.00  0.00    -0.002 C 
HETATM   11  C22 UNL     1      -2.197  48.452 -17.958  1.00  0.00     0.006 C 
HETATM   12  C23 UNL     1      -2.712  48.343 -19.404  1.00  0.00     0.011 C 
HETATM   13  C24 UNL     1      -1.783  49.237 -20.247  1.00  0.00    -0.032 C 
HETATM   14  C25 UNL     1      -0.525  48.385 -20.618  1.00  0.00     0.016 C 
HETATM   15  C26 UNL     1      -2.516  52.029 -22.845  1.00  0.00     0.022 A 
HETATM   16  C27 UNL     1      -1.618  51.175 -23.702  1.00  0.00    -0.024 A 
ENDROOT
BRANCH  10  17
HETATM   17  C14 UNL     1      -1.062  50.377 -16.563  1.00  0.00    -0.014 C 
HETATM   18  C15 UNL     1       0.413  50.310 -16.119  1.00  0.00     0.010 C 
BRANCH  17  19
HETATM   19  C16 UNL     1      -1.977  49.885 -15.411  1.00  0.00     0.008 C 
BRANCH  19  20
HETATM   20  C17 UNL     1      -2.747  51.011 -14.704  1.00  0.00     0.028 C 
BRANCH  20  21
HETATM   21  C18 UNL     1      -1.923  51.631 -13.606  1.00  0.00    -0.013 C 
HETATM   22  C19 UNL     1      -2.338  52.365 -12.553  1.00  0.00     0.008 C 
HETATM   23  C20 UNL     1      -1.382  52.828 -11.490  1.00  0.00     0.055 C 
BRANCH  22  24
HETATM   24  C21 UNL     1      -3.741  52.770 -12.309  1.00  0.00     0.171 C 
HETATM   25  O1  UNL     1      -4.428  52.407 -11.372  1.00  0.00    -0.646 OA
BRANCH  24  26
HETATM   26  O2  UNL     1      -4.191  53.687 -13.180  1.00  0.00    -0.773 OA
HETATM   27  H32 UNL     1      -5.099  53.874 -12.869  1.00  0.00     0.167 HD
ENDBRANCH  24  26
ENDBRANCH  22  24
ENDBRANCH  20  21
ENDBRANCH  19  20
ENDBRANCH  17  19
ENDBRANCH  10  17
BRANCH  16  28
HETATM   28  C28 UNL     1      -0.321  51.710 -24.340  1.00  0.00     0.020 C 
BRANCH  28  29
HETATM   29  C29 UNL     1      -0.207  53.216 -24.527  1.00  0.00     0.112 C 
BRANCH  29  30
HETATM   30  C30 UNL     1       0.448  53.561 -25.840  1.00  0.00     0.258 C 
HETATM   31  O3  UNL     1       0.187  54.562 -26.493  1.00  0.00    -0.265 OA
BRANCH  30  32
HETATM   32  O4  UNL     1       1.339  52.597 -26.200  1.00  0.00    -0.322 OA
BRANCH  32  33
HETATM   33  C31 UNL     1       1.323  52.220 -27.585  1.00  0.00     0.174 C 
HETATM   34  C32 UNL     1      -0.031  51.652 -27.968  1.00  0.00     0.034 C 
ENDBRANCH  32  33
ENDBRANCH  30  32
ENDBRANCH  29  30
ENDBRANCH  28  29
ENDBRANCH  16  28
BRANCH   1  35
HETATM   35  C2  UNL     1      -2.907  50.645 -25.894  1.00  0.00    -0.088 C 
HETATM   36  C1  UNL     1      -3.074  49.848 -26.964  1.00  0.00     0.014 C 
HETATM   37  C3  UNL     1      -3.329  52.088 -25.950  1.00  0.00     0.043 C 
ENDBRANCH   1  35
TORSDOF 12
ENDMDL
MODEL 5
REMARK minimizedAffinity -8.63900852
REMARK  12 active torsions:
REMARK  status: ('A' for Active; 'I' for Inactive)
REMARK    1  A    between atoms: C2_2  and  C4_4 
REMARK    2  A    between atoms: C13_13  and  C14_14 
REMARK    3  A    between atoms: C14_14  and  C16_16 
REMARK    4  A    between atoms: C16_16  and  C17_17 
REMARK    5  A    between atoms: C17_17  and  C18_18 
REMARK    6  A    between atoms: C19_19  and  C21_21 
REMARK    7  A    between atoms: C21_21  and  O2_23 
REMARK    8  A    between atoms: C27_29  and  C28_30 
REMARK    9  A    between atoms: C28_30  and  C29_31 
REMARK   10  A    between atoms: C29_31  and  C30_32 
REMARK   11  A    between atoms: C30_32  and  O4_34 
REMARK   12  A    between atoms: O4_34  and  C31_35 
ROOT
HETATM    1  C4  UNL     1       0.017  51.157 -25.699  1.00  0.00     0.022 C 
HETATM    2  C5  UNL     1      -1.009  50.528 -26.654  1.00  0.00     0.010 C 
HETATM    3  C6  UNL     1      -1.904  49.571 -25.886  1.00  0.00     0.007 C 
HETATM    4  C7  UNL     1      -2.836  50.323 -24.917  1.00  0.00     0.004 C 
HETATM    5  C8  UNL     1      -2.071  51.317 -23.995  1.00  0.00    -0.027 A 
HETATM    6  C9  UNL     1      -2.528  51.452 -22.514  1.00  0.00     0.011 C 
HETATM    7  C10 UNL     1      -3.740  50.649 -22.011  1.00  0.00     0.011 C 
HETATM    8  C11 UNL     1      -4.655  50.173 -23.132  1.00  0.00    -0.032 C 
HETATM    9  C12 UNL     1      -5.344  51.414 -23.752  1.00  0.00     0.016 C 
HETATM   10  C13 UNL     1      -5.711  49.102 -22.711  1.00  0.00    -0.002 C 
HETATM   11  C22 UNL     1      -5.982  48.324 -24.020  1.00  0.00     0.006 C 
HETATM   12  C23 UNL     1      -4.831  48.658 -24.985  1.00  0.00     0.011 C 
HETATM   13  C24 UNL     1      -3.759  49.360 -24.130  1.00  0.00    -0.032 C 
HETATM   14  C25 UNL     1      -2.891  48.244 -23.461  1.00  0.00     0.016 C 
HETATM   15  C26 UNL     1      -1.806  52.680 -24.622  1.00  0.00     0.022 A 
HETATM   16  C27 UNL     1      -0.623  51.768 -24.428  1.00  0.00    -0.024 A 
ENDROOT
BRANCH  10  17
HETATM   17  C14 UNL     1      -6.968  49.497 -21.876  1.00  0.00    -0.014 C 
HETATM   18  C15 UNL     1      -6.668  49.213 -20.391  1.00  0.00     0.010 C 
BRANCH  17  19
HETATM   19  C16 UNL     1      -8.305  48.822 -22.278  1.00  0.00     0.008 C 
BRANCH  19  20
HETATM   20  C17 UNL     1      -8.139  47.643 -23.248  1.00  0.00     0.028 C 
BRANCH  20  21
HETATM   21  C18 UNL     1      -9.441  47.302 -23.925  1.00  0.00    -0.013 C 
HETATM   22  C19 UNL     1      -9.899  47.709 -25.127  1.00  0.00     0.008 C 
HETATM   23  C20 UNL     1     -11.188  47.189 -25.696  1.00  0.00     0.055 C 
BRANCH  22  24
HETATM   24  C21 UNL     1      -9.198  48.664 -26.015  1.00  0.00     0.171 C 
HETATM   25  O1  UNL     1      -8.416  48.363 -26.898  1.00  0.00    -0.646 OA
BRANCH  24  26
HETATM   26  O2  UNL     1      -9.581  49.938 -25.836  1.00  0.00    -0.773 OA
HETATM   27  H32 UNL     1      -9.067  50.429 -26.507  1.00  0.00     0.167 HD
ENDBRANCH  24  26
ENDBRANCH  22  24
ENDBRANCH  20  21
ENDBRANCH  19  20
ENDBRANCH  17  19
ENDBRANCH  10  17
BRANCH  16  28
HETATM   28  C28 UNL     1       0.419  51.982 -23.313  1.00  0.00     0.020 C 
BRANCH  28  29
HETATM   29  C29 UNL     1       0.788  53.418 -22.970  1.00  0.00     0.112 C 
BRANCH  29  30
HETATM   30  C30 UNL     1       1.133  53.566 -21.510  1.00  0.00     0.258 C 
HETATM   31  O3  UNL     1       1.914  54.399 -21.072  1.00  0.00    -0.265 OA
BRANCH  30  32
HETATM   32  O4  UNL     1       0.476  52.634 -20.766  1.00  0.00    -0.322 OA
BRANCH  32  33
HETATM   33  C31 UNL     1      -0.047  53.095 -19.512  1.00  0.00     0.174 C 
HETATM   34  C32 UNL     1       0.770  52.544 -18.358  1.00  0.00     0.034 C 
ENDBRANCH  32  33
ENDBRANCH  30  32
ENDBRANCH  29  30
ENDBRANCH  28  29
ENDBRANCH  16  28
BRANCH   1  35
HETATM   35  C2  UNL     1       0.954  52.092 -26.466  1.00  0.00    -0.088 C 
HETATM   36  C1  UNL     1       0.524  53.276 -26.935  1.00  0.00     0.014 C 
HETATM   37  C3  UNL     1       2.381  51.665 -26.680  1.00  0.00     0.043 C 
ENDBRANCH   1  35
TORSDOF 12
ENDMDL
MODEL 6
REMARK minimizedAffinity -8.63532543
REMARK  12 active torsions:
REMARK  status: ('A' for Active; 'I' for Inactive)
REMARK    1  A    between atoms: C2_2  and  C4_4 
REMARK    2  A    between atoms: C13_13  and  C14_14 
REMARK    3  A    between atoms: C14_14  and  C16_16 
REMARK    4  A    between atoms: C16_16  and  C17_17 
REMARK    5  A    between atoms: C17_17  and  C18_18 
REMARK    6  A    between atoms: C19_19  and  C21_21 
REMARK    7  A    between atoms: C21_21  and  O2_23 
REMARK    8  A    between atoms: C27_29  and  C28_30 
REMARK    9  A    between atoms: C28_30  and  C29_31 
REMARK   10  A    between atoms: C29_31  and  C30_32 
REMARK   11  A    between atoms: C30_32  and  O4_34 
REMARK   12  A    between atoms: O4_34  and  C31_35 
ROOT
HETATM    1  C4  UNL     1      -2.411  49.676 -24.791  1.00  0.00     0.022 C 
HETATM    2  C5  UNL     1      -3.394  48.915 -23.888  1.00  0.00     0.010 C 
HETATM    3  C6  UNL     1      -2.680  48.457 -22.628  1.00  0.00     0.007 C 
HETATM    4  C7  UNL     1      -2.316  49.646 -21.719  1.00  0.00     0.004 C 
HETATM    5  C8  UNL     1      -1.553  50.772 -22.478  1.00  0.00    -0.027 A 
HETATM    6  C9  UNL     1      -0.395  51.504 -21.741  1.00  0.00     0.011 C 
HETATM    7  C10 UNL     1      -0.064  51.142 -20.284  1.00  0.00     0.011 C 
HETATM    8  C11 UNL     1      -1.209  50.443 -19.561  1.00  0.00    -0.032 C 
HETATM    9  C12 UNL     1      -2.355  51.468 -19.371  1.00  0.00     0.016 C 
HETATM   10  C13 UNL     1      -0.824  49.779 -18.201  1.00  0.00    -0.002 C 
HETATM   11  C22 UNL     1      -1.852  48.633 -18.051  1.00  0.00     0.006 C 
HETATM   12  C23 UNL     1      -2.477  48.408 -19.440  1.00  0.00     0.011 C 
HETATM   13  C24 UNL     1      -1.592  49.193 -20.427  1.00  0.00    -0.032 C 
HETATM   14  C25 UNL     1      -0.386  48.272 -20.807  1.00  0.00     0.016 C 
HETATM   15  C26 UNL     1      -2.454  51.754 -23.216  1.00  0.00     0.022 A 
HETATM   16  C27 UNL     1      -1.642  50.799 -24.052  1.00  0.00    -0.024 A 
ENDROOT
BRANCH  10  17
HETATM   17  C14 UNL     1      -0.571  50.644 -16.928  1.00  0.00    -0.014 C 
HETATM   18  C15 UNL     1       0.688  51.499 -17.169  1.00  0.00     0.010 C 
BRANCH  17  19
HETATM   19  C16 UNL     1      -0.433  49.877 -15.587  1.00  0.00     0.008 C 
BRANCH  19  20
HETATM   20  C17 UNL     1       1.016  49.530 -15.216  1.00  0.00     0.028 C 
BRANCH  20  21
HETATM   21  C18 UNL     1       1.475  50.309 -14.012  1.00  0.00    -0.013 C 
HETATM   22  C19 UNL     1       2.609  50.165 -13.295  1.00  0.00     0.008 C 
HETATM   23  C20 UNL     1       2.956  51.101 -12.173  1.00  0.00     0.055 C 
BRANCH  22  24
HETATM   24  C21 UNL     1       3.627  49.117 -13.534  1.00  0.00     0.171 C 
HETATM   25  O1  UNL     1       3.424  47.916 -13.509  1.00  0.00    -0.646 OA
BRANCH  24  26
HETATM   26  O2  UNL     1       4.823  49.607 -13.895  1.00  0.00    -0.773 OA
HETATM   27  H32 UNL     1       5.363  48.806 -14.050  1.00  0.00     0.167 HD
ENDBRANCH  24  26
ENDBRANCH  22  24
ENDBRANCH  20  21
ENDBRANCH  19  20
ENDBRANCH  17  19
ENDBRANCH  10  17
BRANCH  16  28
HETATM   28  C28 UNL     1      -0.385  51.234 -24.829  1.00  0.00     0.020 C 
BRANCH  28  29
HETATM   29  C29 UNL     1      -0.136  52.729 -24.972  1.00  0.00     0.112 C 
BRANCH  29  30
HETATM   30  C30 UNL     1       0.144  53.107 -26.404  1.00  0.00     0.258 C 
HETATM   31  O3  UNL     1       0.293  54.258 -26.792  1.00  0.00    -0.265 OA
BRANCH  30  32
HETATM   32  O4  UNL     1       0.181  51.999 -27.194  1.00  0.00    -0.322 OA
BRANCH  32  33
HETATM   33  C31 UNL     1       1.326  51.885 -28.053  1.00  0.00     0.174 C 
HETATM   34  C32 UNL     1       2.581  51.634 -27.238  1.00  0.00     0.034 C 
ENDBRANCH  32  33
ENDBRANCH  30  32
ENDBRANCH  29  30
ENDBRANCH  28  29
ENDBRANCH  16  28
BRANCH   1  35
HETATM   35  C2  UNL     1      -3.103  50.109 -26.085  1.00  0.00    -0.088 C 
HETATM   36  C1  UNL     1      -3.462  49.207 -27.016  1.00  0.00     0.014 C 
HETATM   37  C3  UNL     1      -3.388  51.571 -26.296  1.00  0.00     0.043 C 
ENDBRANCH   1  35
TORSDOF 12
ENDMDL
MODEL 7
REMARK minimizedAffinity -8.58537197
REMARK  12 active torsions:
REMARK  status: ('A' for Active; 'I' for Inactive)
REMARK    1  A    between atoms: C2_2  and  C4_4 
REMARK    2  A    between atoms: C13_13  and  C14_14 
REMARK    3  A    between atoms: C14_14  and  C16_16 
REMARK    4  A    between atoms: C16_16  and  C17_17 
REMARK    5  A    between atoms: C17_17  and  C18_18 
REMARK    6  A    between atoms: C19_19  and  C21_21 
REMARK    7  A    between atoms: C21_21  and  O2_23 
REMARK    8  A    between atoms: C27_29  and  C28_30 
REMARK    9  A    between atoms: C28_30  and  C29_31 
REMARK   10  A    between atoms: C29_31  and  C30_32 
REMARK   11  A    between atoms: C30_32  and  O4_34 
REMARK   12  A    between atoms: O4_34  and  C31_35 
ROOT
HETATM    1  C4  UNL     1      -5.875  47.626 -23.540  1.00  0.00     0.022 C 
HETATM    2  C5  UNL     1      -5.892  47.123 -22.089  1.00  0.00     0.010 C 
HETATM    3  C6  UNL     1      -4.483  47.140 -21.523  1.00  0.00     0.007 C 
HETATM    4  C7  UNL     1      -3.972  48.580 -21.322  1.00  0.00     0.004 C 
HETATM    5  C8  UNL     1      -4.129  49.458 -22.598  1.00  0.00    -0.027 A 
HETATM    6  C9  UNL     1      -2.997  50.468 -22.943  1.00  0.00     0.011 C 
HETATM    7  C10 UNL     1      -1.787  50.611 -22.005  1.00  0.00     0.011 C 
HETATM    8  C11 UNL     1      -2.053  50.098 -20.595  1.00  0.00    -0.032 C 
HETATM    9  C12 UNL     1      -3.078  51.044 -19.923  1.00  0.00     0.016 C 
HETATM   10  C13 UNL     1      -0.782  49.930 -19.704  1.00  0.00    -0.002 C 
HETATM   11  C22 UNL     1      -1.183  48.820 -18.703  1.00  0.00     0.006 C 
HETATM   12  C23 UNL     1      -2.425  48.121 -19.285  1.00  0.00     0.011 C 
HETATM   13  C24 UNL     1      -2.537  48.613 -20.740  1.00  0.00    -0.032 C 
HETATM   14  C25 UNL     1      -1.605  47.709 -21.612  1.00  0.00     0.016 C 
HETATM   15  C26 UNL     1      -5.507  50.088 -22.762  1.00  0.00     0.022 A 
HETATM   16  C27 UNL     1      -5.138  48.978 -23.711  1.00  0.00    -0.024 A 
ENDROOT
BRANCH  10  17
HETATM   17  C14 UNL     1      -0.056  51.169 -19.097  1.00  0.00    -0.014 C 
HETATM   18  C15 UNL     1      -0.364  51.216 -17.587  1.00  0.00     0.010 C 
BRANCH  17  19
HETATM   19  C16 UNL     1      -0.380  52.544 -19.739  1.00  0.00     0.008 C 
BRANCH  19  20
HETATM   20  C17 UNL     1       0.732  53.081 -20.651  1.00  0.00     0.028 C 
BRANCH  20  21
HETATM   21  C18 UNL     1       0.602  52.539 -22.051  1.00  0.00    -0.013 C 
HETATM   22  C19 UNL     1       0.863  53.156 -23.222  1.00  0.00     0.008 C 
HETATM   23  C20 UNL     1       0.771  52.429 -24.533  1.00  0.00     0.055 C 
BRANCH  22  24
HETATM   24  C21 UNL     1       1.283  54.570 -23.353  1.00  0.00     0.171 C 
HETATM   25  O1  UNL     1       0.993  55.310 -24.276  1.00  0.00    -0.646 OA
BRANCH  24  26
HETATM   26  O2  UNL     1       1.954  55.029 -22.286  1.00  0.00    -0.773 OA
HETATM   27  H32 UNL     1       2.124  55.966 -22.506  1.00  0.00     0.167 HD
ENDBRANCH  24  26
ENDBRANCH  22  24
ENDBRANCH  20  21
ENDBRANCH  19  20
ENDBRANCH  17  19
ENDBRANCH  10  17
BRANCH  16  28
HETATM   28  C28 UNL     1      -4.751  49.233 -25.181  1.00  0.00     0.020 C 
BRANCH  28  29
HETATM   29  C29 UNL     1      -3.712  48.309 -25.799  1.00  0.00     0.112 C 
BRANCH  29  30
HETATM   30  C30 UNL     1      -3.339  48.751 -27.191  1.00  0.00     0.258 C 
HETATM   31  O3  UNL     1      -3.748  48.216 -28.212  1.00  0.00    -0.265 OA
BRANCH  30  32
HETATM   32  O4  UNL     1      -2.472  49.800 -27.145  1.00  0.00    -0.322 OA
BRANCH  32  33
HETATM   33  C31 UNL     1      -2.938  51.018 -27.744  1.00  0.00     0.174 C 
HETATM   34  C32 UNL     1      -2.368  52.222 -27.016  1.00  0.00     0.034 C 
ENDBRANCH  32  33
ENDBRANCH  30  32
ENDBRANCH  29  30
ENDBRANCH  28  29
ENDBRANCH  16  28
BRANCH   1  35
HETATM   35  C2  UNL     1      -7.281  47.575 -24.139  1.00  0.00    -0.088 C 
HETATM   36  C1  UNL     1      -7.710  46.493 -24.813  1.00  0.00     0.014 C 
HETATM   37  C3  UNL     1      -8.188  48.760 -23.951  1.00  0.00     0.043 C 
ENDBRANCH   1  35
TORSDOF 12
ENDMDL
MODEL 8
REMARK minimizedAffinity -8.57212353
REMARK  12 active torsions:
REMARK  status: ('A' for Active; 'I' for Inactive)
REMARK    1  A    between atoms: C2_2  and  C4_4 
REMARK    2  A    between atoms: C13_13  and  C14_14 
REMARK    3  A    between atoms: C14_14  and  C16_16 
REMARK    4  A    between atoms: C16_16  and  C17_17 
REMARK    5  A    between atoms: C17_17  and  C18_18 
REMARK    6  A    between atoms: C19_19  and  C21_21 
REMARK    7  A    between atoms: C21_21  and  O2_23 
REMARK    8  A    between atoms: C27_29  and  C28_30 
REMARK    9  A    between atoms: C28_30  and  C29_31 
REMARK   10  A    between atoms: C29_31  and  C30_32 
REMARK   11  A    between atoms: C30_32  and  O4_34 
REMARK   12  A    between atoms: O4_34  and  C31_35 
ROOT
HETATM    1  C4  UNL     1      -0.000  51.023 -25.972  1.00  0.00     0.022 C 
HETATM    2  C5  UNL     1      -1.061  50.290 -26.807  1.00  0.00     0.010 C 
HETATM    3  C6  UNL     1      -1.903  49.406 -25.904  1.00  0.00     0.007 C 
HETATM    4  C7  UNL     1      -2.799  50.241 -24.970  1.00  0.00     0.004 C 
HETATM    5  C8  UNL     1      -2.006  51.331 -24.191  1.00  0.00    -0.027 A 
HETATM    6  C9  UNL     1      -2.393  51.609 -22.710  1.00  0.00     0.011 C 
HETATM    7  C10 UNL     1      -3.566  50.848 -22.070  1.00  0.00     0.011 C 
HETATM    8  C11 UNL     1      -4.527  50.251 -23.091  1.00  0.00    -0.032 C 
HETATM    9  C12 UNL     1      -5.264  51.416 -23.796  1.00  0.00     0.016 C 
HETATM   10  C13 UNL     1      -5.544  49.217 -22.513  1.00  0.00    -0.002 C 
HETATM   11  C22 UNL     1      -5.866  48.308 -23.723  1.00  0.00     0.006 C 
HETATM   12  C23 UNL     1      -4.768  48.556 -24.773  1.00  0.00     0.011 C 
HETATM   13  C24 UNL     1      -3.668  49.352 -24.046  1.00  0.00    -0.032 C 
HETATM   14  C25 UNL     1      -2.751  48.318 -23.313  1.00  0.00     0.016 C 
HETATM   15  C26 UNL     1      -1.793  52.627 -24.963  1.00  0.00     0.022 A 
HETATM   16  C27 UNL     1      -0.587  51.751 -24.738  1.00  0.00    -0.024 A 
ENDROOT
BRANCH  10  17
HETATM   17  C14 UNL     1      -6.765  49.680 -21.661  1.00  0.00    -0.014 C 
HETATM   18  C15 UNL     1      -6.292  49.871 -20.206  1.00  0.00     0.010 C 
BRANCH  17  19
HETATM   19  C16 UNL     1      -8.016  48.764 -21.688  1.00  0.00     0.008 C 
BRANCH  19  20
HETATM   20  C17 UNL     1      -8.200  47.926 -20.414  1.00  0.00     0.028 C 
BRANCH  20  21
HETATM   21  C18 UNL     1      -9.657  47.787 -20.056  1.00  0.00    -0.013 C 
HETATM   22  C19 UNL     1     -10.245  47.913 -18.848  1.00  0.00     0.008 C 
HETATM   23  C20 UNL     1     -11.736  47.839 -18.686  1.00  0.00     0.055 C 
BRANCH  22  24
HETATM   24  C21 UNL     1      -9.520  48.158 -17.581  1.00  0.00     0.171 C 
HETATM   25  O1  UNL     1      -9.363  47.343 -16.689  1.00  0.00    -0.646 OA
BRANCH  24  26
HETATM   26  O2  UNL     1      -8.935  49.364 -17.524  1.00  0.00    -0.773 OA
HETATM   27  H32 UNL     1      -8.475  49.357 -16.661  1.00  0.00     0.167 HD
ENDBRANCH  24  26
ENDBRANCH  22  24
ENDBRANCH  20  21
ENDBRANCH  19  20
ENDBRANCH  17  19
ENDBRANCH  10  17
BRANCH  16  28
HETATM   28  C28 UNL     1       0.504  52.087 -23.703  1.00  0.00     0.020 C 
BRANCH  28  29
HETATM   29  C29 UNL     1       0.668  53.549 -23.313  1.00  0.00     0.112 C 
BRANCH  29  30
HETATM   30  C30 UNL     1       1.319  53.690 -21.961  1.00  0.00     0.258 C 
HETATM   31  O3  UNL     1       1.854  54.715 -21.562  1.00  0.00    -0.265 OA
BRANCH  30  32
HETATM   32  O4  UNL     1       1.248  52.519 -21.271  1.00  0.00    -0.322 OA
BRANCH  32  33
HETATM   33  C31 UNL     1       0.133  52.390 -20.376  1.00  0.00     0.174 C 
HETATM   34  C32 UNL     1       0.135  53.516 -19.357  1.00  0.00     0.034 C 
ENDBRANCH  32  33
ENDBRANCH  30  32
ENDBRANCH  29  30
ENDBRANCH  28  29
ENDBRANCH  16  28
BRANCH   1  35
HETATM   35  C2  UNL     1       0.884  51.886 -26.874  1.00  0.00    -0.088 C 
HETATM   36  C1  UNL     1       0.359  52.864 -27.632  1.00  0.00     0.014 C 
HETATM   37  C3  UNL     1       2.366  51.626 -26.891  1.00  0.00     0.043 C 
ENDBRANCH   1  35
TORSDOF 12
ENDMDL
MODEL 9
REMARK minimizedAffinity -8.5135107
REMARK  12 active torsions:
REMARK  status: ('A' for Active; 'I' for Inactive)
REMARK    1  A    between atoms: C2_2  and  C4_4 
REMARK    2  A    between atoms: C13_13  and  C14_14 
REMARK    3  A    between atoms: C14_14  and  C16_16 
REMARK    4  A    between atoms: C16_16  and  C17_17 
REMARK    5  A    between atoms: C17_17  and  C18_18 
REMARK    6  A    between atoms: C19_19  and  C21_21 
REMARK    7  A    between atoms: C21_21  and  O2_23 
REMARK    8  A    between atoms: C27_29  and  C28_30 
REMARK    9  A    between atoms: C28_30  and  C29_31 
REMARK   10  A    between atoms: C29_31  and  C30_32 
REMARK   11  A    between atoms: C30_32  and  O4_34 
REMARK   12  A    between atoms: O4_34  and  C31_35 
ROOT
HETATM    1  C4  UNL     1      -0.783  51.878 -19.288  1.00  0.00     0.022 C 
HETATM    2  C5  UNL     1      -2.133  51.441 -18.698  1.00  0.00     0.010 C 
HETATM    3  C6  UNL     1      -3.199  51.470 -19.780  1.00  0.00     0.007 C 
HETATM    4  C7  UNL     1      -2.971  50.365 -20.828  1.00  0.00     0.004 C 
HETATM    5  C8  UNL     1      -1.522  50.365 -21.398  1.00  0.00    -0.027 A 
HETATM    6  C9  UNL     1      -1.323  50.066 -22.912  1.00  0.00     0.011 C 
HETATM    7  C10 UNL     1      -2.539  49.734 -23.792  1.00  0.00     0.011 C 
HETATM    8  C11 UNL     1      -3.750  49.264 -22.996  1.00  0.00    -0.032 C 
HETATM    9  C12 UNL     1      -3.420  47.877 -22.391  1.00  0.00     0.016 C 
HETATM   10  C13 UNL     1      -5.089  49.218 -23.798  1.00  0.00    -0.002 C 
HETATM   11  C22 UNL     1      -6.172  49.411 -22.709  1.00  0.00     0.006 C 
HETATM   12  C23 UNL     1      -5.459  49.965 -21.463  1.00  0.00     0.011 C 
HETATM   13  C24 UNL     1      -4.053  50.380 -21.936  1.00  0.00    -0.032 C 
HETATM   14  C25 UNL     1      -4.166  51.823 -22.528  1.00  0.00     0.016 C 
HETATM   15  C26 UNL     1      -0.511  49.609 -20.544  1.00  0.00     0.022 A 
HETATM   16  C27 UNL     1      -0.401  51.111 -20.577  1.00  0.00    -0.024 A 
ENDROOT
BRANCH  10  17
HETATM   17  C14 UNL     1      -5.362  48.093 -24.843  1.00  0.00    -0.014 C 
HETATM   18  C15 UNL     1      -4.618  48.453 -26.143  1.00  0.00     0.010 C 
BRANCH  17  19
HETATM   19  C16 UNL     1      -6.850  47.788 -25.159  1.00  0.00     0.008 C 
BRANCH  19  20
HETATM   20  C17 UNL     1      -7.099  47.346 -26.608  1.00  0.00     0.028 C 
BRANCH  20  21
HETATM   21  C18 UNL     1      -8.376  46.556 -26.729  1.00  0.00    -0.013 C 
HETATM   22  C19 UNL     1      -9.640  47.009 -26.853  1.00  0.00     0.008 C 
HETATM   23  C20 UNL     1     -10.796  46.074 -27.062  1.00  0.00     0.055 C 
BRANCH  22  24
HETATM   24  C21 UNL     1     -10.028  48.438 -26.826  1.00  0.00     0.171 C 
HETATM   25  O1  UNL     1     -10.879  48.925 -26.104  1.00  0.00    -0.646 OA
BRANCH  24  26
HETATM   26  O2  UNL     1      -9.271  49.212 -27.619  1.00  0.00    -0.773 OA
HETATM   27  H32 UNL     1      -9.620  50.112 -27.464  1.00  0.00     0.167 HD
ENDBRANCH  24  26
ENDBRANCH  22  24
ENDBRANCH  20  21
ENDBRANCH  19  20
ENDBRANCH  17  19
ENDBRANCH  10  17
BRANCH  16  28
HETATM   28  C28 UNL     1       0.694  51.848 -21.374  1.00  0.00     0.020 C 
BRANCH  28  29
HETATM   29  C29 UNL     1       0.353  53.232 -21.910  1.00  0.00     0.112 C 
BRANCH  29  30
HETATM   30  C30 UNL     1       0.877  53.425 -23.310  1.00  0.00     0.258 C 
HETATM   31  O3  UNL     1       1.292  54.490 -23.745  1.00  0.00    -0.265 OA
BRANCH  30  32
HETATM   32  O4  UNL     1       0.797  52.264 -24.016  1.00  0.00    -0.322 OA
BRANCH  32  33
HETATM   33  C31 UNL     1       0.720  52.407 -25.442  1.00  0.00     0.174 C 
HETATM   34  C32 UNL     1       0.445  51.067 -26.099  1.00  0.00     0.034 C 
ENDBRANCH  32  33
ENDBRANCH  30  32
ENDBRANCH  29  30
ENDBRANCH  28  29
ENDBRANCH  16  28
BRANCH   1  35
HETATM   35  C2  UNL     1       0.292  51.895 -18.200  1.00  0.00    -0.088 C 
HETATM   36  C1  UNL     1       1.203  52.881 -18.139  1.00  0.00     0.014 C 
HETATM   37  C3  UNL     1       0.308  50.784 -17.185  1.00  0.00     0.043 C 
ENDBRANCH   1  35
TORSDOF 12
ENDMDL
