MODEL 1
REMARK minimizedAffinity -8.29471207
REMARK CNNscore 0.793194473
REMARK CNNaffinity 5.8140626
REMARK  5 active torsions:
REMARK  status: ('A' for Active; 'I' for Inactive)
REMARK    1  A    between atoms: C4_4  and  O1_5 
REMARK    2  A    between atoms: C5_6  and  O2_7 
REMARK    3  A    between atoms: C8_11  and  C9_12 
REMARK    4  A    between atoms: C19_23  and  C20_24 
REMARK    5  A    between atoms: C26_32  and  O7_33 
ROOT
HETATM    1  C1  UNL     1     -23.164  41.672 -19.497  1.00  0.00     0.040 C 
HETATM    2  C2  UNL     1     -22.295  41.620 -20.746  1.00  0.00     0.123 C 
HETATM    3  C3  UNL     1     -21.160  40.597 -20.592  1.00  0.00     0.069 C 
HETATM    4  C4  UNL     1     -19.916  41.010 -21.387  1.00  0.00     0.188 C 
HETATM    5  C5  UNL     1     -20.307  41.771 -22.680  1.00  0.00     0.240 C 
HETATM    6  O3  UNL     1     -19.142  41.978 -23.476  1.00  0.00    -0.341 OA
HETATM    7  C6  UNL     1     -18.984  43.318 -23.938  1.00  0.00     0.156 C 
HETATM    8  C7  UNL     1     -17.597  43.400 -24.586  1.00  0.00     0.056 C 
HETATM    9  C8  UNL     1     -17.210  44.817 -25.072  1.00  0.00     0.043 C 
HETATM   10  C10 UNL     1     -17.464  45.818 -23.946  1.00  0.00    -0.065 C 
HETATM   11  C11 UNL     1     -16.581  46.778 -23.621  1.00  0.00    -0.022 C 
HETATM   12  C12 UNL     1     -15.288  47.014 -24.337  1.00  0.00     0.035 C 
HETATM   13  C13 UNL     1     -15.160  46.267 -25.685  1.00  0.00     0.030 C 
HETATM   14  C14 UNL     1     -15.698  44.822 -25.529  1.00  0.00     0.012 C 
HETATM   15  C15 UNL     1     -15.439  43.977 -26.791  1.00  0.00     0.007 C 
HETATM   16  C16 UNL     1     -13.980  44.020 -27.226  1.00  0.00     0.013 C 
HETATM   17  C17 UNL     1     -13.462  45.460 -27.499  1.00  0.00    -0.005 C 
HETATM   18  C18 UNL     1     -14.146  45.998 -28.774  1.00  0.00     0.019 C 
HETATM   19  C19 UNL     1     -11.889  45.396 -27.603  1.00  0.00     0.028 C 
HETATM   20  C24 UNL     1     -11.371  45.782 -26.196  1.00  0.00     0.013 C 
HETATM   21  C25 UNL     1     -12.595  45.945 -25.299  1.00  0.00     0.040 C 
HETATM   22  C26 UNL     1     -13.718  46.364 -26.258  1.00  0.00     0.070 C 
HETATM   23  C27 UNL     1     -18.782  45.715 -23.213  1.00  0.00     0.069 C 
HETATM   24  C28 UNL     1     -19.121  44.291 -22.770  1.00  0.00     0.158 C 
HETATM   25  O8  UNL     1     -20.462  44.309 -22.281  1.00  0.00    -0.347 OA
HETATM   26  C29 UNL     1     -21.141  43.052 -22.270  1.00  0.00     0.325 C 
HETATM   27  O9  UNL     1     -21.743  42.917 -20.964  1.00  0.00    -0.351 OA
ENDROOT
BRANCH  19  28
HETATM   28  C20 UNL     1     -11.234  46.179 -28.710  1.00  0.00    -0.045 A 
HETATM   29  C21 UNL     1     -10.825  47.448 -28.719  1.00  0.00     0.087 A 
HETATM   30  C22 UNL     1     -10.265  47.710 -30.042  1.00  0.00     0.283 A 
HETATM   31  O5  UNL     1      -9.797  48.774 -30.404  1.00  0.00    -0.260 OA
HETATM   32  O6  UNL     1     -10.342  46.577 -30.792  1.00  0.00    -0.314 OA
HETATM   33  C23 UNL     1     -10.958  45.548 -30.022  1.00  0.00     0.213 A 
ENDBRANCH  19  28
BRANCH  22  34
HETATM   34  O7  UNL     1     -13.472  47.727 -26.631  1.00  0.00    -0.389 OA
HETATM   35  H34 UNL     1     -13.475  48.278 -25.831  1.00  0.00     0.210 HD
ENDBRANCH  22  34
BRANCH   9  36
HETATM   36  C9  UNL     1     -18.117  45.166 -26.272  1.00  0.00     0.245 C 
HETATM   37  O4  UNL     1     -19.066  45.945 -26.248  1.00  0.00    -0.306 OA
ENDBRANCH   9  36
BRANCH   5  38
HETATM   38  O2  UNL     1     -21.137  40.881 -23.449  1.00  0.00    -0.360 OA
HETATM   39  H9  UNL     1     -21.317  41.343 -24.282  1.00  0.00     0.213 HD
ENDBRANCH   5  38
BRANCH   4  40
HETATM   40  O1  UNL     1     -19.066  41.804 -20.538  1.00  0.00    -0.390 OA
HETATM   41  H8  UNL     1     -19.623  42.509 -20.154  1.00  0.00     0.210 HD
ENDBRANCH   4  40
TORSDOF 5
ENDMDL
MODEL 2
REMARK minimizedAffinity -7.67998838
REMARK CNNscore 0.625206769
REMARK CNNaffinity 5.70834112
REMARK  5 active torsions:
REMARK  status: ('A' for Active; 'I' for Inactive)
REMARK    1  A    between atoms: C4_4  and  O1_5 
REMARK    2  A    between atoms: C5_6  and  O2_7 
REMARK    3  A    between atoms: C8_11  and  C9_12 
REMARK    4  A    between atoms: C19_23  and  C20_24 
REMARK    5  A    between atoms: C26_32  and  O7_33 
ROOT
HETATM    1  C1  UNL     1      13.222  59.916  -1.033  1.00  0.00     0.040 C 
HETATM    2  C2  UNL     1      12.727  58.926  -2.077  1.00  0.00     0.123 C 
HETATM    3  C3  UNL     1      13.098  59.380  -3.496  1.00  0.00     0.069 C 
HETATM    4  C4  UNL     1      12.064  58.913  -4.528  1.00  0.00     0.188 C 
HETATM    5  C5  UNL     1      11.451  57.547  -4.124  1.00  0.00     0.240 C 
HETATM    6  O3  UNL     1      10.635  57.064  -5.189  1.00  0.00    -0.341 OA
HETATM    7  C6  UNL     1       9.341  56.627  -4.778  1.00  0.00     0.156 C 
HETATM    8  C7  UNL     1       8.544  56.344  -6.057  1.00  0.00     0.056 C 
HETATM    9  C8  UNL     1       7.072  55.940  -5.807  1.00  0.00     0.043 C 
HETATM   10  C10 UNL     1       6.434  56.945  -4.849  1.00  0.00    -0.065 C 
HETATM   11  C11 UNL     1       5.208  57.459  -5.054  1.00  0.00    -0.022 C 
HETATM   12  C12 UNL     1       4.315  57.085  -6.194  1.00  0.00     0.035 C 
HETATM   13  C13 UNL     1       4.769  55.828  -6.973  1.00  0.00     0.030 C 
HETATM   14  C14 UNL     1       6.303  55.875  -7.185  1.00  0.00     0.012 C 
HETATM   15  C15 UNL     1       6.788  54.737  -8.102  1.00  0.00     0.007 C 
HETATM   16  C16 UNL     1       6.013  54.680  -9.412  1.00  0.00     0.013 C 
HETATM   17  C17 UNL     1       4.481  54.514  -9.213  1.00  0.00    -0.005 C 
HETATM   18  C18 UNL     1       4.203  53.098  -8.666  1.00  0.00     0.019 C 
HETATM   19  C19 UNL     1       3.779  54.808 -10.595  1.00  0.00     0.028 C 
HETATM   20  C24 UNL     1       3.340  56.292 -10.523  1.00  0.00     0.013 C 
HETATM   21  C25 UNL     1       3.872  56.850  -9.206  1.00  0.00     0.040 C 
HETATM   22  C26 UNL     1       3.940  55.631  -8.275  1.00  0.00     0.070 C 
HETATM   23  C27 UNL     1       7.225  57.327  -3.618  1.00  0.00     0.069 C 
HETATM   24  C28 UNL     1       8.676  57.702  -3.923  1.00  0.00     0.158 C 
HETATM   25  O8  UNL     1       9.348  57.839  -2.671  1.00  0.00    -0.347 OA
HETATM   26  C29 UNL     1      10.770  57.708  -2.705  1.00  0.00     0.325 C 
HETATM   27  O9  UNL     1      11.308  58.824  -1.964  1.00  0.00    -0.351 OA
ENDROOT
BRANCH  19  28
HETATM   28  C20 UNL     1       2.670  53.883 -11.021  1.00  0.00    -0.045 A 
HETATM   29  C21 UNL     1       1.351  54.028 -10.886  1.00  0.00     0.087 A 
HETATM   30  C22 UNL     1       0.727  52.840 -11.463  1.00  0.00     0.283 A 
HETATM   31  O5  UNL     1      -0.472  52.635 -11.510  1.00  0.00    -0.260 OA
HETATM   32  O6  UNL     1       1.696  52.015 -11.943  1.00  0.00    -0.314 OA
HETATM   33  C23 UNL     1       2.972  52.599 -11.695  1.00  0.00     0.213 A 
ENDBRANCH  19  28
BRANCH  22  34
HETATM   34  O7  UNL     1       2.594  55.302  -7.905  1.00  0.00    -0.389 OA
HETATM   35  H34 UNL     1       2.195  56.065  -7.453  1.00  0.00     0.210 HD
ENDBRANCH  22  34
BRANCH   9  36
HETATM   36  C9  UNL     1       7.074  54.544  -5.146  1.00  0.00     0.245 C 
HETATM   37  O4  UNL     1       7.893  53.654  -5.357  1.00  0.00    -0.306 OA
ENDBRANCH   9  36
BRANCH   5  38
HETATM   38  O2  UNL     1      12.544  56.615  -4.032  1.00  0.00    -0.360 OA
HETATM   39  H9  UNL     1      12.140  55.753  -3.846  1.00  0.00     0.213 HD
ENDBRANCH   5  38
BRANCH   4  40
HETATM   40  O1  UNL     1      11.054  59.931  -4.665  1.00  0.00    -0.390 OA
HETATM   41  H8  UNL     1      10.741  60.147  -3.765  1.00  0.00     0.210 HD
ENDBRANCH   4  40
TORSDOF 5
ENDMDL
MODEL 3
REMARK minimizedAffinity -7.46895599
REMARK CNNscore 0.530780077
REMARK CNNaffinity 5.50523996
REMARK  5 active torsions:
REMARK  status: ('A' for Active; 'I' for Inactive)
REMARK    1  A    between atoms: C4_4  and  O1_5 
REMARK    2  A    between atoms: C5_6  and  O2_7 
REMARK    3  A    between atoms: C8_11  and  C9_12 
REMARK    4  A    between atoms: C19_23  and  C20_24 
REMARK    5  A    between atoms: C26_32  and  O7_33 
ROOT
HETATM    1  C1  UNL     1       1.578  65.807   0.870  1.00  0.00     0.040 C 
HETATM    2  C2  UNL     1       2.551  64.869   0.170  1.00  0.00     0.123 C 
HETATM    3  C3  UNL     1       3.104  65.498  -1.117  1.00  0.00     0.069 C 
HETATM    4  C4  UNL     1       3.427  64.435  -2.173  1.00  0.00     0.188 C 
HETATM    5  C5  UNL     1       3.903  63.116  -1.509  1.00  0.00     0.240 C 
HETATM    6  O3  UNL     1       4.362  62.220  -2.519  1.00  0.00    -0.341 OA
HETATM    7  C6  UNL     1       3.829  60.901  -2.412  1.00  0.00     0.156 C 
HETATM    8  C7  UNL     1       4.259  60.149  -3.677  1.00  0.00     0.056 C 
HETATM    9  C8  UNL     1       3.693  58.713  -3.780  1.00  0.00     0.043 C 
HETATM   10  C10 UNL     1       2.188  58.750  -3.523  1.00  0.00    -0.065 C 
HETATM   11  C11 UNL     1       1.308  58.076  -4.285  1.00  0.00    -0.022 C 
HETATM   12  C12 UNL     1       1.688  57.185  -5.425  1.00  0.00     0.035 C 
HETATM   13  C13 UNL     1       3.195  56.842  -5.492  1.00  0.00     0.030 C 
HETATM   14  C14 UNL     1       4.029  58.116  -5.203  1.00  0.00     0.012 C 
HETATM   15  C15 UNL     1       5.534  57.874  -5.423  1.00  0.00     0.007 C 
HETATM   16  C16 UNL     1       5.829  57.274  -6.791  1.00  0.00     0.013 C 
HETATM   17  C17 UNL     1       5.087  55.932  -7.047  1.00  0.00    -0.005 C 
HETATM   18  C18 UNL     1       5.696  54.848  -6.133  1.00  0.00     0.019 C 
HETATM   19  C19 UNL     1       5.202  55.601  -8.586  1.00  0.00     0.028 C 
HETATM   20  C24 UNL     1       3.886  56.121  -9.215  1.00  0.00     0.013 C 
HETATM   21  C25 UNL     1       3.108  56.821  -8.104  1.00  0.00     0.040 C 
HETATM   22  C26 UNL     1       3.559  56.115  -6.818  1.00  0.00     0.070 C 
HETATM   23  C27 UNL     1       1.706  59.559  -2.340  1.00  0.00     0.069 C 
HETATM   24  C28 UNL     1       2.310  60.963  -2.279  1.00  0.00     0.158 C 
HETATM   25  O8  UNL     1       1.935  61.530  -1.024  1.00  0.00    -0.347 OA
HETATM   26  C29 UNL     1       2.754  62.600  -0.550  1.00  0.00     0.325 C 
HETATM   27  O9  UNL     1       1.861  63.660  -0.147  1.00  0.00    -0.351 OA
ENDROOT
BRANCH  19  28
HETATM   28  C20 UNL     1       5.520  54.180  -8.968  1.00  0.00    -0.045 A 
HETATM   29  C21 UNL     1       6.693  53.545  -8.960  1.00  0.00     0.087 A 
HETATM   30  C22 UNL     1       6.448  52.184  -9.428  1.00  0.00     0.283 A 
HETATM   31  O5  UNL     1       7.301  51.324  -9.548  1.00  0.00    -0.260 OA
HETATM   32  O6  UNL     1       5.123  52.034  -9.694  1.00  0.00    -0.314 OA
HETATM   33  C23 UNL     1       4.452  53.265  -9.436  1.00  0.00     0.213 A 
ENDBRANCH  19  28
BRANCH  22  34
HETATM   34  O7  UNL     1       2.943  54.820  -6.805  1.00  0.00    -0.389 OA
HETATM   35  H34 UNL     1       1.977  54.930  -6.821  1.00  0.00     0.210 HD
ENDBRANCH  22  34
BRANCH   9  36
HETATM   36  C9  UNL     1       4.371  57.861  -2.685  1.00  0.00     0.245 C 
HETATM   37  O4  UNL     1       5.328  57.110  -2.852  1.00  0.00    -0.306 OA
ENDBRANCH   9  36
BRANCH   5  38
HETATM   38  O2  UNL     1       5.069  63.442  -0.732  1.00  0.00    -0.360 OA
HETATM   39  H9  UNL     1       5.394  62.599  -0.379  1.00  0.00     0.213 HD
ENDBRANCH   5  38
BRANCH   4  40
HETATM   40  O1  UNL     1       2.262  64.228  -2.994  1.00  0.00    -0.390 OA
HETATM   41  H8  UNL     1       1.511  64.065  -2.390  1.00  0.00     0.210 HD
ENDBRANCH   4  40
TORSDOF 5
ENDMDL
MODEL 4
REMARK minimizedAffinity -7.36105394
REMARK CNNscore 0.528267801
REMARK CNNaffinity 5.60218954
REMARK  5 active torsions:
REMARK  status: ('A' for Active; 'I' for Inactive)
REMARK    1  A    between atoms: C4_4  and  O1_5 
REMARK    2  A    between atoms: C5_6  and  O2_7 
REMARK    3  A    between atoms: C8_11  and  C9_12 
REMARK    4  A    between atoms: C19_23  and  C20_24 
REMARK    5  A    between atoms: C26_32  and  O7_33 
ROOT
HETATM    1  C1  UNL     1      -5.904  61.078   2.778  1.00  0.00     0.040 C 
HETATM    2  C2  UNL     1      -4.458  60.892   2.340  1.00  0.00     0.123 C 
HETATM    3  C3  UNL     1      -3.923  62.148   1.638  1.00  0.00     0.069 C 
HETATM    4  C4  UNL     1      -2.869  61.798   0.581  1.00  0.00     0.188 C 
HETATM    5  C5  UNL     1      -2.047  60.553   1.004  1.00  0.00     0.240 C 
HETATM    6  O3  UNL     1      -0.967  60.369   0.091  1.00  0.00    -0.341 OA
HETATM    7  C6  UNL     1      -0.841  59.036  -0.400  1.00  0.00     0.156 C 
HETATM    8  C7  UNL     1       0.219  59.072  -1.508  1.00  0.00     0.056 C 
HETATM    9  C8  UNL     1       0.429  57.718  -2.225  1.00  0.00     0.043 C 
HETATM   10  C10 UNL     1      -0.930  57.157  -2.641  1.00  0.00    -0.065 C 
HETATM   11  C11 UNL     1      -1.151  56.626  -3.856  1.00  0.00    -0.022 C 
HETATM   12  C12 UNL     1      -0.105  56.476  -4.915  1.00  0.00     0.035 C 
HETATM   13  C13 UNL     1       1.343  56.698  -4.416  1.00  0.00     0.030 C 
HETATM   14  C14 UNL     1       1.382  57.922  -3.467  1.00  0.00     0.012 C 
HETATM   15  C15 UNL     1       2.824  58.295  -3.076  1.00  0.00     0.007 C 
HETATM   16  C16 UNL     1       3.728  58.460  -4.290  1.00  0.00     0.013 C 
HETATM   17  C17 UNL     1       3.789  57.194  -5.188  1.00  0.00    -0.005 C 
HETATM   18  C18 UNL     1       4.547  56.084  -4.430  1.00  0.00     0.019 C 
HETATM   19  C19 UNL     1       4.466  57.602  -6.554  1.00  0.00     0.028 C 
HETATM   20  C24 UNL     1       3.291  57.886  -7.523  1.00  0.00     0.013 C 
HETATM   21  C25 UNL     1       2.004  57.759  -6.712  1.00  0.00     0.040 C 
HETATM   22  C26 UNL     1       2.352  56.761  -5.599  1.00  0.00     0.070 C 
HETATM   23  C27 UNL     1      -2.036  57.186  -1.610  1.00  0.00     0.069 C 
HETATM   24  C28 UNL     1      -2.188  58.544  -0.922  1.00  0.00     0.158 C 
HETATM   25  O8  UNL     1      -3.114  58.372   0.151  1.00  0.00    -0.347 OA
HETATM   26  C29 UNL     1      -3.045  59.341   1.198  1.00  0.00     0.325 C 
HETATM   27  O9  UNL     1      -4.398  59.781   1.447  1.00  0.00    -0.351 OA
ENDROOT
BRANCH  19  28
HETATM   28  C20 UNL     1       5.492  56.663  -7.129  1.00  0.00    -0.045 A 
HETATM   29  C21 UNL     1       5.429  55.914  -8.231  1.00  0.00     0.087 A 
HETATM   30  C22 UNL     1       6.690  55.183  -8.327  1.00  0.00     0.283 A 
HETATM   31  O5  UNL     1       6.977  54.401  -9.214  1.00  0.00    -0.260 OA
HETATM   32  O6  UNL     1       7.486  55.526  -7.278  1.00  0.00    -0.314 OA
HETATM   33  C23 UNL     1       6.796  56.462  -6.454  1.00  0.00     0.213 A 
ENDBRANCH  19  28
BRANCH  22  34
HETATM   34  O7  UNL     1       2.423  55.461  -6.199  1.00  0.00    -0.389 OA
HETATM   35  H34 UNL     1       1.562  55.250  -6.599  1.00  0.00     0.210 HD
ENDBRANCH  22  34
BRANCH   9  36
HETATM   36  C9  UNL     1       1.087  56.750  -1.218  1.00  0.00     0.245 C 
HETATM   37  O4  UNL     1       0.887  56.733  -0.006  1.00  0.00    -0.306 OA
ENDBRANCH   9  36
BRANCH   5  38
HETATM   38  O2  UNL     1      -1.427  60.875   2.262  1.00  0.00    -0.360 OA
HETATM   39  H9  UNL     1      -0.864  60.116   2.480  1.00  0.00     0.213 HD
ENDBRANCH   5  38
BRANCH   4  40
HETATM   40  O1  UNL     1      -3.529  61.596  -0.683  1.00  0.00    -0.390 OA
HETATM   41  H8  UNL     1      -4.255  60.961  -0.529  1.00  0.00     0.210 HD
ENDBRANCH   4  40
TORSDOF 5
ENDMDL
MODEL 5
REMARK minimizedAffinity -7.07978058
REMARK CNNscore 0.528105378
REMARK CNNaffinity 5.47817659
REMARK  5 active torsions:
REMARK  status: ('A' for Active; 'I' for Inactive)
REMARK    1  A    between atoms: C4_4  and  O1_5 
REMARK    2  A    between atoms: C5_6  and  O2_7 
REMARK    3  A    between atoms: C8_11  and  C9_12 
REMARK    4  A    between atoms: C19_23  and  C20_24 
REMARK    5  A    between atoms: C26_32  and  O7_33 
ROOT
HETATM    1  C1  UNL     1       5.527  65.929  -1.005  1.00  0.00     0.040 C 
HETATM    2  C2  UNL     1       6.155  64.635  -1.503  1.00  0.00     0.123 C 
HETATM    3  C3  UNL     1       7.026  64.880  -2.744  1.00  0.00     0.069 C 
HETATM    4  C4  UNL     1       7.042  63.660  -3.673  1.00  0.00     0.188 C 
HETATM    5  C5  UNL     1       6.935  62.342  -2.863  1.00  0.00     0.240 C 
HETATM    6  O3  UNL     1       7.134  61.234  -3.739  1.00  0.00    -0.341 OA
HETATM    7  C6  UNL     1       6.148  60.210  -3.616  1.00  0.00     0.156 C 
HETATM    8  C7  UNL     1       6.398  59.218  -4.757  1.00  0.00     0.056 C 
HETATM    9  C8  UNL     1       5.361  58.074  -4.838  1.00  0.00     0.043 C 
HETATM   10  C10 UNL     1       3.955  58.670  -4.788  1.00  0.00    -0.065 C 
HETATM   11  C11 UNL     1       2.971  58.271  -5.613  1.00  0.00    -0.022 C 
HETATM   12  C12 UNL     1       3.112  57.181  -6.630  1.00  0.00     0.035 C 
HETATM   13  C13 UNL     1       4.388  56.322  -6.470  1.00  0.00     0.030 C 
HETATM   14  C14 UNL     1       5.597  57.241  -6.159  1.00  0.00     0.012 C 
HETATM   15  C15 UNL     1       6.923  56.459  -6.159  1.00  0.00     0.007 C 
HETATM   16  C16 UNL     1       7.114  55.645  -7.431  1.00  0.00     0.013 C 
HETATM   17  C17 UNL     1       5.964  54.633  -7.692  1.00  0.00    -0.005 C 
HETATM   18  C18 UNL     1       6.039  53.513  -6.634  1.00  0.00     0.019 C 
HETATM   19  C19 UNL     1       6.103  54.113  -9.176  1.00  0.00     0.028 C 
HETATM   20  C24 UNL     1       5.138  54.992 -10.009  1.00  0.00     0.013 C 
HETATM   21  C25 UNL     1       4.562  56.042  -9.063  1.00  0.00     0.040 C 
HETATM   22  C26 UNL     1       4.593  55.370  -7.683  1.00  0.00     0.070 C 
HETATM   23  C27 UNL     1       3.686  59.724  -3.738  1.00  0.00     0.069 C 
HETATM   24  C28 UNL     1       4.752  60.821  -3.692  1.00  0.00     0.158 C 
HETATM   25  O8  UNL     1       4.485  61.620  -2.541  1.00  0.00    -0.347 OA
HETATM   26  C29 UNL     1       5.587  62.377  -2.034  1.00  0.00     0.325 C 
HETATM   27  O9  UNL     1       5.107  63.722  -1.827  1.00  0.00    -0.351 OA
ENDROOT
BRANCH  19  28
HETATM   28  C20 UNL     1       5.917  52.639  -9.415  1.00  0.00    -0.045 A 
HETATM   29  C21 UNL     1       6.817  51.655  -9.369  1.00  0.00     0.087 A 
HETATM   30  C22 UNL     1       6.114  50.415  -9.685  1.00  0.00     0.283 A 
HETATM   31  O5  UNL     1       6.631  49.314  -9.735  1.00  0.00    -0.260 OA
HETATM   32  O6  UNL     1       4.800  50.688  -9.902  1.00  0.00    -0.314 OA
HETATM   33  C23 UNL     1       4.584  52.090  -9.759  1.00  0.00     0.213 A 
ENDBRANCH  19  28
BRANCH  22  34
HETATM   34  O7  UNL     1       3.548  54.387  -7.665  1.00  0.00    -0.389 OA
HETATM   35  H34 UNL     1       2.697  54.829  -7.818  1.00  0.00     0.210 HD
ENDBRANCH  22  34
BRANCH   9  36
HETATM   36  C9  UNL     1       5.567  57.165  -3.606  1.00  0.00     0.245 C 
HETATM   37  O4  UNL     1       6.597  56.557  -3.330  1.00  0.00    -0.306 OA
ENDBRANCH   9  36
BRANCH   5  38
HETATM   38  O2  UNL     1       8.056  62.318  -1.961  1.00  0.00    -0.360 OA
HETATM   39  H9  UNL     1       8.013  61.459  -1.511  1.00  0.00     0.213 HD
ENDBRANCH   5  38
BRANCH   4  40
HETATM   40  O1  UNL     1       5.971  63.789  -4.626  1.00  0.00    -0.390 OA
HETATM   41  H8  UNL     1       5.156  63.971  -4.119  1.00  0.00     0.210 HD
ENDBRANCH   4  40
TORSDOF 5
ENDMDL
MODEL 6
REMARK minimizedAffinity -7.74509287
REMARK CNNscore 0.495770544
REMARK CNNaffinity 5.95130301
REMARK  5 active torsions:
REMARK  status: ('A' for Active; 'I' for Inactive)
REMARK    1  A    between atoms: C4_4  and  O1_5 
REMARK    2  A    between atoms: C5_6  and  O2_7 
REMARK    3  A    between atoms: C8_11  and  C9_12 
REMARK    4  A    between atoms: C19_23  and  C20_24 
REMARK    5  A    between atoms: C26_32  and  O7_33 
ROOT
HETATM    1  C1  UNL     1      11.009  56.375  -3.332  1.00  0.00     0.040 C 
HETATM    2  C2  UNL     1       9.518  56.481  -3.620  1.00  0.00     0.123 C 
HETATM    3  C3  UNL     1       8.713  55.501  -2.755  1.00  0.00     0.069 C 
HETATM    4  C4  UNL     1       7.441  55.029  -3.471  1.00  0.00     0.188 C 
HETATM    5  C5  UNL     1       6.868  56.144  -4.383  1.00  0.00     0.240 C 
HETATM    6  O3  UNL     1       5.598  55.735  -4.886  1.00  0.00    -0.341 OA
HETATM    7  C6  UNL     1       5.450  55.901  -6.295  1.00  0.00     0.156 C 
HETATM    8  C7  UNL     1       4.128  55.227  -6.682  1.00  0.00     0.056 C 
HETATM    9  C8  UNL     1       3.839  55.229  -8.201  1.00  0.00     0.043 C 
HETATM   10  C10 UNL     1       5.073  54.721  -8.945  1.00  0.00    -0.065 C 
HETATM   11  C11 UNL     1       4.995  53.829  -9.948  1.00  0.00    -0.022 C 
HETATM   12  C12 UNL     1       3.714  53.270 -10.483  1.00  0.00     0.035 C 
HETATM   13  C13 UNL     1       2.445  54.016 -10.007  1.00  0.00     0.030 C 
HETATM   14  C14 UNL     1       2.570  54.338  -8.496  1.00  0.00     0.012 C 
HETATM   15  C15 UNL     1       1.265  54.927  -7.930  1.00  0.00     0.007 C 
HETATM   16  C16 UNL     1       0.053  54.063  -8.251  1.00  0.00     0.013 C 
HETATM   17  C17 UNL     1      -0.150  53.830  -9.774  1.00  0.00    -0.005 C 
HETATM   18  C18 UNL     1      -0.580  55.161 -10.426  1.00  0.00     0.019 C 
HETATM   19  C19 UNL     1      -1.205  52.669  -9.950  1.00  0.00     0.028 C 
HETATM   20  C24 UNL     1      -0.367  51.383 -10.154  1.00  0.00     0.013 C 
HETATM   21  C25 UNL     1       1.099  51.776  -9.985  1.00  0.00     0.040 C 
HETATM   22  C26 UNL     1       1.150  53.251 -10.403  1.00  0.00     0.070 C 
HETATM   23  C27 UNL     1       6.413  55.289  -8.534  1.00  0.00     0.069 C 
HETATM   24  C28 UNL     1       6.638  55.276  -7.020  1.00  0.00     0.158 C 
HETATM   25  O8  UNL     1       7.833  56.014  -6.765  1.00  0.00    -0.347 OA
HETATM   26  C29 UNL     1       7.976  56.536  -5.443  1.00  0.00     0.325 C 
HETATM   27  O9  UNL     1       9.305  56.187  -5.001  1.00  0.00    -0.351 OA
ENDROOT
BRANCH  19  28
HETATM   28  C20 UNL     1      -2.271  52.853 -10.997  1.00  0.00    -0.045 A 
HETATM   29  C21 UNL     1      -2.259  52.503 -12.284  1.00  0.00     0.087 A 
HETATM   30  C22 UNL     1      -3.540  52.915 -12.853  1.00  0.00     0.283 A 
HETATM   31  O5  UNL     1      -3.873  52.753 -14.012  1.00  0.00    -0.260 OA
HETATM   32  O6  UNL     1      -4.295  53.494 -11.881  1.00  0.00    -0.314 OA
HETATM   33  C23 UNL     1      -3.558  53.506 -10.661  1.00  0.00     0.213 A 
ENDBRANCH  19  28
BRANCH  22  34
HETATM   34  O7  UNL     1       1.021  53.293 -11.831  1.00  0.00    -0.389 OA
HETATM   35  H34 UNL     1       1.754  52.793 -12.229  1.00  0.00     0.210 HD
ENDBRANCH  22  34
BRANCH   9  36
HETATM   36  C9  UNL     1       3.561  56.688  -8.624  1.00  0.00     0.245 C 
HETATM   37  O4  UNL     1       3.493  57.652  -7.866  1.00  0.00    -0.306 OA
ENDBRANCH   9  36
BRANCH   5  38
HETATM   38  O2  UNL     1       6.593  57.273  -3.533  1.00  0.00    -0.360 OA
HETATM   39  H9  UNL     1       6.174  57.935  -4.104  1.00  0.00     0.213 HD
ENDBRANCH   5  38
BRANCH   4  40
HETATM   40  O1  UNL     1       7.745  53.834  -4.215  1.00  0.00    -0.390 OA
HETATM   41  H8  UNL     1       8.534  54.028  -4.758  1.00  0.00     0.210 HD
ENDBRANCH   4  40
TORSDOF 5
ENDMDL
MODEL 7
REMARK minimizedAffinity -7.81112289
REMARK CNNscore 0.438287616
REMARK CNNaffinity 6.13546801
REMARK  5 active torsions:
REMARK  status: ('A' for Active; 'I' for Inactive)
REMARK    1  A    between atoms: C4_4  and  O1_5 
REMARK    2  A    between atoms: C5_6  and  O2_7 
REMARK    3  A    between atoms: C8_11  and  C9_12 
REMARK    4  A    between atoms: C19_23  and  C20_24 
REMARK    5  A    between atoms: C26_32  and  O7_33 
ROOT
HETATM    1  C1  UNL     1      -2.757  47.221 -18.771  1.00  0.00     0.040 C 
HETATM    2  C2  UNL     1      -2.812  48.310 -17.709  1.00  0.00     0.123 C 
HETATM    3  C3  UNL     1      -2.641  49.704 -18.330  1.00  0.00     0.069 C 
HETATM    4  C4  UNL     1      -1.960  50.676 -17.359  1.00  0.00     0.188 C 
HETATM    5  C5  UNL     1      -2.344  50.358 -15.891  1.00  0.00     0.240 C 
HETATM    6  O3  UNL     1      -1.841  51.386 -15.040  1.00  0.00    -0.341 OA
HETATM    7  C6  UNL     1      -1.133  50.901 -13.900  1.00  0.00     0.156 C 
HETATM    8  C7  UNL     1      -0.496  52.122 -13.225  1.00  0.00     0.056 C 
HETATM    9  C8  UNL     1       0.394  51.778 -12.008  1.00  0.00     0.043 C 
HETATM   10  C10 UNL     1       1.367  50.667 -12.399  1.00  0.00    -0.065 C 
HETATM   11  C11 UNL     1       2.671  50.701 -12.074  1.00  0.00    -0.022 C 
HETATM   12  C12 UNL     1       3.311  51.785 -11.264  1.00  0.00     0.035 C 
HETATM   13  C13 UNL     1       2.310  52.728 -10.556  1.00  0.00     0.030 C 
HETATM   14  C14 UNL     1       1.152  53.077 -11.526  1.00  0.00     0.012 C 
HETATM   15  C15 UNL     1       0.216  54.147 -10.935  1.00  0.00     0.007 C 
HETATM   16  C16 UNL     1       0.974  55.377 -10.455  1.00  0.00     0.013 C 
HETATM   17  C17 UNL     1       2.061  55.053  -9.392  1.00  0.00    -0.005 C 
HETATM   18  C18 UNL     1       1.362  54.631  -8.082  1.00  0.00     0.019 C 
HETATM   19  C19 UNL     1       2.980  56.326  -9.237  1.00  0.00     0.028 C 
HETATM   20  C24 UNL     1       4.201  56.062 -10.152  1.00  0.00     0.013 C 
HETATM   21  C25 UNL     1       3.933  54.750 -10.885  1.00  0.00     0.040 C 
HETATM   22  C26 UNL     1       3.026  53.959  -9.932  1.00  0.00     0.070 C 
HETATM   23  C27 UNL     1       0.801  49.483 -13.150  1.00  0.00     0.069 C 
HETATM   24  C28 UNL     1      -0.083  49.882 -14.333  1.00  0.00     0.158 C 
HETATM   25  O8  UNL     1      -0.704  48.691 -14.817  1.00  0.00    -0.347 OA
HETATM   26  C29 UNL     1      -1.903  48.872 -15.572  1.00  0.00     0.325 C 
HETATM   27  O9  UNL     1      -1.765  48.075 -16.768  1.00  0.00    -0.351 OA
ENDROOT
BRANCH  19  28
HETATM   28  C20 UNL     1       3.365  56.738  -7.841  1.00  0.00    -0.045 A 
HETATM   29  C21 UNL     1       2.758  57.591  -7.014  1.00  0.00     0.087 A 
HETATM   30  C22 UNL     1       3.546  57.634  -5.786  1.00  0.00     0.283 A 
HETATM   31  O5  UNL     1       3.283  58.314  -4.811  1.00  0.00    -0.260 OA
HETATM   32  O6  UNL     1       4.606  56.790  -5.905  1.00  0.00    -0.314 OA
HETATM   33  C23 UNL     1       4.576  56.180  -7.193  1.00  0.00     0.213 A 
ENDBRANCH  19  28
BRANCH  22  34
HETATM   34  O7  UNL     1       3.845  53.500  -8.847  1.00  0.00    -0.389 OA
HETATM   35  H34 UNL     1       4.553  52.937  -9.203  1.00  0.00     0.210 HD
ENDBRANCH  22  34
BRANCH   9  36
HETATM   36  C9  UNL     1      -0.529  51.266 -10.881  1.00  0.00     0.245 C 
HETATM   37  O4  UNL     1      -1.101  51.968 -10.051  1.00  0.00    -0.306 OA
ENDBRANCH   9  36
BRANCH   5  38
HETATM   38  O2  UNL     1      -3.777  50.465 -15.806  1.00  0.00    -0.360 OA
HETATM   39  H9  UNL     1      -3.995  50.331 -14.871  1.00  0.00     0.213 HD
ENDBRANCH   5  38
BRANCH   4  40
HETATM   40  O1  UNL     1      -0.536  50.613 -17.563  1.00  0.00    -0.390 OA
HETATM   41  H8  UNL     1      -0.282  49.670 -17.525  1.00  0.00     0.210 HD
ENDBRANCH   4  40
TORSDOF 5
ENDMDL
MODEL 8
REMARK minimizedAffinity -8.16444969
REMARK CNNscore 0.425404519
REMARK CNNaffinity 5.78600311
REMARK  5 active torsions:
REMARK  status: ('A' for Active; 'I' for Inactive)
REMARK    1  A    between atoms: C4_4  and  O1_5 
REMARK    2  A    between atoms: C5_6  and  O2_7 
REMARK    3  A    between atoms: C8_11  and  C9_12 
REMARK    4  A    between atoms: C19_23  and  C20_24 
REMARK    5  A    between atoms: C26_32  and  O7_33 
ROOT
HETATM    1  C1  UNL     1      -2.281  49.448 -20.870  1.00  0.00     0.040 C 
HETATM    2  C2  UNL     1      -3.667  49.071 -21.374  1.00  0.00     0.123 C 
HETATM    3  C3  UNL     1      -4.423  50.300 -21.900  1.00  0.00     0.069 C 
HETATM    4  C4  UNL     1      -5.937  50.158 -21.703  1.00  0.00     0.188 C 
HETATM    5  C5  UNL     1      -6.380  48.677 -21.826  1.00  0.00     0.240 C 
HETATM    6  O3  UNL     1      -7.804  48.609 -21.817  1.00  0.00    -0.341 OA
HETATM    7  C6  UNL     1      -8.335  47.642 -20.913  1.00  0.00     0.156 C 
HETATM    8  C7  UNL     1      -9.853  47.852 -20.884  1.00  0.00     0.056 C 
HETATM    9  C8  UNL     1     -10.598  46.941 -19.880  1.00  0.00     0.043 C 
HETATM   10  C10 UNL     1      -9.902  47.022 -18.522  1.00  0.00    -0.065 C 
HETATM   11  C11 UNL     1     -10.582  47.153 -17.369  1.00  0.00    -0.022 C 
HETATM   12  C12 UNL     1     -12.074  47.187 -17.268  1.00  0.00     0.035 C 
HETATM   13  C13 UNL     1     -12.810  46.754 -18.558  1.00  0.00     0.030 C 
HETATM   14  C14 UNL     1     -12.111  47.384 -19.789  1.00  0.00     0.012 C 
HETATM   15  C15 UNL     1     -12.900  47.129 -21.086  1.00  0.00     0.007 C 
HETATM   16  C16 UNL     1     -14.362  47.539 -20.964  1.00  0.00     0.013 C 
HETATM   17  C17 UNL     1     -15.107  46.824 -19.803  1.00  0.00    -0.005 C 
HETATM   18  C18 UNL     1     -15.268  45.332 -20.162  1.00  0.00     0.019 C 
HETATM   19  C19 UNL     1     -16.477  47.572 -19.573  1.00  0.00     0.028 C 
HETATM   20  C24 UNL     1     -16.211  48.564 -18.413  1.00  0.00     0.013 C 
HETATM   21  C25 UNL     1     -14.725  48.467 -18.076  1.00  0.00     0.040 C 
HETATM   22  C26 UNL     1     -14.338  47.034 -18.466  1.00  0.00     0.070 C 
HETATM   23  C27 UNL     1      -8.394  46.915 -18.508  1.00  0.00     0.069 C 
HETATM   24  C28 UNL     1      -7.712  47.825 -19.532  1.00  0.00     0.158 C 
HETATM   25  O8  UNL     1      -6.328  47.476 -19.550  1.00  0.00    -0.347 OA
HETATM   26  C29 UNL     1      -5.608  47.836 -20.730  1.00  0.00     0.325 C 
HETATM   27  O9  UNL     1      -4.395  48.487 -20.295  1.00  0.00    -0.351 OA
ENDROOT
BRANCH  19  28
HETATM   28  C20 UNL     1     -17.703  46.725 -19.358  1.00  0.00    -0.045 A 
HETATM   29  C21 UNL     1     -17.795  45.411 -19.148  1.00  0.00     0.087 A 
HETATM   30  C22 UNL     1     -19.214  45.096 -19.009  1.00  0.00     0.283 A 
HETATM   31  O5  UNL     1     -19.666  43.984 -18.809  1.00  0.00    -0.260 OA
HETATM   32  O6  UNL     1     -19.939  46.241 -19.127  1.00  0.00    -0.314 OA
HETATM   33  C23 UNL     1     -19.054  47.334 -19.361  1.00  0.00     0.213 A 
ENDBRANCH  19  28
BRANCH  22  34
HETATM   34  O7  UNL     1     -14.897  46.158 -17.477  1.00  0.00    -0.389 OA
HETATM   35  H34 UNL     1     -14.534  46.392 -16.607  1.00  0.00     0.210 HD
ENDBRANCH  22  34
BRANCH   9  36
HETATM   36  C9  UNL     1     -10.510  45.492 -20.406  1.00  0.00     0.245 C 
HETATM   37  O4  UNL     1     -10.147  45.160 -21.531  1.00  0.00    -0.306 OA
ENDBRANCH   9  36
BRANCH   5  38
HETATM   38  O2  UNL     1      -5.988  48.237 -23.138  1.00  0.00    -0.360 OA
HETATM   39  H9  UNL     1      -6.330  47.333 -23.225  1.00  0.00     0.213 HD
ENDBRANCH   5  38
BRANCH   4  40
HETATM   40  O1  UNL     1      -6.292  50.716 -20.423  1.00  0.00    -0.390 OA
HETATM   41  H8  UNL     1      -5.701  50.310 -19.760  1.00  0.00     0.210 HD
ENDBRANCH   4  40
TORSDOF 5
ENDMDL
MODEL 9
REMARK minimizedAffinity -10.0755472
REMARK CNNscore 0.393511713
REMARK CNNaffinity 6.19915152
REMARK  5 active torsions:
REMARK  status: ('A' for Active; 'I' for Inactive)
REMARK    1  A    between atoms: C4_4  and  O1_5 
REMARK    2  A    between atoms: C5_6  and  O2_7 
REMARK    3  A    between atoms: C8_11  and  C9_12 
REMARK    4  A    between atoms: C19_23  and  C20_24 
REMARK    5  A    between atoms: C26_32  and  O7_33 
ROOT
HETATM    1  C1  UNL     1     -11.140  44.410 -30.055  1.00  0.00     0.040 C 
HETATM    2  C2  UNL     1     -10.132  45.445 -29.574  1.00  0.00     0.123 C 
HETATM    3  C3  UNL     1      -8.734  45.168 -30.145  1.00  0.00     0.069 C 
HETATM    4  C4  UNL     1      -7.630  45.632 -29.187  1.00  0.00     0.188 C 
HETATM    5  C5  UNL     1      -8.073  46.888 -28.392  1.00  0.00     0.240 C 
HETATM    6  O3  UNL     1      -6.964  47.392 -27.652  1.00  0.00    -0.341 OA
HETATM    7  C6  UNL     1      -7.254  47.661 -26.281  1.00  0.00     0.156 C 
HETATM    8  C7  UNL     1      -5.918  47.989 -25.604  1.00  0.00     0.056 C 
HETATM    9  C8  UNL     1      -6.025  48.225 -24.079  1.00  0.00     0.043 C 
HETATM   10  C10 UNL     1      -6.810  47.076 -23.449  1.00  0.00    -0.065 C 
HETATM   11  C11 UNL     1      -6.419  46.468 -22.315  1.00  0.00    -0.022 C 
HETATM   12  C12 UNL     1      -5.216  46.865 -21.518  1.00  0.00     0.035 C 
HETATM   13  C13 UNL     1      -4.607  48.229 -21.918  1.00  0.00     0.030 C 
HETATM   14  C14 UNL     1      -4.576  48.349 -23.463  1.00  0.00     0.012 C 
HETATM   15  C15 UNL     1      -3.823  49.611 -23.922  1.00  0.00     0.007 C 
HETATM   16  C16 UNL     1      -2.440  49.721 -23.294  1.00  0.00     0.013 C 
HETATM   17  C17 UNL     1      -2.469  49.720 -21.740  1.00  0.00    -0.005 C 
HETATM   18  C18 UNL     1      -3.097  51.044 -21.256  1.00  0.00     0.019 C 
HETATM   19  C19 UNL     1      -0.993  49.495 -21.229  1.00  0.00     0.028 C 
HETATM   20  C24 UNL     1      -0.885  47.977 -20.945  1.00  0.00     0.013 C 
HETATM   21  C25 UNL     1      -2.204  47.347 -21.385  1.00  0.00     0.040 C 
HETATM   22  C26 UNL     1      -3.237  48.470 -21.221  1.00  0.00     0.070 C 
HETATM   23  C27 UNL     1      -8.089  46.653 -24.136  1.00  0.00     0.069 C 
HETATM   24  C28 UNL     1      -7.929  46.450 -25.644  1.00  0.00     0.158 C 
HETATM   25  O8  UNL     1      -9.236  46.256 -26.185  1.00  0.00    -0.347 OA
HETATM   26  C29 UNL     1      -9.382  46.525 -27.580  1.00  0.00     0.325 C 
HETATM   27  O9  UNL     1     -10.085  45.399 -28.149  1.00  0.00    -0.351 OA
ENDROOT
BRANCH  19  28
HETATM   28  C20 UNL     1      -0.518  50.347 -20.082  1.00  0.00    -0.045 A 
HETATM   29  C21 UNL     1      -0.544  50.091 -18.773  1.00  0.00     0.087 A 
HETATM   30  C22 UNL     1       0.032  51.250 -18.097  1.00  0.00     0.283 A 
HETATM   31  O5  UNL     1       0.165  51.361 -16.892  1.00  0.00    -0.260 OA
HETATM   32  O6  UNL     1       0.402  52.172 -19.027  1.00  0.00    -0.314 OA
HETATM   33  C23 UNL     1       0.078  51.682 -20.326  1.00  0.00     0.213 A 
ENDBRANCH  19  28
BRANCH  22  34
HETATM   34  O7  UNL     1      -3.471  48.632 -19.815  1.00  0.00    -0.389 OA
HETATM   35  H34 UNL     1      -3.806  47.795 -19.453  1.00  0.00     0.210 HD
ENDBRANCH  22  34
BRANCH   9  36
HETATM   36  C9  UNL     1      -6.797  49.544 -23.860  1.00  0.00     0.245 C 
HETATM   37  O4  UNL     1      -7.493  49.812 -22.885  1.00  0.00    -0.306 OA
ENDBRANCH   9  36
BRANCH   5  38
HETATM   38  O2  UNL     1      -8.374  47.906 -29.364  1.00  0.00    -0.360 OA
HETATM   39  H9  UNL     1      -8.583  48.703 -28.852  1.00  0.00     0.213 HD
ENDBRANCH   5  38
BRANCH   4  40
HETATM   40  O1  UNL     1      -7.288  44.540 -28.311  1.00  0.00    -0.390 OA
HETATM   41  H8  UNL     1      -8.122  44.209 -27.927  1.00  0.00     0.210 HD
ENDBRANCH   4  40
TORSDOF 5
ENDMDL
