MODEL 1
REMARK minimizedAffinity -8.52142906
REMARK CNNscore 0.542026758
REMARK CNNaffinity 6.97742891
REMARK  7 active torsions:
REMARK  status: ('A' for Active; 'I' for Inactive)
REMARK    1  A    between atoms: C4_4  and  C5_5 
REMARK    2  A    between atoms: C15_15  and  C16_16 
REMARK    3  A    between atoms: C16_16  and  C18_18 
REMARK    4  A    between atoms: C18_18  and  C19_19 
REMARK    5  A    between atoms: C23_25  and  C24_26 
REMARK    6  A    between atoms: C27_29  and  O3_30 
REMARK    7  A    between atoms: C30_33  and  O4_34 
ROOT
HETATM    1  C5  UNL     1      -1.795  51.378 -19.350  1.00  0.00     0.004 C 
HETATM    2  C6  UNL     1      -1.584  50.531 -20.378  1.00  0.00    -0.075 C 
HETATM    3  C7  UNL     1      -0.464  49.508 -20.474  1.00  0.00     0.034 C 
HETATM    4  C8  UNL     1      -0.982  48.099 -20.791  1.00  0.00     0.005 C 
HETATM    5  C9  UNL     1      -1.928  48.072 -22.002  1.00  0.00     0.010 C 
HETATM    6  C10 UNL     1      -3.067  49.101 -21.875  1.00  0.00    -0.033 C 
HETATM    7  C11 UNL     1      -3.990  48.648 -20.698  1.00  0.00     0.016 C 
HETATM    8  C12 UNL     1      -2.457  50.503 -21.624  1.00  0.00     0.023 C 
HETATM    9  C13 UNL     1      -3.658  51.435 -21.772  1.00  0.00     0.010 C 
HETATM   10  C14 UNL     1      -4.481  50.822 -22.911  1.00  0.00     0.006 C 
HETATM   11  C15 UNL     1      -3.995  49.353 -23.110  1.00  0.00    -0.002 C 
ENDROOT
BRANCH   1  12
HETATM   12  C4  UNL     1      -1.015  51.481 -18.134  1.00  0.00     0.008 C 
HETATM   13  C3  UNL     1      -0.972  50.594 -17.117  1.00  0.00    -0.048 C 
HETATM   14  C2  UNL     1      -0.122  50.841 -15.946  1.00  0.00    -0.032 C 
HETATM   15  C26 UNL     1      -1.756  49.301 -17.002  1.00  0.00     0.071 C 
HETATM   16  C1  UNL     1       1.203  51.033 -16.078  1.00  0.00     0.022 C 
HETATM   17  C30 UNL     1      -0.871  50.788 -14.620  1.00  0.00     0.157 C 
HETATM   18  C28 UNL     1      -1.607  49.445 -14.461  1.00  0.00     0.044 C 
HETATM   19  C27 UNL     1      -2.524  49.196 -15.671  1.00  0.00     0.129 C 
HETATM   20  C29 UNL     1      -2.388  49.391 -13.144  1.00  0.00     0.015 C 
BRANCH  17  21
HETATM   21  O4  UNL     1       0.027  50.965 -13.523  1.00  0.00    -0.390 OA
HETATM   22  H44 UNL     1       0.328  51.888 -13.571  1.00  0.00     0.210 HD
ENDBRANCH  17  21
BRANCH  19  23
HETATM   23  O3  UNL     1      -3.614  50.121 -15.655  1.00  0.00    -0.395 OA
HETATM   24  H38 UNL     1      -4.103  50.026 -16.490  1.00  0.00     0.210 HD
ENDBRANCH  19  23
ENDBRANCH   1  12
BRANCH  11  25
HETATM   25  C16 UNL     1      -3.514  49.122 -24.577  1.00  0.00    -0.011 C 
HETATM   26  C17 UNL     1      -4.536  48.437 -25.495  1.00  0.00     0.010 C 
BRANCH  25  27
HETATM   27  C18 UNL     1      -2.948  50.370 -25.287  1.00  0.00     0.038 C 
BRANCH  27  28
HETATM   28  C19 UNL     1      -1.421  50.554 -25.306  1.00  0.00     0.141 C 
HETATM   29  O1  UNL     1      -1.050  50.894 -23.952  1.00  0.00    -0.311 OA
HETATM   30  C20 UNL     1       0.002  51.750 -23.944  1.00  0.00     0.289 C 
HETATM   31  O2  UNL     1       0.622  52.105 -22.960  1.00  0.00    -0.260 OA
HETATM   32  C21 UNL     1       0.239  52.175 -25.342  1.00  0.00     0.014 C 
HETATM   33  C22 UNL     1       1.370  52.810 -25.673  1.00  0.00     0.025 C 
HETATM   34  C23 UNL     1      -0.918  51.716 -26.174  1.00  0.00     0.053 C 
BRANCH  34  35
HETATM   35  C24 UNL     1      -0.577  51.307 -27.615  1.00  0.00     0.007 C 
HETATM   36  C25 UNL     1      -0.152  52.490 -28.480  1.00  0.00     0.006 C 
ENDBRANCH  34  35
ENDBRANCH  27  28
ENDBRANCH  25  27
ENDBRANCH  11  25
TORSDOF 7
ENDMDL
MODEL 2
REMARK minimizedAffinity -8.50346565
REMARK CNNscore 0.54069829
REMARK CNNaffinity 6.44761276
REMARK  7 active torsions:
REMARK  status: ('A' for Active; 'I' for Inactive)
REMARK    1  A    between atoms: C4_4  and  C5_5 
REMARK    2  A    between atoms: C15_15  and  C16_16 
REMARK    3  A    between atoms: C16_16  and  C18_18 
REMARK    4  A    between atoms: C18_18  and  C19_19 
REMARK    5  A    between atoms: C23_25  and  C24_26 
REMARK    6  A    between atoms: C27_29  and  O3_30 
REMARK    7  A    between atoms: C30_33  and  O4_34 
ROOT
HETATM    1  C5  UNL     1       7.133  56.158  -6.552  1.00  0.00     0.004 C 
HETATM    2  C6  UNL     1       6.580  55.715  -7.699  1.00  0.00    -0.075 C 
HETATM    3  C7  UNL     1       7.247  54.800  -8.714  1.00  0.00     0.034 C 
HETATM    4  C8  UNL     1       6.386  53.577  -9.056  1.00  0.00     0.005 C 
HETATM    5  C9  UNL     1       4.945  53.952  -9.437  1.00  0.00     0.010 C 
HETATM    6  C10 UNL     1       4.281  54.860  -8.385  1.00  0.00    -0.033 C 
HETATM    7  C11 UNL     1       4.093  54.021  -7.081  1.00  0.00     0.016 C 
HETATM    8  C12 UNL     1       5.179  56.101  -8.149  1.00  0.00     0.023 C 
HETATM    9  C13 UNL     1       4.295  57.012  -7.299  1.00  0.00     0.010 C 
HETATM   10  C14 UNL     1       2.884  56.812  -7.864  1.00  0.00     0.006 C 
HETATM   11  C15 UNL     1       2.895  55.505  -8.716  1.00  0.00    -0.002 C 
ENDROOT
BRANCH   1  12
HETATM   12  C4  UNL     1       8.456  55.851  -6.048  1.00  0.00     0.008 C 
HETATM   13  C3  UNL     1       9.120  56.487  -5.061  1.00  0.00    -0.048 C 
HETATM   14  C2  UNL     1      10.464  56.050  -4.661  1.00  0.00    -0.032 C 
HETATM   15  C26 UNL     1       8.645  57.693  -4.273  1.00  0.00     0.071 C 
HETATM   16  C1  UNL     1      10.688  54.789  -4.249  1.00  0.00     0.022 C 
HETATM   17  C30 UNL     1      11.508  57.158  -4.699  1.00  0.00     0.157 C 
HETATM   18  C28 UNL     1      11.067  58.355  -3.837  1.00  0.00     0.044 C 
HETATM   19  C27 UNL     1       9.673  58.839  -4.274  1.00  0.00     0.129 C 
HETATM   20  C29 UNL     1      12.098  59.488  -3.891  1.00  0.00     0.015 C 
BRANCH  17  21
HETATM   21  O4  UNL     1      12.771  56.681  -4.231  1.00  0.00    -0.390 OA
HETATM   22  H44 UNL     1      13.086  56.055  -4.905  1.00  0.00     0.210 HD
ENDBRANCH  17  21
BRANCH  19  23
HETATM   23  O3  UNL     1       9.749  59.435  -5.571  1.00  0.00    -0.395 OA
HETATM   24  H38 UNL     1       8.843  59.615  -5.874  1.00  0.00     0.210 HD
ENDBRANCH  19  23
ENDBRANCH   1  12
BRANCH  11  25
HETATM   25  C16 UNL     1       2.435  55.795 -10.179  1.00  0.00    -0.011 C 
HETATM   26  C17 UNL     1       3.487  56.470 -11.070  1.00  0.00     0.010 C 
BRANCH  25  27
HETATM   27  C18 UNL     1       1.831  54.589 -10.929  1.00  0.00     0.038 C 
BRANCH  27  28
HETATM   28  C19 UNL     1       0.521  53.990 -10.388  1.00  0.00     0.141 C 
HETATM   29  O1  UNL     1       0.128  52.978 -11.342  1.00  0.00    -0.311 OA
HETATM   30  C20 UNL     1      -1.223  52.906 -11.433  1.00  0.00     0.289 C 
HETATM   31  O2  UNL     1      -1.850  52.063 -12.045  1.00  0.00    -0.260 OA
HETATM   32  C21 UNL     1      -1.781  54.042 -10.666  1.00  0.00     0.014 C 
HETATM   33  C22 UNL     1      -3.085  54.077 -10.362  1.00  0.00     0.025 C 
HETATM   34  C23 UNL     1      -0.659  54.969 -10.316  1.00  0.00     0.053 C 
BRANCH  34  35
HETATM   35  C24 UNL     1      -0.787  55.683  -8.962  1.00  0.00     0.007 C 
HETATM   36  C25 UNL     1      -0.433  54.783  -7.783  1.00  0.00     0.006 C 
ENDBRANCH  34  35
ENDBRANCH  27  28
ENDBRANCH  25  27
ENDBRANCH  11  25
TORSDOF 7
ENDMDL
MODEL 3
REMARK minimizedAffinity -9.49307346
REMARK CNNscore 0.41637519
REMARK CNNaffinity 6.59658384
REMARK  7 active torsions:
REMARK  status: ('A' for Active; 'I' for Inactive)
REMARK    1  A    between atoms: C4_4  and  C5_5 
REMARK    2  A    between atoms: C15_15  and  C16_16 
REMARK    3  A    between atoms: C16_16  and  C18_18 
REMARK    4  A    between atoms: C18_18  and  C19_19 
REMARK    5  A    between atoms: C23_25  and  C24_26 
REMARK    6  A    between atoms: C27_29  and  O3_30 
REMARK    7  A    between atoms: C30_33  and  O4_34 
ROOT
HETATM    1  C5  UNL     1      -6.163  47.899 -24.946  1.00  0.00     0.004 C 
HETATM    2  C6  UNL     1      -5.542  49.042 -24.591  1.00  0.00    -0.075 C 
HETATM    3  C7  UNL     1      -6.094  50.101 -23.650  1.00  0.00     0.034 C 
HETATM    4  C8  UNL     1      -5.114  50.452 -22.523  1.00  0.00     0.005 C 
HETATM    5  C9  UNL     1      -3.706  50.783 -23.042  1.00  0.00     0.010 C 
HETATM    6  C10 UNL     1      -3.157  49.688 -23.976  1.00  0.00    -0.033 C 
HETATM    7  C11 UNL     1      -2.923  48.403 -23.119  1.00  0.00     0.016 C 
HETATM    8  C12 UNL     1      -4.173  49.443 -25.119  1.00  0.00     0.023 C 
HETATM    9  C13 UNL     1      -3.400  48.543 -26.083  1.00  0.00     0.010 C 
HETATM   10  C14 UNL     1      -1.963  49.074 -26.033  1.00  0.00     0.006 C 
HETATM   11  C15 UNL     1      -1.830  49.962 -24.758  1.00  0.00    -0.002 C 
ENDROOT
BRANCH   1  12
HETATM   12  C4  UNL     1      -7.463  47.441 -24.501  1.00  0.00     0.008 C 
HETATM   13  C3  UNL     1      -8.510  47.085 -25.275  1.00  0.00    -0.048 C 
HETATM   14  C2  UNL     1      -9.770  46.636 -24.668  1.00  0.00    -0.032 C 
HETATM   15  C26 UNL     1      -8.574  47.114 -26.790  1.00  0.00     0.071 C 
HETATM   16  C1  UNL     1      -9.799  45.587 -23.827  1.00  0.00     0.022 C 
HETATM   17  C30 UNL     1     -10.991  47.418 -25.136  1.00  0.00     0.157 C 
HETATM   18  C28 UNL     1     -11.106  47.385 -26.671  1.00  0.00     0.044 C 
HETATM   19  C27 UNL     1      -9.800  47.886 -27.312  1.00  0.00     0.129 C 
HETATM   20  C29 UNL     1     -12.315  48.193 -27.155  1.00  0.00     0.015 C 
BRANCH  17  21
HETATM   21  O4  UNL     1     -12.185  46.883 -24.563  1.00  0.00    -0.390 OA
HETATM   22  H44 UNL     1     -12.140  47.088 -23.613  1.00  0.00     0.210 HD
ENDBRANCH  17  21
BRANCH  19  23
HETATM   23  O3  UNL     1      -9.643  49.286 -27.068  1.00  0.00    -0.395 OA
HETATM   24  H38 UNL     1      -8.757  49.548 -27.371  1.00  0.00     0.210 HD
ENDBRANCH  19  23
ENDBRANCH   1  12
BRANCH  11  25
HETATM   25  C16 UNL     1      -1.362  51.404 -25.133  1.00  0.00    -0.011 C 
HETATM   26  C17 UNL     1      -2.430  52.495 -24.972  1.00  0.00     0.010 C 
BRANCH  25  27
HETATM   27  C18 UNL     1      -0.054  51.867 -24.459  1.00  0.00     0.038 C 
BRANCH  27  28
HETATM   28  C19 UNL     1      -0.162  52.609 -23.116  1.00  0.00     0.141 C 
HETATM   29  O1  UNL     1       0.766  53.713 -23.201  1.00  0.00    -0.311 OA
HETATM   30  C20 UNL     1       1.313  53.973 -21.988  1.00  0.00     0.289 C 
HETATM   31  O2  UNL     1       2.019  54.925 -21.716  1.00  0.00    -0.260 OA
HETATM   32  C21 UNL     1       0.902  52.885 -21.073  1.00  0.00     0.014 C 
HETATM   33  C22 UNL     1       1.075  53.011 -19.751  1.00  0.00     0.025 C 
HETATM   34  C23 UNL     1       0.276  51.797 -21.889  1.00  0.00     0.053 C 
BRANCH  34  35
HETATM   35  C24 UNL     1      -0.872  51.035 -21.210  1.00  0.00     0.007 C 
HETATM   36  C25 UNL     1      -0.385  49.864 -20.364  1.00  0.00     0.006 C 
ENDBRANCH  34  35
ENDBRANCH  27  28
ENDBRANCH  25  27
ENDBRANCH  11  25
TORSDOF 7
ENDMDL
MODEL 4
REMARK minimizedAffinity -8.47031403
REMARK CNNscore 0.294299304
REMARK CNNaffinity 6.24096537
REMARK  7 active torsions:
REMARK  status: ('A' for Active; 'I' for Inactive)
REMARK    1  A    between atoms: C4_4  and  C5_5 
REMARK    2  A    between atoms: C15_15  and  C16_16 
REMARK    3  A    between atoms: C16_16  and  C18_18 
REMARK    4  A    between atoms: C18_18  and  C19_19 
REMARK    5  A    between atoms: C23_25  and  C24_26 
REMARK    6  A    between atoms: C27_29  and  O3_30 
REMARK    7  A    between atoms: C30_33  and  O4_34 
ROOT
HETATM    1  C5  UNL     1      -3.801  51.466 -22.798  1.00  0.00     0.004 C 
HETATM    2  C6  UNL     1      -4.207  50.679 -23.815  1.00  0.00    -0.075 C 
HETATM    3  C7  UNL     1      -3.400  50.342 -25.059  1.00  0.00     0.034 C 
HETATM    4  C8  UNL     1      -3.313  48.831 -25.310  1.00  0.00     0.005 C 
HETATM    5  C9  UNL     1      -4.687  48.143 -25.279  1.00  0.00     0.010 C 
HETATM    6  C10 UNL     1      -5.479  48.480 -24.002  1.00  0.00    -0.033 C 
HETATM    7  C11 UNL     1      -4.733  47.830 -22.793  1.00  0.00     0.016 C 
HETATM    8  C12 UNL     1      -5.577  50.020 -23.860  1.00  0.00     0.023 C 
HETATM    9  C13 UNL     1      -6.581  50.199 -22.721  1.00  0.00     0.010 C 
HETATM   10  C14 UNL     1      -7.609  49.082 -22.938  1.00  0.00     0.006 C 
HETATM   11  C15 UNL     1      -6.976  48.036 -23.906  1.00  0.00    -0.002 C 
ENDROOT
BRANCH   1  12
HETATM   12  C4  UNL     1      -2.523  52.137 -22.675  1.00  0.00     0.008 C 
HETATM   13  C3  UNL     1      -1.514  51.820 -21.837  1.00  0.00    -0.048 C 
HETATM   14  C2  UNL     1      -0.271  52.601 -21.835  1.00  0.00    -0.032 C 
HETATM   15  C26 UNL     1      -1.500  50.706 -20.809  1.00  0.00     0.071 C 
HETATM   16  C1  UNL     1       0.460  52.745 -22.956  1.00  0.00     0.022 C 
HETATM   17  C30 UNL     1       0.111  53.145 -20.465  1.00  0.00     0.157 C 
HETATM   18  C28 UNL     1       0.205  52.008 -19.431  1.00  0.00     0.044 C 
HETATM   19  C27 UNL     1      -1.108  51.206 -19.405  1.00  0.00     0.129 C 
HETATM   20  C29 UNL     1       0.561  52.547 -18.041  1.00  0.00     0.015 C 
BRANCH  17  21
HETATM   21  O4  UNL     1       1.364  53.831 -20.523  1.00  0.00    -0.390 OA
HETATM   22  H44 UNL     1       1.203  54.636 -21.045  1.00  0.00     0.210 HD
ENDBRANCH  17  21
BRANCH  19  23
HETATM   23  O3  UNL     1      -2.157  52.006 -18.855  1.00  0.00    -0.395 OA
HETATM   24  H38 UNL     1      -2.995  51.524 -18.967  1.00  0.00     0.210 HD
ENDBRANCH  19  23
ENDBRANCH   1  12
BRANCH  11  25
HETATM   25  C16 UNL     1      -7.872  47.836 -25.169  1.00  0.00    -0.011 C 
HETATM   26  C17 UNL     1      -7.106  47.661 -26.487  1.00  0.00     0.010 C 
BRANCH  25  27
HETATM   27  C18 UNL     1      -8.939  46.728 -25.048  1.00  0.00     0.038 C 
BRANCH  27  28
HETATM   28  C19 UNL     1     -10.414  47.158 -24.969  1.00  0.00     0.141 C 
HETATM   29  O1  UNL     1     -10.772  47.079 -23.571  1.00  0.00    -0.311 OA
HETATM   30  C20 UNL     1     -12.068  46.707 -23.429  1.00  0.00     0.289 C 
HETATM   31  O2  UNL     1     -12.691  46.688 -22.385  1.00  0.00    -0.260 OA
HETATM   32  C21 UNL     1     -12.569  46.322 -24.767  1.00  0.00     0.014 C 
HETATM   33  C22 UNL     1     -13.882  46.162 -24.978  1.00  0.00     0.025 C 
HETATM   34  C23 UNL     1     -11.399  46.235 -25.698  1.00  0.00     0.053 C 
BRANCH  34  35
HETATM   35  C24 UNL     1     -11.677  46.652 -27.151  1.00  0.00     0.007 C 
HETATM   36  C25 UNL     1     -11.621  48.163 -27.352  1.00  0.00     0.006 C 
ENDBRANCH  34  35
ENDBRANCH  27  28
ENDBRANCH  25  27
ENDBRANCH  11  25
TORSDOF 7
ENDMDL
MODEL 5
REMARK minimizedAffinity -8.21772003
REMARK CNNscore 0.274233311
REMARK CNNaffinity 6.42258406
REMARK  7 active torsions:
REMARK  status: ('A' for Active; 'I' for Inactive)
REMARK    1  A    between atoms: C4_4  and  C5_5 
REMARK    2  A    between atoms: C15_15  and  C16_16 
REMARK    3  A    between atoms: C16_16  and  C18_18 
REMARK    4  A    between atoms: C18_18  and  C19_19 
REMARK    5  A    between atoms: C23_25  and  C24_26 
REMARK    6  A    between atoms: C27_29  and  O3_30 
REMARK    7  A    between atoms: C30_33  and  O4_34 
ROOT
HETATM    1  C5  UNL     1      -0.237  51.217 -12.850  1.00  0.00     0.004 C 
HETATM    2  C6  UNL     1       0.005  51.518 -14.142  1.00  0.00    -0.075 C 
HETATM    3  C7  UNL     1       1.178  52.334 -14.662  1.00  0.00     0.034 C 
HETATM    4  C8  UNL     1       1.946  51.612 -15.777  1.00  0.00     0.005 C 
HETATM    5  C9  UNL     1       1.025  51.098 -16.896  1.00  0.00     0.010 C 
HETATM    6  C10 UNL     1      -0.143  50.256 -16.350  1.00  0.00    -0.033 C 
HETATM    7  C11 UNL     1       0.454  48.942 -15.754  1.00  0.00     0.016 C 
HETATM    8  C12 UNL     1      -0.904  51.081 -15.281  1.00  0.00     0.023 C 
HETATM    9  C13 UNL     1      -2.154  50.242 -15.021  1.00  0.00     0.010 C 
HETATM   10  C14 UNL     1      -2.530  49.679 -16.397  1.00  0.00     0.006 C 
HETATM   11  C15 UNL     1      -1.288  49.834 -17.328  1.00  0.00    -0.002 C 
ENDROOT
BRANCH   1  12
HETATM   12  C4  UNL     1       0.565  51.594 -11.704  1.00  0.00     0.008 C 
HETATM   13  C3  UNL     1       0.140  52.204 -10.578  1.00  0.00    -0.048 C 
HETATM   14  C2  UNL     1       1.082  52.519  -9.497  1.00  0.00    -0.032 C 
HETATM   15  C26 UNL     1      -1.272  52.662 -10.267  1.00  0.00     0.071 C 
HETATM   16  C1  UNL     1       1.819  51.555  -8.916  1.00  0.00     0.022 C 
HETATM   17  C30 UNL     1       1.076  53.985  -9.084  1.00  0.00     0.157 C 
HETATM   18  C28 UNL     1      -0.343  54.437  -8.691  1.00  0.00     0.044 C 
HETATM   19  C27 UNL     1      -1.330  54.139  -9.833  1.00  0.00     0.129 C 
HETATM   20  C29 UNL     1      -0.367  55.919  -8.301  1.00  0.00     0.015 C 
BRANCH  17  21
HETATM   21  O4  UNL     1       1.961  54.205  -7.983  1.00  0.00    -0.390 OA
HETATM   22  H44 UNL     1       2.859  54.077  -8.333  1.00  0.00     0.210 HD
ENDBRANCH  17  21
BRANCH  19  23
HETATM   23  O3  UNL     1      -1.057  54.992 -10.948  1.00  0.00    -0.395 OA
HETATM   24  H38 UNL     1      -1.607  54.699 -11.695  1.00  0.00     0.210 HD
ENDBRANCH  19  23
ENDBRANCH   1  12
BRANCH  11  25
HETATM   25  C16 UNL     1      -1.650  50.664 -18.600  1.00  0.00    -0.011 C 
HETATM   26  C17 UNL     1      -3.137  51.019 -18.743  1.00  0.00     0.010 C 
BRANCH  25  27
HETATM   27  C18 UNL     1      -0.800  51.933 -18.820  1.00  0.00     0.038 C 
BRANCH  27  28
HETATM   28  C19 UNL     1       0.122  51.974 -20.051  1.00  0.00     0.141 C 
HETATM   29  O1  UNL     1       0.918  53.171 -19.906  1.00  0.00    -0.311 OA
HETATM   30  C20 UNL     1       1.189  53.716 -21.118  1.00  0.00     0.289 C 
HETATM   31  O2  UNL     1       1.947  54.643 -21.327  1.00  0.00    -0.260 OA
HETATM   32  C21 UNL     1       0.385  52.985 -22.123  1.00  0.00     0.014 C 
HETATM   33  C22 UNL     1       0.642  53.129 -23.429  1.00  0.00     0.025 C 
HETATM   34  C23 UNL     1      -0.600  52.122 -21.398  1.00  0.00     0.053 C 
BRANCH  34  35
HETATM   35  C24 UNL     1      -0.929  50.781 -22.072  1.00  0.00     0.007 C 
HETATM   36  C25 UNL     1      -2.341  50.740 -22.649  1.00  0.00     0.006 C 
ENDBRANCH  34  35
ENDBRANCH  27  28
ENDBRANCH  25  27
ENDBRANCH  11  25
TORSDOF 7
ENDMDL
MODEL 6
REMARK minimizedAffinity -10.0884247
REMARK CNNscore 0.266934633
REMARK CNNaffinity 6.42464113
REMARK  7 active torsions:
REMARK  status: ('A' for Active; 'I' for Inactive)
REMARK    1  A    between atoms: C4_4  and  C5_5 
REMARK    2  A    between atoms: C15_15  and  C16_16 
REMARK    3  A    between atoms: C16_16  and  C18_18 
REMARK    4  A    between atoms: C18_18  and  C19_19 
REMARK    5  A    between atoms: C23_25  and  C24_26 
REMARK    6  A    between atoms: C27_29  and  O3_30 
REMARK    7  A    between atoms: C30_33  and  O4_34 
ROOT
HETATM    1  C5  UNL     1      -5.233  48.066 -26.901  1.00  0.00     0.004 C 
HETATM    2  C6  UNL     1      -4.083  48.325 -26.246  1.00  0.00    -0.075 C 
HETATM    3  C7  UNL     1      -2.717  48.518 -26.885  1.00  0.00     0.034 C 
HETATM    4  C8  UNL     1      -2.039  49.820 -26.438  1.00  0.00     0.005 C 
HETATM    5  C9  UNL     1      -2.019  49.984 -24.909  1.00  0.00     0.010 C 
HETATM    6  C10 UNL     1      -3.415  49.807 -24.285  1.00  0.00    -0.033 C 
HETATM    7  C11 UNL     1      -4.304  51.002 -24.756  1.00  0.00     0.016 C 
HETATM    8  C12 UNL     1      -3.998  48.442 -24.732  1.00  0.00     0.023 C 
HETATM    9  C13 UNL     1      -5.240  48.292 -23.854  1.00  0.00     0.010 C 
HETATM   10  C14 UNL     1      -4.825  48.880 -22.500  1.00  0.00     0.006 C 
HETATM   11  C15 UNL     1      -3.539  49.733 -22.727  1.00  0.00    -0.002 C 
ENDROOT
BRANCH   1  12
HETATM   12  C4  UNL     1      -5.406  47.930 -28.334  1.00  0.00     0.008 C 
HETATM   13  C3  UNL     1      -6.455  47.379 -28.978  1.00  0.00    -0.048 C 
HETATM   14  C2  UNL     1      -6.484  47.319 -30.445  1.00  0.00    -0.032 C 
HETATM   15  C26 UNL     1      -7.680  46.745 -28.349  1.00  0.00     0.071 C 
HETATM   16  C1  UNL     1      -6.380  48.437 -31.187  1.00  0.00     0.022 C 
HETATM   17  C30 UNL     1      -6.703  45.917 -31.000  1.00  0.00     0.157 C 
HETATM   18  C28 UNL     1      -7.990  45.297 -30.424  1.00  0.00     0.044 C 
HETATM   19  C27 UNL     1      -7.951  45.327 -28.886  1.00  0.00     0.129 C 
HETATM   20  C29 UNL     1      -8.206  43.875 -30.953  1.00  0.00     0.015 C 
BRANCH  17  21
HETATM   21  O4  UNL     1      -6.792  45.945 -32.426  1.00  0.00    -0.390 OA
HETATM   22  H44 UNL     1      -5.902  46.172 -32.744  1.00  0.00     0.210 HD
ENDBRANCH  17  21
BRANCH  19  23
HETATM   23  O3  UNL     1      -6.957  44.418 -28.406  1.00  0.00    -0.395 OA
HETATM   24  H38 UNL     1      -6.866  44.549 -27.447  1.00  0.00     0.210 HD
ENDBRANCH  19  23
ENDBRANCH   1  12
BRANCH  11  25
HETATM   25  C16 UNL     1      -2.373  49.229 -21.819  1.00  0.00    -0.011 C 
HETATM   26  C17 UNL     1      -2.192  47.705 -21.780  1.00  0.00     0.010 C 
BRANCH  25  27
HETATM   27  C18 UNL     1      -1.006  49.899 -22.073  1.00  0.00     0.038 C 
BRANCH  27  28
HETATM   28  C19 UNL     1      -0.859  51.388 -21.713  1.00  0.00     0.141 C 
HETATM   29  O1  UNL     1      -0.312  52.023 -22.890  1.00  0.00    -0.311 OA
HETATM   30  C20 UNL     1       0.513  53.043 -22.544  1.00  0.00     0.289 C 
HETATM   31  O2  UNL     1       1.009  53.846 -23.309  1.00  0.00    -0.260 OA
HETATM   32  C21 UNL     1       0.700  52.983 -21.077  1.00  0.00     0.014 C 
HETATM   33  C22 UNL     1       1.251  54.014 -20.423  1.00  0.00     0.025 C 
HETATM   34  C23 UNL     1       0.137  51.687 -20.584  1.00  0.00     0.053 C 
BRANCH  34  35
HETATM   35  C24 UNL     1      -0.506  51.731 -19.189  1.00  0.00     0.007 C 
HETATM   36  C25 UNL     1      -0.338  50.425 -18.420  1.00  0.00     0.006 C 
ENDBRANCH  34  35
ENDBRANCH  27  28
ENDBRANCH  25  27
ENDBRANCH  11  25
TORSDOF 7
ENDMDL
MODEL 7
REMARK minimizedAffinity -9.91019917
REMARK CNNscore 0.26616317
REMARK CNNaffinity 6.75338602
REMARK  7 active torsions:
REMARK  status: ('A' for Active; 'I' for Inactive)
REMARK    1  A    between atoms: C4_4  and  C5_5 
REMARK    2  A    between atoms: C15_15  and  C16_16 
REMARK    3  A    between atoms: C16_16  and  C18_18 
REMARK    4  A    between atoms: C18_18  and  C19_19 
REMARK    5  A    between atoms: C23_25  and  C24_26 
REMARK    6  A    between atoms: C27_29  and  O3_30 
REMARK    7  A    between atoms: C30_33  and  O4_34 
ROOT
HETATM    1  C5  UNL     1      -2.642  51.243 -23.774  1.00  0.00     0.004 C 
HETATM    2  C6  UNL     1      -3.099  51.114 -25.036  1.00  0.00    -0.075 C 
HETATM    3  C7  UNL     1      -2.684  51.966 -26.225  1.00  0.00     0.034 C 
HETATM    4  C8  UNL     1      -2.226  51.120 -27.421  1.00  0.00     0.005 C 
HETATM    5  C9  UNL     1      -3.232  50.019 -27.790  1.00  0.00     0.010 C 
HETATM    6  C10 UNL     1      -3.622  49.154 -26.577  1.00  0.00    -0.033 C 
HETATM    7  C11 UNL     1      -2.358  48.345 -26.142  1.00  0.00     0.016 C 
HETATM    8  C12 UNL     1      -4.135  50.077 -25.443  1.00  0.00     0.023 C 
HETATM    9  C13 UNL     1      -4.711  49.091 -24.427  1.00  0.00     0.010 C 
HETATM   10  C14 UNL     1      -5.359  47.996 -25.283  1.00  0.00     0.006 C 
HETATM   11  C15 UNL     1      -4.791  48.126 -26.729  1.00  0.00    -0.002 C 
ENDROOT
BRANCH   1  12
HETATM   12  C4  UNL     1      -1.666  52.201 -23.296  1.00  0.00     0.008 C 
HETATM   13  C3  UNL     1      -0.717  51.998 -22.358  1.00  0.00    -0.048 C 
HETATM   14  C2  UNL     1       0.207  53.076 -21.984  1.00  0.00    -0.032 C 
HETATM   15  C26 UNL     1      -0.475  50.727 -21.567  1.00  0.00     0.071 C 
HETATM   16  C1  UNL     1       0.984  53.676 -22.904  1.00  0.00     0.022 C 
HETATM   17  C30 UNL     1       0.230  53.374 -20.490  1.00  0.00     0.157 C 
HETATM   18  C28 UNL     1       0.553  52.103 -19.683  1.00  0.00     0.044 C 
HETATM   19  C27 UNL     1      -0.432  50.979 -20.048  1.00  0.00     0.129 C 
HETATM   20  C29 UNL     1       0.551  52.385 -18.177  1.00  0.00     0.015 C 
BRANCH  17  21
HETATM   21  O4  UNL     1       1.199  54.381 -20.189  1.00  0.00    -0.390 OA
HETATM   22  H44 UNL     1       0.856  55.205 -20.575  1.00  0.00     0.210 HD
ENDBRANCH  17  21
BRANCH  19  23
HETATM   23  O3  UNL     1      -1.739  51.300 -19.564  1.00  0.00    -0.395 OA
HETATM   24  H38 UNL     1      -2.361  50.640 -19.915  1.00  0.00     0.210 HD
ENDBRANCH  19  23
ENDBRANCH   1  12
BRANCH  11  25
HETATM   25  C16 UNL     1      -5.946  48.320 -27.762  1.00  0.00    -0.011 C 
HETATM   26  C17 UNL     1      -5.565  48.042 -29.223  1.00  0.00     0.010 C 
BRANCH  25  27
HETATM   27  C18 UNL     1      -7.258  47.580 -27.427  1.00  0.00     0.038 C 
BRANCH  27  28
HETATM   28  C19 UNL     1      -8.582  48.241 -27.848  1.00  0.00     0.141 C 
HETATM   29  O1  UNL     1      -9.384  48.313 -26.648  1.00  0.00    -0.311 OA
HETATM   30  C20 UNL     1     -10.699  48.160 -26.940  1.00  0.00     0.289 C 
HETATM   31  O2  UNL     1     -11.622  48.310 -26.163  1.00  0.00    -0.260 OA
HETATM   32  C21 UNL     1     -10.794  47.769 -28.364  1.00  0.00     0.014 C 
HETATM   33  C22 UNL     1     -11.974  47.803 -28.998  1.00  0.00     0.025 C 
HETATM   34  C23 UNL     1      -9.418  47.436 -28.852  1.00  0.00     0.053 C 
BRANCH  34  35
HETATM   35  C24 UNL     1      -9.131  47.793 -30.319  1.00  0.00     0.007 C 
HETATM   36  C25 UNL     1      -8.865  49.281 -30.524  1.00  0.00     0.006 C 
ENDBRANCH  34  35
ENDBRANCH  27  28
ENDBRANCH  25  27
ENDBRANCH  11  25
TORSDOF 7
ENDMDL
MODEL 8
REMARK minimizedAffinity -8.20485687
REMARK CNNscore 0.261417627
REMARK CNNaffinity 6.21160078
REMARK  7 active torsions:
REMARK  status: ('A' for Active; 'I' for Inactive)
REMARK    1  A    between atoms: C4_4  and  C5_5 
REMARK    2  A    between atoms: C15_15  and  C16_16 
REMARK    3  A    between atoms: C16_16  and  C18_18 
REMARK    4  A    between atoms: C18_18  and  C19_19 
REMARK    5  A    between atoms: C23_25  and  C24_26 
REMARK    6  A    between atoms: C27_29  and  O3_30 
REMARK    7  A    between atoms: C30_33  and  O4_34 
ROOT
HETATM    1  C5  UNL     1      -7.061  48.008 -24.025  1.00  0.00     0.004 C 
HETATM    2  C6  UNL     1      -5.874  48.623 -23.850  1.00  0.00    -0.075 C 
HETATM    3  C7  UNL     1      -5.301  49.722 -24.730  1.00  0.00     0.034 C 
HETATM    4  C8  UNL     1      -4.872  50.955 -23.924  1.00  0.00     0.005 C 
HETATM    5  C9  UNL     1      -3.965  50.601 -22.735  1.00  0.00     0.010 C 
HETATM    6  C10 UNL     1      -4.574  49.502 -21.844  1.00  0.00    -0.033 C 
HETATM    7  C11 UNL     1      -5.843  50.096 -21.154  1.00  0.00     0.016 C 
HETATM    8  C12 UNL     1      -4.915  48.272 -22.722  1.00  0.00     0.023 C 
HETATM    9  C13 UNL     1      -5.261  47.197 -21.693  1.00  0.00     0.010 C 
HETATM   10  C14 UNL     1      -4.281  47.441 -20.540  1.00  0.00     0.006 C 
HETATM   11  C15 UNL     1      -3.692  48.875 -20.714  1.00  0.00    -0.002 C 
ENDROOT
BRANCH   1  12
HETATM   12  C4  UNL     1      -8.030  48.270 -25.070  1.00  0.00     0.008 C 
HETATM   13  C3  UNL     1      -8.032  47.771 -26.323  1.00  0.00    -0.048 C 
HETATM   14  C2  UNL     1      -9.094  48.132 -27.271  1.00  0.00    -0.032 C 
HETATM   15  C26 UNL     1      -6.999  46.844 -26.936  1.00  0.00     0.071 C 
HETATM   16  C1  UNL     1     -10.388  47.904 -26.982  1.00  0.00     0.022 C 
HETATM   17  C30 UNL     1      -8.577  48.703 -28.585  1.00  0.00     0.157 C 
HETATM   18  C28 UNL     1      -7.587  47.731 -29.253  1.00  0.00     0.044 C 
HETATM   19  C27 UNL     1      -6.453  47.375 -28.275  1.00  0.00     0.129 C 
HETATM   20  C29 UNL     1      -7.038  48.309 -30.562  1.00  0.00     0.015 C 
BRANCH  17  21
HETATM   21  O4  UNL     1      -9.657  48.964 -29.483  1.00  0.00    -0.390 OA
HETATM   22  H44 UNL     1     -10.152  49.707 -29.097  1.00  0.00     0.210 HD
ENDBRANCH  17  21
BRANCH  19  23
HETATM   23  O3  UNL     1      -5.624  48.519 -28.052  1.00  0.00    -0.395 OA
HETATM   24  H38 UNL     1      -4.998  48.303 -27.340  1.00  0.00     0.210 HD
ENDBRANCH  19  23
ENDBRANCH   1  12
BRANCH  11  25
HETATM   25  C16 UNL     1      -2.134  48.827 -20.799  1.00  0.00    -0.011 C 
HETATM   26  C17 UNL     1      -1.564  47.668 -21.629  1.00  0.00     0.010 C 
BRANCH  25  27
HETATM   27  C18 UNL     1      -1.458  50.145 -21.233  1.00  0.00     0.038 C 
BRANCH  27  28
HETATM   28  C19 UNL     1      -1.196  51.207 -20.151  1.00  0.00     0.141 C 
HETATM   29  O1  UNL     1      -0.346  52.198 -20.770  1.00  0.00    -0.311 OA
HETATM   30  C20 UNL     1       0.516  52.723 -19.865  1.00  0.00     0.289 C 
HETATM   31  O2  UNL     1       1.256  53.669 -20.054  1.00  0.00    -0.260 OA
HETATM   32  C21 UNL     1       0.396  51.926 -18.623  1.00  0.00     0.014 C 
HETATM   33  C22 UNL     1       0.931  52.372 -17.479  1.00  0.00     0.025 C 
HETATM   34  C23 UNL     1      -0.418  50.706 -18.926  1.00  0.00     0.053 C 
BRANCH  34  35
HETATM   35  C24 UNL     1      -1.317  50.210 -17.784  1.00  0.00     0.007 C 
HETATM   36  C25 UNL     1      -2.668  50.917 -17.746  1.00  0.00     0.006 C 
ENDBRANCH  34  35
ENDBRANCH  27  28
ENDBRANCH  25  27
ENDBRANCH  11  25
TORSDOF 7
ENDMDL
MODEL 9
REMARK minimizedAffinity -7.93169069
REMARK CNNscore 0.252772689
REMARK CNNaffinity 6.15519857
REMARK  7 active torsions:
REMARK  status: ('A' for Active; 'I' for Inactive)
REMARK    1  A    between atoms: C4_4  and  C5_5 
REMARK    2  A    between atoms: C15_15  and  C16_16 
REMARK    3  A    between atoms: C16_16  and  C18_18 
REMARK    4  A    between atoms: C18_18  and  C19_19 
REMARK    5  A    between atoms: C23_25  and  C24_26 
REMARK    6  A    between atoms: C27_29  and  O3_30 
REMARK    7  A    between atoms: C30_33  and  O4_34 
ROOT
HETATM    1  C5  UNL     1      -2.421  49.463 -13.611  1.00  0.00     0.004 C 
HETATM    2  C6  UNL     1      -1.878  50.252 -14.560  1.00  0.00    -0.075 C 
HETATM    3  C7  UNL     1      -0.943  51.426 -14.316  1.00  0.00     0.034 C 
HETATM    4  C8  UNL     1       0.346  51.331 -15.143  1.00  0.00     0.005 C 
HETATM    5  C9  UNL     1       0.077  51.074 -16.635  1.00  0.00     0.010 C 
HETATM    6  C10 UNL     1      -0.854  49.868 -16.860  1.00  0.00    -0.033 C 
HETATM    7  C11 UNL     1      -0.087  48.583 -16.415  1.00  0.00     0.016 C 
HETATM    8  C12 UNL     1      -2.155  50.076 -16.045  1.00  0.00     0.023 C 
HETATM    9  C13 UNL     1      -3.065  48.958 -16.555  1.00  0.00     0.010 C 
HETATM   10  C14 UNL     1      -2.751  48.863 -18.053  1.00  0.00     0.006 C 
HETATM   11  C15 UNL     1      -1.398  49.598 -18.302  1.00  0.00    -0.002 C 
ENDROOT
BRANCH   1  12
HETATM   12  C4  UNL     1      -2.220  49.561 -12.179  1.00  0.00     0.008 C 
HETATM   13  C3  UNL     1      -2.692  50.520 -11.355  1.00  0.00    -0.048 C 
HETATM   14  C2  UNL     1      -2.403  50.477  -9.916  1.00  0.00    -0.032 C 
HETATM   15  C26 UNL     1      -3.516  51.732 -11.744  1.00  0.00     0.071 C 
HETATM   16  C1  UNL     1      -2.745  49.410  -9.171  1.00  0.00     0.022 C 
HETATM   17  C30 UNL     1      -1.763  51.751  -9.379  1.00  0.00     0.157 C 
HETATM   18  C28 UNL     1      -2.634  52.979  -9.703  1.00  0.00     0.044 C 
HETATM   19  C27 UNL     1      -2.914  53.047 -11.215  1.00  0.00     0.129 C 
HETATM   20  C29 UNL     1      -1.986  54.271  -9.193  1.00  0.00     0.015 C 
BRANCH  17  21
HETATM   21  O4  UNL     1      -1.576  51.667  -7.965  1.00  0.00    -0.390 OA
HETATM   22  H44 UNL     1      -0.886  50.997  -7.827  1.00  0.00     0.210 HD
ENDBRANCH  17  21
BRANCH  19  23
HETATM   23  O3  UNL     1      -1.709  53.358 -11.919  1.00  0.00    -0.395 OA
HETATM   24  H38 UNL     1      -1.885  53.271 -12.872  1.00  0.00     0.210 HD
ENDBRANCH  19  23
ENDBRANCH   1  12
BRANCH  11  25
HETATM   25  C16 UNL     1      -1.572  50.735 -19.357  1.00  0.00    -0.011 C 
HETATM   26  C17 UNL     1      -2.949  51.413 -19.361  1.00  0.00     0.010 C 
BRANCH  25  27
HETATM   27  C18 UNL     1      -0.470  51.816 -19.345  1.00  0.00     0.038 C 
BRANCH  27  28
HETATM   28  C19 UNL     1       0.381  51.987 -20.615  1.00  0.00     0.141 C 
HETATM   29  O1  UNL     1       1.144  53.197 -20.417  1.00  0.00    -0.311 OA
HETATM   30  C20 UNL     1       1.330  53.845 -21.593  1.00  0.00     0.289 C 
HETATM   31  O2  UNL     1       2.045  54.813 -21.766  1.00  0.00    -0.260 OA
HETATM   32  C21 UNL     1       0.497  53.166 -22.610  1.00  0.00     0.014 C 
HETATM   33  C22 UNL     1       0.677  53.421 -23.913  1.00  0.00     0.025 C 
HETATM   34  C23 UNL     1      -0.418  52.213 -21.906  1.00  0.00     0.053 C 
BRANCH  34  35
HETATM   35  C24 UNL     1      -0.739  50.917 -22.668  1.00  0.00     0.007 C 
HETATM   36  C25 UNL     1      -2.203  50.827 -23.088  1.00  0.00     0.006 C 
ENDBRANCH  34  35
ENDBRANCH  27  28
ENDBRANCH  25  27
ENDBRANCH  11  25
TORSDOF 7
ENDMDL
