MODEL 1
REMARK minimizedAffinity -7.97465563
REMARK CNNscore 0.509021223
REMARK CNNaffinity 7.26852369
REMARK  12 active torsions:
REMARK  status: ('A' for Active; 'I' for Inactive)
REMARK    1  A    between atoms: O1_2  and  C2_3 
REMARK    2  A    between atoms: C2_3  and  C5_6 
REMARK    3  A    between atoms: C6_7  and  C7_8 
REMARK    4  A    between atoms: C7_8  and  C8_9 
REMARK    5  A    between atoms: C8_9  and  C10_11 
REMARK    6  A    between atoms: C28_30  and  O3_31 
REMARK    7  A    between atoms: O3_31  and  C29_32 
REMARK    8  A    between atoms: C30_34  and  C31_35 
REMARK    9  A    between atoms: C31_35  and  O5_36 
REMARK   10  A    between atoms: C32_37  and  O6_38 
REMARK   11  A    between atoms: C33_39  and  O7_40 
REMARK   12  A    between atoms: C34_41  and  O8_42 
ROOT
HETATM    1  C10 UNL     1      -2.685  48.987 -23.774  1.00  0.00    -0.002 C 
HETATM    2  C11 UNL     1      -1.562  49.956 -23.288  1.00  0.00     0.006 C 
HETATM    3  C12 UNL     1      -1.597  49.984 -21.751  1.00  0.00     0.011 C 
HETATM    4  C13 UNL     1      -2.451  48.765 -21.357  1.00  0.00    -0.029 C 
HETATM    5  C14 UNL     1      -1.502  47.528 -21.429  1.00  0.00     0.016 C 
HETATM    6  C15 UNL     1      -3.127  48.863 -19.954  1.00  0.00     0.028 C 
HETATM    7  C16 UNL     1      -2.128  48.946 -18.808  1.00  0.00    -0.021 C 
HETATM    8  C17 UNL     1      -2.257  48.196 -17.698  1.00  0.00     0.008 C 
HETATM    9  C18 UNL     1      -3.424  47.226 -17.538  1.00  0.00     0.092 C 
HETATM   10  O2  UNL     1      -4.574  48.097 -17.375  1.00  0.00    -0.374 OA
HETATM   11  C19 UNL     1      -5.219  48.246 -18.643  1.00  0.00     0.179 C 
HETATM   12  C20 UNL     1      -4.235  47.739 -19.725  1.00  0.00    -0.004 C 
HETATM   13  C21 UNL     1      -5.056  47.383 -20.998  1.00  0.00     0.014 C 
HETATM   14  C22 UNL     1      -4.358  47.493 -22.366  1.00  0.00     0.011 C 
HETATM   15  C23 UNL     1      -3.551  48.795 -22.486  1.00  0.00    -0.032 C 
HETATM   16  C24 UNL     1      -4.540  50.002 -22.372  1.00  0.00     0.016 C 
HETATM   17  C25 UNL     1      -3.609  46.558 -18.931  1.00  0.00     0.036 C 
HETATM   18  C26 UNL     1      -4.411  45.264 -18.845  1.00  0.00     0.011 C 
HETATM   19  C27 UNL     1      -3.744  44.239 -17.925  1.00  0.00     0.033 C 
HETATM   20  C28 UNL     1      -2.854  44.836 -16.824  1.00  0.00     0.136 C 
HETATM   21  C35 UNL     1      -3.376  46.217 -16.325  1.00  0.00     0.014 C 
HETATM   22  C36 UNL     1      -4.772  46.046 -15.650  1.00  0.00     0.021 C 
HETATM   23  C37 UNL     1      -2.456  46.712 -15.178  1.00  0.00     0.021 C 
ENDROOT
BRANCH  20  24
HETATM   24  O3  UNL     1      -2.819  43.944 -15.707  1.00  0.00    -0.352 OA
BRANCH  24  25
HETATM   25  C29 UNL     1      -1.796  42.944 -15.718  1.00  0.00     0.292 C 
HETATM   26  O4  UNL     1      -2.358  41.677 -15.417  1.00  0.00    -0.348 OA
HETATM   27  C30 UNL     1      -1.390  40.604 -15.404  1.00  0.00     0.179 C 
HETATM   28  C32 UNL     1      -0.042  40.995 -14.765  1.00  0.00     0.180 C 
HETATM   29  C33 UNL     1      -0.209  42.200 -13.836  1.00  0.00     0.183 C 
HETATM   30  C34 UNL     1      -0.775  43.388 -14.638  1.00  0.00     0.204 C 
BRANCH  27  31
HETATM   31  C31 UNL     1      -2.062  39.458 -14.638  1.00  0.00     0.198 C 
BRANCH  31  32
HETATM   32  O5  UNL     1      -1.899  38.244 -15.378  1.00  0.00    -0.398 OA
HETATM   33  H48 UNL     1      -2.205  38.460 -16.279  1.00  0.00     0.209 HD
ENDBRANCH  31  32
ENDBRANCH  27  31
BRANCH  28  34
HETATM   34  O6  UNL     1       0.890  41.365 -15.798  1.00  0.00    -0.390 OA
HETATM   35  H50 UNL     1       1.306  40.548 -16.119  1.00  0.00     0.210 HD
ENDBRANCH  28  34
BRANCH  29  36
HETATM   36  O7  UNL     1      -1.026  41.840 -12.724  1.00  0.00    -0.390 OA
HETATM   37  H52 UNL     1      -1.205  42.648 -12.209  1.00  0.00     0.210 HD
ENDBRANCH  29  36
BRANCH  30  38
HETATM   38  O8  UNL     1       0.305  44.103 -15.279  1.00  0.00    -0.388 OA
HETATM   39  H54 UNL     1       0.914  43.412 -15.649  1.00  0.00     0.210 HD
ENDBRANCH  30  38
ENDBRANCH  24  25
ENDBRANCH  20  24
BRANCH   1  40
HETATM   40  C8  UNL     1      -3.356  49.516 -25.081  1.00  0.00    -0.010 C 
HETATM   41  C9  UNL     1      -4.412  48.544 -25.625  1.00  0.00     0.010 C 
BRANCH  40  42
HETATM   42  C7  UNL     1      -2.306  49.785 -26.198  1.00  0.00     0.031 C 
BRANCH  42  43
HETATM   43  C6  UNL     1      -1.215  50.793 -25.910  1.00  0.00    -0.027 C 
HETATM   44  C5  UNL     1      -0.061  50.951 -26.581  1.00  0.00     0.006 C 
BRANCH  44  45
HETATM   45  C2  UNL     1       1.028  51.983 -26.337  1.00  0.00     0.070 C 
HETATM   46  C3  UNL     1       2.458  51.542 -26.678  1.00  0.00     0.050 C 
HETATM   47  C4  UNL     1       0.990  52.350 -24.843  1.00  0.00     0.050 C 
BRANCH  45  48
HETATM   48  O1  UNL     1       0.667  53.193 -27.028  1.00  0.00    -0.382 OA
HETATM   49  C1  UNL     1       0.209  53.037 -28.363  1.00  0.00     0.202 C 
ENDBRANCH  45  48
ENDBRANCH  44  45
ENDBRANCH  42  43
ENDBRANCH  40  42
ENDBRANCH   1  40
TORSDOF 12
ENDMDL
MODEL 2
REMARK minimizedAffinity -9.29194164
REMARK CNNscore 0.36705935
REMARK CNNaffinity 6.81634378
REMARK  12 active torsions:
REMARK  status: ('A' for Active; 'I' for Inactive)
REMARK    1  A    between atoms: O1_2  and  C2_3 
REMARK    2  A    between atoms: C2_3  and  C5_6 
REMARK    3  A    between atoms: C6_7  and  C7_8 
REMARK    4  A    between atoms: C7_8  and  C8_9 
REMARK    5  A    between atoms: C8_9  and  C10_11 
REMARK    6  A    between atoms: C28_30  and  O3_31 
REMARK    7  A    between atoms: O3_31  and  C29_32 
REMARK    8  A    between atoms: C30_34  and  C31_35 
REMARK    9  A    between atoms: C31_35  and  O5_36 
REMARK   10  A    between atoms: C32_37  and  O6_38 
REMARK   11  A    between atoms: C33_39  and  O7_40 
REMARK   12  A    between atoms: C34_41  and  O8_42 
ROOT
HETATM    1  C10 UNL     1      -8.744  47.161 -20.695  1.00  0.00    -0.002 C 
HETATM    2  C11 UNL     1      -9.186  48.333 -19.762  1.00  0.00     0.006 C 
HETATM    3  C12 UNL     1      -7.928  49.123 -19.371  1.00  0.00     0.011 C 
HETATM    4  C13 UNL     1      -6.848  48.659 -20.366  1.00  0.00    -0.029 C 
HETATM    5  C14 UNL     1      -7.090  49.468 -21.678  1.00  0.00     0.016 C 
HETATM    6  C15 UNL     1      -5.379  48.835 -19.870  1.00  0.00     0.028 C 
HETATM    7  C16 UNL     1      -4.994  50.287 -19.626  1.00  0.00    -0.021 C 
HETATM    8  C17 UNL     1      -3.835  50.800 -20.076  1.00  0.00     0.008 C 
HETATM    9  C18 UNL     1      -2.844  49.937 -20.852  1.00  0.00     0.092 C 
HETATM   10  O2  UNL     1      -2.330  49.021 -19.851  1.00  0.00    -0.374 OA
HETATM   11  C19 UNL     1      -3.059  47.792 -19.937  1.00  0.00     0.179 C 
HETATM   12  C20 UNL     1      -4.324  48.064 -20.785  1.00  0.00    -0.004 C 
HETATM   13  C21 UNL     1      -4.836  46.703 -21.341  1.00  0.00     0.014 C 
HETATM   14  C22 UNL     1      -6.341  46.558 -21.630  1.00  0.00     0.011 C 
HETATM   15  C23 UNL     1      -7.194  47.125 -20.485  1.00  0.00    -0.032 C 
HETATM   16  C24 UNL     1      -6.890  46.306 -19.189  1.00  0.00     0.016 C 
HETATM   17  C25 UNL     1      -3.708  49.061 -21.805  1.00  0.00     0.036 C 
HETATM   18  C26 UNL     1      -2.886  48.479 -22.951  1.00  0.00     0.011 C 
HETATM   19  C27 UNL     1      -2.228  49.572 -23.796  1.00  0.00     0.033 C 
HETATM   20  C28 UNL     1      -1.955  50.889 -23.054  1.00  0.00     0.136 C 
HETATM   21  C35 UNL     1      -1.627  50.663 -21.548  1.00  0.00     0.014 C 
HETATM   22  C36 UNL     1      -0.302  49.852 -21.406  1.00  0.00     0.021 C 
HETATM   23  C37 UNL     1      -1.305  52.035 -20.897  1.00  0.00     0.021 C 
ENDROOT
BRANCH  20  24
HETATM   24  O3  UNL     1      -0.839  51.550 -23.657  1.00  0.00    -0.352 OA
BRANCH  24  25
HETATM   25  C29 UNL     1      -0.771  51.517 -25.085  1.00  0.00     0.292 C 
HETATM   26  O4  UNL     1       0.581  51.415 -25.502  1.00  0.00    -0.348 OA
HETATM   27  C30 UNL     1       0.742  51.379 -26.937  1.00  0.00     0.179 C 
HETATM   28  C32 UNL     1      -0.201  52.339 -27.690  1.00  0.00     0.180 C 
HETATM   29  C33 UNL     1      -0.686  53.460 -26.768  1.00  0.00     0.183 C 
HETATM   30  C34 UNL     1      -1.417  52.846 -25.558  1.00  0.00     0.204 C 
BRANCH  27  31
HETATM   31  C31 UNL     1       2.214  51.727 -27.191  1.00  0.00     0.198 C 
BRANCH  31  32
HETATM   32  O5  UNL     1       3.040  50.874 -26.392  1.00  0.00    -0.398 OA
HETATM   33  H48 UNL     1       2.679  50.955 -25.489  1.00  0.00     0.209 HD
ENDBRANCH  31  32
ENDBRANCH  27  31
BRANCH  28  34
HETATM   34  O6  UNL     1      -1.360  51.615 -28.145  1.00  0.00    -0.390 OA
HETATM   35  H50 UNL     1      -1.131  51.209 -28.997  1.00  0.00     0.210 HD
ENDBRANCH  28  34
BRANCH  29  36
HETATM   36  O7  UNL     1       0.416  54.284 -26.393  1.00  0.00    -0.390 OA
HETATM   37  H52 UNL     1       0.102  54.920 -25.725  1.00  0.00     0.210 HD
ENDBRANCH  29  36
BRANCH  30  38
HETATM   38  O8  UNL     1      -2.800  52.603 -25.896  1.00  0.00    -0.388 OA
HETATM   39  H54 UNL     1      -2.798  52.215 -26.810  1.00  0.00     0.210 HD
ENDBRANCH  30  38
ENDBRANCH  24  25
ENDBRANCH  20  24
BRANCH   1  40
HETATM   40  C8  UNL     1      -9.587  45.876 -20.420  1.00  0.00    -0.010 C 
HETATM   41  C9  UNL     1     -10.469  45.493 -21.617  1.00  0.00     0.010 C 
BRANCH  40  42
HETATM   42  C7  UNL     1     -10.495  46.041 -19.167  1.00  0.00     0.031 C 
BRANCH  42  43
HETATM   43  C6  UNL     1     -11.922  46.495 -19.387  1.00  0.00    -0.027 C 
HETATM   44  C5  UNL     1     -12.558  47.499 -18.758  1.00  0.00     0.006 C 
BRANCH  44  45
HETATM   45  C2  UNL     1     -13.973  48.000 -18.992  1.00  0.00     0.070 C 
HETATM   46  C3  UNL     1     -14.971  46.963 -19.528  1.00  0.00     0.050 C 
HETATM   47  C4  UNL     1     -13.894  49.150 -20.012  1.00  0.00     0.050 C 
BRANCH  45  48
HETATM   48  O1  UNL     1     -14.444  48.610 -17.777  1.00  0.00    -0.382 OA
HETATM   49  C1  UNL     1     -15.677  49.308 -17.864  1.00  0.00     0.202 C 
ENDBRANCH  45  48
ENDBRANCH  44  45
ENDBRANCH  42  43
ENDBRANCH  40  42
ENDBRANCH   1  40
TORSDOF 12
ENDMDL
MODEL 3
REMARK minimizedAffinity -10.1567545
REMARK CNNscore 0.35340631
REMARK CNNaffinity 7.22385025
REMARK  12 active torsions:
REMARK  status: ('A' for Active; 'I' for Inactive)
REMARK    1  A    between atoms: O1_2  and  C2_3 
REMARK    2  A    between atoms: C2_3  and  C5_6 
REMARK    3  A    between atoms: C6_7  and  C7_8 
REMARK    4  A    between atoms: C7_8  and  C8_9 
REMARK    5  A    between atoms: C8_9  and  C10_11 
REMARK    6  A    between atoms: C28_30  and  O3_31 
REMARK    7  A    between atoms: O3_31  and  C29_32 
REMARK    8  A    between atoms: C30_34  and  C31_35 
REMARK    9  A    between atoms: C31_35  and  O5_36 
REMARK   10  A    between atoms: C32_37  and  O6_38 
REMARK   11  A    between atoms: C33_39  and  O7_40 
REMARK   12  A    between atoms: C34_41  and  O8_42 
ROOT
HETATM    1  C10 UNL     1      -0.845  50.319 -21.372  1.00  0.00    -0.002 C 
HETATM    2  C11 UNL     1      -0.292  48.964 -20.829  1.00  0.00     0.006 C 
HETATM    3  C12 UNL     1      -1.483  48.010 -20.646  1.00  0.00     0.011 C 
HETATM    4  C13 UNL     1      -2.633  48.662 -21.435  1.00  0.00    -0.029 C 
HETATM    5  C14 UNL     1      -2.406  48.280 -22.930  1.00  0.00     0.016 C 
HETATM    6  C15 UNL     1      -4.065  48.251 -20.969  1.00  0.00     0.028 C 
HETATM    7  C16 UNL     1      -4.353  46.767 -21.143  1.00  0.00    -0.021 C 
HETATM    8  C17 UNL     1      -5.500  46.324 -21.689  1.00  0.00     0.008 C 
HETATM    9  C18 UNL     1      -6.574  47.302 -22.156  1.00  0.00     0.092 C 
HETATM   10  O2  UNL     1      -7.094  47.857 -20.919  1.00  0.00    -0.374 OA
HETATM   11  C19 UNL     1      -6.443  49.107 -20.669  1.00  0.00     0.179 C 
HETATM   12  C20 UNL     1      -5.205  49.177 -21.594  1.00  0.00    -0.004 C 
HETATM   13  C21 UNL     1      -4.799  50.671 -21.749  1.00  0.00     0.014 C 
HETATM   14  C22 UNL     1      -3.320  50.997 -22.027  1.00  0.00     0.011 C 
HETATM   15  C23 UNL     1      -2.383  50.187 -21.118  1.00  0.00    -0.032 C 
HETATM   16  C24 UNL     1      -2.673  50.579 -19.632  1.00  0.00     0.016 C 
HETATM   17  C25 UNL     1      -5.809  48.471 -22.840  1.00  0.00     0.036 C 
HETATM   18  C26 UNL     1      -6.715  49.298 -23.746  1.00  0.00     0.011 C 
HETATM   19  C27 UNL     1      -7.347  48.448 -24.852  1.00  0.00     0.033 C 
HETATM   20  C28 UNL     1      -7.508  46.958 -24.512  1.00  0.00     0.136 C 
HETATM   21  C35 UNL     1      -7.778  46.722 -22.996  1.00  0.00     0.014 C 
HETATM   22  C36 UNL     1      -9.140  47.365 -22.591  1.00  0.00     0.021 C 
HETATM   23  C37 UNL     1      -7.988  45.203 -22.759  1.00  0.00     0.021 C 
ENDROOT
BRANCH  20  24
HETATM   24  O3  UNL     1      -8.611  46.421 -25.249  1.00  0.00    -0.352 OA
BRANCH  24  25
HETATM   25  C29 UNL     1      -8.446  46.322 -26.666  1.00  0.00     0.292 C 
HETATM   26  O4  UNL     1      -7.188  46.857 -27.044  1.00  0.00    -0.348 OA
HETATM   27  C30 UNL     1      -6.939  46.800 -28.465  1.00  0.00     0.179 C 
HETATM   28  C32 UNL     1      -8.177  47.127 -29.324  1.00  0.00     0.180 C 
HETATM   29  C33 UNL     1      -9.198  47.937 -28.522  1.00  0.00     0.183 C 
HETATM   30  C34 UNL     1      -9.619  47.136 -27.275  1.00  0.00     0.204 C 
BRANCH  27  31
HETATM   31  C31 UNL     1      -5.801  47.797 -28.721  1.00  0.00     0.198 C 
BRANCH  31  32
HETATM   32  O5  UNL     1      -6.126  48.591 -29.866  1.00  0.00    -0.398 OA
HETATM   33  H48 UNL     1      -6.359  47.944 -30.558  1.00  0.00     0.209 HD
ENDBRANCH  31  32
ENDBRANCH  27  31
BRANCH  28  34
HETATM   34  O6  UNL     1      -8.816  45.902 -29.733  1.00  0.00    -0.390 OA
HETATM   35  H50 UNL     1      -8.366  45.597 -30.538  1.00  0.00     0.210 HD
ENDBRANCH  28  34
BRANCH  29  36
HETATM   36  O7  UNL     1      -8.652  49.215 -28.203  1.00  0.00    -0.390 OA
HETATM   37  H52 UNL     1      -9.274  49.667 -27.604  1.00  0.00     0.210 HD
ENDBRANCH  29  36
BRANCH  30  38
HETATM   38  O8  UNL     1     -10.691  46.230 -27.616  1.00  0.00    -0.388 OA
HETATM   39  H54 UNL     1     -10.446  45.826 -28.489  1.00  0.00     0.210 HD
ENDBRANCH  30  38
ENDBRANCH  24  25
ENDBRANCH  20  24
BRANCH   1  40
HETATM   40  C8  UNL     1      -0.066  51.528 -20.763  1.00  0.00    -0.010 C 
HETATM   41  C9  UNL     1      -0.818  52.171 -19.589  1.00  0.00     0.010 C 
BRANCH  40  42
HETATM   42  C7  UNL     1       0.219  52.625 -21.831  1.00  0.00     0.031 C 
BRANCH  42  43
HETATM   43  C6  UNL     1       0.074  52.242 -23.287  1.00  0.00    -0.027 C 
HETATM   44  C5  UNL     1       0.857  52.633 -24.308  1.00  0.00     0.006 C 
BRANCH  44  45
HETATM   45  C2  UNL     1       0.757  52.228 -25.770  1.00  0.00     0.070 C 
HETATM   46  C3  UNL     1      -0.380  51.258 -26.120  1.00  0.00     0.050 C 
HETATM   47  C4  UNL     1       2.087  51.555 -26.155  1.00  0.00     0.050 C 
BRANCH  45  48
HETATM   48  O1  UNL     1       0.698  53.424 -26.567  1.00  0.00    -0.382 OA
HETATM   49  C1  UNL     1      -0.383  53.513 -27.483  1.00  0.00     0.202 C 
ENDBRANCH  45  48
ENDBRANCH  44  45
ENDBRANCH  42  43
ENDBRANCH  40  42
ENDBRANCH   1  40
TORSDOF 12
ENDMDL
MODEL 4
REMARK minimizedAffinity -9.1728344
REMARK CNNscore 0.351762235
REMARK CNNaffinity 7.09993172
REMARK  12 active torsions:
REMARK  status: ('A' for Active; 'I' for Inactive)
REMARK    1  A    between atoms: O1_2  and  C2_3 
REMARK    2  A    between atoms: C2_3  and  C5_6 
REMARK    3  A    between atoms: C6_7  and  C7_8 
REMARK    4  A    between atoms: C7_8  and  C8_9 
REMARK    5  A    between atoms: C8_9  and  C10_11 
REMARK    6  A    between atoms: C28_30  and  O3_31 
REMARK    7  A    between atoms: O3_31  and  C29_32 
REMARK    8  A    between atoms: C30_34  and  C31_35 
REMARK    9  A    between atoms: C31_35  and  O5_36 
REMARK   10  A    between atoms: C32_37  and  O6_38 
REMARK   11  A    between atoms: C33_39  and  O7_40 
REMARK   12  A    between atoms: C34_41  and  O8_42 
ROOT
HETATM    1  C10 UNL     1      -0.725  51.333 -21.473  1.00  0.00    -0.002 C 
HETATM    2  C11 UNL     1      -0.037  50.055 -20.897  1.00  0.00     0.006 C 
HETATM    3  C12 UNL     1      -1.125  48.990 -20.687  1.00  0.00     0.011 C 
HETATM    4  C13 UNL     1      -2.336  49.502 -21.488  1.00  0.00    -0.029 C 
HETATM    5  C14 UNL     1      -2.073  49.107 -22.974  1.00  0.00     0.016 C 
HETATM    6  C15 UNL     1      -3.718  48.960 -21.007  1.00  0.00     0.028 C 
HETATM    7  C16 UNL     1      -3.854  47.450 -21.142  1.00  0.00    -0.021 C 
HETATM    8  C17 UNL     1      -4.951  46.880 -21.673  1.00  0.00     0.008 C 
HETATM    9  C18 UNL     1      -6.119  47.732 -22.160  1.00  0.00     0.092 C 
HETATM   10  O2  UNL     1      -6.691  48.262 -20.936  1.00  0.00    -0.374 OA
HETATM   11  C19 UNL     1      -6.170  49.577 -20.719  1.00  0.00     0.179 C 
HETATM   12  C20 UNL     1      -4.947  49.749 -21.650  1.00  0.00    -0.004 C 
HETATM   13  C21 UNL     1      -4.695  51.272 -21.845  1.00  0.00     0.014 C 
HETATM   14  C22 UNL     1      -3.257  51.739 -22.135  1.00  0.00     0.011 C 
HETATM   15  C23 UNL     1      -2.242  51.052 -21.210  1.00  0.00    -0.032 C 
HETATM   16  C24 UNL     1      -2.569  51.450 -19.734  1.00  0.00     0.016 C 
HETATM   17  C25 UNL     1      -5.477  48.955 -22.877  1.00  0.00     0.036 C 
HETATM   18  C26 UNL     1      -6.464  49.662 -23.800  1.00  0.00     0.011 C 
HETATM   19  C27 UNL     1      -7.007  48.725 -24.881  1.00  0.00     0.033 C 
HETATM   20  C28 UNL     1      -7.016  47.235 -24.504  1.00  0.00     0.136 C 
HETATM   21  C35 UNL     1      -7.259  47.011 -22.982  1.00  0.00     0.014 C 
HETATM   22  C36 UNL     1      -8.678  47.523 -22.587  1.00  0.00     0.021 C 
HETATM   23  C37 UNL     1      -7.314  45.485 -22.706  1.00  0.00     0.021 C 
ENDROOT
BRANCH  20  24
HETATM   24  O3  UNL     1      -8.059  46.571 -25.223  1.00  0.00    -0.352 OA
BRANCH  24  25
HETATM   25  C29 UNL     1      -8.557  47.236 -26.387  1.00  0.00     0.292 C 
HETATM   26  O4  UNL     1      -9.968  47.359 -26.306  1.00  0.00    -0.348 OA
HETATM   27  C30 UNL     1     -10.558  48.019 -27.447  1.00  0.00     0.179 C 
HETATM   28  C32 UNL     1      -9.920  47.616 -28.792  1.00  0.00     0.180 C 
HETATM   29  C33 UNL     1      -9.213  46.263 -28.676  1.00  0.00     0.183 C 
HETATM   30  C34 UNL     1      -8.130  46.345 -27.584  1.00  0.00     0.204 C 
BRANCH  27  31
HETATM   31  C31 UNL     1     -12.048  47.657 -27.404  1.00  0.00     0.198 C 
BRANCH  31  32
HETATM   32  O5  UNL     1     -12.816  48.859 -27.285  1.00  0.00    -0.398 OA
HETATM   33  H48 UNL     1     -12.417  49.334 -26.532  1.00  0.00     0.209 HD
ENDBRANCH  31  32
ENDBRANCH  27  31
BRANCH  28  34
HETATM   34  O6  UNL     1      -8.931  48.594 -29.168  1.00  0.00    -0.390 OA
HETATM   35  H50 UNL     1      -9.397  49.311 -29.630  1.00  0.00     0.210 HD
ENDBRANCH  28  34
BRANCH  29  36
HETATM   36  O7  UNL     1     -10.175  45.239 -28.430  1.00  0.00    -0.390 OA
HETATM   37  H52 UNL     1      -9.693  44.410 -28.253  1.00  0.00     0.210 HD
ENDBRANCH  29  36
BRANCH  30  38
HETATM   38  O8  UNL     1      -6.908  46.870 -28.147  1.00  0.00    -0.388 OA
HETATM   39  H54 UNL     1      -7.175  47.626 -28.734  1.00  0.00     0.210 HD
ENDBRANCH  30  38
ENDBRANCH  24  25
ENDBRANCH  20  24
BRANCH   1  40
HETATM   40  C8  UNL     1      -0.073  52.630 -20.897  1.00  0.00    -0.010 C 
HETATM   41  C9  UNL     1       1.459  52.603 -20.999  1.00  0.00     0.010 C 
BRANCH  40  42
HETATM   42  C7  UNL     1      -0.468  52.861 -19.409  1.00  0.00     0.031 C 
BRANCH  42  43
HETATM   43  C6  UNL     1       0.589  52.614 -18.355  1.00  0.00    -0.027 C 
HETATM   44  C5  UNL     1       0.386  52.277 -17.069  1.00  0.00     0.006 C 
BRANCH  44  45
HETATM   45  C2  UNL     1       1.430  51.982 -16.004  1.00  0.00     0.070 C 
HETATM   46  C3  UNL     1       2.879  52.331 -16.372  1.00  0.00     0.050 C 
HETATM   47  C4  UNL     1       1.369  50.474 -15.703  1.00  0.00     0.050 C 
BRANCH  45  48
HETATM   48  O1  UNL     1       1.023  52.625 -14.783  1.00  0.00    -0.382 OA
HETATM   49  C1  UNL     1       0.939  51.792 -13.636  1.00  0.00     0.202 C 
ENDBRANCH  45  48
ENDBRANCH  44  45
ENDBRANCH  42  43
ENDBRANCH  40  42
ENDBRANCH   1  40
TORSDOF 12
ENDMDL
MODEL 5
REMARK minimizedAffinity -9.83101463
REMARK CNNscore 0.34480235
REMARK CNNaffinity 7.12120581
REMARK  12 active torsions:
REMARK  status: ('A' for Active; 'I' for Inactive)
REMARK    1  A    between atoms: O1_2  and  C2_3 
REMARK    2  A    between atoms: C2_3  and  C5_6 
REMARK    3  A    between atoms: C6_7  and  C7_8 
REMARK    4  A    between atoms: C7_8  and  C8_9 
REMARK    5  A    between atoms: C8_9  and  C10_11 
REMARK    6  A    between atoms: C28_30  and  O3_31 
REMARK    7  A    between atoms: O3_31  and  C29_32 
REMARK    8  A    between atoms: C30_34  and  C31_35 
REMARK    9  A    between atoms: C31_35  and  O5_36 
REMARK   10  A    between atoms: C32_37  and  O6_38 
REMARK   11  A    between atoms: C33_39  and  O7_40 
REMARK   12  A    between atoms: C34_41  and  O8_42 
ROOT
HETATM    1  C10 UNL     1      -0.941  50.251 -21.446  1.00  0.00    -0.002 C 
HETATM    2  C11 UNL     1      -0.317  48.926 -20.907  1.00  0.00     0.006 C 
HETATM    3  C12 UNL     1      -1.460  47.922 -20.688  1.00  0.00     0.011 C 
HETATM    4  C13 UNL     1      -2.656  48.518 -21.453  1.00  0.00    -0.029 C 
HETATM    5  C14 UNL     1      -2.449  48.134 -22.951  1.00  0.00     0.016 C 
HETATM    6  C15 UNL     1      -4.057  48.049 -20.949  1.00  0.00     0.028 C 
HETATM    7  C16 UNL     1      -4.284  46.552 -21.105  1.00  0.00    -0.021 C 
HETATM    8  C17 UNL     1      -5.424  46.056 -21.620  1.00  0.00     0.008 C 
HETATM    9  C18 UNL     1      -6.551  46.983 -22.067  1.00  0.00     0.092 C 
HETATM   10  O2  UNL     1      -7.064  47.525 -20.822  1.00  0.00    -0.374 OA
HETATM   11  C19 UNL     1      -6.462  48.804 -20.597  1.00  0.00     0.179 C 
HETATM   12  C20 UNL     1      -5.251  48.919 -21.553  1.00  0.00    -0.004 C 
HETATM   13  C21 UNL     1      -4.915  50.429 -21.729  1.00  0.00     0.014 C 
HETATM   14  C22 UNL     1      -3.459  50.816 -22.045  1.00  0.00     0.011 C 
HETATM   15  C23 UNL     1      -2.465  50.055 -21.153  1.00  0.00    -0.032 C 
HETATM   16  C24 UNL     1      -2.736  50.446 -19.664  1.00  0.00     0.016 C 
HETATM   17  C25 UNL     1      -5.854  48.178 -22.779  1.00  0.00     0.036 C 
HETATM   18  C26 UNL     1      -6.817  48.957 -23.668  1.00  0.00     0.011 C 
HETATM   19  C27 UNL     1      -7.438  48.072 -24.751  1.00  0.00     0.033 C 
HETATM   20  C28 UNL     1      -7.526  46.579 -24.397  1.00  0.00     0.136 C 
HETATM   21  C35 UNL     1      -7.748  46.344 -22.874  1.00  0.00     0.014 C 
HETATM   22  C36 UNL     1      -9.126  46.931 -22.439  1.00  0.00     0.021 C 
HETATM   23  C37 UNL     1      -7.887  44.819 -22.620  1.00  0.00     0.021 C 
ENDROOT
BRANCH  20  24
HETATM   24  O3  UNL     1      -8.622  45.989 -25.102  1.00  0.00    -0.352 OA
BRANCH  24  25
HETATM   25  C29 UNL     1      -9.671  46.872 -25.508  1.00  0.00     0.292 C 
HETATM   26  O4  UNL     1     -10.911  46.417 -24.990  1.00  0.00    -0.348 OA
HETATM   27  C30 UNL     1     -12.031  47.253 -25.355  1.00  0.00     0.179 C 
HETATM   28  C32 UNL     1     -11.973  47.766 -26.808  1.00  0.00     0.180 C 
HETATM   29  C33 UNL     1     -11.072  46.873 -27.665  1.00  0.00     0.183 C 
HETATM   30  C34 UNL     1      -9.656  46.845 -27.059  1.00  0.00     0.204 C 
BRANCH  27  31
HETATM   31  C31 UNL     1     -13.278  46.392 -25.116  1.00  0.00     0.198 C 
BRANCH  31  32
HETATM   32  O5  UNL     1     -14.398  47.249 -24.875  1.00  0.00    -0.398 OA
HETATM   33  H48 UNL     1     -14.097  47.859 -24.175  1.00  0.00     0.209 HD
ENDBRANCH  31  32
ENDBRANCH  27  31
BRANCH  28  34
HETATM   34  O6  UNL     1     -11.415  49.094 -26.827  1.00  0.00    -0.390 OA
HETATM   35  H50 UNL     1     -12.144  49.715 -26.662  1.00  0.00     0.210 HD
ENDBRANCH  28  34
BRANCH  29  36
HETATM   36  O7  UNL     1     -11.653  45.575 -27.781  1.00  0.00    -0.390 OA
HETATM   37  H52 UNL     1     -11.013  44.999 -28.236  1.00  0.00     0.210 HD
ENDBRANCH  29  36
BRANCH  30  38
HETATM   38  O8  UNL     1      -8.896  47.975 -27.542  1.00  0.00    -0.388 OA
HETATM   39  H54 UNL     1      -9.509  48.755 -27.507  1.00  0.00     0.210 HD
ENDBRANCH  30  38
ENDBRANCH  24  25
ENDBRANCH  20  24
BRANCH   1  40
HETATM   40  C8  UNL     1      -0.201  51.498 -20.865  1.00  0.00    -0.010 C 
HETATM   41  C9  UNL     1      -0.918  52.080 -19.639  1.00  0.00     0.010 C 
BRANCH  40  42
HETATM   42  C7  UNL     1      -0.047  52.623 -21.931  1.00  0.00     0.031 C 
BRANCH  42  43
HETATM   43  C6  UNL     1      -0.107  52.223 -23.389  1.00  0.00    -0.027 C 
HETATM   44  C5  UNL     1       0.712  52.631 -24.374  1.00  0.00     0.006 C 
BRANCH  44  45
HETATM   45  C2  UNL     1       0.698  52.211 -25.835  1.00  0.00     0.070 C 
HETATM   46  C3  UNL     1      -0.448  51.279 -26.253  1.00  0.00     0.050 C 
HETATM   47  C4  UNL     1       2.024  51.484 -26.119  1.00  0.00     0.050 C 
BRANCH  45  48
HETATM   48  O1  UNL     1       0.740  53.398 -26.647  1.00  0.00    -0.382 OA
HETATM   49  C1  UNL     1      -0.315  53.551 -27.585  1.00  0.00     0.202 C 
ENDBRANCH  45  48
ENDBRANCH  44  45
ENDBRANCH  42  43
ENDBRANCH  40  42
ENDBRANCH   1  40
TORSDOF 12
ENDMDL
MODEL 6
REMARK minimizedAffinity -8.1951952
REMARK CNNscore 0.332814217
REMARK CNNaffinity 6.88976479
REMARK  12 active torsions:
REMARK  status: ('A' for Active; 'I' for Inactive)
REMARK    1  A    between atoms: O1_2  and  C2_3 
REMARK    2  A    between atoms: C2_3  and  C5_6 
REMARK    3  A    between atoms: C6_7  and  C7_8 
REMARK    4  A    between atoms: C7_8  and  C8_9 
REMARK    5  A    between atoms: C8_9  and  C10_11 
REMARK    6  A    between atoms: C28_30  and  O3_31 
REMARK    7  A    between atoms: O3_31  and  C29_32 
REMARK    8  A    between atoms: C30_34  and  C31_35 
REMARK    9  A    between atoms: C31_35  and  O5_36 
REMARK   10  A    between atoms: C32_37  and  O6_38 
REMARK   11  A    between atoms: C33_39  and  O7_40 
REMARK   12  A    between atoms: C34_41  and  O8_42 
ROOT
HETATM    1  C10 UNL     1      -8.994  47.004 -21.157  1.00  0.00    -0.002 C 
HETATM    2  C11 UNL     1      -9.436  48.062 -20.097  1.00  0.00     0.006 C 
HETATM    3  C12 UNL     1      -8.171  48.762 -19.575  1.00  0.00     0.011 C 
HETATM    4  C13 UNL     1      -7.073  48.396 -20.591  1.00  0.00    -0.029 C 
HETATM    5  C14 UNL     1      -7.255  49.369 -21.797  1.00  0.00     0.016 C 
HETATM    6  C15 UNL     1      -5.616  48.467 -20.036  1.00  0.00     0.028 C 
HETATM    7  C16 UNL     1      -5.204  49.866 -19.602  1.00  0.00    -0.021 C 
HETATM    8  C17 UNL     1      -4.020  50.399 -19.952  1.00  0.00     0.008 C 
HETATM    9  C18 UNL     1      -3.027  49.612 -20.802  1.00  0.00     0.092 C 
HETATM   10  O2  UNL     1      -2.566  48.564 -19.911  1.00  0.00    -0.374 OA
HETATM   11  C19 UNL     1      -3.321  47.376 -20.170  1.00  0.00     0.179 C 
HETATM   12  C20 UNL     1      -4.553  47.787 -21.012  1.00  0.00    -0.004 C 
HETATM   13  C21 UNL     1      -5.080  46.521 -21.748  1.00  0.00     0.014 C 
HETATM   14  C22 UNL     1      -6.579  46.455 -22.095  1.00  0.00     0.011 C 
HETATM   15  C23 UNL     1      -7.453  46.899 -20.911  1.00  0.00    -0.032 C 
HETATM   16  C24 UNL     1      -7.209  45.916 -19.720  1.00  0.00     0.016 C 
HETATM   17  C25 UNL     1      -3.881  48.887 -21.881  1.00  0.00     0.036 C 
HETATM   18  C26 UNL     1      -3.039  48.429 -23.068  1.00  0.00     0.011 C 
HETATM   19  C27 UNL     1      -2.330  49.601 -23.751  1.00  0.00     0.033 C 
HETATM   20  C28 UNL     1      -2.047  50.807 -22.842  1.00  0.00     0.136 C 
HETATM   21  C35 UNL     1      -1.772  50.386 -21.368  1.00  0.00     0.014 C 
HETATM   22  C36 UNL     1      -0.472  49.527 -21.293  1.00  0.00     0.021 C 
HETATM   23  C37 UNL     1      -1.437  51.656 -20.541  1.00  0.00     0.021 C 
ENDROOT
BRANCH  20  24
HETATM   24  O3  UNL     1      -0.898  51.506 -23.326  1.00  0.00    -0.352 OA
BRANCH  24  25
HETATM   25  C29 UNL     1      -0.698  51.506 -24.743  1.00  0.00     0.292 C 
HETATM   26  O4  UNL     1       0.687  51.424 -25.035  1.00  0.00    -0.348 OA
HETATM   27  C30 UNL     1       0.981  51.421 -26.449  1.00  0.00     0.179 C 
HETATM   28  C32 UNL     1       0.102  52.390 -27.265  1.00  0.00     0.180 C 
HETATM   29  C33 UNL     1      -0.478  53.487 -26.368  1.00  0.00     0.183 C 
HETATM   30  C34 UNL     1      -1.310  52.840 -25.245  1.00  0.00     0.204 C 
BRANCH  27  31
HETATM   31  C31 UNL     1       2.467  51.786 -26.559  1.00  0.00     0.198 C 
BRANCH  31  32
HETATM   32  O5  UNL     1       3.004  51.199 -27.748  1.00  0.00    -0.398 OA
HETATM   33  H48 UNL     1       2.745  50.260 -27.700  1.00  0.00     0.209 HD
ENDBRANCH  31  32
ENDBRANCH  27  31
BRANCH  28  34
HETATM   34  O6  UNL     1      -1.004  51.668 -27.841  1.00  0.00    -0.390 OA
HETATM   35  H50 UNL     1      -0.693  51.283 -28.677  1.00  0.00     0.210 HD
ENDBRANCH  28  34
BRANCH  29  36
HETATM   36  O7  UNL     1       0.577  54.310 -25.875  1.00  0.00    -0.390 OA
HETATM   37  H52 UNL     1       0.196  54.929 -25.226  1.00  0.00     0.210 HD
ENDBRANCH  29  36
BRANCH  30  38
HETATM   38  O8  UNL     1      -2.655  52.594 -25.714  1.00  0.00    -0.388 OA
HETATM   39  H54 UNL     1      -2.564  52.226 -26.632  1.00  0.00     0.210 HD
ENDBRANCH  30  38
ENDBRANCH  24  25
ENDBRANCH  20  24
BRANCH   1  40
HETATM   40  C8  UNL     1      -9.876  45.719 -21.069  1.00  0.00    -0.010 C 
HETATM   41  C9  UNL     1     -10.860  45.768 -19.892  1.00  0.00     0.010 C 
BRANCH  40  42
HETATM   42  C7  UNL     1      -9.008  44.433 -20.937  1.00  0.00     0.031 C 
BRANCH  42  43
HETATM   43  C6  UNL     1      -8.939  43.506 -22.131  1.00  0.00    -0.027 C 
HETATM   44  C5  UNL     1      -9.346  42.226 -22.186  1.00  0.00     0.006 C 
BRANCH  44  45
HETATM   45  C2  UNL     1      -9.326  41.290 -23.384  1.00  0.00     0.070 C 
HETATM   46  C3  UNL     1      -9.737  41.911 -24.726  1.00  0.00     0.050 C 
HETATM   47  C4  UNL     1     -10.295  40.133 -23.082  1.00  0.00     0.050 C 
BRANCH  45  48
HETATM   48  O1  UNL     1      -8.025  40.679 -23.458  1.00  0.00    -0.382 OA
HETATM   49  C1  UNL     1      -7.549  40.074 -22.266  1.00  0.00     0.202 C 
ENDBRANCH  45  48
ENDBRANCH  44  45
ENDBRANCH  42  43
ENDBRANCH  40  42
ENDBRANCH   1  40
TORSDOF 12
ENDMDL
MODEL 7
REMARK minimizedAffinity -8.15773773
REMARK CNNscore 0.320889235
REMARK CNNaffinity 6.26573515
REMARK  12 active torsions:
REMARK  status: ('A' for Active; 'I' for Inactive)
REMARK    1  A    between atoms: O1_2  and  C2_3 
REMARK    2  A    between atoms: C2_3  and  C5_6 
REMARK    3  A    between atoms: C6_7  and  C7_8 
REMARK    4  A    between atoms: C7_8  and  C8_9 
REMARK    5  A    between atoms: C8_9  and  C10_11 
REMARK    6  A    between atoms: C28_30  and  O3_31 
REMARK    7  A    between atoms: O3_31  and  C29_32 
REMARK    8  A    between atoms: C30_34  and  C31_35 
REMARK    9  A    between atoms: C31_35  and  O5_36 
REMARK   10  A    between atoms: C32_37  and  O6_38 
REMARK   11  A    between atoms: C33_39  and  O7_40 
REMARK   12  A    between atoms: C34_41  and  O8_42 
ROOT
HETATM    1  C10 UNL     1     -13.934  46.407 -27.516  1.00  0.00    -0.002 C 
HETATM    2  C11 UNL     1     -13.341  47.733 -26.944  1.00  0.00     0.006 C 
HETATM    3  C12 UNL     1     -11.930  47.908 -27.530  1.00  0.00     0.011 C 
HETATM    4  C13 UNL     1     -11.870  46.919 -28.709  1.00  0.00    -0.029 C 
HETATM    5  C14 UNL     1     -12.581  47.625 -29.905  1.00  0.00     0.016 C 
HETATM    6  C15 UNL     1     -10.433  46.462 -29.110  1.00  0.00     0.028 C 
HETATM    7  C16 UNL     1      -9.551  47.603 -29.597  1.00  0.00    -0.021 C 
HETATM    8  C17 UNL     1      -8.803  47.498 -30.711  1.00  0.00     0.008 C 
HETATM    9  C18 UNL     1      -8.802  46.214 -31.536  1.00  0.00     0.092 C 
HETATM   10  O2  UNL     1      -8.109  45.262 -30.688  1.00  0.00    -0.374 OA
HETATM   11  C19 UNL     1      -9.081  44.488 -29.978  1.00  0.00     0.179 C 
HETATM   12  C20 UNL     1     -10.439  45.218 -30.110  1.00  0.00    -0.004 C 
HETATM   13  C21 UNL     1     -11.572  44.187 -29.839  1.00  0.00     0.014 C 
HETATM   14  C22 UNL     1     -12.903  44.706 -29.265  1.00  0.00     0.011 C 
HETATM   15  C23 UNL     1     -12.674  45.699 -28.115  1.00  0.00    -0.032 C 
HETATM   16  C24 UNL     1     -11.930  44.955 -26.959  1.00  0.00     0.016 C 
HETATM   17  C25 UNL     1     -10.282  45.735 -31.568  1.00  0.00     0.036 C 
HETATM   18  C26 UNL     1     -10.540  44.742 -32.697  1.00  0.00     0.011 C 
HETATM   19  C27 UNL     1     -10.218  45.341 -34.068  1.00  0.00     0.033 C 
HETATM   20  C28 UNL     1      -9.163  46.459 -34.057  1.00  0.00     0.136 C 
HETATM   21  C35 UNL     1      -8.092  46.250 -32.945  1.00  0.00     0.014 C 
HETATM   22  C36 UNL     1      -7.280  44.948 -33.225  1.00  0.00     0.021 C 
HETATM   23  C37 UNL     1      -7.039  47.385 -33.049  1.00  0.00     0.021 C 
ENDROOT
BRANCH  20  24
HETATM   24  O3  UNL     1      -8.492  46.489 -35.320  1.00  0.00    -0.352 OA
BRANCH  24  25
HETATM   25  C29 UNL     1      -8.805  47.585 -36.184  1.00  0.00     0.292 C 
HETATM   26  O4  UNL     1     -10.043  47.347 -36.836  1.00  0.00    -0.348 OA
HETATM   27  C30 UNL     1     -10.436  48.407 -37.735  1.00  0.00     0.179 C 
HETATM   28  C32 UNL     1      -9.265  48.996 -38.547  1.00  0.00     0.180 C 
HETATM   29  C33 UNL     1      -8.101  48.005 -38.622  1.00  0.00     0.183 C 
HETATM   30  C34 UNL     1      -7.632  47.660 -37.196  1.00  0.00     0.204 C 
BRANCH  27  31
HETATM   31  C31 UNL     1     -11.500  47.791 -38.652  1.00  0.00     0.198 C 
BRANCH  31  32
HETATM   32  O5  UNL     1     -12.473  48.790 -38.974  1.00  0.00    -0.398 OA
HETATM   33  H48 UNL     1     -12.742  49.160 -38.112  1.00  0.00     0.209 HD
ENDBRANCH  31  32
ENDBRANCH  27  31
BRANCH  28  34
HETATM   34  O6  UNL     1      -8.782  50.188 -37.899  1.00  0.00    -0.390 OA
HETATM   35  H50 UNL     1      -9.335  50.927 -38.204  1.00  0.00     0.210 HD
ENDBRANCH  28  34
BRANCH  29  36
HETATM   36  O7  UNL     1      -8.497  46.856 -39.370  1.00  0.00    -0.390 OA
HETATM   37  H52 UNL     1      -7.780  46.198 -39.311  1.00  0.00     0.210 HD
ENDBRANCH  29  36
BRANCH  30  38
HETATM   38  O8  UNL     1      -6.683  48.651 -36.742  1.00  0.00    -0.388 OA
HETATM   39  H54 UNL     1      -7.049  49.532 -37.018  1.00  0.00     0.210 HD
ENDBRANCH  30  38
ENDBRANCH  24  25
ENDBRANCH  20  24
BRANCH   1  40
HETATM   40  C8  UNL     1     -14.794  45.668 -26.441  1.00  0.00    -0.010 C 
HETATM   41  C9  UNL     1     -16.120  45.149 -27.015  1.00  0.00     0.010 C 
BRANCH  40  42
HETATM   42  C7  UNL     1     -15.104  46.585 -25.223  1.00  0.00     0.031 C 
BRANCH  42  43
HETATM   43  C6  UNL     1     -16.541  46.670 -24.755  1.00  0.00    -0.027 C 
HETATM   44  C5  UNL     1     -17.201  45.772 -24.004  1.00  0.00     0.006 C 
BRANCH  44  45
HETATM   45  C2  UNL     1     -18.628  45.856 -23.486  1.00  0.00     0.070 C 
HETATM   46  C3  UNL     1     -19.282  44.521 -23.105  1.00  0.00     0.050 C 
HETATM   47  C4  UNL     1     -19.483  46.502 -24.591  1.00  0.00     0.050 C 
BRANCH  45  48
HETATM   48  O1  UNL     1     -18.658  46.792 -22.394  1.00  0.00    -0.382 OA
HETATM   49  C1  UNL     1     -18.575  46.236 -21.091  1.00  0.00     0.202 C 
ENDBRANCH  45  48
ENDBRANCH  44  45
ENDBRANCH  42  43
ENDBRANCH  40  42
ENDBRANCH   1  40
TORSDOF 12
ENDMDL
MODEL 8
REMARK minimizedAffinity -8.1233511
REMARK CNNscore 0.31780684
REMARK CNNaffinity 7.03975296
REMARK  12 active torsions:
REMARK  status: ('A' for Active; 'I' for Inactive)
REMARK    1  A    between atoms: O1_2  and  C2_3 
REMARK    2  A    between atoms: C2_3  and  C5_6 
REMARK    3  A    between atoms: C6_7  and  C7_8 
REMARK    4  A    between atoms: C7_8  and  C8_9 
REMARK    5  A    between atoms: C8_9  and  C10_11 
REMARK    6  A    between atoms: C28_30  and  O3_31 
REMARK    7  A    between atoms: O3_31  and  C29_32 
REMARK    8  A    between atoms: C30_34  and  C31_35 
REMARK    9  A    between atoms: C31_35  and  O5_36 
REMARK   10  A    between atoms: C32_37  and  O6_38 
REMARK   11  A    between atoms: C33_39  and  O7_40 
REMARK   12  A    between atoms: C34_41  and  O8_42 
ROOT
HETATM    1  C10 UNL     1      -1.903  50.756 -21.879  1.00  0.00    -0.002 C 
HETATM    2  C11 UNL     1      -2.183  50.280 -23.339  1.00  0.00     0.006 C 
HETATM    3  C12 UNL     1      -2.981  48.969 -23.261  1.00  0.00     0.011 C 
HETATM    4  C13 UNL     1      -3.486  48.903 -21.808  1.00  0.00    -0.029 C 
HETATM    5  C14 UNL     1      -4.752  49.813 -21.746  1.00  0.00     0.016 C 
HETATM    6  C15 UNL     1      -3.811  47.467 -21.290  1.00  0.00     0.028 C 
HETATM    7  C16 UNL     1      -4.937  46.789 -22.057  1.00  0.00    -0.021 C 
HETATM    8  C17 UNL     1      -5.940  46.149 -21.429  1.00  0.00     0.008 C 
HETATM    9  C18 UNL     1      -5.986  46.069 -19.906  1.00  0.00     0.092 C 
HETATM   10  O2  UNL     1      -4.888  45.180 -19.574  1.00  0.00    -0.374 OA
HETATM   11  C19 UNL     1      -3.746  45.972 -19.232  1.00  0.00     0.179 C 
HETATM   12  C20 UNL     1      -4.024  47.416 -19.709  1.00  0.00    -0.004 C 
HETATM   13  C21 UNL     1      -3.099  48.378 -18.909  1.00  0.00     0.014 C 
HETATM   14  C22 UNL     1      -2.675  49.700 -19.576  1.00  0.00     0.011 C 
HETATM   15  C23 UNL     1      -2.241  49.484 -21.034  1.00  0.00    -0.032 C 
HETATM   16  C24 UNL     1      -0.994  48.540 -21.044  1.00  0.00     0.016 C 
HETATM   17  C25 UNL     1      -5.546  47.473 -19.398  1.00  0.00     0.036 C 
HETATM   18  C26 UNL     1      -5.959  47.715 -17.950  1.00  0.00     0.011 C 
HETATM   19  C27 UNL     1      -7.475  47.610 -17.763  1.00  0.00     0.033 C 
HETATM   20  C28 UNL     1      -8.193  46.708 -18.779  1.00  0.00     0.136 C 
HETATM   21  C35 UNL     1      -7.306  45.514 -19.241  1.00  0.00     0.014 C 
HETATM   22  C36 UNL     1      -7.003  44.576 -18.032  1.00  0.00     0.021 C 
HETATM   23  C37 UNL     1      -8.131  44.628 -20.212  1.00  0.00     0.021 C 
ENDROOT
BRANCH  20  24
HETATM   24  O3  UNL     1      -9.380  46.177 -18.185  1.00  0.00    -0.352 OA
BRANCH  24  25
HETATM   25  C29 UNL     1     -10.533  46.087 -19.027  1.00  0.00     0.292 C 
HETATM   26  O4  UNL     1     -11.242  47.315 -19.006  1.00  0.00    -0.348 OA
HETATM   27  C30 UNL     1     -12.428  47.312 -19.832  1.00  0.00     0.179 C 
HETATM   28  C32 UNL     1     -13.221  45.991 -19.770  1.00  0.00     0.180 C 
HETATM   29  C33 UNL     1     -12.893  45.218 -18.490  1.00  0.00     0.183 C 
HETATM   30  C34 UNL     1     -11.381  44.927 -18.442  1.00  0.00     0.204 C 
BRANCH  27  31
HETATM   31  C31 UNL     1     -13.271  48.494 -19.339  1.00  0.00     0.198 C 
BRANCH  31  32
HETATM   32  O5  UNL     1     -13.879  49.135 -20.466  1.00  0.00    -0.398 OA
HETATM   33  H48 UNL     1     -13.142  49.299 -21.084  1.00  0.00     0.209 HD
ENDBRANCH  31  32
ENDBRANCH  27  31
BRANCH  28  34
HETATM   34  O6  UNL     1     -12.855  45.158 -20.887  1.00  0.00    -0.390 OA
HETATM   35  H50 UNL     1     -13.407  45.427 -21.640  1.00  0.00     0.210 HD
ENDBRANCH  28  34
BRANCH  29  36
HETATM   36  O7  UNL     1     -13.355  45.950 -17.356  1.00  0.00    -0.390 OA
HETATM   37  H52 UNL     1     -13.041  45.494 -16.555  1.00  0.00     0.210 HD
ENDBRANCH  29  36
BRANCH  30  38
HETATM   38  O8  UNL     1     -11.094  43.717 -19.177  1.00  0.00    -0.388 OA
HETATM   39  H54 UNL     1     -11.632  43.764 -20.009  1.00  0.00     0.210 HD
ENDBRANCH  30  38
ENDBRANCH  24  25
ENDBRANCH  20  24
BRANCH   1  40
HETATM   40  C8  UNL     1      -0.487  51.404 -21.761  1.00  0.00    -0.010 C 
HETATM   41  C9  UNL     1      -0.110  51.717 -20.306  1.00  0.00     0.010 C 
BRANCH  40  42
HETATM   42  C7  UNL     1      -0.383  52.715 -22.594  1.00  0.00     0.031 C 
BRANCH  42  43
HETATM   43  C6  UNL     1       0.314  52.642 -23.935  1.00  0.00    -0.027 C 
HETATM   44  C5  UNL     1      -0.264  52.497 -25.141  1.00  0.00     0.006 C 
BRANCH  44  45
HETATM   45  C2  UNL     1       0.412  52.465 -26.502  1.00  0.00     0.070 C 
HETATM   46  C3  UNL     1      -0.097  53.489 -27.526  1.00  0.00     0.050 C 
HETATM   47  C4  UNL     1       0.195  51.060 -27.092  1.00  0.00     0.050 C 
BRANCH  45  48
HETATM   48  O1  UNL     1       1.833  52.573 -26.305  1.00  0.00    -0.382 OA
HETATM   49  C1  UNL     1       2.595  51.410 -26.591  1.00  0.00     0.202 C 
ENDBRANCH  45  48
ENDBRANCH  44  45
ENDBRANCH  42  43
ENDBRANCH  40  42
ENDBRANCH   1  40
TORSDOF 12
ENDMDL
MODEL 9
REMARK minimizedAffinity -8.32250023
REMARK CNNscore 0.314919353
REMARK CNNaffinity 6.83834314
REMARK  12 active torsions:
REMARK  status: ('A' for Active; 'I' for Inactive)
REMARK    1  A    between atoms: O1_2  and  C2_3 
REMARK    2  A    between atoms: C2_3  and  C5_6 
REMARK    3  A    between atoms: C6_7  and  C7_8 
REMARK    4  A    between atoms: C7_8  and  C8_9 
REMARK    5  A    between atoms: C8_9  and  C10_11 
REMARK    6  A    between atoms: C28_30  and  O3_31 
REMARK    7  A    between atoms: O3_31  and  C29_32 
REMARK    8  A    between atoms: C30_34  and  C31_35 
REMARK    9  A    between atoms: C31_35  and  O5_36 
REMARK   10  A    between atoms: C32_37  and  O6_38 
REMARK   11  A    between atoms: C33_39  and  O7_40 
REMARK   12  A    between atoms: C34_41  and  O8_42 
ROOT
HETATM    1  C10 UNL     1      -1.354  49.919 -21.693  1.00  0.00    -0.002 C 
HETATM    2  C11 UNL     1      -0.733  48.796 -20.804  1.00  0.00     0.006 C 
HETATM    3  C12 UNL     1      -1.887  48.059 -20.105  1.00  0.00     0.011 C 
HETATM    4  C13 UNL     1      -3.149  48.486 -20.875  1.00  0.00    -0.029 C 
HETATM    5  C14 UNL     1      -3.200  47.595 -22.155  1.00  0.00     0.016 C 
HETATM    6  C15 UNL     1      -4.480  48.373 -20.068  1.00  0.00     0.028 C 
HETATM    7  C16 UNL     1      -4.817  46.947 -19.657  1.00  0.00    -0.021 C 
HETATM    8  C17 UNL     1      -6.050  46.434 -19.818  1.00  0.00     0.008 C 
HETATM    9  C18 UNL     1      -7.176  47.271 -20.418  1.00  0.00     0.092 C 
HETATM   10  O2  UNL     1      -7.457  48.257 -19.391  1.00  0.00    -0.374 OA
HETATM   11  C19 UNL     1      -6.752  49.462 -19.707  1.00  0.00     0.179 C 
HETATM   12  C20 UNL     1      -5.699  49.112 -20.786  1.00  0.00    -0.004 C 
HETATM   13  C21 UNL     1      -5.306  50.425 -21.523  1.00  0.00     0.014 C 
HETATM   14  C22 UNL     1      -3.896  50.519 -22.133  1.00  0.00     0.011 C 
HETATM   15  C23 UNL     1      -2.823  50.002 -21.162  1.00  0.00    -0.032 C 
HETATM   16  C24 UNL     1      -2.836  50.904 -19.885  1.00  0.00     0.016 C 
HETATM   17  C25 UNL     1      -6.528  48.069 -21.587  1.00  0.00     0.036 C 
HETATM   18  C26 UNL     1      -7.570  48.600 -22.566  1.00  0.00     0.011 C 
HETATM   19  C27 UNL     1      -8.402  47.473 -23.181  1.00  0.00     0.033 C 
HETATM   20  C28 UNL     1      -8.523  46.208 -22.316  1.00  0.00     0.136 C 
HETATM   21  C35 UNL     1      -8.520  46.532 -20.792  1.00  0.00     0.014 C 
HETATM   22  C36 UNL     1      -9.777  47.379 -20.424  1.00  0.00     0.021 C 
HETATM   23  C37 UNL     1      -8.708  45.209 -20.003  1.00  0.00     0.021 C 
ENDROOT
BRANCH  20  24
HETATM   24  O3  UNL     1      -9.748  45.538 -22.626  1.00  0.00    -0.352 OA
BRANCH  24  25
HETATM   25  C29 UNL     1     -10.667  46.241 -23.467  1.00  0.00     0.292 C 
HETATM   26  O4  UNL     1     -11.932  46.328 -22.832  1.00  0.00    -0.348 OA
HETATM   27  C30 UNL     1     -12.926  47.023 -23.617  1.00  0.00     0.179 C 
HETATM   28  C32 UNL     1     -12.868  46.693 -25.122  1.00  0.00     0.180 C 
HETATM   29  C33 UNL     1     -12.167  45.352 -25.358  1.00  0.00     0.183 C 
HETATM   30  C34 UNL     1     -10.742  45.412 -24.777  1.00  0.00     0.204 C 
BRANCH  27  31
HETATM   31  C31 UNL     1     -14.277  46.627 -23.008  1.00  0.00     0.198 C 
BRANCH  31  32
HETATM   32  O5  UNL     1     -14.810  47.743 -22.289  1.00  0.00    -0.398 OA
HETATM   33  H48 UNL     1     -14.086  48.026 -21.700  1.00  0.00     0.209 HD
ENDBRANCH  31  32
ENDBRANCH  27  31
BRANCH  28  34
HETATM   34  O6  UNL     1     -12.111  47.708 -25.808  1.00  0.00    -0.390 OA
HETATM   35  H50 UNL     1     -12.723  48.434 -26.015  1.00  0.00     0.210 HD
ENDBRANCH  28  34
BRANCH  29  36
HETATM   36  O7  UNL     1     -12.950  44.297 -24.804  1.00  0.00    -0.390 OA
HETATM   37  H52 UNL     1     -12.434  43.473 -24.871  1.00  0.00     0.210 HD
ENDBRANCH  29  36
BRANCH  30  38
HETATM   38  O8  UNL     1      -9.842  45.989 -25.749  1.00  0.00    -0.388 OA
HETATM   39  H54 UNL     1     -10.322  46.762 -26.146  1.00  0.00     0.210 HD
ENDBRANCH  30  38
ENDBRANCH  24  25
ENDBRANCH  20  24
BRANCH   1  40
HETATM   40  C8  UNL     1      -0.460  51.200 -21.686  1.00  0.00    -0.010 C 
HETATM   41  C9  UNL     1      -0.292  51.783 -20.276  1.00  0.00     0.010 C 
BRANCH  40  42
HETATM   42  C7  UNL     1      -1.035  52.307 -22.616  1.00  0.00     0.031 C 
BRANCH  42  43
HETATM   43  C6  UNL     1      -0.403  52.476 -23.981  1.00  0.00    -0.027 C 
HETATM   44  C5  UNL     1      -0.690  51.783 -25.097  1.00  0.00     0.006 C 
BRANCH  44  45
HETATM   45  C2  UNL     1      -0.101  51.964 -26.486  1.00  0.00     0.070 C 
HETATM   46  C3  UNL     1       1.320  51.419 -26.688  1.00  0.00     0.050 C 
HETATM   47  C4  UNL     1      -0.074  53.474 -26.783  1.00  0.00     0.050 C 
BRANCH  45  48
HETATM   48  O1  UNL     1      -1.022  51.411 -27.443  1.00  0.00    -0.382 OA
HETATM   49  C1  UNL     1      -1.954  50.466 -26.941  1.00  0.00     0.202 C 
ENDBRANCH  45  48
ENDBRANCH  44  45
ENDBRANCH  42  43
ENDBRANCH  40  42
ENDBRANCH   1  40
TORSDOF 12
ENDMDL
