MODEL 1
REMARK minimizedAffinity -5.61958075
REMARK  7 active torsions:
REMARK  status: ('A' for Active; 'I' for Inactive)
REMARK    1  A    between atoms: S1_2  and  C2_4 
REMARK    2  A    between atoms: C2_4  and  C3_5 
REMARK    3  A    between atoms: C3_5  and  N1_6 
REMARK       I    between atoms: N1_6  and  C4_7 
REMARK       I    between atoms: C4_7  and  N2_9 
REMARK    4  A    between atoms: N2_9  and  C5_10 
REMARK    5  A    between atoms: N2_9  and  N3_13 
REMARK    6  A    between atoms: C5_10  and  C6_11 
REMARK    7  A    between atoms: N3_13  and  O3_15 
ROOT
HETATM    1  N1  UNL     1       7.224  63.572 -34.562  1.00  0.00    -0.341 N 
HETATM    2  C4  UNL     1       5.896  63.157 -34.566  1.00  0.00     0.338 C 
HETATM    3  O2  UNL     1       5.623  61.969 -34.716  1.00  0.00    -0.245 OA
HETATM    4  N2  UNL     1       4.972  64.189 -34.357  1.00  0.00    -0.222 N 
HETATM    5  H8  UNL     1       7.381  64.455 -35.026  1.00  0.00     0.164 HD
ENDROOT
BRANCH   1   6
HETATM    6  C3  UNL     1       8.280  62.602 -34.833  1.00  0.00     0.137 C 
BRANCH   6   7
HETATM    7  C2  UNL     1       8.877  61.989 -33.570  1.00  0.00     0.128 C 
BRANCH   7   8
HETATM    8  S1  UNL     1      10.402  62.844 -33.055  1.00  0.00     0.012 S 
HETATM    9  C1  UNL     1      10.923  63.326 -34.718  1.00  0.00     0.127 C 
HETATM   10  O1  UNL     1      10.003  64.084 -32.313  1.00  0.00    -0.258 OA
ENDBRANCH   7   8
ENDBRANCH   6   7
ENDBRANCH   1   6
BRANCH   4  11
HETATM   11  C5  UNL     1       5.315  65.569 -34.011  1.00  0.00     0.171 C 
BRANCH  11  12
HETATM   12  C6  UNL     1       5.568  65.725 -32.516  1.00  0.00     0.136 C 
HETATM   13 CL1  UNL     1       4.318  64.867 -31.587  1.00  0.00    -0.129 Cl
ENDBRANCH  11  12
ENDBRANCH   4  11
BRANCH   4  14
HETATM   14  N3  UNL     1       3.489  63.940 -34.457  1.00  0.00    -0.204 N 
ATOM     15  H3  UNL     1       2.857  64.581 -34.936  1.00  0.00     0.216 HD
BRANCH  14  16
HETATM   16  O3  UNL     1       3.098  62.904 -33.916  1.00  0.00    -0.274 OA
ATOM     17  H3  UNL     1       2.162  62.748 -33.979  1.00  0.00     0.246 HD
ENDBRANCH  14  16
ENDBRANCH   4  14
TORSDOF 7
ENDMDL
MODEL 2
REMARK minimizedAffinity -5.53500843
REMARK  7 active torsions:
REMARK  status: ('A' for Active; 'I' for Inactive)
REMARK    1  A    between atoms: S1_2  and  C2_4 
REMARK    2  A    between atoms: C2_4  and  C3_5 
REMARK    3  A    between atoms: C3_5  and  N1_6 
REMARK       I    between atoms: N1_6  and  C4_7 
REMARK       I    between atoms: C4_7  and  N2_9 
REMARK    4  A    between atoms: N2_9  and  C5_10 
REMARK    5  A    between atoms: N2_9  and  N3_13 
REMARK    6  A    between atoms: C5_10  and  C6_11 
REMARK    7  A    between atoms: N3_13  and  O3_15 
ROOT
HETATM    1  N1  UNL     1       0.294  52.352 -23.621  1.00  0.00    -0.341 N 
HETATM    2  C4  UNL     1       0.594  53.453 -24.416  1.00  0.00     0.338 C 
HETATM    3  O2  UNL     1       1.364  54.317 -24.004  1.00  0.00    -0.245 OA
HETATM    4  N2  UNL     1      -0.022  53.438 -25.674  1.00  0.00    -0.222 N 
HETATM    5  H8  UNL     1      -0.670  52.053 -23.678  1.00  0.00     0.164 HD
ENDROOT
BRANCH   1   6
HETATM    6  C3  UNL     1       0.822  52.280 -22.263  1.00  0.00     0.137 C 
BRANCH   6   7
HETATM    7  C2  UNL     1      -0.219  52.587 -21.191  1.00  0.00     0.128 C 
BRANCH   7   8
HETATM    8  S1  UNL     1       0.378  53.833 -20.002  1.00  0.00     0.012 S 
HETATM    9  C1  UNL     1       0.689  52.674 -18.650  1.00  0.00     0.127 C 
HETATM   10  O1  UNL     1       1.700  54.339 -20.495  1.00  0.00    -0.258 OA
ENDBRANCH   7   8
ENDBRANCH   6   7
ENDBRANCH   1   6
BRANCH   4  11
HETATM   11  C5  UNL     1      -0.800  52.323 -26.217  1.00  0.00     0.171 C 
BRANCH  11  12
HETATM   12  C6  UNL     1       0.103  51.222 -26.758  1.00  0.00     0.136 C 
HETATM   13 CL1  UNL     1       0.772  51.693 -28.337  1.00  0.00    -0.129 Cl
ENDBRANCH  11  12
ENDBRANCH   4  11
BRANCH   4  14
HETATM   14  N3  UNL     1       0.091  54.612 -26.612  1.00  0.00    -0.204 N 
ATOM     15  H3  UNL     1       0.051  54.509 -27.626  1.00  0.00     0.216 HD
BRANCH  14  16
HETATM   16  O3  UNL     1       0.238  55.705 -26.063  1.00  0.00    -0.274 OA
ATOM     17  H3  UNL     1       0.310  56.445 -26.654  1.00  0.00     0.246 HD
ENDBRANCH  14  16
ENDBRANCH   4  14
TORSDOF 7
ENDMDL
MODEL 3
REMARK minimizedAffinity -5.46551466
REMARK  7 active torsions:
REMARK  status: ('A' for Active; 'I' for Inactive)
REMARK    1  A    between atoms: S1_2  and  C2_4 
REMARK    2  A    between atoms: C2_4  and  C3_5 
REMARK    3  A    between atoms: C3_5  and  N1_6 
REMARK       I    between atoms: N1_6  and  C4_7 
REMARK       I    between atoms: C4_7  and  N2_9 
REMARK    4  A    between atoms: N2_9  and  C5_10 
REMARK    5  A    between atoms: N2_9  and  N3_13 
REMARK    6  A    between atoms: C5_10  and  C6_11 
REMARK    7  A    between atoms: N3_13  and  O3_15 
ROOT
HETATM    1  N1  UNL     1       0.634  53.184 -25.063  1.00  0.00    -0.341 N 
HETATM    2  C4  UNL     1       0.162  53.934 -26.135  1.00  0.00     0.338 C 
HETATM    3  O2  UNL     1       0.053  55.153 -26.031  1.00  0.00    -0.245 OA
HETATM    4  N2  UNL     1      -0.122  53.181 -27.282  1.00  0.00    -0.222 N 
HETATM    5  H8  UNL     1       0.171  52.293 -24.947  1.00  0.00     0.164 HD
ENDROOT
BRANCH   1   6
HETATM    6  C3  UNL     1       0.905  53.842 -23.789  1.00  0.00     0.137 C 
BRANCH   6   7
HETATM    7  C2  UNL     1       0.731  52.924 -22.584  1.00  0.00     0.128 C 
BRANCH   7   8
HETATM    8  S1  UNL     1       0.628  53.862 -21.024  1.00  0.00     0.012 S 
HETATM    9  C1  UNL     1       0.426  52.423 -19.948  1.00  0.00     0.127 C 
HETATM   10  O1  UNL     1       1.979  54.457 -20.759  1.00  0.00    -0.258 OA
ENDBRANCH   7   8
ENDBRANCH   6   7
ENDBRANCH   1   6
BRANCH   4  11
HETATM   11  C5  UNL     1       0.173  51.757 -27.447  1.00  0.00     0.171 C 
BRANCH  11  12
HETATM   12  C6  UNL     1       1.492  51.539 -28.178  1.00  0.00     0.136 C 
HETATM   13 CL1  UNL     1       2.844  51.537 -27.023  1.00  0.00    -0.129 Cl
ENDBRANCH  11  12
ENDBRANCH   4  11
BRANCH   4  14
HETATM   14  N3  UNL     1      -0.760  53.813 -28.491  1.00  0.00    -0.204 N 
ATOM     15  H3  UNL     1      -0.282  53.884 -29.389  1.00  0.00     0.216 HD
BRANCH  14  16
HETATM   16  O3  UNL     1      -1.903  54.239 -28.314  1.00  0.00    -0.274 OA
ATOM     17  H3  UNL     1      -2.306  54.638 -29.077  1.00  0.00     0.246 HD
ENDBRANCH  14  16
ENDBRANCH   4  14
TORSDOF 7
ENDMDL
MODEL 4
REMARK minimizedAffinity -5.42593241
REMARK  7 active torsions:
REMARK  status: ('A' for Active; 'I' for Inactive)
REMARK    1  A    between atoms: S1_2  and  C2_4 
REMARK    2  A    between atoms: C2_4  and  C3_5 
REMARK    3  A    between atoms: C3_5  and  N1_6 
REMARK       I    between atoms: N1_6  and  C4_7 
REMARK       I    between atoms: C4_7  and  N2_9 
REMARK    4  A    between atoms: N2_9  and  C5_10 
REMARK    5  A    between atoms: N2_9  and  N3_13 
REMARK    6  A    between atoms: C5_10  and  C6_11 
REMARK    7  A    between atoms: N3_13  and  O3_15 
ROOT
HETATM    1  N1  UNL     1       0.003  51.976 -24.981  1.00  0.00    -0.341 N 
HETATM    2  C4  UNL     1       0.519  53.265 -25.073  1.00  0.00     0.338 C 
HETATM    3  O2  UNL     1       0.573  53.829 -26.163  1.00  0.00    -0.245 OA
HETATM    4  N2  UNL     1       0.909  53.816 -23.846  1.00  0.00    -0.222 N 
HETATM    5  H8  UNL     1       0.490  51.383 -24.325  1.00  0.00     0.164 HD
ENDROOT
BRANCH   1   6
HETATM    6  C3  UNL     1      -0.381  51.267 -26.197  1.00  0.00     0.137 C 
BRANCH   6   7
HETATM    7  C2  UNL     1      -1.704  50.519 -26.070  1.00  0.00     0.128 C 
BRANCH   7   8
HETATM    8  S1  UNL     1      -3.132  51.609 -26.380  1.00  0.00     0.012 S 
HETATM    9  C1  UNL     1      -3.834  51.482 -24.718  1.00  0.00     0.127 C 
HETATM   10  O1  UNL     1      -2.613  53.003 -26.562  1.00  0.00    -0.258 OA
ENDBRANCH   7   8
ENDBRANCH   6   7
ENDBRANCH   1   6
BRANCH   4  11
HETATM   11  C5  UNL     1       0.681  53.201 -22.537  1.00  0.00     0.171 C 
BRANCH  11  12
HETATM   12  C6  UNL     1       1.396  53.964 -21.428  1.00  0.00     0.136 C 
HETATM   13 CL1  UNL     1       0.414  53.961 -19.945  1.00  0.00    -0.129 Cl
ENDBRANCH  11  12
ENDBRANCH   4  11
BRANCH   4  14
HETATM   14  N3  UNL     1       1.604  55.151 -23.776  1.00  0.00    -0.204 N 
ATOM     15  H3  UNL     1       2.421  55.313 -23.186  1.00  0.00     0.216 HD
BRANCH  14  16
HETATM   16  O3  UNL     1       1.113  56.031 -24.484  1.00  0.00    -0.274 OA
ATOM     17  H3  UNL     1       1.552  56.873 -24.440  1.00  0.00     0.246 HD
ENDBRANCH  14  16
ENDBRANCH   4  14
TORSDOF 7
ENDMDL
MODEL 5
REMARK minimizedAffinity -5.29685116
REMARK  7 active torsions:
REMARK  status: ('A' for Active; 'I' for Inactive)
REMARK    1  A    between atoms: S1_2  and  C2_4 
REMARK    2  A    between atoms: C2_4  and  C3_5 
REMARK    3  A    between atoms: C3_5  and  N1_6 
REMARK       I    between atoms: N1_6  and  C4_7 
REMARK       I    between atoms: C4_7  and  N2_9 
REMARK    4  A    between atoms: N2_9  and  C5_10 
REMARK    5  A    between atoms: N2_9  and  N3_13 
REMARK    6  A    between atoms: C5_10  and  C6_11 
REMARK    7  A    between atoms: N3_13  and  O3_15 
ROOT
HETATM    1  N1  UNL     1       0.244  52.883 -25.044  1.00  0.00    -0.341 N 
HETATM    2  C4  UNL     1      -0.013  53.600 -26.208  1.00  0.00     0.338 C 
HETATM    3  O2  UNL     1       0.251  54.799 -26.263  1.00  0.00    -0.245 OA
HETATM    4  N2  UNL     1      -0.541  52.830 -27.252  1.00  0.00    -0.222 N 
HETATM    5  H8  UNL     1      -0.460  52.195 -24.820  1.00  0.00     0.164 HD
ENDROOT
BRANCH   1   6
HETATM    6  C3  UNL     1       0.736  53.584 -23.863  1.00  0.00     0.137 C 
BRANCH   6   7
HETATM    7  C2  UNL     1       0.524  52.808 -22.567  1.00  0.00     0.128 C 
BRANCH   7   8
HETATM    8  S1  UNL     1       0.678  53.880 -21.100  1.00  0.00     0.012 S 
HETATM    9  C1  UNL     1       0.645  52.544 -19.882  1.00  0.00     0.127 C 
HETATM   10  O1  UNL     1       2.056  54.470 -21.108  1.00  0.00    -0.258 OA
ENDBRANCH   7   8
ENDBRANCH   6   7
ENDBRANCH   1   6
BRANCH   4  11
HETATM   11  C5  UNL     1      -0.690  51.374 -27.231  1.00  0.00     0.171 C 
BRANCH  11  12
HETATM   12  C6  UNL     1      -2.141  50.957 -27.439  1.00  0.00     0.136 C 
HETATM   13 CL1  UNL     1      -3.203  51.842 -26.321  1.00  0.00    -0.129 Cl
ENDBRANCH  11  12
ENDBRANCH   4  11
BRANCH   4  14
HETATM   14  N3  UNL     1      -0.996  53.467 -28.539  1.00  0.00    -0.204 N 
ATOM     15  H3  UNL     1      -0.587  53.230 -29.443  1.00  0.00     0.216 HD
BRANCH  14  16
HETATM   16  O3  UNL     1      -1.898  54.297 -28.418  1.00  0.00    -0.274 OA
ATOM     17  H3  UNL     1      -2.185  54.700 -29.230  1.00  0.00     0.246 HD
ENDBRANCH  14  16
ENDBRANCH   4  14
TORSDOF 7
ENDMDL
MODEL 6
REMARK minimizedAffinity -5.26922655
REMARK  7 active torsions:
REMARK  status: ('A' for Active; 'I' for Inactive)
REMARK    1  A    between atoms: S1_2  and  C2_4 
REMARK    2  A    between atoms: C2_4  and  C3_5 
REMARK    3  A    between atoms: C3_5  and  N1_6 
REMARK       I    between atoms: N1_6  and  C4_7 
REMARK       I    between atoms: C4_7  and  N2_9 
REMARK    4  A    between atoms: N2_9  and  C5_10 
REMARK    5  A    between atoms: N2_9  and  N3_13 
REMARK    6  A    between atoms: C5_10  and  C6_11 
REMARK    7  A    between atoms: N3_13  and  O3_15 
ROOT
HETATM    1  N1  UNL     1       0.487  52.938 -24.641  1.00  0.00    -0.341 N 
HETATM    2  C4  UNL     1       0.137  53.916 -25.567  1.00  0.00     0.338 C 
HETATM    3  O2  UNL     1       0.178  55.103 -25.253  1.00  0.00    -0.245 OA
HETATM    4  N2  UNL     1      -0.211  53.414 -26.827  1.00  0.00    -0.222 N 
HETATM    5  H8  UNL     1      -0.086  52.107 -24.682  1.00  0.00     0.164 HD
ENDROOT
BRANCH   1   6
HETATM    6  C3  UNL     1       0.808  53.327 -23.272  1.00  0.00     0.137 C 
BRANCH   6   7
HETATM    7  C2  UNL     1       0.590  52.209 -22.258  1.00  0.00     0.128 C 
BRANCH   7   8
HETATM    8  S1  UNL     1      -1.178  51.960 -21.890  1.00  0.00     0.012 S 
HETATM    9  C1  UNL     1      -1.320  50.354 -22.708  1.00  0.00     0.127 C 
HETATM   10  O1  UNL     1      -1.312  51.744 -20.413  1.00  0.00    -0.258 OA
ENDBRANCH   7   8
ENDBRANCH   6   7
ENDBRANCH   1   6
BRANCH   4  11
HETATM   11  C5  UNL     1      -0.092  52.014 -27.238  1.00  0.00     0.171 C 
BRANCH  11  12
HETATM   12  C6  UNL     1       1.091  51.804 -28.175  1.00  0.00     0.136 C 
HETATM   13 CL1  UNL     1       2.596  51.649 -27.241  1.00  0.00    -0.129 Cl
ENDBRANCH  11  12
ENDBRANCH   4  11
BRANCH   4  14
HETATM   14  N3  UNL     1      -0.737  54.321 -27.910  1.00  0.00    -0.204 N 
ATOM     15  H3  UNL     1      -0.215  55.128 -28.250  1.00  0.00     0.216 HD
BRANCH  14  16
HETATM   16  O3  UNL     1      -1.846  54.014 -28.352  1.00  0.00    -0.274 OA
ATOM     17  H3  UNL     1      -2.178  54.586 -29.035  1.00  0.00     0.246 HD
ENDBRANCH  14  16
ENDBRANCH   4  14
TORSDOF 7
ENDMDL
MODEL 7
REMARK minimizedAffinity -5.24018526
REMARK  7 active torsions:
REMARK  status: ('A' for Active; 'I' for Inactive)
REMARK    1  A    between atoms: S1_2  and  C2_4 
REMARK    2  A    between atoms: C2_4  and  C3_5 
REMARK    3  A    between atoms: C3_5  and  N1_6 
REMARK       I    between atoms: N1_6  and  C4_7 
REMARK       I    between atoms: C4_7  and  N2_9 
REMARK    4  A    between atoms: N2_9  and  C5_10 
REMARK    5  A    between atoms: N2_9  and  N3_13 
REMARK    6  A    between atoms: C5_10  and  C6_11 
REMARK    7  A    between atoms: N3_13  and  O3_15 
ROOT
HETATM    1  N1  UNL     1       5.570  64.813 -34.639  1.00  0.00    -0.341 N 
HETATM    2  C4  UNL     1       4.756  64.128 -33.743  1.00  0.00     0.338 C 
HETATM    3  O2  UNL     1       4.080  64.750 -32.927  1.00  0.00    -0.245 OA
HETATM    4  N2  UNL     1       4.775  62.736 -33.899  1.00  0.00    -0.222 N 
HETATM    5  H8  UNL     1       6.458  64.364 -34.816  1.00  0.00     0.164 HD
ENDROOT
BRANCH   1   6
HETATM    6  C3  UNL     1       5.688  66.264 -34.538  1.00  0.00     0.137 C 
BRANCH   6   7
HETATM    7  C2  UNL     1       5.258  66.996 -35.806  1.00  0.00     0.128 C 
BRANCH   7   8
HETATM    8  S1  UNL     1       4.752  65.839 -37.119  1.00  0.00     0.012 S 
HETATM    9  C1  UNL     1       4.369  67.104 -38.353  1.00  0.00     0.127 C 
HETATM   10  O1  UNL     1       5.974  65.099 -37.574  1.00  0.00    -0.258 OA
ENDBRANCH   7   8
ENDBRANCH   6   7
ENDBRANCH   1   6
BRANCH   4  11
HETATM   11  C5  UNL     1       5.451  62.020 -34.982  1.00  0.00     0.171 C 
BRANCH  11  12
HETATM   12  C6  UNL     1       6.822  61.514 -34.549  1.00  0.00     0.136 C 
HETATM   13 CL1  UNL     1       6.929  59.754 -34.776  1.00  0.00    -0.129 Cl
ENDBRANCH  11  12
ENDBRANCH   4  11
BRANCH   4  14
HETATM   14  N3  UNL     1       4.052  61.833 -32.933  1.00  0.00    -0.204 N 
ATOM     15  H3  UNL     1       4.387  60.897 -32.703  1.00  0.00     0.216 HD
BRANCH  14  16
HETATM   16  O3  UNL     1       3.027  62.309 -32.443  1.00  0.00    -0.274 OA
ATOM     17  H3  UNL     1       2.571  61.739 -31.834  1.00  0.00     0.246 HD
ENDBRANCH  14  16
ENDBRANCH   4  14
TORSDOF 7
ENDMDL
MODEL 8
REMARK minimizedAffinity -5.04789114
REMARK  7 active torsions:
REMARK  status: ('A' for Active; 'I' for Inactive)
REMARK    1  A    between atoms: S1_2  and  C2_4 
REMARK    2  A    between atoms: C2_4  and  C3_5 
REMARK    3  A    between atoms: C3_5  and  N1_6 
REMARK       I    between atoms: N1_6  and  C4_7 
REMARK       I    between atoms: C4_7  and  N2_9 
REMARK    4  A    between atoms: N2_9  and  C5_10 
REMARK    5  A    between atoms: N2_9  and  N3_13 
REMARK    6  A    between atoms: C5_10  and  C6_11 
REMARK    7  A    between atoms: N3_13  and  O3_15 
ROOT
HETATM    1  N1  UNL     1       0.369  52.807 -25.067  1.00  0.00    -0.341 N 
HETATM    2  C4  UNL     1       0.019  53.551 -26.189  1.00  0.00     0.338 C 
HETATM    3  O2  UNL     1       0.135  54.774 -26.175  1.00  0.00    -0.245 OA
HETATM    4  N2  UNL     1      -0.417  52.782 -27.275  1.00  0.00    -0.222 N 
HETATM    5  H8  UNL     1      -0.245  52.025 -24.883  1.00  0.00     0.164 HD
ENDROOT
BRANCH   1   6
HETATM    6  C3  UNL     1       0.779  53.494 -23.847  1.00  0.00     0.137 C 
BRANCH   6   7
HETATM    7  C2  UNL     1       0.428  52.730 -22.574  1.00  0.00     0.128 C 
BRANCH   7   8
HETATM    8  S1  UNL     1      -1.048  51.685 -22.794  1.00  0.00     0.012 S 
HETATM    9  C1  UNL     1      -1.448  51.543 -21.037  1.00  0.00     0.127 C 
HETATM   10  O1  UNL     1      -2.108  52.521 -23.447  1.00  0.00    -0.258 OA
ENDBRANCH   7   8
ENDBRANCH   6   7
ENDBRANCH   1   6
BRANCH   4  11
HETATM   11  C5  UNL     1      -0.388  51.320 -27.337  1.00  0.00     0.171 C 
BRANCH  11  12
HETATM   12  C6  UNL     1      -1.657  50.709 -26.755  1.00  0.00     0.136 C 
HETATM   13 CL1  UNL     1      -2.961  50.730 -27.964  1.00  0.00    -0.129 Cl
ENDBRANCH  11  12
ENDBRANCH   4  11
BRANCH   4  14
HETATM   14  N3  UNL     1      -0.953  53.430 -28.525  1.00  0.00    -0.204 N 
ATOM     15  H3  UNL     1      -0.573  53.235 -29.451  1.00  0.00     0.216 HD
BRANCH  14  16
HETATM   16  O3  UNL     1      -1.886  54.215 -28.344  1.00  0.00    -0.274 OA
ATOM     17  H3  UNL     1      -2.225  54.625 -29.133  1.00  0.00     0.246 HD
ENDBRANCH  14  16
ENDBRANCH   4  14
TORSDOF 7
ENDMDL
MODEL 9
REMARK minimizedAffinity -5.04383469
REMARK  7 active torsions:
REMARK  status: ('A' for Active; 'I' for Inactive)
REMARK    1  A    between atoms: S1_2  and  C2_4 
REMARK    2  A    between atoms: C2_4  and  C3_5 
REMARK    3  A    between atoms: C3_5  and  N1_6 
REMARK       I    between atoms: N1_6  and  C4_7 
REMARK       I    between atoms: C4_7  and  N2_9 
REMARK    4  A    between atoms: N2_9  and  C5_10 
REMARK    5  A    between atoms: N2_9  and  N3_13 
REMARK    6  A    between atoms: C5_10  and  C6_11 
REMARK    7  A    between atoms: N3_13  and  O3_15 
ROOT
HETATM    1  N1  UNL     1       5.293  64.424 -35.416  1.00  0.00    -0.341 N 
HETATM    2  C4  UNL     1       4.693  64.095 -34.205  1.00  0.00     0.338 C 
HETATM    3  O2  UNL     1       4.119  64.961 -33.548  1.00  0.00    -0.245 OA
HETATM    4  N2  UNL     1       4.788  62.739 -33.866  1.00  0.00    -0.222 N 
HETATM    5  H8  UNL     1       6.170  63.951 -35.583  1.00  0.00     0.164 HD
ENDROOT
BRANCH   1   6
HETATM    6  C3  UNL     1       5.319  65.817 -35.850  1.00  0.00     0.137 C 
BRANCH   6   7
HETATM    7  C2  UNL     1       4.514  66.070 -37.121  1.00  0.00     0.128 C 
BRANCH   7   8
HETATM    8  S1  UNL     1       3.186  67.288 -36.852  1.00  0.00     0.012 S 
HETATM    9  C1  UNL     1       1.973  66.112 -36.208  1.00  0.00     0.127 C 
HETATM   10  O1  UNL     1       3.608  68.185 -35.727  1.00  0.00    -0.258 OA
ENDBRANCH   7   8
ENDBRANCH   6   7
ENDBRANCH   1   6
BRANCH   4  11
HETATM   11  C5  UNL     1       5.324  61.691 -34.735  1.00  0.00     0.171 C 
BRANCH  11  12
HETATM   12  C6  UNL     1       6.803  61.441 -34.464  1.00  0.00     0.136 C 
HETATM   13 CL1  UNL     1       7.191  59.721 -34.696  1.00  0.00    -0.129 Cl
ENDBRANCH  11  12
ENDBRANCH   4  11
BRANCH   4  14
HETATM   14  N3  UNL     1       4.305  62.233 -32.532  1.00  0.00    -0.204 N 
ATOM     15  H3  UNL     1       4.940  61.869 -31.822  1.00  0.00     0.216 HD
BRANCH  14  16
HETATM   16  O3  UNL     1       3.085  62.290 -32.364  1.00  0.00    -0.274 OA
ATOM     17  H3  UNL     1       2.781  61.971 -31.522  1.00  0.00     0.246 HD
ENDBRANCH  14  16
ENDBRANCH   4  14
TORSDOF 7
ENDMDL
