MODEL 1
REMARK minimizedAffinity -9.54316425
REMARK  6 active torsions:
REMARK  status: ('A' for Active; 'I' for Inactive)
REMARK    1  A    between atoms: C2_2  and  C4_4 
REMARK    2  A    between atoms: C4_4  and  O1_5 
REMARK    3  A    between atoms: C4_4  and  C5_6 
REMARK    4  A    between atoms: C5_6  and  C6_7 
REMARK    5  A    between atoms: C6_7  and  C7_8 
REMARK    6  A    between atoms: C7_8  and  C9_10 
ROOT
HETATM    1  C9  UNL     1      -0.704  52.433 -20.704  1.00  0.00    -0.001 C 
HETATM    2  C10 UNL     1       0.060  51.896 -21.946  1.00  0.00     0.007 C 
HETATM    3  C11 UNL     1      -0.767  50.732 -22.528  1.00  0.00     0.024 C 
HETATM    4  C12 UNL     1      -2.041  50.728 -21.716  1.00  0.00     0.092 C 
HETATM    5  C13 UNL     1      -3.115  51.665 -22.334  1.00  0.00     0.272 C 
HETATM    6  O2  UNL     1      -2.940  52.643 -23.041  1.00  0.00    -0.264 OA
HETATM    7  O3  UNL     1      -4.364  51.213 -21.948  1.00  0.00    -0.305 OA
HETATM    8  C14 UNL     1      -4.201  50.029 -21.132  1.00  0.00     0.113 C 
HETATM    9  C15 UNL     1      -4.019  50.525 -19.662  1.00  0.00     0.043 C 
HETATM   10  C16 UNL     1      -2.914  51.608 -19.509  1.00  0.00     0.014 C 
HETATM   11  C17 UNL     1      -1.627  51.242 -20.294  1.00  0.00    -0.020 C 
HETATM   12  C18 UNL     1      -0.850  50.189 -19.474  1.00  0.00     0.017 C 
HETATM   13  C19 UNL     1      -2.882  49.515 -21.632  1.00  0.00     0.137 A 
HETATM   14  O4  UNL     1      -2.374  48.262 -21.219  1.00  0.00    -0.364 OA
HETATM   15  C20 UNL     1      -2.782  48.358 -22.599  1.00  0.00     0.162 A 
HETATM   16  C21 UNL     1      -4.009  47.577 -22.955  1.00  0.00     0.042 C 
HETATM   17  C22 UNL     1      -5.265  48.470 -22.847  1.00  0.00     0.014 C 
HETATM   18  C23 UNL     1      -6.554  47.870 -23.501  1.00  0.00     0.018 C 
HETATM   19  C24 UNL     1      -6.369  47.774 -25.032  1.00  0.00     0.023 C 
HETATM   20  C25 UNL     1      -6.954  46.484 -22.979  1.00  0.00     0.023 C 
HETATM   21  C26 UNL     1      -7.737  48.823 -23.274  1.00  0.00     0.135 C 
HETATM   22  O5  UNL     1      -8.878  48.550 -23.655  1.00  0.00    -0.297 OA
HETATM   23  C27 UNL     1      -7.446  50.129 -22.578  1.00  0.00     0.080 C 
HETATM   24  C28 UNL     1      -6.774  49.822 -21.249  1.00  0.00     0.020 C 
HETATM   25  C29 UNL     1      -5.417  49.054 -21.381  1.00  0.00    -0.004 C 
HETATM   26  C30 UNL     1      -5.419  47.951 -20.289  1.00  0.00     0.019 C 
ENDROOT
BRANCH   1  27
HETATM   27  C7  UNL     1       0.200  53.203 -19.693  1.00  0.00    -0.014 C 
HETATM   28  C8  UNL     1       1.440  53.900 -20.265  1.00  0.00     0.010 C 
BRANCH  27  29
HETATM   29  C6  UNL     1       0.573  52.316 -18.486  1.00  0.00     0.007 C 
BRANCH  29  30
HETATM   30  C5  UNL     1       1.755  52.775 -17.611  1.00  0.00     0.036 C 
BRANCH  30  31
HETATM   31  C4  UNL     1       1.810  52.125 -16.216  1.00  0.00     0.146 C 
BRANCH  31  32
HETATM   32  C2  UNL     1       3.192  51.957 -15.609  1.00  0.00    -0.065 C 
HETATM   33  C1  UNL     1       4.341  52.388 -16.159  1.00  0.00     0.016 C 
HETATM   34  C3  UNL     1       3.211  51.236 -14.283  1.00  0.00     0.045 C 
ENDBRANCH  31  32
BRANCH  31  35
HETATM   35  O1  UNL     1       1.057  52.907 -15.294  1.00  0.00    -0.391 OA
HETATM   36  H7  UNL     1       1.556  53.732 -15.157  1.00  0.00     0.210 HD
ENDBRANCH  31  35
ENDBRANCH  30  31
ENDBRANCH  29  30
ENDBRANCH  27  29
ENDBRANCH   1  27
TORSDOF 6
ENDMDL
MODEL 2
REMARK minimizedAffinity -9.25733471
REMARK  6 active torsions:
REMARK  status: ('A' for Active; 'I' for Inactive)
REMARK    1  A    between atoms: C2_2  and  C4_4 
REMARK    2  A    between atoms: C4_4  and  O1_5 
REMARK    3  A    between atoms: C4_4  and  C5_6 
REMARK    4  A    between atoms: C5_6  and  C6_7 
REMARK    5  A    between atoms: C6_7  and  C7_8 
REMARK    6  A    between atoms: C7_8  and  C9_10 
ROOT
HETATM    1  C9  UNL     1      -0.819  50.819 -21.352  1.00  0.00    -0.001 C 
HETATM    2  C10 UNL     1      -0.289  49.393 -21.034  1.00  0.00     0.007 C 
HETATM    3  C11 UNL     1      -1.515  48.489 -20.797  1.00  0.00     0.024 C 
HETATM    4  C12 UNL     1      -2.702  49.361 -21.132  1.00  0.00     0.092 C 
HETATM    5  C13 UNL     1      -3.062  49.281 -22.641  1.00  0.00     0.272 C 
HETATM    6  O2  UNL     1      -2.327  49.004 -23.573  1.00  0.00    -0.264 OA
HETATM    7  O3  UNL     1      -4.403  49.585 -22.787  1.00  0.00    -0.305 OA
HETATM    8  C14 UNL     1      -4.969  49.844 -21.480  1.00  0.00     0.113 C 
HETATM    9  C15 UNL     1      -4.742  51.363 -21.191  1.00  0.00     0.043 C 
HETATM   10  C16 UNL     1      -3.268  51.814 -21.391  1.00  0.00     0.014 C 
HETATM   11  C17 UNL     1      -2.262  50.818 -20.757  1.00  0.00    -0.020 C 
HETATM   12  C18 UNL     1      -2.239  51.069 -19.233  1.00  0.00     0.017 C 
HETATM   13  C19 UNL     1      -4.047  49.046 -20.605  1.00  0.00     0.137 A 
HETATM   14  O4  UNL     1      -4.304  48.875 -19.225  1.00  0.00    -0.364 OA
HETATM   15  C20 UNL     1      -4.432  47.695 -20.046  1.00  0.00     0.162 A 
HETATM   16  C21 UNL     1      -5.831  47.191 -20.219  1.00  0.00     0.042 C 
HETATM   17  C22 UNL     1      -6.458  47.774 -21.506  1.00  0.00     0.014 C 
HETATM   18  C23 UNL     1      -7.781  47.075 -21.965  1.00  0.00     0.018 C 
HETATM   19  C24 UNL     1      -7.484  45.621 -22.394  1.00  0.00     0.023 C 
HETATM   20  C25 UNL     1      -8.893  47.046 -20.908  1.00  0.00     0.023 C 
HETATM   21  C26 UNL     1      -8.330  47.784 -23.213  1.00  0.00     0.135 C 
HETATM   22  O5  UNL     1      -9.394  47.448 -23.738  1.00  0.00    -0.297 OA
HETATM   23  C27 UNL     1      -7.502  48.905 -23.789  1.00  0.00     0.080 C 
HETATM   24  C28 UNL     1      -7.251  49.926 -22.690  1.00  0.00     0.020 C 
HETATM   25  C29 UNL     1      -6.471  49.359 -21.458  1.00  0.00    -0.004 C 
HETATM   26  C30 UNL     1      -7.169  49.919 -20.190  1.00  0.00     0.019 C 
ENDROOT
BRANCH   1  27
HETATM   27  C7  UNL     1       0.219  51.951 -21.081  1.00  0.00    -0.014 C 
HETATM   28  C8  UNL     1      -0.008  52.815 -19.834  1.00  0.00     0.010 C 
BRANCH  27  29
HETATM   29  C6  UNL     1       0.426  52.832 -22.332  1.00  0.00     0.007 C 
BRANCH  29  30
HETATM   30  C5  UNL     1       0.015  52.235 -23.691  1.00  0.00     0.036 C 
BRANCH  30  31
HETATM   31  C4  UNL     1       0.953  52.596 -24.858  1.00  0.00     0.146 C 
BRANCH  31  32
HETATM   32  C2  UNL     1       1.075  51.561 -25.964  1.00  0.00    -0.065 C 
HETATM   33  C1  UNL     1       0.074  50.785 -26.417  1.00  0.00     0.016 C 
HETATM   34  C3  UNL     1       2.458  51.437 -26.556  1.00  0.00     0.045 C 
ENDBRANCH  31  32
BRANCH  31  35
HETATM   35  O1  UNL     1       0.505  53.796 -25.479  1.00  0.00    -0.391 OA
HETATM   36  H7  UNL     1      -0.325  53.578 -25.940  1.00  0.00     0.210 HD
ENDBRANCH  31  35
ENDBRANCH  30  31
ENDBRANCH  29  30
ENDBRANCH  27  29
ENDBRANCH   1  27
TORSDOF 6
ENDMDL
MODEL 3
REMARK minimizedAffinity -9.11240292
REMARK  6 active torsions:
REMARK  status: ('A' for Active; 'I' for Inactive)
REMARK    1  A    between atoms: C2_2  and  C4_4 
REMARK    2  A    between atoms: C4_4  and  O1_5 
REMARK    3  A    between atoms: C4_4  and  C5_6 
REMARK    4  A    between atoms: C5_6  and  C6_7 
REMARK    5  A    between atoms: C6_7  and  C7_8 
REMARK    6  A    between atoms: C7_8  and  C9_10 
ROOT
HETATM    1  C9  UNL     1      -2.039  51.069 -22.571  1.00  0.00    -0.001 C 
HETATM    2  C10 UNL     1      -3.059  52.201 -22.876  1.00  0.00     0.007 C 
HETATM    3  C11 UNL     1      -4.459  51.668 -22.512  1.00  0.00     0.024 C 
HETATM    4  C12 UNL     1      -4.201  50.325 -21.871  1.00  0.00     0.092 C 
HETATM    5  C13 UNL     1      -3.966  50.458 -20.341  1.00  0.00     0.272 C 
HETATM    6  O2  UNL     1      -3.552  51.427 -19.728  1.00  0.00    -0.264 OA
HETATM    7  O3  UNL     1      -4.306  49.259 -19.741  1.00  0.00    -0.305 OA
HETATM    8  C14 UNL     1      -4.772  48.342 -20.760  1.00  0.00     0.113 C 
HETATM    9  C15 UNL     1      -3.506  47.609 -21.308  1.00  0.00     0.043 C 
HETATM   10  C16 UNL     1      -2.372  48.580 -21.741  1.00  0.00     0.014 C 
HETATM   11  C17 UNL     1      -2.911  49.774 -22.571  1.00  0.00    -0.020 C 
HETATM   12  C18 UNL     1      -3.171  49.275 -24.010  1.00  0.00     0.017 C 
HETATM   13  C19 UNL     1      -5.264  49.299 -21.805  1.00  0.00     0.137 A 
HETATM   14  O4  UNL     1      -5.959  48.847 -22.950  1.00  0.00    -0.364 OA
HETATM   15  C20 UNL     1      -6.733  49.602 -21.994  1.00  0.00     0.162 A 
HETATM   16  C21 UNL     1      -7.758  48.812 -21.242  1.00  0.00     0.042 C 
HETATM   17  C22 UNL     1      -7.173  48.311 -19.902  1.00  0.00     0.014 C 
HETATM   18  C23 UNL     1      -8.233  47.760 -18.890  1.00  0.00     0.018 C 
HETATM   19  C24 UNL     1      -9.153  48.908 -18.418  1.00  0.00     0.023 C 
HETATM   20  C25 UNL     1      -9.116  46.631 -19.436  1.00  0.00     0.023 C 
HETATM   21  C26 UNL     1      -7.520  47.241 -17.632  1.00  0.00     0.135 C 
HETATM   22  O5  UNL     1      -8.137  46.712 -16.704  1.00  0.00    -0.297 OA
HETATM   23  C27 UNL     1      -6.025  47.422 -17.563  1.00  0.00     0.080 C 
HETATM   24  C28 UNL     1      -5.410  46.783 -18.799  1.00  0.00     0.020 C 
HETATM   25  C29 UNL     1      -5.892  47.411 -20.149  1.00  0.00    -0.004 C 
HETATM   26  C30 UNL     1      -6.160  46.231 -21.121  1.00  0.00     0.019 C 
ENDROOT
BRANCH   1  27
HETATM   27  C7  UNL     1      -0.699  51.199 -23.360  1.00  0.00    -0.014 C 
HETATM   28  C8  UNL     1       0.293  52.260 -22.867  1.00  0.00     0.010 C 
BRANCH  27  29
HETATM   29  C6  UNL     1      -0.953  51.344 -24.876  1.00  0.00     0.007 C 
BRANCH  29  30
HETATM   30  C5  UNL     1      -0.878  52.762 -25.472  1.00  0.00     0.036 C 
BRANCH  30  31
HETATM   31  C4  UNL     1       0.487  53.126 -26.086  1.00  0.00     0.146 C 
BRANCH  31  32
HETATM   32  C2  UNL     1       1.101  52.093 -27.015  1.00  0.00    -0.065 C 
HETATM   33  C1  UNL     1       0.592  51.713 -28.201  1.00  0.00     0.016 C 
HETATM   34  C3  UNL     1       2.382  51.476 -26.508  1.00  0.00     0.045 C 
ENDBRANCH  31  32
BRANCH  31  35
HETATM   35  O1  UNL     1       0.366  54.326 -26.843  1.00  0.00    -0.391 OA
HETATM   36  H7  UNL     1      -0.163  54.106 -27.630  1.00  0.00     0.210 HD
ENDBRANCH  31  35
ENDBRANCH  30  31
ENDBRANCH  29  30
ENDBRANCH  27  29
ENDBRANCH   1  27
TORSDOF 6
ENDMDL
MODEL 4
REMARK minimizedAffinity -9.0881424
REMARK  6 active torsions:
REMARK  status: ('A' for Active; 'I' for Inactive)
REMARK    1  A    between atoms: C2_2  and  C4_4 
REMARK    2  A    between atoms: C4_4  and  O1_5 
REMARK    3  A    between atoms: C4_4  and  C5_6 
REMARK    4  A    between atoms: C5_6  and  C6_7 
REMARK    5  A    between atoms: C6_7  and  C7_8 
REMARK    6  A    between atoms: C7_8  and  C9_10 
ROOT
HETATM    1  C9  UNL     1      -0.458  51.354 -21.085  1.00  0.00    -0.001 C 
HETATM    2  C10 UNL     1      -0.902  52.116 -19.805  1.00  0.00     0.007 C 
HETATM    3  C11 UNL     1      -2.215  51.471 -19.319  1.00  0.00     0.024 C 
HETATM    4  C12 UNL     1      -2.410  50.276 -20.222  1.00  0.00     0.092 C 
HETATM    5  C13 UNL     1      -1.701  49.013 -19.659  1.00  0.00     0.272 C 
HETATM    6  O2  UNL     1      -0.737  48.965 -18.914  1.00  0.00    -0.264 OA
HETATM    7  O3  UNL     1      -2.348  47.894 -20.148  1.00  0.00    -0.305 OA
HETATM    8  C14 UNL     1      -3.452  48.319 -20.983  1.00  0.00     0.113 C 
HETATM    9  C15 UNL     1      -2.873  48.509 -22.421  1.00  0.00     0.043 C 
HETATM   10  C16 UNL     1      -1.608  49.411 -22.462  1.00  0.00     0.014 C 
HETATM   11  C17 UNL     1      -1.774  50.687 -21.594  1.00  0.00    -0.020 C 
HETATM   12  C18 UNL     1      -2.641  51.692 -22.385  1.00  0.00     0.017 C 
HETATM   13  C19 UNL     1      -3.747  49.671 -20.401  1.00  0.00     0.137 A 
HETATM   14  O4  UNL     1      -4.874  50.420 -20.811  1.00  0.00    -0.364 OA
HETATM   15  C20 UNL     1      -4.907  49.910 -19.462  1.00  0.00     0.162 A 
HETATM   16  C21 UNL     1      -5.905  48.820 -19.220  1.00  0.00     0.042 C 
HETATM   17  C22 UNL     1      -5.241  47.435 -19.394  1.00  0.00     0.014 C 
HETATM   18  C23 UNL     1      -6.083  46.232 -18.854  1.00  0.00     0.018 C 
HETATM   19  C24 UNL     1      -6.207  46.327 -17.317  1.00  0.00     0.023 C 
HETATM   20  C25 UNL     1      -7.496  46.120 -19.443  1.00  0.00     0.023 C 
HETATM   21  C26 UNL     1      -5.343  44.916 -19.141  1.00  0.00     0.135 C 
HETATM   22  O5  UNL     1      -5.828  43.819 -18.853  1.00  0.00    -0.297 OA
HETATM   23  C27 UNL     1      -3.980  45.017 -19.777  1.00  0.00     0.080 C 
HETATM   24  C28 UNL     1      -4.111  45.822 -21.061  1.00  0.00     0.020 C 
HETATM   25  C29 UNL     1      -4.634  47.281 -20.851  1.00  0.00    -0.004 C 
HETATM   26  C30 UNL     1      -5.675  47.549 -21.971  1.00  0.00     0.019 C 
ENDROOT
BRANCH   1  27
HETATM   27  C7  UNL     1       0.499  52.173 -22.005  1.00  0.00    -0.014 C 
HETATM   28  C8  UNL     1       1.227  53.361 -21.364  1.00  0.00     0.010 C 
BRANCH  27  29
HETATM   29  C6  UNL     1      -0.206  52.598 -23.311  1.00  0.00     0.007 C 
BRANCH  29  30
HETATM   30  C5  UNL     1       0.173  51.839 -24.597  1.00  0.00     0.036 C 
BRANCH  30  31
HETATM   31  C4  UNL     1       0.539  52.743 -25.789  1.00  0.00     0.146 C 
BRANCH  31  32
HETATM   32  C2  UNL     1       1.155  52.050 -26.992  1.00  0.00    -0.065 C 
HETATM   33  C1  UNL     1       0.542  51.853 -28.173  1.00  0.00     0.016 C 
HETATM   34  C3  UNL     1       2.566  51.560 -26.780  1.00  0.00     0.045 C 
ENDBRANCH  31  32
BRANCH  31  35
HETATM   35  O1  UNL     1      -0.628  53.408 -26.261  1.00  0.00    -0.391 OA
HETATM   36  H7  UNL     1      -1.185  52.728 -26.681  1.00  0.00     0.210 HD
ENDBRANCH  31  35
ENDBRANCH  30  31
ENDBRANCH  29  30
ENDBRANCH  27  29
ENDBRANCH   1  27
TORSDOF 6
ENDMDL
MODEL 5
REMARK minimizedAffinity -8.90340137
REMARK  6 active torsions:
REMARK  status: ('A' for Active; 'I' for Inactive)
REMARK    1  A    between atoms: C2_2  and  C4_4 
REMARK    2  A    between atoms: C4_4  and  O1_5 
REMARK    3  A    between atoms: C4_4  and  C5_6 
REMARK    4  A    between atoms: C5_6  and  C6_7 
REMARK    5  A    between atoms: C6_7  and  C7_8 
REMARK    6  A    between atoms: C7_8  and  C9_10 
ROOT
HETATM    1  C9  UNL     1      -1.397  50.926 -21.752  1.00  0.00    -0.001 C 
HETATM    2  C10 UNL     1      -1.683  50.514 -23.224  1.00  0.00     0.007 C 
HETATM    3  C11 UNL     1      -2.817  49.470 -23.198  1.00  0.00     0.024 C 
HETATM    4  C12 UNL     1      -3.258  49.424 -21.754  1.00  0.00     0.092 C 
HETATM    5  C13 UNL     1      -4.359  50.479 -21.458  1.00  0.00     0.272 C 
HETATM    6  O2  UNL     1      -4.569  51.528 -22.043  1.00  0.00    -0.264 OA
HETATM    7  O3  UNL     1      -5.107  50.040 -20.380  1.00  0.00    -0.305 OA
HETATM    8  C14 UNL     1      -4.595  48.756 -19.948  1.00  0.00     0.113 C 
HETATM    9  C15 UNL     1      -3.453  49.056 -18.925  1.00  0.00     0.043 C 
HETATM   10  C16 UNL     1      -2.394  50.060 -19.461  1.00  0.00     0.014 C 
HETATM   11  C17 UNL     1      -1.969  49.737 -20.918  1.00  0.00    -0.020 C 
HETATM   12  C18 UNL     1      -0.976  48.555 -20.874  1.00  0.00     0.017 C 
HETATM   13  C19 UNL     1      -3.981  48.250 -21.219  1.00  0.00     0.137 A 
HETATM   14  O4  UNL     1      -3.475  46.933 -21.320  1.00  0.00    -0.364 OA
HETATM   15  C20 UNL     1      -4.662  47.218 -22.089  1.00  0.00     0.162 A 
HETATM   16  C21 UNL     1      -5.909  46.544 -21.607  1.00  0.00     0.042 C 
HETATM   17  C22 UNL     1      -6.686  47.475 -20.647  1.00  0.00     0.014 C 
HETATM   18  C23 UNL     1      -8.151  47.020 -20.338  1.00  0.00     0.018 C 
HETATM   19  C24 UNL     1      -9.009  47.108 -21.620  1.00  0.00     0.023 C 
HETATM   20  C25 UNL     1      -8.277  45.600 -19.772  1.00  0.00     0.023 C 
HETATM   21  C26 UNL     1      -8.788  47.991 -19.332  1.00  0.00     0.135 C 
HETATM   22  O5  UNL     1      -9.928  47.820 -18.892  1.00  0.00    -0.297 OA
HETATM   23  C27 UNL     1      -7.968  49.185 -18.913  1.00  0.00     0.080 C 
HETATM   24  C28 UNL     1      -6.639  48.684 -18.368  1.00  0.00     0.020 C 
HETATM   25  C29 UNL     1      -5.788  47.877 -19.404  1.00  0.00    -0.004 C 
HETATM   26  C30 UNL     1      -5.214  46.648 -18.650  1.00  0.00     0.019 C 
ENDROOT
BRANCH   1  27
HETATM   27  C7  UNL     1       0.027  51.522 -21.530  1.00  0.00    -0.014 C 
HETATM   28  C8  UNL     1       0.395  51.917 -20.095  1.00  0.00     0.010 C 
BRANCH  27  29
HETATM   29  C6  UNL     1       0.308  52.680 -22.511  1.00  0.00     0.007 C 
BRANCH  29  30
HETATM   30  C5  UNL     1      -0.179  52.509 -23.963  1.00  0.00     0.036 C 
BRANCH  30  31
HETATM   31  C4  UNL     1       0.912  52.710 -25.031  1.00  0.00     0.146 C 
BRANCH  31  32
HETATM   32  C2  UNL     1       1.093  51.575 -26.025  1.00  0.00    -0.065 C 
HETATM   33  C1  UNL     1       0.117  50.756 -26.455  1.00  0.00     0.016 C 
HETATM   34  C3  UNL     1       2.504  51.403 -26.531  1.00  0.00     0.045 C 
ENDBRANCH  31  32
BRANCH  31  35
HETATM   35  O1  UNL     1       0.623  53.874 -25.798  1.00  0.00    -0.391 OA
HETATM   36  H7  UNL     1      -0.159  53.664 -26.338  1.00  0.00     0.210 HD
ENDBRANCH  31  35
ENDBRANCH  30  31
ENDBRANCH  29  30
ENDBRANCH  27  29
ENDBRANCH   1  27
TORSDOF 6
ENDMDL
MODEL 6
REMARK minimizedAffinity -8.88791752
REMARK  6 active torsions:
REMARK  status: ('A' for Active; 'I' for Inactive)
REMARK    1  A    between atoms: C2_2  and  C4_4 
REMARK    2  A    between atoms: C4_4  and  O1_5 
REMARK    3  A    between atoms: C4_4  and  C5_6 
REMARK    4  A    between atoms: C5_6  and  C6_7 
REMARK    5  A    between atoms: C6_7  and  C7_8 
REMARK    6  A    between atoms: C7_8  and  C9_10 
ROOT
HETATM    1  C9  UNL     1      -3.400  48.222 -19.694  1.00  0.00    -0.001 C 
HETATM    2  C10 UNL     1      -2.899  46.919 -20.378  1.00  0.00     0.007 C 
HETATM    3  C11 UNL     1      -2.580  47.263 -21.846  1.00  0.00     0.024 C 
HETATM    4  C12 UNL     1      -2.751  48.762 -21.931  1.00  0.00     0.092 C 
HETATM    5  C13 UNL     1      -1.435  49.508 -21.577  1.00  0.00     0.272 C 
HETATM    6  O2  UNL     1      -0.518  49.117 -20.875  1.00  0.00    -0.264 OA
HETATM    7  O3  UNL     1      -1.451  50.743 -22.200  1.00  0.00    -0.305 OA
HETATM    8  C14 UNL     1      -2.677  50.866 -22.961  1.00  0.00     0.113 C 
HETATM    9  C15 UNL     1      -3.751  51.440 -21.982  1.00  0.00     0.043 C 
HETATM   10  C16 UNL     1      -3.860  50.643 -20.652  1.00  0.00     0.014 C 
HETATM   11  C17 UNL     1      -3.869  49.110 -20.889  1.00  0.00    -0.020 C 
HETATM   12  C18 UNL     1      -5.283  48.709 -21.363  1.00  0.00     0.017 C 
HETATM   13  C19 UNL     1      -2.993  49.424 -23.230  1.00  0.00     0.137 A 
HETATM   14  O4  UNL     1      -4.051  49.050 -24.091  1.00  0.00    -0.364 OA
HETATM   15  C20 UNL     1      -2.717  48.774 -24.567  1.00  0.00     0.162 A 
HETATM   16  C21 UNL     1      -2.269  49.612 -25.724  1.00  0.00     0.042 C 
HETATM   17  C22 UNL     1      -1.496  50.852 -25.221  1.00  0.00     0.014 C 
HETATM   18  C23 UNL     1      -0.703  51.623 -26.329  1.00  0.00     0.018 C 
HETATM   19  C24 UNL     1       0.444  50.737 -26.865  1.00  0.00     0.023 C 
HETATM   20  C25 UNL     1      -1.550  52.085 -27.522  1.00  0.00     0.023 C 
HETATM   21  C26 UNL     1      -0.032  52.861 -25.713  1.00  0.00     0.135 C 
HETATM   22  O5  UNL     1       0.613  53.660 -26.396  1.00  0.00    -0.297 OA
HETATM   23  C27 UNL     1      -0.177  53.055 -24.225  1.00  0.00     0.080 C 
HETATM   24  C28 UNL     1      -1.660  53.054 -23.887  1.00  0.00     0.020 C 
HETATM   25  C29 UNL     1      -2.400  51.726 -24.256  1.00  0.00    -0.004 C 
HETATM   26  C30 UNL     1      -3.754  52.131 -24.898  1.00  0.00     0.019 C 
ENDROOT
BRANCH   1  27
HETATM   27  C7  UNL     1      -4.265  47.973 -18.420  1.00  0.00    -0.014 C 
HETATM   28  C8  UNL     1      -5.748  48.356 -18.505  1.00  0.00     0.010 C 
BRANCH  27  29
HETATM   29  C6  UNL     1      -3.607  48.588 -17.167  1.00  0.00     0.007 C 
BRANCH  29  30
HETATM   30  C5  UNL     1      -2.126  48.997 -17.276  1.00  0.00     0.036 C 
BRANCH  30  31
HETATM   31  C4  UNL     1      -1.843  50.472 -16.935  1.00  0.00     0.146 C 
BRANCH  31  32
HETATM   32  C2  UNL     1      -0.622  51.090 -17.593  1.00  0.00    -0.065 C 
HETATM   33  C1  UNL     1       0.649  50.925 -17.185  1.00  0.00     0.016 C 
HETATM   34  C3  UNL     1      -0.925  51.952 -18.794  1.00  0.00     0.045 C 
ENDBRANCH  31  32
BRANCH  31  35
HETATM   35  O1  UNL     1      -2.956  51.274 -17.318  1.00  0.00    -0.391 OA
HETATM   36  H7  UNL     1      -2.967  51.286 -18.292  1.00  0.00     0.210 HD
ENDBRANCH  31  35
ENDBRANCH  30  31
ENDBRANCH  29  30
ENDBRANCH  27  29
ENDBRANCH   1  27
TORSDOF 6
ENDMDL
MODEL 7
REMARK minimizedAffinity -8.74637318
REMARK  6 active torsions:
REMARK  status: ('A' for Active; 'I' for Inactive)
REMARK    1  A    between atoms: C2_2  and  C4_4 
REMARK    2  A    between atoms: C4_4  and  O1_5 
REMARK    3  A    between atoms: C4_4  and  C5_6 
REMARK    4  A    between atoms: C5_6  and  C6_7 
REMARK    5  A    between atoms: C6_7  and  C7_8 
REMARK    6  A    between atoms: C7_8  and  C9_10 
ROOT
HETATM    1  C9  UNL     1      -3.362  51.216 -24.104  1.00  0.00    -0.001 C 
HETATM    2  C10 UNL     1      -4.865  51.594 -24.209  1.00  0.00     0.007 C 
HETATM    3  C11 UNL     1      -5.654  50.594 -23.340  1.00  0.00     0.024 C 
HETATM    4  C12 UNL     1      -4.592  49.778 -22.642  1.00  0.00     0.092 C 
HETATM    5  C13 UNL     1      -4.151  50.436 -21.306  1.00  0.00     0.272 C 
HETATM    6  O2  UNL     1      -4.201  51.614 -20.998  1.00  0.00    -0.264 OA
HETATM    7  O3  UNL     1      -3.666  49.446 -20.470  1.00  0.00    -0.305 OA
HETATM    8  C14 UNL     1      -3.771  48.170 -21.147  1.00  0.00     0.113 C 
HETATM    9  C15 UNL     1      -2.457  47.998 -21.973  1.00  0.00     0.043 C 
HETATM   10  C16 UNL     1      -2.135  49.219 -22.880  1.00  0.00     0.014 C 
HETATM   11  C17 UNL     1      -3.387  49.725 -23.643  1.00  0.00    -0.020 C 
HETATM   12  C18 UNL     1      -3.634  48.775 -24.837  1.00  0.00     0.017 C 
HETATM   13  C19 UNL     1      -4.903  48.440 -22.094  1.00  0.00     0.137 A 
HETATM   14  O4  UNL     1      -5.471  47.409 -22.878  1.00  0.00    -0.364 OA
HETATM   15  C20 UNL     1      -6.308  47.947 -21.834  1.00  0.00     0.162 A 
HETATM   16  C21 UNL     1      -6.571  47.020 -20.688  1.00  0.00     0.042 C 
HETATM   17  C22 UNL     1      -5.545  47.259 -19.557  1.00  0.00     0.014 C 
HETATM   18  C23 UNL     1      -5.909  46.589 -18.190  1.00  0.00     0.018 C 
HETATM   19  C24 UNL     1      -7.177  47.249 -17.605  1.00  0.00     0.023 C 
HETATM   20  C25 UNL     1      -6.145  45.075 -18.259  1.00  0.00     0.023 C 
HETATM   21  C26 UNL     1      -4.786  46.850 -17.175  1.00  0.00     0.135 C 
HETATM   22  O5  UNL     1      -4.816  46.383 -16.034  1.00  0.00    -0.297 OA
HETATM   23  C27 UNL     1      -3.642  47.724 -17.623  1.00  0.00     0.080 C 
HETATM   24  C28 UNL     1      -3.055  47.128 -18.893  1.00  0.00     0.020 C 
HETATM   25  C29 UNL     1      -4.066  47.040 -20.084  1.00  0.00    -0.004 C 
HETATM   26  C30 UNL     1      -3.859  45.651 -20.745  1.00  0.00     0.019 C 
ENDROOT
BRANCH   1  27
HETATM   27  C7  UNL     1      -2.497  51.731 -25.296  1.00  0.00    -0.014 C 
HETATM   28  C8  UNL     1      -3.046  51.483 -26.706  1.00  0.00     0.010 C 
BRANCH  27  29
HETATM   29  C6  UNL     1      -1.037  51.245 -25.179  1.00  0.00     0.007 C 
BRANCH  29  30
HETATM   30  C5  UNL     1      -0.010  52.230 -24.590  1.00  0.00     0.036 C 
BRANCH  30  31
HETATM   31  C4  UNL     1       0.851  52.960 -25.639  1.00  0.00     0.146 C 
BRANCH  31  32
HETATM   32  C2  UNL     1       1.283  52.137 -26.841  1.00  0.00    -0.065 C 
HETATM   33  C1  UNL     1       0.649  52.101 -28.027  1.00  0.00     0.016 C 
HETATM   34  C3  UNL     1       2.527  51.312 -26.622  1.00  0.00     0.045 C 
ENDBRANCH  31  32
BRANCH  31  35
HETATM   35  O1  UNL     1       0.134  54.078 -26.153  1.00  0.00    -0.391 OA
HETATM   36  H7  UNL     1      -0.591  53.718 -26.695  1.00  0.00     0.210 HD
ENDBRANCH  31  35
ENDBRANCH  30  31
ENDBRANCH  29  30
ENDBRANCH  27  29
ENDBRANCH   1  27
TORSDOF 6
ENDMDL
MODEL 8
REMARK minimizedAffinity -8.6883173
REMARK  6 active torsions:
REMARK  status: ('A' for Active; 'I' for Inactive)
REMARK    1  A    between atoms: C2_2  and  C4_4 
REMARK    2  A    between atoms: C4_4  and  O1_5 
REMARK    3  A    between atoms: C4_4  and  C5_6 
REMARK    4  A    between atoms: C5_6  and  C6_7 
REMARK    5  A    between atoms: C6_7  and  C7_8 
REMARK    6  A    between atoms: C7_8  and  C9_10 
ROOT
HETATM    1  C9  UNL     1      -1.364  50.289 -22.498  1.00  0.00    -0.001 C 
HETATM    2  C10 UNL     1      -1.100  50.332 -20.967  1.00  0.00     0.007 C 
HETATM    3  C11 UNL     1      -2.408  49.924 -20.262  1.00  0.00     0.024 C 
HETATM    4  C12 UNL     1      -3.331  49.509 -21.384  1.00  0.00     0.092 C 
HETATM    5  C13 UNL     1      -3.168  48.004 -21.733  1.00  0.00     0.272 C 
HETATM    6  O2  UNL     1      -2.190  47.297 -21.563  1.00  0.00    -0.264 OA
HETATM    7  O3  UNL     1      -4.350  47.555 -22.294  1.00  0.00    -0.305 OA
HETATM    8  C14 UNL     1      -5.297  48.649 -22.327  1.00  0.00     0.113 C 
HETATM    9  C15 UNL     1      -5.048  49.411 -23.669  1.00  0.00     0.043 C 
HETATM   10  C16 UNL     1      -3.559  49.800 -23.889  1.00  0.00     0.014 C 
HETATM   11  C17 UNL     1      -2.917  50.397 -22.609  1.00  0.00    -0.020 C 
HETATM   12  C18 UNL     1      -3.386  51.863 -22.479  1.00  0.00     0.017 C 
HETATM   13  C19 UNL     1      -4.798  49.496 -21.194  1.00  0.00     0.137 A 
HETATM   14  O4  UNL     1      -5.518  50.627 -20.745  1.00  0.00    -0.364 OA
HETATM   15  C20 UNL     1      -5.466  49.505 -19.838  1.00  0.00     0.162 A 
HETATM   16  C21 UNL     1      -6.764  48.785 -19.644  1.00  0.00     0.042 C 
HETATM   17  C22 UNL     1      -6.867  47.591 -20.620  1.00  0.00     0.014 C 
HETATM   18  C23 UNL     1      -8.015  46.577 -20.295  1.00  0.00     0.018 C 
HETATM   19  C24 UNL     1      -7.720  45.862 -18.957  1.00  0.00     0.023 C 
HETATM   20  C25 UNL     1      -9.415  47.198 -20.209  1.00  0.00     0.023 C 
HETATM   21  C26 UNL     1      -8.047  45.477 -21.367  1.00  0.00     0.135 C 
HETATM   22  O5  UNL     1      -8.897  44.584 -21.360  1.00  0.00    -0.297 OA
HETATM   23  C27 UNL     1      -6.978  45.519 -22.430  1.00  0.00     0.080 C 
HETATM   24  C28 UNL     1      -7.022  46.886 -23.097  1.00  0.00     0.020 C 
HETATM   25  C29 UNL     1      -6.756  48.081 -22.123  1.00  0.00    -0.004 C 
HETATM   26  C30 UNL     1      -7.788  49.185 -22.477  1.00  0.00     0.019 C 
ENDROOT
BRANCH   1  27
HETATM   27  C7  UNL     1      -0.382  51.168 -23.332  1.00  0.00    -0.014 C 
HETATM   28  C8  UNL     1      -0.017  52.540 -22.750  1.00  0.00     0.010 C 
BRANCH  27  29
HETATM   29  C6  UNL     1      -0.852  51.298 -24.797  1.00  0.00     0.007 C 
BRANCH  29  30
HETATM   30  C5  UNL     1      -0.842  52.707 -25.419  1.00  0.00     0.036 C 
BRANCH  30  31
HETATM   31  C4  UNL     1       0.497  53.112 -26.063  1.00  0.00     0.146 C 
BRANCH  31  32
HETATM   32  C2  UNL     1       1.114  52.104 -27.018  1.00  0.00    -0.065 C 
HETATM   33  C1  UNL     1       0.595  51.737 -28.203  1.00  0.00     0.016 C 
HETATM   34  C3  UNL     1       2.409  51.496 -26.538  1.00  0.00     0.045 C 
ENDBRANCH  31  32
BRANCH  31  35
HETATM   35  O1  UNL     1       0.327  54.316 -26.805  1.00  0.00    -0.391 OA
HETATM   36  H7  UNL     1      -0.216  54.089 -27.581  1.00  0.00     0.210 HD
ENDBRANCH  31  35
ENDBRANCH  30  31
ENDBRANCH  29  30
ENDBRANCH  27  29
ENDBRANCH   1  27
TORSDOF 6
ENDMDL
MODEL 9
REMARK minimizedAffinity -8.67722416
REMARK  6 active torsions:
REMARK  status: ('A' for Active; 'I' for Inactive)
REMARK    1  A    between atoms: C2_2  and  C4_4 
REMARK    2  A    between atoms: C4_4  and  O1_5 
REMARK    3  A    between atoms: C4_4  and  C5_6 
REMARK    4  A    between atoms: C5_6  and  C6_7 
REMARK    5  A    between atoms: C6_7  and  C7_8 
REMARK    6  A    between atoms: C7_8  and  C9_10 
ROOT
HETATM    1  C9  UNL     1      -2.711  51.159 -24.294  1.00  0.00    -0.001 C 
HETATM    2  C10 UNL     1      -3.846  52.204 -24.484  1.00  0.00     0.007 C 
HETATM    3  C11 UNL     1      -5.104  51.649 -23.788  1.00  0.00     0.024 C 
HETATM    4  C12 UNL     1      -4.631  50.395 -23.091  1.00  0.00     0.092 C 
HETATM    5  C13 UNL     1      -4.100  50.699 -21.664  1.00  0.00     0.272 C 
HETATM    6  O2  UNL     1      -3.637  51.746 -21.244  1.00  0.00    -0.264 OA
HETATM    7  O3  UNL     1      -4.231  49.557 -20.896  1.00  0.00    -0.305 OA
HETATM    8  C14 UNL     1      -4.830  48.516 -21.704  1.00  0.00     0.113 C 
HETATM    9  C15 UNL     1      -3.655  47.789 -22.433  1.00  0.00     0.043 C 
HETATM   10  C16 UNL     1      -2.700  48.760 -23.182  1.00  0.00     0.014 C 
HETATM   11  C17 UNL     1      -3.476  49.833 -23.990  1.00  0.00    -0.020 C 
HETATM   12  C18 UNL     1      -3.988  49.173 -25.290  1.00  0.00     0.017 C 
HETATM   13  C19 UNL     1      -5.587  49.333 -22.709  1.00  0.00     0.137 A 
HETATM   14  O4  UNL     1      -6.468  48.731 -23.637  1.00  0.00    -0.364 OA
HETATM   15  C20 UNL     1      -7.081  49.546 -22.616  1.00  0.00     0.162 A 
HETATM   16  C21 UNL     1      -7.877  48.793 -21.596  1.00  0.00     0.042 C 
HETATM   17  C22 UNL     1      -7.001  48.464 -20.366  1.00  0.00     0.014 C 
HETATM   18  C23 UNL     1      -7.794  47.975 -19.108  1.00  0.00     0.018 C 
HETATM   19  C24 UNL     1      -8.674  49.123 -18.565  1.00  0.00     0.023 C 
HETATM   20  C25 UNL     1      -8.691  46.754 -19.349  1.00  0.00     0.023 C 
HETATM   21  C26 UNL     1      -6.808  47.626 -17.983  1.00  0.00     0.135 C 
HETATM   22  O5  UNL     1      -7.187  47.170 -16.902  1.00  0.00    -0.297 OA
HETATM   23  C27 UNL     1      -5.345  47.882 -18.245  1.00  0.00     0.080 C 
HETATM   24  C28 UNL     1      -4.952  47.146 -19.516  1.00  0.00     0.020 C 
HETATM   25  C29 UNL     1      -5.738  47.604 -20.789  1.00  0.00    -0.004 C 
HETATM   26  C30 UNL     1      -6.117  46.316 -21.568  1.00  0.00     0.019 C 
ENDROOT
BRANCH   1  27
HETATM   27  C7  UNL     1      -1.571  51.268 -25.353  1.00  0.00    -0.014 C 
HETATM   28  C8  UNL     1      -1.390  50.076 -26.300  1.00  0.00     0.010 C 
BRANCH  27  29
HETATM   29  C6  UNL     1      -0.230  51.657 -24.694  1.00  0.00     0.007 C 
BRANCH  29  30
HETATM   30  C5  UNL     1      -0.285  52.633 -23.504  1.00  0.00     0.036 C 
BRANCH  30  31
HETATM   31  C4  UNL     1       0.314  52.083 -22.196  1.00  0.00     0.146 C 
BRANCH  31  32
HETATM   32  C2  UNL     1       0.646  53.110 -21.127  1.00  0.00    -0.065 C 
HETATM   33  C1  UNL     1       0.183  53.095 -19.864  1.00  0.00     0.016 C 
HETATM   34  C3  UNL     1       1.570  54.213 -21.581  1.00  0.00     0.045 C 
ENDBRANCH  31  32
BRANCH  31  35
HETATM   35  O1  UNL     1      -0.596  51.163 -21.602  1.00  0.00    -0.391 OA
HETATM   36  H7  UNL     1      -1.350  51.688 -21.279  1.00  0.00     0.210 HD
ENDBRANCH  31  35
ENDBRANCH  30  31
ENDBRANCH  29  30
ENDBRANCH  27  29
ENDBRANCH   1  27
TORSDOF 6
ENDMDL
