MODEL 1
REMARK minimizedAffinity -10.4140768
REMARK  4 active torsions:
REMARK  status: ('A' for Active; 'I' for Inactive)
REMARK    1  A    between atoms: C4_4  and  O1_5 
REMARK    2  A    between atoms: C4_4  and  C5_6 
REMARK    3  A    between atoms: C5_6  and  C6_7 
REMARK    4  A    between atoms: C6_7  and  C8_9 
ROOT
HETATM    1  C8  UNL     1      -0.393  51.284 -21.459  1.00  0.00    -0.001 C 
HETATM    2  C9  UNL     1      -0.559  51.779 -19.998  1.00  0.00     0.007 C 
HETATM    3  C10 UNL     1      -1.750  50.986 -19.403  1.00  0.00     0.015 C 
HETATM    4  C11 UNL     1      -2.070  49.887 -20.447  1.00  0.00    -0.013 C 
HETATM    5  C12 UNL     1      -1.097  48.697 -20.155  1.00  0.00     0.021 C 
HETATM    6  C13 UNL     1      -3.469  49.267 -20.465  1.00  0.00    -0.070 C 
HETATM    7  C14 UNL     1      -4.138  49.012 -19.329  1.00  0.00    -0.022 C 
HETATM    8  C15 UNL     1      -5.447  48.301 -19.264  1.00  0.00     0.034 C 
HETATM    9  C16 UNL     1      -6.184  48.127 -20.617  1.00  0.00     0.013 C 
HETATM   10  C17 UNL     1      -7.403  47.139 -20.503  1.00  0.00     0.018 C 
HETATM   11  C18 UNL     1      -8.607  47.713 -21.292  1.00  0.00     0.023 C 
HETATM   12  C19 UNL     1      -7.914  46.904 -19.061  1.00  0.00     0.023 C 
HETATM   13  C20 UNL     1      -7.048  45.759 -21.074  1.00  0.00     0.135 C 
HETATM   14  O2  UNL     1      -7.924  44.981 -21.469  1.00  0.00    -0.297 OA
HETATM   15  C21 UNL     1      -5.603  45.307 -21.055  1.00  0.00     0.080 C 
HETATM   16  C22 UNL     1      -4.582  46.361 -21.488  1.00  0.00     0.017 C 
HETATM   17  C23 UNL     1      -5.167  47.765 -21.770  1.00  0.00    -0.031 C 
HETATM   18  C24 UNL     1      -5.868  47.741 -23.158  1.00  0.00     0.016 C 
HETATM   19  C25 UNL     1      -4.044  48.885 -21.833  1.00  0.00     0.024 C 
HETATM   20  C26 UNL     1      -2.924  48.624 -22.878  1.00  0.00     0.010 C 
HETATM   21  C27 UNL     1      -1.826  49.712 -22.973  1.00  0.00     0.011 C 
HETATM   22  C28 UNL     1      -1.795  50.681 -21.779  1.00  0.00    -0.029 C 
HETATM   23  C29 UNL     1      -2.848  51.820 -21.995  1.00  0.00     0.016 C 
ENDROOT
BRANCH   1  24
HETATM   24  C6  UNL     1       0.365  52.234 -22.437  1.00  0.00    -0.008 C 
HETATM   25  C7  UNL     1       1.027  53.355 -21.614  1.00  0.00     0.010 C 
BRANCH  24  26
HETATM   26  C5  UNL     1      -0.455  52.800 -23.618  1.00  0.00     0.078 C 
BRANCH  26  27
HETATM   27  C4  UNL     1       0.335  53.440 -24.782  1.00  0.00     0.191 A 
HETATM   28  C3  UNL     1       1.000  52.408 -25.613  1.00  0.00     0.054 A 
HETATM   29  C2  UNL     1       0.565  52.451 -26.871  1.00  0.00     0.015 A 
HETATM   30  C1  UNL     1       0.922  51.623 -28.041  1.00  0.00     0.054 C 
HETATM   31  C30 UNL     1      -0.409  53.545 -26.927  1.00  0.00     0.291 A 
HETATM   32  O3  UNL     1      -0.528  54.104 -25.694  1.00  0.00    -0.276 OA
HETATM   33  O4  UNL     1      -1.027  53.891 -27.919  1.00  0.00    -0.260 OA
BRANCH  27  34
HETATM   34  O1  UNL     1       1.347  54.310 -24.321  1.00  0.00    -0.362 OA
HETATM   35  H5  UNL     1       0.889  55.053 -23.895  1.00  0.00     0.213 HD
ENDBRANCH  27  34
ENDBRANCH  26  27
ENDBRANCH  24  26
ENDBRANCH   1  24
TORSDOF 4
ENDMDL
MODEL 2
REMARK minimizedAffinity -10.0743198
REMARK  4 active torsions:
REMARK  status: ('A' for Active; 'I' for Inactive)
REMARK    1  A    between atoms: C4_4  and  O1_5 
REMARK    2  A    between atoms: C4_4  and  C5_6 
REMARK    3  A    between atoms: C5_6  and  C6_7 
REMARK    4  A    between atoms: C6_7  and  C8_9 
ROOT
HETATM    1  C8  UNL     1       0.175  51.863 -23.041  1.00  0.00    -0.001 C 
HETATM    2  C9  UNL     1       0.280  52.648 -21.707  1.00  0.00     0.007 C 
HETATM    3  C10 UNL     1      -0.795  52.051 -20.764  1.00  0.00     0.015 C 
HETATM    4  C11 UNL     1      -1.313  50.783 -21.489  1.00  0.00    -0.013 C 
HETATM    5  C12 UNL     1      -0.319  49.628 -21.130  1.00  0.00     0.021 C 
HETATM    6  C13 UNL     1      -2.700  50.243 -21.135  1.00  0.00    -0.070 C 
HETATM    7  C14 UNL     1      -3.157  50.254 -19.873  1.00  0.00    -0.022 C 
HETATM    8  C15 UNL     1      -4.443  49.637 -19.437  1.00  0.00     0.034 C 
HETATM    9  C16 UNL     1      -5.413  49.233 -20.578  1.00  0.00     0.013 C 
HETATM   10  C17 UNL     1      -6.606  48.350 -20.054  1.00  0.00     0.018 C 
HETATM   11  C18 UNL     1      -7.924  48.814 -20.723  1.00  0.00     0.023 C 
HETATM   12  C19 UNL     1      -6.852  48.434 -18.528  1.00  0.00     0.023 C 
HETATM   13  C20 UNL     1      -6.378  46.867 -20.381  1.00  0.00     0.135 C 
HETATM   14  O2  UNL     1      -7.321  46.072 -20.450  1.00  0.00    -0.297 OA
HETATM   15  C21 UNL     1      -4.959  46.357 -20.520  1.00  0.00     0.080 C 
HETATM   16  C22 UNL     1      -4.019  47.251 -21.331  1.00  0.00     0.017 C 
HETATM   17  C23 UNL     1      -4.625  48.597 -21.790  1.00  0.00    -0.031 C 
HETATM   18  C24 UNL     1      -5.565  48.331 -23.000  1.00  0.00     0.016 C 
HETATM   19  C25 UNL     1      -3.517  49.624 -22.275  1.00  0.00     0.024 C 
HETATM   20  C26 UNL     1      -2.606  49.104 -23.422  1.00  0.00     0.010 C 
HETATM   21  C27 UNL     1      -1.528  50.094 -23.927  1.00  0.00     0.011 C 
HETATM   22  C28 UNL     1      -1.270  51.280 -22.982  1.00  0.00    -0.029 C 
HETATM   23  C29 UNL     1      -2.329  52.404 -23.242  1.00  0.00     0.016 C 
ENDROOT
BRANCH   1  24
HETATM   24  C6  UNL     1       0.757  52.559 -24.310  1.00  0.00    -0.008 C 
HETATM   25  C7  UNL     1       0.090  53.940 -24.457  1.00  0.00     0.010 C 
BRANCH  24  26
HETATM   26  C5  UNL     1       0.697  51.752 -25.625  1.00  0.00     0.078 C 
BRANCH  26  27
HETATM   27  C4  UNL     1      -0.234  52.285 -26.737  1.00  0.00     0.191 A 
HETATM   28  C3  UNL     1      -0.860  51.174 -27.494  1.00  0.00     0.054 A 
HETATM   29  C2  UNL     1      -2.187  51.215 -27.398  1.00  0.00     0.015 A 
HETATM   30  C1  UNL     1      -3.221  50.323 -27.962  1.00  0.00     0.054 C 
HETATM   31  C30 UNL     1      -2.498  52.385 -26.572  1.00  0.00     0.291 A 
HETATM   32  O3  UNL     1      -1.341  52.991 -26.197  1.00  0.00    -0.276 OA
HETATM   33  O4  UNL     1      -3.618  52.751 -26.257  1.00  0.00    -0.260 OA
BRANCH  27  34
HETATM   34  O1  UNL     1       0.461  53.081 -27.675  1.00  0.00    -0.362 OA
HETATM   35  H5  UNL     1       0.750  53.873 -27.193  1.00  0.00     0.213 HD
ENDBRANCH  27  34
ENDBRANCH  26  27
ENDBRANCH  24  26
ENDBRANCH   1  24
TORSDOF 4
ENDMDL
MODEL 3
REMARK minimizedAffinity -9.86343956
REMARK  4 active torsions:
REMARK  status: ('A' for Active; 'I' for Inactive)
REMARK    1  A    between atoms: C4_4  and  O1_5 
REMARK    2  A    between atoms: C4_4  and  C5_6 
REMARK    3  A    between atoms: C5_6  and  C6_7 
REMARK    4  A    between atoms: C6_7  and  C8_9 
ROOT
HETATM    1  C8  UNL     1      -1.772  51.501 -21.174  1.00  0.00    -0.001 C 
HETATM    2  C9  UNL     1      -2.177  50.004 -21.147  1.00  0.00     0.007 C 
HETATM    3  C10 UNL     1      -1.685  49.444 -19.788  1.00  0.00     0.015 C 
HETATM    4  C11 UNL     1      -1.238  50.685 -18.975  1.00  0.00    -0.013 C 
HETATM    5  C12 UNL     1      -2.527  51.263 -18.300  1.00  0.00     0.021 C 
HETATM    6  C13 UNL     1      -0.236  50.501 -17.834  1.00  0.00    -0.070 C 
HETATM    7  C14 UNL     1      -0.281  49.430 -17.026  1.00  0.00    -0.022 C 
HETATM    8  C15 UNL     1       0.582  49.244 -15.824  1.00  0.00     0.034 C 
HETATM    9  C16 UNL     1       1.784  50.217 -15.705  1.00  0.00     0.013 C 
HETATM   10  C17 UNL     1       2.471  50.137 -14.291  1.00  0.00     0.018 C 
HETATM   11  C18 UNL     1       4.011  50.163 -14.465  1.00  0.00     0.023 C 
HETATM   12  C19 UNL     1       2.155  48.851 -13.490  1.00  0.00     0.023 C 
HETATM   13  C20 UNL     1       2.051  51.320 -13.408  1.00  0.00     0.135 C 
HETATM   14  O2  UNL     1       2.748  51.694 -12.458  1.00  0.00    -0.297 OA
HETATM   15  C21 UNL     1       0.705  51.971 -13.646  1.00  0.00     0.080 C 
HETATM   16  C22 UNL     1       0.353  52.228 -15.113  1.00  0.00     0.017 C 
HETATM   17  C23 UNL     1       1.371  51.678 -16.139  1.00  0.00    -0.031 C 
HETATM   18  C24 UNL     1       2.602  52.628 -16.173  1.00  0.00     0.016 C 
HETATM   19  C25 UNL     1       0.779  51.627 -17.610  1.00  0.00     0.024 C 
HETATM   20  C26 UNL     1       0.257  52.989 -18.148  1.00  0.00     0.010 C 
HETATM   21  C27 UNL     1      -0.308  52.971 -19.590  1.00  0.00     0.011 C 
HETATM   22  C28 UNL     1      -0.619  51.563 -20.126  1.00  0.00    -0.029 C 
HETATM   23  C29 UNL     1       0.685  50.916 -20.702  1.00  0.00     0.016 C 
ENDROOT
BRANCH   1  24
HETATM   24  C6  UNL     1      -1.678  52.174 -22.579  1.00  0.00    -0.008 C 
HETATM   25  C7  UNL     1      -3.078  52.160 -23.221  1.00  0.00     0.010 C 
BRANCH  24  26
HETATM   26  C5  UNL     1      -0.603  51.615 -23.538  1.00  0.00     0.078 C 
BRANCH  26  27
HETATM   27  C4  UNL     1       0.174  52.637 -24.397  1.00  0.00     0.191 A 
HETATM   28  C3  UNL     1       1.037  51.958 -25.393  1.00  0.00     0.054 A 
HETATM   29  C2  UNL     1       0.696  52.298 -26.635  1.00  0.00     0.015 A 
HETATM   30  C1  UNL     1       1.251  51.872 -27.936  1.00  0.00     0.054 C 
HETATM   31  C30 UNL     1      -0.414  53.246 -26.506  1.00  0.00     0.291 A 
HETATM   32  O3  UNL     1      -0.701  53.426 -25.190  1.00  0.00    -0.276 OA
HETATM   33  O4  UNL     1      -0.999  53.781 -27.433  1.00  0.00    -0.260 OA
BRANCH  27  34
HETATM   34  O1  UNL     1       1.018  53.455 -23.614  1.00  0.00    -0.362 OA
HETATM   35  H5  UNL     1       0.431  53.995 -23.060  1.00  0.00     0.213 HD
ENDBRANCH  27  34
ENDBRANCH  26  27
ENDBRANCH  24  26
ENDBRANCH   1  24
TORSDOF 4
ENDMDL
MODEL 4
REMARK minimizedAffinity -9.82051563
REMARK  4 active torsions:
REMARK  status: ('A' for Active; 'I' for Inactive)
REMARK    1  A    between atoms: C4_4  and  O1_5 
REMARK    2  A    between atoms: C4_4  and  C5_6 
REMARK    3  A    between atoms: C5_6  and  C6_7 
REMARK    4  A    between atoms: C6_7  and  C8_9 
ROOT
HETATM    1  C8  UNL     1      -1.529  51.779 -22.710  1.00  0.00    -0.001 C 
HETATM    2  C9  UNL     1      -2.686  52.525 -23.425  1.00  0.00     0.007 C 
HETATM    3  C10 UNL     1      -3.973  51.711 -23.139  1.00  0.00     0.015 C 
HETATM    4  C11 UNL     1      -3.565  50.669 -22.067  1.00  0.00    -0.013 C 
HETATM    5  C12 UNL     1      -3.679  51.387 -20.681  1.00  0.00     0.021 C 
HETATM    6  C13 UNL     1      -4.392  49.390 -21.926  1.00  0.00    -0.070 C 
HETATM    7  C14 UNL     1      -5.729  49.401 -22.053  1.00  0.00    -0.022 C 
HETATM    8  C15 UNL     1      -6.608  48.221 -21.809  1.00  0.00     0.034 C 
HETATM    9  C16 UNL     1      -5.882  46.856 -21.696  1.00  0.00     0.013 C 
HETATM   10  C17 UNL     1      -6.836  45.720 -21.170  1.00  0.00     0.018 C 
HETATM   11  C18 UNL     1      -6.593  44.424 -21.983  1.00  0.00     0.023 C 
HETATM   12  C19 UNL     1      -8.347  46.030 -21.306  1.00  0.00     0.023 C 
HETATM   13  C20 UNL     1      -6.579  45.430 -19.684  1.00  0.00     0.135 C 
HETATM   14  O2  UNL     1      -6.888  44.345 -19.178  1.00  0.00    -0.297 OA
HETATM   15  C21 UNL     1      -6.033  46.535 -18.805  1.00  0.00     0.080 C 
HETATM   16  C22 UNL     1      -4.889  47.349 -19.412  1.00  0.00     0.017 C 
HETATM   17  C23 UNL     1      -4.539  46.998 -20.877  1.00  0.00    -0.031 C 
HETATM   18  C24 UNL     1      -3.724  45.673 -20.889  1.00  0.00     0.016 C 
HETATM   19  C25 UNL     1      -3.636  48.107 -21.564  1.00  0.00     0.024 C 
HETATM   20  C26 UNL     1      -2.304  48.413 -20.823  1.00  0.00     0.010 C 
HETATM   21  C27 UNL     1      -1.395  49.478 -21.484  1.00  0.00     0.011 C 
HETATM   22  C28 UNL     1      -2.102  50.337 -22.546  1.00  0.00    -0.029 C 
HETATM   23  C29 UNL     1      -2.104  49.585 -23.919  1.00  0.00     0.016 C 
ENDROOT
BRANCH   1  24
HETATM   24  C6  UNL     1      -0.086  52.063 -23.229  1.00  0.00    -0.008 C 
HETATM   25  C7  UNL     1       0.852  52.197 -22.015  1.00  0.00     0.010 C 
BRANCH  24  26
HETATM   26  C5  UNL     1       0.071  53.250 -24.206  1.00  0.00     0.078 C 
BRANCH  26  27
HETATM   27  C4  UNL     1       0.285  52.911 -25.698  1.00  0.00     0.191 A 
HETATM   28  C3  UNL     1      -0.379  51.636 -26.062  1.00  0.00     0.054 A 
HETATM   29  C2  UNL     1      -1.297  51.826 -27.008  1.00  0.00     0.015 A 
HETATM   30  C1  UNL     1      -2.210  50.871 -27.668  1.00  0.00     0.054 C 
HETATM   31  C30 UNL     1      -1.264  53.256 -27.324  1.00  0.00     0.291 A 
HETATM   32  O3  UNL     1      -0.333  53.868 -26.545  1.00  0.00    -0.276 OA
HETATM   33  O4  UNL     1      -1.969  53.815 -28.148  1.00  0.00    -0.260 OA
BRANCH  27  34
HETATM   34  O1  UNL     1       1.653  52.766 -26.018  1.00  0.00    -0.362 OA
HETATM   35  H5  UNL     1       2.050  53.645 -25.905  1.00  0.00     0.213 HD
ENDBRANCH  27  34
ENDBRANCH  26  27
ENDBRANCH  24  26
ENDBRANCH   1  24
TORSDOF 4
ENDMDL
MODEL 5
REMARK minimizedAffinity -9.81285572
REMARK  4 active torsions:
REMARK  status: ('A' for Active; 'I' for Inactive)
REMARK    1  A    between atoms: C4_4  and  O1_5 
REMARK    2  A    between atoms: C4_4  and  C5_6 
REMARK    3  A    between atoms: C5_6  and  C6_7 
REMARK    4  A    between atoms: C6_7  and  C8_9 
ROOT
HETATM    1  C8  UNL     1      -1.191  51.868 -22.295  1.00  0.00    -0.001 C 
HETATM    2  C9  UNL     1      -0.536  51.463 -23.642  1.00  0.00     0.007 C 
HETATM    3  C10 UNL     1      -1.597  50.636 -24.411  1.00  0.00     0.015 C 
HETATM    4  C11 UNL     1      -2.907  50.801 -23.601  1.00  0.00    -0.013 C 
HETATM    5  C12 UNL     1      -3.563  52.138 -24.082  1.00  0.00     0.021 C 
HETATM    6  C13 UNL     1      -4.003  49.743 -23.742  1.00  0.00    -0.070 C 
HETATM    7  C14 UNL     1      -4.278  49.171 -24.925  1.00  0.00    -0.022 C 
HETATM    8  C15 UNL     1      -5.408  48.227 -25.162  1.00  0.00     0.034 C 
HETATM    9  C16 UNL     1      -6.095  47.670 -23.888  1.00  0.00     0.013 C 
HETATM   10  C17 UNL     1      -7.433  46.911 -24.222  1.00  0.00     0.018 C 
HETATM   11  C18 UNL     1      -7.515  45.615 -23.376  1.00  0.00     0.023 C 
HETATM   12  C19 UNL     1      -7.574  46.465 -25.697  1.00  0.00     0.023 C 
HETATM   13  C20 UNL     1      -8.655  47.787 -23.909  1.00  0.00     0.135 C 
HETATM   14  O2  UNL     1      -9.765  47.288 -23.694  1.00  0.00    -0.297 OA
HETATM   15  C21 UNL     1      -8.512  49.293 -23.969  1.00  0.00     0.080 C 
HETATM   16  C22 UNL     1      -7.249  49.857 -23.315  1.00  0.00     0.017 C 
HETATM   17  C23 UNL     1      -6.250  48.798 -22.794  1.00  0.00    -0.031 C 
HETATM   18  C24 UNL     1      -6.795  48.219 -21.457  1.00  0.00     0.016 C 
HETATM   19  C25 UNL     1      -4.821  49.415 -22.488  1.00  0.00     0.024 C 
HETATM   20  C26 UNL     1      -4.825  50.596 -21.477  1.00  0.00     0.010 C 
HETATM   21  C27 UNL     1      -3.439  51.203 -21.146  1.00  0.00     0.011 C 
HETATM   22  C28 UNL     1      -2.329  50.813 -22.136  1.00  0.00    -0.029 C 
HETATM   23  C29 UNL     1      -1.736  49.418 -21.743  1.00  0.00     0.016 C 
ENDROOT
BRANCH   1  24
HETATM   24  C6  UNL     1      -0.223  52.251 -21.134  1.00  0.00    -0.008 C 
HETATM   25  C7  UNL     1       1.144  52.622 -21.740  1.00  0.00     0.010 C 
BRANCH  24  26
HETATM   26  C5  UNL     1      -0.081  51.223 -19.990  1.00  0.00     0.078 C 
BRANCH  26  27
HETATM   27  C4  UNL     1      -0.442  51.699 -18.565  1.00  0.00     0.191 A 
HETATM   28  C3  UNL     1      -0.380  50.583 -17.591  1.00  0.00     0.054 A 
HETATM   29  C2  UNL     1       0.518  50.826 -16.638  1.00  0.00     0.015 A 
HETATM   30  C1  UNL     1       0.935  50.011 -15.479  1.00  0.00     0.054 C 
HETATM   31  C30 UNL     1       1.082  52.144 -16.939  1.00  0.00     0.291 A 
HETATM   32  O3  UNL     1       0.508  52.633 -18.070  1.00  0.00    -0.276 OA
HETATM   33  O4  UNL     1       1.943  52.710 -16.287  1.00  0.00    -0.260 OA
BRANCH  27  34
HETATM   34  O1  UNL     1      -1.749  52.229 -18.498  1.00  0.00    -0.362 OA
HETATM   35  H5  UNL     1      -1.739  53.039 -19.034  1.00  0.00     0.213 HD
ENDBRANCH  27  34
ENDBRANCH  26  27
ENDBRANCH  24  26
ENDBRANCH   1  24
TORSDOF 4
ENDMDL
MODEL 6
REMARK minimizedAffinity -9.7716074
REMARK  4 active torsions:
REMARK  status: ('A' for Active; 'I' for Inactive)
REMARK    1  A    between atoms: C4_4  and  O1_5 
REMARK    2  A    between atoms: C4_4  and  C5_6 
REMARK    3  A    between atoms: C5_6  and  C6_7 
REMARK    4  A    between atoms: C6_7  and  C8_9 
ROOT
HETATM    1  C8  UNL     1      -2.172  51.371 -22.038  1.00  0.00    -0.001 C 
HETATM    2  C9  UNL     1      -3.045  50.096 -22.172  1.00  0.00     0.007 C 
HETATM    3  C10 UNL     1      -2.996  49.388 -20.795  1.00  0.00     0.015 C 
HETATM    4  C11 UNL     1      -2.309  50.398 -19.842  1.00  0.00    -0.013 C 
HETATM    5  C12 UNL     1      -3.429  51.366 -19.335  1.00  0.00     0.021 C 
HETATM    6  C13 UNL     1      -1.627  49.875 -18.577  1.00  0.00    -0.070 C 
HETATM    7  C14 UNL     1      -2.154  48.872 -17.858  1.00  0.00    -0.022 C 
HETATM    8  C15 UNL     1      -1.612  48.394 -16.553  1.00  0.00     0.034 C 
HETATM    9  C16 UNL     1      -0.195  48.906 -16.188  1.00  0.00     0.013 C 
HETATM   10  C17 UNL     1       0.183  48.585 -14.694  1.00  0.00     0.018 C 
HETATM   11  C18 UNL     1       1.652  48.095 -14.628  1.00  0.00     0.023 C 
HETATM   12  C19 UNL     1      -0.666  47.470 -14.037  1.00  0.00     0.023 C 
HETATM   13  C20 UNL     1       0.034  49.830 -13.809  1.00  0.00     0.135 C 
HETATM   14  O2  UNL     1       0.648  49.937 -12.741  1.00  0.00    -0.297 OA
HETATM   15  C21 UNL     1      -0.964  50.897 -14.206  1.00  0.00     0.080 C 
HETATM   16  C22 UNL     1      -0.964  51.274 -15.689  1.00  0.00     0.017 C 
HETATM   17  C23 UNL     1      -0.027  50.427 -16.581  1.00  0.00    -0.031 C 
HETATM   18  C24 UNL     1       1.435  50.910 -16.364  1.00  0.00     0.016 C 
HETATM   19  C25 UNL     1      -0.350  50.595 -18.126  1.00  0.00     0.024 C 
HETATM   20  C26 UNL     1      -0.299  52.058 -18.646  1.00  0.00     0.010 C 
HETATM   21  C27 UNL     1      -0.591  52.247 -20.155  1.00  0.00     0.011 C 
HETATM   22  C28 UNL     1      -1.253  51.032 -20.824  1.00  0.00    -0.029 C 
HETATM   23  C29 UNL     1      -0.157  49.991 -21.236  1.00  0.00     0.016 C 
ENDROOT
BRANCH   1  24
HETATM   24  C6  UNL     1      -1.630  51.990 -23.364  1.00  0.00    -0.008 C 
HETATM   25  C7  UNL     1      -2.284  51.254 -24.549  1.00  0.00     0.010 C 
BRANCH  24  26
HETATM   26  C5  UNL     1      -0.094  52.060 -23.512  1.00  0.00     0.078 C 
BRANCH  26  27
HETATM   27  C4  UNL     1       0.468  53.036 -24.570  1.00  0.00     0.191 A 
HETATM   28  C3  UNL     1       1.278  52.321 -25.586  1.00  0.00     0.054 A 
HETATM   29  C2  UNL     1       0.764  52.473 -26.804  1.00  0.00     0.015 A 
HETATM   30  C1  UNL     1       1.209  51.943 -28.110  1.00  0.00     0.054 C 
HETATM   31  C30 UNL     1      -0.417  53.325 -26.643  1.00  0.00     0.291 A 
HETATM   32  O3  UNL     1      -0.571  53.638 -25.329  1.00  0.00    -0.276 OA
HETATM   33  O4  UNL     1      -1.158  53.686 -27.542  1.00  0.00    -0.260 OA
BRANCH  27  34
HETATM   34  O1  UNL     1       1.305  54.017 -23.995  1.00  0.00    -0.362 OA
HETATM   35  H5  UNL     1       0.731  54.565 -23.434  1.00  0.00     0.213 HD
ENDBRANCH  27  34
ENDBRANCH  26  27
ENDBRANCH  24  26
ENDBRANCH   1  24
TORSDOF 4
ENDMDL
MODEL 7
REMARK minimizedAffinity -9.74361515
REMARK  4 active torsions:
REMARK  status: ('A' for Active; 'I' for Inactive)
REMARK    1  A    between atoms: C4_4  and  O1_5 
REMARK    2  A    between atoms: C4_4  and  C5_6 
REMARK    3  A    between atoms: C5_6  and  C6_7 
REMARK    4  A    between atoms: C6_7  and  C8_9 
ROOT
HETATM    1  C8  UNL     1      -2.023  50.951 -23.552  1.00  0.00    -0.001 C 
HETATM    2  C9  UNL     1      -2.072  49.974 -24.756  1.00  0.00     0.007 C 
HETATM    3  C10 UNL     1      -3.207  48.964 -24.451  1.00  0.00     0.015 C 
HETATM    4  C11 UNL     1      -3.938  49.535 -23.211  1.00  0.00    -0.013 C 
HETATM    5  C12 UNL     1      -4.974  50.579 -23.746  1.00  0.00     0.021 C 
HETATM    6  C13 UNL     1      -4.745  48.585 -22.325  1.00  0.00    -0.070 C 
HETATM    7  C14 UNL     1      -5.469  47.583 -22.847  1.00  0.00    -0.022 C 
HETATM    8  C15 UNL     1      -6.374  46.697 -22.059  1.00  0.00     0.034 C 
HETATM    9  C16 UNL     1      -6.215  46.776 -20.519  1.00  0.00     0.013 C 
HETATM   10  C17 UNL     1      -7.377  46.029 -19.765  1.00  0.00     0.018 C 
HETATM   11  C18 UNL     1      -6.788  45.222 -18.580  1.00  0.00     0.023 C 
HETATM   12  C19 UNL     1      -8.157  45.008 -20.629  1.00  0.00     0.023 C 
HETATM   13  C20 UNL     1      -8.411  47.026 -19.223  1.00  0.00     0.135 C 
HETATM   14  O2  UNL     1      -9.152  46.733 -18.278  1.00  0.00    -0.297 OA
HETATM   15  C21 UNL     1      -8.592  48.352 -19.929  1.00  0.00     0.080 C 
HETATM   16  C22 UNL     1      -7.297  49.064 -20.326  1.00  0.00     0.017 C 
HETATM   17  C23 UNL     1      -5.999  48.269 -20.051  1.00  0.00    -0.031 C 
HETATM   18  C24 UNL     1      -5.684  48.346 -18.530  1.00  0.00     0.016 C 
HETATM   19  C25 UNL     1      -4.748  48.871 -20.819  1.00  0.00     0.024 C 
HETATM   20  C26 UNL     1      -4.456  50.366 -20.514  1.00  0.00     0.010 C 
HETATM   21  C27 UNL     1      -3.227  50.973 -21.236  1.00  0.00     0.011 C 
HETATM   22  C28 UNL     1      -2.715  50.133 -22.419  1.00  0.00    -0.029 C 
HETATM   23  C29 UNL     1      -1.765  49.005 -21.894  1.00  0.00     0.016 C 
ENDROOT
BRANCH   1  24
HETATM   24  C6  UNL     1      -0.690  51.733 -23.340  1.00  0.00    -0.008 C 
HETATM   25  C7  UNL     1      -0.256  51.568 -21.871  1.00  0.00     0.010 C 
BRANCH  24  26
HETATM   26  C5  UNL     1      -0.685  53.215 -23.775  1.00  0.00     0.078 C 
BRANCH  26  27
HETATM   27  C4  UNL     1       0.356  53.636 -24.836  1.00  0.00     0.191 A 
HETATM   28  C3  UNL     1       0.956  52.454 -25.501  1.00  0.00     0.054 A 
HETATM   29  C2  UNL     1       0.719  52.469 -26.811  1.00  0.00     0.015 A 
HETATM   30  C1  UNL     1       1.099  51.510 -27.868  1.00  0.00     0.054 C 
HETATM   31  C30 UNL     1      -0.045  53.691 -27.071  1.00  0.00     0.291 A 
HETATM   32  O3  UNL     1      -0.247  54.354 -25.902  1.00  0.00    -0.276 OA
HETATM   33  O4  UNL     1      -0.451  54.053 -28.163  1.00  0.00    -0.260 OA
BRANCH  27  34
HETATM   34  O1  UNL     1       1.420  54.373 -24.271  1.00  0.00    -0.362 OA
HETATM   35  H5  UNL     1       1.034  55.208 -23.959  1.00  0.00     0.213 HD
ENDBRANCH  27  34
ENDBRANCH  26  27
ENDBRANCH  24  26
ENDBRANCH   1  24
TORSDOF 4
ENDMDL
MODEL 8
REMARK minimizedAffinity -9.45196629
REMARK  4 active torsions:
REMARK  status: ('A' for Active; 'I' for Inactive)
REMARK    1  A    between atoms: C4_4  and  O1_5 
REMARK    2  A    between atoms: C4_4  and  C5_6 
REMARK    3  A    between atoms: C5_6  and  C6_7 
REMARK    4  A    between atoms: C6_7  and  C8_9 
ROOT
HETATM    1  C8  UNL     1       5.849  66.489 -35.455  1.00  0.00    -0.001 C 
HETATM    2  C9  UNL     1       6.761  67.676 -35.864  1.00  0.00     0.007 C 
HETATM    3  C10 UNL     1       5.915  68.570 -36.806  1.00  0.00     0.015 C 
HETATM    4  C11 UNL     1       4.473  68.012 -36.712  1.00  0.00    -0.013 C 
HETATM    5  C12 UNL     1       3.820  68.674 -35.453  1.00  0.00     0.021 C 
HETATM    6  C13 UNL     1       3.498  68.282 -37.859  1.00  0.00    -0.070 C 
HETATM    7  C14 UNL     1       3.479  69.460 -38.501  1.00  0.00    -0.022 C 
HETATM    8  C15 UNL     1       2.480  69.837 -39.542  1.00  0.00     0.034 C 
HETATM    9  C16 UNL     1       1.618  68.673 -40.097  1.00  0.00     0.013 C 
HETATM   10  C17 UNL     1       0.419  69.191 -40.974  1.00  0.00     0.018 C 
HETATM   11  C18 UNL     1       0.280  68.301 -42.235  1.00  0.00     0.023 C 
HETATM   12  C19 UNL     1       0.575  70.641 -41.493  1.00  0.00     0.023 C 
HETATM   13  C20 UNL     1      -0.898  69.146 -40.186  1.00  0.00     0.135 C 
HETATM   14  O2  UNL     1      -1.991  69.099 -40.762  1.00  0.00    -0.297 OA
HETATM   15  C21 UNL     1      -0.855  69.265 -38.678  1.00  0.00     0.080 C 
HETATM   16  C22 UNL     1       0.228  68.434 -37.986  1.00  0.00     0.017 C 
HETATM   17  C23 UNL     1       1.191  67.687 -38.939  1.00  0.00    -0.031 C 
HETATM   18  C24 UNL     1       0.460  66.435 -39.501  1.00  0.00     0.016 C 
HETATM   19  C25 UNL     1       2.496  67.173 -38.196  1.00  0.00     0.024 C 
HETATM   20  C26 UNL     1       2.228  66.247 -36.978  1.00  0.00     0.010 C 
HETATM   21  C27 UNL     1       3.485  65.714 -36.248  1.00  0.00     0.011 C 
HETATM   22  C28 UNL     1       4.780  66.471 -36.590  1.00  0.00    -0.029 C 
HETATM   23  C29 UNL     1       5.391  65.903 -37.915  1.00  0.00     0.016 C 
ENDROOT
BRANCH   1  24
HETATM   24  C6  UNL     1       6.565  65.201 -34.946  1.00  0.00    -0.008 C 
HETATM   25  C7  UNL     1       7.939  65.101 -35.636  1.00  0.00     0.010 C 
BRANCH  24  26
HETATM   26  C5  UNL     1       5.770  63.881 -35.062  1.00  0.00     0.078 C 
BRANCH  26  27
HETATM   27  C4  UNL     1       6.106  62.764 -34.048  1.00  0.00     0.191 A 
HETATM   28  C3  UNL     1       5.823  61.423 -34.611  1.00  0.00     0.054 A 
HETATM   29  C2  UNL     1       6.927  60.680 -34.661  1.00  0.00     0.015 A 
HETATM   30  C1  UNL     1       7.139  59.302 -35.149  1.00  0.00     0.054 C 
HETATM   31  C30 UNL     1       8.000  61.510 -34.106  1.00  0.00     0.291 A 
HETATM   32  O3  UNL     1       7.496  62.723 -33.758  1.00  0.00    -0.276 OA
HETATM   33  O4  UNL     1       9.166  61.173 -33.988  1.00  0.00    -0.260 OA
BRANCH  27  34
HETATM   34  O1  UNL     1       5.348  62.880 -32.861  1.00  0.00    -0.362 OA
HETATM   35  H5  UNL     1       5.643  63.700 -32.433  1.00  0.00     0.213 HD
ENDBRANCH  27  34
ENDBRANCH  26  27
ENDBRANCH  24  26
ENDBRANCH   1  24
TORSDOF 4
ENDMDL
MODEL 9
REMARK minimizedAffinity -9.43707371
REMARK  4 active torsions:
REMARK  status: ('A' for Active; 'I' for Inactive)
REMARK    1  A    between atoms: C4_4  and  O1_5 
REMARK    2  A    between atoms: C4_4  and  C5_6 
REMARK    3  A    between atoms: C5_6  and  C6_7 
REMARK    4  A    between atoms: C6_7  and  C8_9 
ROOT
HETATM    1  C8  UNL     1      -2.115  50.439 -23.794  1.00  0.00    -0.001 C 
HETATM    2  C9  UNL     1      -1.259  50.793 -22.549  1.00  0.00     0.007 C 
HETATM    3  C10 UNL     1      -2.004  50.202 -21.326  1.00  0.00     0.015 C 
HETATM    4  C11 UNL     1      -3.126  49.315 -21.922  1.00  0.00    -0.013 C 
HETATM    5  C12 UNL     1      -2.478  47.925 -22.233  1.00  0.00     0.021 C 
HETATM    6  C13 UNL     1      -4.355  49.003 -21.067  1.00  0.00    -0.070 C 
HETATM    7  C14 UNL     1      -4.253  48.767 -19.749  1.00  0.00    -0.022 C 
HETATM    8  C15 UNL     1      -5.386  48.339 -18.879  1.00  0.00     0.034 C 
HETATM    9  C16 UNL     1      -6.799  48.471 -19.504  1.00  0.00     0.013 C 
HETATM   10  C17 UNL     1      -7.898  47.749 -18.640  1.00  0.00     0.018 C 
HETATM   11  C18 UNL     1      -9.162  48.643 -18.561  1.00  0.00     0.023 C 
HETATM   12  C19 UNL     1      -7.487  47.467 -17.175  1.00  0.00     0.023 C 
HETATM   13  C20 UNL     1      -8.283  46.397 -19.257  1.00  0.00     0.135 C 
HETATM   14  O2  UNL     1      -9.372  45.866 -19.012  1.00  0.00    -0.297 OA
HETATM   15  C21 UNL     1      -7.264  45.658 -20.097  1.00  0.00     0.080 C 
HETATM   16  C22 UNL     1      -6.493  46.520 -21.099  1.00  0.00     0.017 C 
HETATM   17  C23 UNL     1      -6.786  48.037 -21.023  1.00  0.00    -0.031 C 
HETATM   18  C24 UNL     1      -8.158  48.311 -21.703  1.00  0.00     0.016 C 
HETATM   19  C25 UNL     1      -5.701  48.901 -21.794  1.00  0.00     0.024 C 
HETATM   20  C26 UNL     1      -5.521  48.531 -23.293  1.00  0.00     0.010 C 
HETATM   21  C27 UNL     1      -4.482  49.374 -24.073  1.00  0.00     0.011 C 
HETATM   22  C28 UNL     1      -3.524  50.178 -23.178  1.00  0.00    -0.029 C 
HETATM   23  C29 UNL     1      -4.199  51.526 -22.756  1.00  0.00     0.016 C 
ENDROOT
BRANCH   1  24
HETATM   24  C6  UNL     1      -1.895  51.314 -25.066  1.00  0.00    -0.008 C 
HETATM   25  C7  UNL     1      -0.900  50.589 -25.992  1.00  0.00     0.010 C 
BRANCH  24  26
HETATM   26  C5  UNL     1      -1.484  52.784 -24.826  1.00  0.00     0.078 C 
BRANCH  26  27
HETATM   27  C4  UNL     1      -0.322  53.340 -25.680  1.00  0.00     0.191 A 
HETATM   28  C3  UNL     1       0.958  52.669 -25.350  1.00  0.00     0.054 A 
HETATM   29  C2  UNL     1       1.462  52.047 -26.414  1.00  0.00     0.015 A 
HETATM   30  C1  UNL     1       2.694  51.245 -26.566  1.00  0.00     0.054 C 
HETATM   31  C30 UNL     1       0.528  52.301 -27.514  1.00  0.00     0.291 A 
HETATM   32  O3  UNL     1      -0.507  53.056 -27.059  1.00  0.00    -0.276 OA
HETATM   33  O4  UNL     1       0.650  51.890 -28.655  1.00  0.00    -0.260 OA
BRANCH  27  34
HETATM   34  O1  UNL     1      -0.126  54.723 -25.473  1.00  0.00    -0.362 OA
HETATM   35  H5  UNL     1      -0.920  55.162 -25.819  1.00  0.00     0.213 HD
ENDBRANCH  27  34
ENDBRANCH  26  27
ENDBRANCH  24  26
ENDBRANCH   1  24
TORSDOF 4
ENDMDL
