MODEL 1
REMARK minimizedAffinity -7.70459223
REMARK CNNscore 0.383800119
REMARK CNNaffinity 7.49122858
REMARK  10 active torsions:
REMARK  status: ('A' for Active; 'I' for Inactive)
REMARK       I    between atoms: N1_1  and  C1_2 
REMARK       I    between atoms: C1_2  and  N2_3 
REMARK    1  A    between atoms: N3_4  and  C2_6 
REMARK    2  A    between atoms: C2_6  and  C3_7 
REMARK    3  A    between atoms: C3_7  and  C4_8 
REMARK    4  A    between atoms: C4_8  and  C5_9 
REMARK    5  A    between atoms: C5_9  and  O1_10 
REMARK    6  A    between atoms: C18_24  and  S1_25 
REMARK    7  A    between atoms: C27_37  and  C28_38 
REMARK    8  A    between atoms: C28_38  and  O6_39 
REMARK    9  A    between atoms: C34_45  and  O7_46 
REMARK   10  A    between atoms: C45_58  and  NA1_59 
ROOT
HETATM    1  C2  UNL     1      -3.559  16.172   1.914  1.00  0.00     0.170 C 
HETATM    2  O2  UNL     1      -3.397  14.755   1.501  1.00  0.00    -0.316 OA
HETATM    3  C10 UNL     1      -2.107  14.279   1.522  1.00  0.00     0.072 C 
HETATM    4  C11 UNL     1      -1.032  14.946   0.944  1.00  0.00     0.037 C 
HETATM    5  C12 UNL     1       0.255  14.670   1.393  1.00  0.00     0.010 C 
HETATM    6  C13 UNL     1       0.454  13.714   2.398  1.00  0.00    -0.058 C 
HETATM    7  C14 UNL     1      -0.604  12.868   2.765  1.00  0.00     0.010 C 
HETATM    8  C15 UNL     1      -1.891  13.152   2.316  1.00  0.00     0.037 C 
HETATM    9  C16 UNL     1       1.626  13.924   3.358  1.00  0.00     0.040 C 
HETATM   10  C17 UNL     1       1.092  14.961   4.372  1.00  0.00     0.028 C 
HETATM   11  C18 UNL     1       1.995  15.508   5.486  1.00  0.00     0.139 C 
HETATM   12  C19 UNL     1       1.138  15.900   6.745  1.00  0.00     0.038 C 
HETATM   13  C20 UNL     1       1.935  16.199   8.005  1.00  0.00    -0.014 C 
HETATM   14  C21 UNL     1       1.978  17.456   8.487  1.00  0.00    -0.050 C 
HETATM   15  C22 UNL     1       1.492  18.584   7.637  1.00  0.00     0.042 C 
HETATM   16  C23 UNL     1       0.043  18.284   7.354  1.00  0.00     0.001 C 
HETATM   17  C24 UNL     1      -0.744  18.504   8.684  1.00  0.00     0.037 C 
HETATM   18  C25 UNL     1      -0.308  17.707   9.969  1.00  0.00     0.123 C 
HETATM   19  C26 UNL     1      -1.460  17.919  10.995  1.00  0.00     0.039 C 
HETATM   20  C27 UNL     1      -1.297  17.352  12.429  1.00  0.00     0.023 C 
HETATM   21  C29 UNL     1      -1.030  15.834  12.462  1.00  0.00     0.101 C 
HETATM   22  C30 UNL     1       0.387  15.589  12.234  1.00  0.00    -0.101 C 
HETATM   23  C31 UNL     1       1.553  15.645  11.968  1.00  0.00    -0.066 C 
HETATM   24  C32 UNL     1       2.894  15.924  11.589  1.00  0.00     0.029 A 
HETATM   25  C33 UNL     1       3.914  15.147  12.160  1.00  0.00     0.057 A 
HETATM   26  C34 UNL     1       5.241  15.350  11.798  1.00  0.00     0.067 A 
HETATM   27  C35 UNL     1       5.574  16.325  10.871  1.00  0.00     0.037 A 
HETATM   28  C36 UNL     1       4.562  17.110  10.315  1.00  0.00     0.014 A 
HETATM   29  C37 UNL     1       3.197  16.932  10.659  1.00  0.00    -0.006 A 
HETATM   30  C38 UNL     1       2.192  17.832   9.923  1.00  0.00     0.185 C 
HETATM   31  O8  UNL     1       0.929  18.148  10.577  1.00  0.00    -0.371 OA
HETATM   32  C39 UNL     1      -0.162  16.842   6.743  1.00  0.00     0.030 C 
HETATM   33  C40 UNL     1      -1.113  16.783   5.548  1.00  0.00    -0.054 A 
HETATM   34  C41 UNL     1      -2.102  15.788   5.492  1.00  0.00     0.141 A 
HETATM   35  C42 UNL     1      -2.908  15.630   4.358  1.00  0.00     0.014 A 
HETATM   36  C43 UNL     1      -2.761  16.455   3.227  1.00  0.00    -0.005 A 
HETATM   37  C44 UNL     1      -1.803  17.482   3.309  1.00  0.00     0.007 A 
HETATM   38  C45 UNL     1      -1.002  17.652   4.453  1.00  0.00     0.086 A 
ENDROOT
BRANCH   1  39
HETATM   39  N3  UNL     1      -3.178  17.108   0.849  1.00  0.00    -0.336 N 
HETATM   40  C1  UNL     1      -3.344  17.125  -0.400  1.00  0.00     0.124 C 
HETATM   41  N1  UNL     1      -2.919  18.217  -1.084  1.00  0.00    -0.279 NA
HETATM   42  N2  UNL     1      -3.817  16.232  -1.295  1.00  0.00    -0.279 NA
HETATM   43  H1  UNL     1      -2.407  18.825  -0.451  1.00  0.00     0.126 HD
HETATM   44  H2  UNL     1      -2.333  17.961  -1.868  1.00  0.00     0.126 HD
HETATM   45  H3  UNL     1      -4.268  15.405  -0.940  1.00  0.00     0.126 HD
HETATM   46  H4  UNL     1      -4.326  16.654  -2.060  1.00  0.00     0.126 HD
ATOM     47  H3  UNL     1      -2.669  17.921   1.194  1.00  0.00     0.165 HD
ENDBRANCH   1  39
BRANCH   1  48
HETATM   48  C3  UNL     1      -5.082  16.253   2.261  1.00  0.00     0.070 C 
BRANCH  48  49
HETATM   49  C4  UNL     1      -6.107  15.490   1.393  1.00  0.00     0.043 C 
BRANCH  49  50
HETATM   50  C5  UNL     1      -7.606  15.653   1.709  1.00  0.00     0.058 C 
HETATM   51  C6  UNL     1      -8.430  14.352   1.639  1.00  0.00     0.038 C 
HETATM   52  C7  UNL     1      -9.337  14.333   2.880  1.00  0.00     0.003 C 
HETATM   53  C8  UNL     1      -9.230  15.723   3.484  1.00  0.00     0.003 C 
HETATM   54  C9  UNL     1      -7.797  16.115   3.167  1.00  0.00     0.038 C 
BRANCH  50  55
HETATM   55  O1  UNL     1      -8.178  16.667   0.887  1.00  0.00    -0.390 OA
HETATM   56  H9  UNL     1      -8.643  16.226   0.150  1.00  0.00     0.210 HD
ENDBRANCH  50  55
ENDBRANCH  49  50
ENDBRANCH  48  49
ENDBRANCH   1  48
BRANCH  38  57
HETATM   57 NA1  UNL     1      -1.077  16.859   6.221  1.00  0.00    -0.383 Na
ATOM     58 2HA1 UNL     1      -0.137  16.706   6.586  1.00  0.00     0.091 HD
ATOM     59 1HA1 UNL     1      -1.418  17.536   6.904  1.00  0.00     0.091 HD
ENDBRANCH  38  57
BRANCH  11  60
HETATM   60  S1  UNL     1       3.107  16.775   4.853  1.00  0.00     0.106 S 
HETATM   61  O3  UNL     1       2.245  17.920   4.580  1.00  0.00    -0.595 OA
HETATM   62  O4  UNL     1       4.087  16.981   5.916  1.00  0.00    -0.595 OA
HETATM   63  O5  UNL     1       3.682  16.171   3.650  1.00  0.00    -0.595 OA
ENDBRANCH  11  60
BRANCH  20  64
HETATM   64  C28 UNL     1      -2.551  17.682  13.262  1.00  0.00     0.169 C 
BRANCH  64  65
HETATM   65  O6  UNL     1      -3.662  16.864  12.925  1.00  0.00    -0.400 OA
HETATM   66  H40 UNL     1      -3.437  15.943  13.121  1.00  0.00     0.209 HD
ENDBRANCH  64  65
ENDBRANCH  20  64
BRANCH  26  67
HETATM   67  O7  UNL     1       6.190  14.551  12.362  1.00  0.00    -0.361 OA
HETATM   68  H44 UNL     1       7.039  14.749  11.926  1.00  0.00     0.217 HD
ENDBRANCH  26  67
TORSDOF 10
ENDMDL
MODEL 2
REMARK minimizedAffinity -8.20956707
REMARK CNNscore 0.37768802
REMARK CNNaffinity 7.60005379
REMARK  10 active torsions:
REMARK  status: ('A' for Active; 'I' for Inactive)
REMARK       I    between atoms: N1_1  and  C1_2 
REMARK       I    between atoms: C1_2  and  N2_3 
REMARK    1  A    between atoms: N3_4  and  C2_6 
REMARK    2  A    between atoms: C2_6  and  C3_7 
REMARK    3  A    between atoms: C3_7  and  C4_8 
REMARK    4  A    between atoms: C4_8  and  C5_9 
REMARK    5  A    between atoms: C5_9  and  O1_10 
REMARK    6  A    between atoms: C18_24  and  S1_25 
REMARK    7  A    between atoms: C27_37  and  C28_38 
REMARK    8  A    between atoms: C28_38  and  O6_39 
REMARK    9  A    between atoms: C34_45  and  O7_46 
REMARK   10  A    between atoms: C45_58  and  NA1_59 
ROOT
HETATM    1  C2  UNL     1     -16.573  -4.507  28.425  1.00  0.00     0.170 C 
HETATM    2  O2  UNL     1     -15.553  -3.694  29.134  1.00  0.00    -0.316 OA
HETATM    3  C10 UNL     1     -14.773  -4.382  30.034  1.00  0.00     0.072 C 
HETATM    4  C11 UNL     1     -15.289  -5.235  31.003  1.00  0.00     0.037 C 
HETATM    5  C12 UNL     1     -14.469  -6.223  31.540  1.00  0.00     0.010 C 
HETATM    6  C13 UNL     1     -13.137  -6.330  31.117  1.00  0.00    -0.058 C 
HETATM    7  C14 UNL     1     -12.570  -5.298  30.354  1.00  0.00     0.010 C 
HETATM    8  C15 UNL     1     -13.396  -4.316  29.816  1.00  0.00     0.037 C 
HETATM    9  C16 UNL     1     -12.507  -7.723  31.097  1.00  0.00     0.040 C 
HETATM   10  C17 UNL     1     -13.032  -8.348  29.785  1.00  0.00     0.028 C 
HETATM   11  C18 UNL     1     -12.685  -9.795  29.408  1.00  0.00     0.139 C 
HETATM   12  C19 UNL     1     -12.654  -9.963  27.845  1.00  0.00     0.038 C 
HETATM   13  C20 UNL     1     -12.062 -11.272  27.345  1.00  0.00    -0.014 C 
HETATM   14  C21 UNL     1     -12.857 -12.181  26.747  1.00  0.00    -0.050 C 
HETATM   15  C22 UNL     1     -14.341 -12.028  26.837  1.00  0.00     0.042 C 
HETATM   16  C23 UNL     1     -14.652 -10.701  26.196  1.00  0.00     0.001 C 
HETATM   17  C24 UNL     1     -14.423 -10.863  24.660  1.00  0.00     0.037 C 
HETATM   18  C25 UNL     1     -13.018 -11.352  24.145  1.00  0.00     0.123 C 
HETATM   19  C26 UNL     1     -13.037 -11.108  22.607  1.00  0.00     0.039 C 
HETATM   20  C27 UNL     1     -11.831 -11.590  21.760  1.00  0.00     0.023 C 
HETATM   21  C29 UNL     1     -10.483 -11.005  22.224  1.00  0.00     0.101 C 
HETATM   22  C30 UNL     1      -9.976 -11.790  23.341  1.00  0.00    -0.101 C 
HETATM   23  C31 UNL     1      -9.810 -12.534  24.265  1.00  0.00    -0.066 C 
HETATM   24  C32 UNL     1      -9.832 -13.468  25.335  1.00  0.00     0.029 A 
HETATM   25  C33 UNL     1      -8.616 -14.059  25.717  1.00  0.00     0.057 A 
HETATM   26  C34 UNL     1      -8.571 -14.951  26.782  1.00  0.00     0.067 A 
HETATM   27  C35 UNL     1      -9.726 -15.272  27.479  1.00  0.00     0.037 A 
HETATM   28  C36 UNL     1     -10.938 -14.698  27.088  1.00  0.00     0.014 A 
HETATM   29  C37 UNL     1     -11.024 -13.784  26.007  1.00  0.00    -0.006 A 
HETATM   30  C38 UNL     1     -12.415 -13.192  25.732  1.00  0.00     0.185 C 
HETATM   31  O8  UNL     1     -12.730 -12.751  24.380  1.00  0.00    -0.371 OA
HETATM   32  C39 UNL     1     -13.813  -9.520  26.826  1.00  0.00     0.030 C 
HETATM   33  C40 UNL     1     -14.617  -8.256  27.130  1.00  0.00    -0.054 A 
HETATM   34  C41 UNL     1     -14.109  -7.001  26.756  1.00  0.00     0.141 A 
HETATM   35  C42 UNL     1     -14.759  -5.817  27.127  1.00  0.00     0.014 A 
HETATM   36  C43 UNL     1     -15.943  -5.832  27.889  1.00  0.00    -0.005 A 
HETATM   37  C44 UNL     1     -16.472  -7.094  28.217  1.00  0.00     0.007 A 
HETATM   38  C45 UNL     1     -15.829  -8.284  27.833  1.00  0.00     0.086 A 
ENDROOT
BRANCH   1  39
HETATM   39  N3  UNL     1     -17.748  -4.777  29.262  1.00  0.00    -0.336 N 
HETATM   40  C1  UNL     1     -18.480  -4.063  29.999  1.00  0.00     0.124 C 
HETATM   41  N1  UNL     1     -19.560  -4.645  30.579  1.00  0.00    -0.279 NA
HETATM   42  N2  UNL     1     -18.411  -2.787  30.432  1.00  0.00    -0.279 NA
HETATM   43  H1  UNL     1     -19.531  -5.645  30.402  1.00  0.00     0.126 HD
HETATM   44  H2  UNL     1     -19.586  -4.471  31.575  1.00  0.00     0.126 HD
HETATM   45  H3  UNL     1     -17.723  -2.185  30.013  1.00  0.00     0.126 HD
HETATM   46  H4  UNL     1     -19.314  -2.340  30.524  1.00  0.00     0.126 HD
ATOM     47  H3  UNL     1     -18.034  -5.756  29.245  1.00  0.00     0.165 HD
ENDBRANCH   1  39
BRANCH   1  48
HETATM   48  C3  UNL     1     -16.918  -3.615  27.187  1.00  0.00     0.070 C 
BRANCH  48  49
HETATM   49  C4  UNL     1     -17.629  -4.241  25.966  1.00  0.00     0.043 C 
BRANCH  49  50
HETATM   50  C5  UNL     1     -18.949  -3.615  25.481  1.00  0.00     0.058 C 
HETATM   51  C6  UNL     1     -19.971  -4.615  24.905  1.00  0.00     0.038 C 
HETATM   52  C7  UNL     1     -21.339  -4.246  25.502  1.00  0.00     0.003 C 
HETATM   53  C8  UNL     1     -21.140  -2.897  26.173  1.00  0.00     0.003 C 
HETATM   54  C9  UNL     1     -19.704  -2.978  26.664  1.00  0.00     0.038 C 
BRANCH  50  55
HETATM   55  O1  UNL     1     -18.687  -2.561  24.557  1.00  0.00    -0.390 OA
HETATM   56  H9  UNL     1     -18.821  -2.915  23.656  1.00  0.00     0.210 HD
ENDBRANCH  50  55
ENDBRANCH  49  50
ENDBRANCH  48  49
ENDBRANCH   1  48
BRANCH  38  57
HETATM   57 NA1  UNL     1     -14.345  -8.631  26.634  1.00  0.00    -0.383 Na
ATOM     58 2HA1 UNL     1     -13.769  -9.395  26.988  1.00  0.00     0.091 HD
ATOM     59 1HA1 UNL     1     -14.676  -9.054  25.767  1.00  0.00     0.091 HD
ENDBRANCH  38  57
BRANCH  11  60
HETATM   60  S1  UNL     1     -13.712 -10.962  30.315  1.00  0.00     0.106 S 
HETATM   61  O3  UNL     1     -15.040 -10.820  29.727  1.00  0.00    -0.595 OA
HETATM   62  O4  UNL     1     -13.082 -12.263  30.103  1.00  0.00    -0.595 OA
HETATM   63  O5  UNL     1     -13.630 -10.503  31.702  1.00  0.00    -0.595 OA
ENDBRANCH  11  60
BRANCH  20  64
HETATM   64  C28 UNL     1     -12.069 -11.245  20.277  1.00  0.00     0.169 C 
BRANCH  64  65
HETATM   65  O6  UNL     1     -10.884 -11.333  19.498  1.00  0.00    -0.400 OA
HETATM   66  H40 UNL     1     -10.569 -12.247  19.519  1.00  0.00     0.209 HD
ENDBRANCH  64  65
ENDBRANCH  20  64
BRANCH  26  67
HETATM   67  O7  UNL     1      -7.362 -15.476  27.130  1.00  0.00    -0.361 OA
HETATM   68  H44 UNL     1      -7.488 -15.988  27.950  1.00  0.00     0.217 HD
ENDBRANCH  26  67
TORSDOF 10
ENDMDL
MODEL 3
REMARK minimizedAffinity -7.29851246
REMARK CNNscore 0.261092275
REMARK CNNaffinity 7.16488791
REMARK  10 active torsions:
REMARK  status: ('A' for Active; 'I' for Inactive)
REMARK       I    between atoms: N1_1  and  C1_2 
REMARK       I    between atoms: C1_2  and  N2_3 
REMARK    1  A    between atoms: N3_4  and  C2_6 
REMARK    2  A    between atoms: C2_6  and  C3_7 
REMARK    3  A    between atoms: C3_7  and  C4_8 
REMARK    4  A    between atoms: C4_8  and  C5_9 
REMARK    5  A    between atoms: C5_9  and  O1_10 
REMARK    6  A    between atoms: C18_24  and  S1_25 
REMARK    7  A    between atoms: C27_37  and  C28_38 
REMARK    8  A    between atoms: C28_38  and  O6_39 
REMARK    9  A    between atoms: C34_45  and  O7_46 
REMARK   10  A    between atoms: C45_58  and  NA1_59 
ROOT
HETATM    1  C2  UNL     1     -11.295  17.881   6.801  1.00  0.00     0.170 C 
HETATM    2  O2  UNL     1     -12.011  16.608   6.537  1.00  0.00    -0.316 OA
HETATM    3  C10 UNL     1     -11.924  16.139   5.247  1.00  0.00     0.072 C 
HETATM    4  C11 UNL     1     -12.168  16.926   4.126  1.00  0.00     0.037 C 
HETATM    5  C12 UNL     1     -11.622  16.546   2.904  1.00  0.00     0.010 C 
HETATM    6  C13 UNL     1     -10.861  15.373   2.813  1.00  0.00    -0.058 C 
HETATM    7  C14 UNL     1     -10.862  14.466   3.882  1.00  0.00     0.010 C 
HETATM    8  C15 UNL     1     -11.404  14.852   5.104  1.00  0.00     0.037 C 
HETATM    9  C16 UNL     1      -9.724  15.341   1.790  1.00  0.00     0.040 C 
HETATM   10  C17 UNL     1      -8.575  16.100   2.491  1.00  0.00     0.028 C 
HETATM   11  C18 UNL     1      -7.246  16.357   1.768  1.00  0.00     0.139 C 
HETATM   12  C19 UNL     1      -6.063  16.431   2.801  1.00  0.00     0.038 C 
HETATM   13  C20 UNL     1      -4.668  16.411   2.194  1.00  0.00    -0.014 C 
HETATM   14  C21 UNL     1      -3.895  17.513   2.259  1.00  0.00    -0.050 C 
HETATM   15  C22 UNL     1      -4.507  18.815   2.661  1.00  0.00     0.042 C 
HETATM   16  C23 UNL     1      -5.055  18.596   4.047  1.00  0.00     0.001 C 
HETATM   17  C24 UNL     1      -3.835  18.485   5.015  1.00  0.00     0.037 C 
HETATM   18  C25 UNL     1      -2.733  17.397   4.733  1.00  0.00     0.123 C 
HETATM   19  C26 UNL     1      -1.858  17.354   6.020  1.00  0.00     0.039 C 
HETATM   20  C27 UNL     1      -0.596  16.454   6.036  1.00  0.00     0.023 C 
HETATM   21  C29 UNL     1      -0.895  14.974   5.726  1.00  0.00     0.101 C 
HETATM   22  C30 UNL     1      -0.973  14.790   4.284  1.00  0.00    -0.101 C 
HETATM   23  C31 UNL     1      -1.052  14.907   3.095  1.00  0.00    -0.066 C 
HETATM   24  C32 UNL     1      -1.159  15.269   1.725  1.00  0.00     0.029 A 
HETATM   25  C33 UNL     1      -0.656  14.374   0.767  1.00  0.00     0.057 A 
HETATM   26  C34 UNL     1      -0.767  14.657  -0.589  1.00  0.00     0.067 A 
HETATM   27  C35 UNL     1      -1.375  15.829  -1.014  1.00  0.00     0.037 A 
HETATM   28  C36 UNL     1      -1.861  16.728  -0.061  1.00  0.00     0.014 A 
HETATM   29  C37 UNL     1      -1.765  16.473   1.331  1.00  0.00    -0.006 A 
HETATM   30  C38 UNL     1      -2.395  17.527   2.255  1.00  0.00     0.185 C 
HETATM   31  O8  UNL     1      -1.869  17.675   3.605  1.00  0.00    -0.371 OA
HETATM   32  C39 UNL     1      -6.019  17.347   4.119  1.00  0.00     0.030 C 
HETATM   33  C40 UNL     1      -7.314  17.583   4.895  1.00  0.00    -0.054 A 
HETATM   34  C41 UNL     1      -7.747  16.632   5.835  1.00  0.00     0.141 A 
HETATM   35  C42 UNL     1      -8.988  16.758   6.472  1.00  0.00     0.014 A 
HETATM   36  C43 UNL     1      -9.853  17.834   6.199  1.00  0.00    -0.005 A 
HETATM   37  C44 UNL     1      -9.391  18.808   5.296  1.00  0.00     0.007 A 
HETATM   38  C45 UNL     1      -8.140  18.692   4.665  1.00  0.00     0.086 A 
ENDROOT
BRANCH   1  39
HETATM   39  N3  UNL     1     -12.037  19.048   6.309  1.00  0.00    -0.336 N 
HETATM   40  C1  UNL     1     -13.240  19.415   6.387  1.00  0.00     0.124 C 
HETATM   41  N1  UNL     1     -13.571  20.626   5.872  1.00  0.00    -0.279 NA
HETATM   42  N2  UNL     1     -14.371  18.829   6.833  1.00  0.00    -0.279 NA
HETATM   43  H1  UNL     1     -12.767  21.006   5.380  1.00  0.00     0.126 HD
HETATM   44  H2  UNL     1     -14.361  20.559   5.243  1.00  0.00     0.126 HD
HETATM   45  H3  UNL     1     -14.284  17.965   7.341  1.00  0.00     0.126 HD
HETATM   46  H4  UNL     1     -15.017  19.473   7.270  1.00  0.00     0.126 HD
ATOM     47  H3  UNL     1     -11.453  19.705   5.792  1.00  0.00     0.165 HD
ENDBRANCH   1  39
BRANCH   1  48
HETATM   48  C3  UNL     1     -11.155  17.877   8.359  1.00  0.00     0.070 C 
BRANCH  48  49
HETATM   49  C4  UNL     1     -12.121  17.025   9.212  1.00  0.00     0.043 C 
BRANCH  49  50
HETATM   50  C5  UNL     1     -11.937  17.010  10.740  1.00  0.00     0.058 C 
HETATM   51  C6  UNL     1     -12.089  15.625  11.401  1.00  0.00     0.038 C 
HETATM   52  C7  UNL     1     -10.932  15.482  12.403  1.00  0.00     0.003 C 
HETATM   53  C8  UNL     1     -10.311  16.864  12.509  1.00  0.00     0.003 C 
HETATM   54  C9  UNL     1     -10.498  17.422  11.109  1.00  0.00     0.038 C 
BRANCH  50  55
HETATM   55  O1  UNL     1     -12.798  17.967  11.353  1.00  0.00    -0.390 OA
HETATM   56  H9  UNL     1     -13.577  17.489  11.699  1.00  0.00     0.210 HD
ENDBRANCH  50  55
ENDBRANCH  49  50
ENDBRANCH  48  49
ENDBRANCH   1  48
BRANCH  38  57
HETATM   57 NA1  UNL     1      -6.644  17.492   4.954  1.00  0.00    -0.383 Na
ATOM     58 2HA1 UNL     1      -6.199  17.253   4.068  1.00  0.00     0.091 HD
ATOM     59 1HA1 UNL     1      -5.873  17.982   5.407  1.00  0.00     0.091 HD
ENDBRANCH  38  57
BRANCH  11  60
HETATM   60  S1  UNL     1      -7.390  17.739   0.622  1.00  0.00     0.106 S 
HETATM   61  O3  UNL     1      -6.139  17.729  -0.127  1.00  0.00    -0.595 OA
HETATM   62  O4  UNL     1      -8.584  17.450  -0.168  1.00  0.00    -0.595 OA
HETATM   63  O5  UNL     1      -7.546  18.905   1.494  1.00  0.00    -0.595 OA
ENDBRANCH  11  60
BRANCH  20  64
HETATM   64  C28 UNL     1       0.107  16.572   7.402  1.00  0.00     0.169 C 
BRANCH  64  65
HETATM   65  O6  UNL     1       1.273  15.765   7.489  1.00  0.00    -0.400 OA
HETATM   66  H40 UNL     1       1.909  16.070   6.826  1.00  0.00     0.209 HD
ENDBRANCH  64  65
ENDBRANCH  20  64
BRANCH  26  67
HETATM   67  O7  UNL     1      -0.286  13.743  -1.479  1.00  0.00    -0.361 OA
HETATM   68  H44 UNL     1      -0.538  14.041  -2.372  1.00  0.00     0.217 HD
ENDBRANCH  26  67
TORSDOF 10
ENDMDL
MODEL 4
REMARK minimizedAffinity -8.20306873
REMARK CNNscore 0.236194223
REMARK CNNaffinity 7.42849922
REMARK  10 active torsions:
REMARK  status: ('A' for Active; 'I' for Inactive)
REMARK       I    between atoms: N1_1  and  C1_2 
REMARK       I    between atoms: C1_2  and  N2_3 
REMARK    1  A    between atoms: N3_4  and  C2_6 
REMARK    2  A    between atoms: C2_6  and  C3_7 
REMARK    3  A    between atoms: C3_7  and  C4_8 
REMARK    4  A    between atoms: C4_8  and  C5_9 
REMARK    5  A    between atoms: C5_9  and  O1_10 
REMARK    6  A    between atoms: C18_24  and  S1_25 
REMARK    7  A    between atoms: C27_37  and  C28_38 
REMARK    8  A    between atoms: C28_38  and  O6_39 
REMARK    9  A    between atoms: C34_45  and  O7_46 
REMARK   10  A    between atoms: C45_58  and  NA1_59 
ROOT
HETATM    1  C2  UNL     1     -12.219   9.281  22.735  1.00  0.00     0.170 C 
HETATM    2  O2  UNL     1     -13.199  10.394  22.818  1.00  0.00    -0.316 OA
HETATM    3  C10 UNL     1     -14.514  10.036  22.634  1.00  0.00     0.072 C 
HETATM    4  C11 UNL     1     -14.955   9.249  21.576  1.00  0.00     0.037 C 
HETATM    5  C12 UNL     1     -16.155   8.557  21.703  1.00  0.00     0.010 C 
HETATM    6  C13 UNL     1     -16.910   8.678  22.878  1.00  0.00    -0.058 C 
HETATM    7  C14 UNL     1     -16.586   9.679  23.806  1.00  0.00     0.010 C 
HETATM    8  C15 UNL     1     -15.382  10.366  23.676  1.00  0.00     0.037 C 
HETATM    9  C16 UNL     1     -17.732   7.468  23.323  1.00  0.00     0.040 C 
HETATM   10  C17 UNL     1     -16.698   6.552  24.015  1.00  0.00     0.028 C 
HETATM   11  C18 UNL     1     -17.105   5.175  24.557  1.00  0.00     0.139 C 
HETATM   12  C19 UNL     1     -16.208   4.781  25.786  1.00  0.00     0.038 C 
HETATM   13  C20 UNL     1     -16.683   3.571  26.576  1.00  0.00    -0.014 C 
HETATM   14  C21 UNL     1     -15.965   2.431  26.551  1.00  0.00    -0.050 C 
HETATM   15  C22 UNL     1     -14.881   2.270  25.536  1.00  0.00     0.042 C 
HETATM   16  C23 UNL     1     -13.904   3.385  25.806  1.00  0.00     0.001 C 
HETATM   17  C24 UNL     1     -13.168   3.045  27.140  1.00  0.00     0.037 C 
HETATM   18  C25 UNL     1     -14.021   2.799  28.440  1.00  0.00     0.123 C 
HETATM   19  C26 UNL     1     -12.994   2.796  29.610  1.00  0.00     0.039 C 
HETATM   20  C27 UNL     1     -13.492   2.464  31.041  1.00  0.00     0.023 C 
HETATM   21  C29 UNL     1     -14.623   3.391  31.527  1.00  0.00     0.101 C 
HETATM   22  C30 UNL     1     -15.895   2.913  31.003  1.00  0.00    -0.101 C 
HETATM   23  C31 UNL     1     -16.786   2.373  30.411  1.00  0.00    -0.066 C 
HETATM   24  C32 UNL     1     -17.676   1.630  29.590  1.00  0.00     0.029 A 
HETATM   25  C33 UNL     1     -18.969   1.383  30.080  1.00  0.00     0.057 A 
HETATM   26  C34 UNL     1     -19.896   0.694  29.305  1.00  0.00     0.067 A 
HETATM   27  C35 UNL     1     -19.554   0.241  28.040  1.00  0.00     0.037 A 
HETATM   28  C36 UNL     1     -18.263   0.471  27.559  1.00  0.00     0.014 A 
HETATM   29  C37 UNL     1     -17.291   1.170  28.321  1.00  0.00    -0.006 A 
HETATM   30  C38 UNL     1     -15.934   1.397  27.637  1.00  0.00     0.185 C 
HETATM   31  O8  UNL     1     -14.749   1.548  28.471  1.00  0.00    -0.371 OA
HETATM   32  C39 UNL     1     -14.603   4.802  25.827  1.00  0.00     0.030 C 
HETATM   33  C40 UNL     1     -13.860   5.893  25.056  1.00  0.00    -0.054 A 
HETATM   34  C41 UNL     1     -13.675   7.156  25.641  1.00  0.00     0.141 A 
HETATM   35  C42 UNL     1     -13.109   8.213  24.916  1.00  0.00     0.014 A 
HETATM   36  C43 UNL     1     -12.706   8.058  23.576  1.00  0.00    -0.005 A 
HETATM   37  C44 UNL     1     -12.849   6.776  23.014  1.00  0.00     0.007 A 
HETATM   38  C45 UNL     1     -13.404   5.710  23.743  1.00  0.00     0.086 A 
ENDROOT
BRANCH   1  39
HETATM   39  N3  UNL     1     -11.937   8.893  21.348  1.00  0.00    -0.336 N 
HETATM   40  C1  UNL     1     -11.796   9.534  20.272  1.00  0.00     0.124 C 
HETATM   41  N1  UNL     1     -11.451   8.840  19.158  1.00  0.00    -0.279 NA
HETATM   42  N2  UNL     1     -11.978  10.823  19.919  1.00  0.00    -0.279 NA
HETATM   43  H1  UNL     1     -11.477   7.846  19.367  1.00  0.00     0.126 HD
HETATM   44  H2  UNL     1     -12.070   9.047  18.384  1.00  0.00     0.126 HD
HETATM   45  H3  UNL     1     -12.136  11.494  20.653  1.00  0.00     0.126 HD
HETATM   46  H4  UNL     1     -11.316  11.153  19.230  1.00  0.00     0.126 HD
ATOM     47  H3  UNL     1     -11.833   7.885  21.228  1.00  0.00     0.165 HD
ENDBRANCH   1  39
BRANCH   1  48
HETATM   48  C3  UNL     1     -10.965   9.877  23.453  1.00  0.00     0.070 C 
BRANCH  48  49
HETATM   49  C4  UNL     1     -11.059  11.259  24.138  1.00  0.00     0.043 C 
BRANCH  49  50
HETATM   50  C5  UNL     1     -10.272  12.436  23.533  1.00  0.00     0.058 C 
HETATM   51  C6  UNL     1      -9.064  12.909  24.367  1.00  0.00     0.038 C 
HETATM   52  C7  UNL     1      -7.897  13.109  23.386  1.00  0.00     0.003 C 
HETATM   53  C8  UNL     1      -8.513  13.026  22.000  1.00  0.00     0.003 C 
HETATM   54  C9  UNL     1      -9.635  12.021  22.192  1.00  0.00     0.038 C 
BRANCH  50  55
HETATM   55  O1  UNL     1     -11.149  13.522  23.242  1.00  0.00    -0.390 OA
HETATM   56  H9  UNL     1     -11.068  14.173  23.966  1.00  0.00     0.210 HD
ENDBRANCH  50  55
ENDBRANCH  49  50
ENDBRANCH  48  49
ENDBRANCH   1  48
BRANCH  38  57
HETATM   57 NA1  UNL     1     -13.855   5.514  25.619  1.00  0.00    -0.383 Na
ATOM     58 2HA1 UNL     1     -14.702   4.956  25.728  1.00  0.00     0.091 HD
ATOM     59 1HA1 UNL     1     -13.186   4.902  26.087  1.00  0.00     0.091 HD
ENDBRANCH  38  57
BRANCH  11  60
HETATM   60  S1  UNL     1     -17.211   3.964  23.228  1.00  0.00     0.106 S 
HETATM   61  O3  UNL     1     -17.928   2.836  23.813  1.00  0.00    -0.595 OA
HETATM   62  O4  UNL     1     -17.917   4.650  22.149  1.00  0.00    -0.595 OA
HETATM   63  O5  UNL     1     -15.814   3.670  22.905  1.00  0.00    -0.595 OA
ENDBRANCH  11  60
BRANCH  20  64
HETATM   64  C28 UNL     1     -12.309   2.519  32.027  1.00  0.00     0.169 C 
BRANCH  64  65
HETATM   65  O6  UNL     1     -12.686   2.173  33.352  1.00  0.00    -0.400 OA
HETATM   66  H40 UNL     1     -13.001   1.258  33.354  1.00  0.00     0.209 HD
ENDBRANCH  64  65
ENDBRANCH  20  64
BRANCH  26  67
HETATM   67  O7  UNL     1     -21.145   0.503  29.816  1.00  0.00    -0.361 OA
HETATM   68  H44 UNL     1     -21.693   0.107  29.114  1.00  0.00     0.217 HD
ENDBRANCH  26  67
TORSDOF 10
ENDMDL
MODEL 5
REMARK minimizedAffinity -7.71755838
REMARK CNNscore 0.169430763
REMARK CNNaffinity 6.91093302
REMARK  10 active torsions:
REMARK  status: ('A' for Active; 'I' for Inactive)
REMARK       I    between atoms: N1_1  and  C1_2 
REMARK       I    between atoms: C1_2  and  N2_3 
REMARK    1  A    between atoms: N3_4  and  C2_6 
REMARK    2  A    between atoms: C2_6  and  C3_7 
REMARK    3  A    between atoms: C3_7  and  C4_8 
REMARK    4  A    between atoms: C4_8  and  C5_9 
REMARK    5  A    between atoms: C5_9  and  O1_10 
REMARK    6  A    between atoms: C18_24  and  S1_25 
REMARK    7  A    between atoms: C27_37  and  C28_38 
REMARK    8  A    between atoms: C28_38  and  O6_39 
REMARK    9  A    between atoms: C34_45  and  O7_46 
REMARK   10  A    between atoms: C45_58  and  NA1_59 
ROOT
HETATM    1  C2  UNL     1     -15.314   2.849  29.073  1.00  0.00     0.170 C 
HETATM    2  O2  UNL     1     -14.091   2.006  29.067  1.00  0.00    -0.316 OA
HETATM    3  C10 UNL     1     -13.633   1.643  27.822  1.00  0.00     0.072 C 
HETATM    4  C11 UNL     1     -14.447   1.103  26.831  1.00  0.00     0.037 C 
HETATM    5  C12 UNL     1     -14.047   1.200  25.502  1.00  0.00     0.010 C 
HETATM    6  C13 UNL     1     -12.829   1.815  25.182  1.00  0.00    -0.058 C 
HETATM    7  C14 UNL     1     -11.911   2.100  26.204  1.00  0.00     0.010 C 
HETATM    8  C15 UNL     1     -12.317   2.006  27.532  1.00  0.00     0.037 C 
HETATM    9  C16 UNL     1     -12.737   2.558  23.849  1.00  0.00     0.040 C 
HETATM   10  C17 UNL     1     -13.413   3.918  24.135  1.00  0.00     0.028 C 
HETATM   11  C18 UNL     1     -13.592   4.957  23.020  1.00  0.00     0.139 C 
HETATM   12  C19 UNL     1     -13.579   6.411  23.616  1.00  0.00     0.038 C 
HETATM   13  C20 UNL     1     -13.478   7.533  22.593  1.00  0.00    -0.014 C 
HETATM   14  C21 UNL     1     -14.528   8.354  22.395  1.00  0.00    -0.050 C 
HETATM   15  C22 UNL     1     -15.861   7.989  22.960  1.00  0.00     0.042 C 
HETATM   16  C23 UNL     1     -15.661   7.903  24.451  1.00  0.00     0.001 C 
HETATM   17  C24 UNL     1     -15.461   9.360  24.976  1.00  0.00     0.037 C 
HETATM   18  C25 UNL     1     -14.309  10.241  24.364  1.00  0.00     0.123 C 
HETATM   19  C26 UNL     1     -14.195  11.478  25.302  1.00  0.00     0.039 C 
HETATM   20  C27 UNL     1     -13.217  12.619  24.919  1.00  0.00     0.023 C 
HETATM   21  C29 UNL     1     -11.762  12.142  24.737  1.00  0.00     0.101 C 
HETATM   22  C30 UNL     1     -11.600  11.592  23.398  1.00  0.00    -0.101 C 
HETATM   23  C31 UNL     1     -11.736  11.142  22.296  1.00  0.00    -0.066 C 
HETATM   24  C32 UNL     1     -12.119  10.623  21.031  1.00  0.00     0.029 A 
HETATM   25  C33 UNL     1     -11.205  10.733  19.971  1.00  0.00     0.057 A 
HETATM   26  C34 UNL     1     -11.511  10.209  18.719  1.00  0.00     0.067 A 
HETATM   27  C35 UNL     1     -12.724   9.574  18.502  1.00  0.00     0.037 A 
HETATM   28  C36 UNL     1     -13.641   9.479  19.551  1.00  0.00     0.014 A 
HETATM   29  C37 UNL     1     -13.364  10.001  20.841  1.00  0.00    -0.006 A 
HETATM   30  C38 UNL     1     -14.445   9.770  21.909  1.00  0.00     0.185 C 
HETATM   31  O8  UNL     1     -14.544  10.712  23.016  1.00  0.00    -0.371 OA
HETATM   32  C39 UNL     1     -14.475   6.936  24.842  1.00  0.00     0.030 C 
HETATM   33  C40 UNL     1     -14.784   5.977  25.991  1.00  0.00    -0.054 A 
HETATM   34  C41 UNL     1     -13.853   5.810  27.029  1.00  0.00     0.141 A 
HETATM   35  C42 UNL     1     -14.049   4.851  28.031  1.00  0.00     0.014 A 
HETATM   36  C43 UNL     1     -15.181   4.015  28.040  1.00  0.00    -0.005 A 
HETATM   37  C44 UNL     1     -16.134   4.223  27.027  1.00  0.00     0.007 A 
HETATM   38  C45 UNL     1     -15.946   5.194  26.028  1.00  0.00     0.086 A 
ENDROOT
BRANCH   1  39
HETATM   39  N3  UNL     1     -16.531   2.065  28.836  1.00  0.00    -0.336 N 
HETATM   40  C1  UNL     1     -17.749   2.238  29.108  1.00  0.00     0.124 C 
HETATM   41  N1  UNL     1     -18.639   1.319  28.654  1.00  0.00    -0.279 NA
HETATM   42  N2  UNL     1     -18.425   3.143  29.845  1.00  0.00    -0.279 NA
HETATM   43  H1  UNL     1     -18.130   0.541  28.244  1.00  0.00     0.126 HD
HETATM   44  H2  UNL     1     -19.241   0.986  29.396  1.00  0.00     0.126 HD
HETATM   45  H3  UNL     1     -17.924   3.953  30.169  1.00  0.00     0.126 HD
HETATM   46  H4  UNL     1     -19.335   3.374  29.470  1.00  0.00     0.126 HD
ATOM     47  H3  UNL     1     -16.352   1.189  28.344  1.00  0.00     0.165 HD
ENDBRANCH   1  39
BRANCH   1  48
HETATM   48  C3  UNL     1     -15.283   3.482  30.503  1.00  0.00     0.070 C 
BRANCH  48  49
HETATM   49  C4  UNL     1     -14.840   2.625  31.711  1.00  0.00     0.043 C 
BRANCH  49  50
HETATM   50  C5  UNL     1     -14.279   3.339  32.954  1.00  0.00     0.058 C 
HETATM   51  C6  UNL     1     -14.290   4.879  32.882  1.00  0.00     0.038 C 
HETATM   52  C7  UNL     1     -14.817   5.384  34.235  1.00  0.00     0.003 C 
HETATM   53  C8  UNL     1     -14.832   4.168  35.145  1.00  0.00     0.003 C 
HETATM   54  C9  UNL     1     -15.155   3.036  34.185  1.00  0.00     0.038 C 
BRANCH  50  55
HETATM   55  O1  UNL     1     -12.975   2.851  33.259  1.00  0.00    -0.390 OA
HETATM   56  H9  UNL     1     -12.327   3.494  32.913  1.00  0.00     0.210 HD
ENDBRANCH  50  55
ENDBRANCH  49  50
ENDBRANCH  48  49
ENDBRANCH   1  48
BRANCH  38  57
HETATM   57 NA1  UNL     1     -14.650   6.623  25.832  1.00  0.00    -0.383 Na
ATOM     58 2HA1 UNL     1     -14.394   6.743  24.852  1.00  0.00     0.091 HD
ATOM     59 1HA1 UNL     1     -15.085   7.529  26.008  1.00  0.00     0.091 HD
ENDBRANCH  38  57
BRANCH  11  60
HETATM   60  S1  UNL     1     -14.994   4.540  21.969  1.00  0.00     0.106 S 
HETATM   61  O3  UNL     1     -14.977   5.548  20.914  1.00  0.00    -0.595 OA
HETATM   62  O4  UNL     1     -14.735   3.175  21.521  1.00  0.00    -0.595 OA
HETATM   63  O5  UNL     1     -16.149   4.643  22.863  1.00  0.00    -0.595 OA
ENDBRANCH  11  60
BRANCH  20  64
HETATM   64  C28 UNL     1     -13.274  13.730  25.985  1.00  0.00     0.169 C 
BRANCH  64  65
HETATM   65  O6  UNL     1     -14.506  14.436  25.974  1.00  0.00    -0.400 OA
HETATM   66  H40 UNL     1     -15.218  13.816  26.186  1.00  0.00     0.209 HD
ENDBRANCH  64  65
ENDBRANCH  20  64
BRANCH  26  67
HETATM   67  O7  UNL     1     -10.579  10.319  17.731  1.00  0.00    -0.361 OA
HETATM   68  H44 UNL     1     -10.902   9.813  16.963  1.00  0.00     0.217 HD
ENDBRANCH  26  67
TORSDOF 10
ENDMDL
MODEL 6
REMARK minimizedAffinity -7.59011889
REMARK CNNscore 0.147304624
REMARK CNNaffinity 6.25106382
REMARK  10 active torsions:
REMARK  status: ('A' for Active; 'I' for Inactive)
REMARK       I    between atoms: N1_1  and  C1_2 
REMARK       I    between atoms: C1_2  and  N2_3 
REMARK    1  A    between atoms: N3_4  and  C2_6 
REMARK    2  A    between atoms: C2_6  and  C3_7 
REMARK    3  A    between atoms: C3_7  and  C4_8 
REMARK    4  A    between atoms: C4_8  and  C5_9 
REMARK    5  A    between atoms: C5_9  and  O1_10 
REMARK    6  A    between atoms: C18_24  and  S1_25 
REMARK    7  A    between atoms: C27_37  and  C28_38 
REMARK    8  A    between atoms: C28_38  and  O6_39 
REMARK    9  A    between atoms: C34_45  and  O7_46 
REMARK   10  A    between atoms: C45_58  and  NA1_59 
ROOT
HETATM    1  C2  UNL     1     -12.634   9.121  24.144  1.00  0.00     0.170 C 
HETATM    2  O2  UNL     1     -12.406   7.758  24.688  1.00  0.00    -0.316 OA
HETATM    3  C10 UNL     1     -13.436   6.868  24.496  1.00  0.00     0.072 C 
HETATM    4  C11 UNL     1     -14.765   7.155  24.793  1.00  0.00     0.037 C 
HETATM    5  C12 UNL     1     -15.770   6.430  24.161  1.00  0.00     0.010 C 
HETATM    6  C13 UNL     1     -15.434   5.412  23.257  1.00  0.00    -0.058 C 
HETATM    7  C14 UNL     1     -14.107   4.963  23.186  1.00  0.00     0.010 C 
HETATM    8  C15 UNL     1     -13.105   5.695  23.817  1.00  0.00     0.037 C 
HETATM    9  C16 UNL     1     -16.386   5.156  22.088  1.00  0.00     0.040 C 
HETATM   10  C17 UNL     1     -16.024   6.258  21.068  1.00  0.00     0.028 C 
HETATM   11  C18 UNL     1     -16.805   6.402  19.755  1.00  0.00     0.139 C 
HETATM   12  C19 UNL     1     -15.883   6.998  18.629  1.00  0.00     0.038 C 
HETATM   13  C20 UNL     1     -16.455   6.938  17.221  1.00  0.00    -0.014 C 
HETATM   14  C21 UNL     1     -16.807   8.077  16.592  1.00  0.00    -0.050 C 
HETATM   15  C22 UNL     1     -16.902   9.346  17.375  1.00  0.00     0.042 C 
HETATM   16  C23 UNL     1     -15.525   9.578  17.942  1.00  0.00     0.001 C 
HETATM   17  C24 UNL     1     -14.597   9.984  16.755  1.00  0.00     0.037 C 
HETATM   18  C25 UNL     1     -14.474   9.019  15.517  1.00  0.00     0.123 C 
HETATM   19  C26 UNL     1     -13.269   9.559  14.692  1.00  0.00     0.039 C 
HETATM   20  C27 UNL     1     -12.939   8.897  13.330  1.00  0.00     0.023 C 
HETATM   21  C29 UNL     1     -12.683   7.380  13.432  1.00  0.00     0.101 C 
HETATM   22  C30 UNL     1     -13.957   6.676  13.434  1.00  0.00    -0.101 C 
HETATM   23  C31 UNL     1     -15.107   6.341  13.483  1.00  0.00    -0.066 C 
HETATM   24  C32 UNL     1     -16.512   6.163  13.584  1.00  0.00     0.029 A 
HETATM   25  C33 UNL     1     -17.082   5.053  12.939  1.00  0.00     0.057 A 
HETATM   26  C34 UNL     1     -18.447   4.807  13.034  1.00  0.00     0.067 A 
HETATM   27  C35 UNL     1     -19.264   5.656  13.765  1.00  0.00     0.037 A 
HETATM   28  C36 UNL     1     -18.701   6.769  14.393  1.00  0.00     0.014 A 
HETATM   29  C37 UNL     1     -17.313   7.053  14.318  1.00  0.00    -0.006 A 
HETATM   30  C38 UNL     1     -16.831   8.280  15.107  1.00  0.00     0.185 C 
HETATM   31  O8  UNL     1     -15.634   8.976  14.653  1.00  0.00    -0.371 OA
HETATM   32  C39 UNL     1     -14.991   8.328  18.747  1.00  0.00     0.030 C 
HETATM   33  C40 UNL     1     -14.341   8.663  20.089  1.00  0.00    -0.054 A 
HETATM   34  C41 UNL     1     -13.115   8.072  20.436  1.00  0.00     0.141 A 
HETATM   35  C42 UNL     1     -12.554   8.260  21.706  1.00  0.00     0.014 A 
HETATM   36  C43 UNL     1     -13.192   9.043  22.686  1.00  0.00    -0.005 A 
HETATM   37  C44 UNL     1     -14.394   9.672  22.314  1.00  0.00     0.007 A 
HETATM   38  C45 UNL     1     -14.952   9.496  21.036  1.00  0.00     0.086 A 
ENDROOT
BRANCH   1  39
HETATM   39  N3  UNL     1     -13.510   9.924  25.006  1.00  0.00    -0.336 N 
HETATM   40  C1  UNL     1     -14.753  10.128  25.041  1.00  0.00     0.124 C 
HETATM   41  N1  UNL     1     -15.245  10.886  26.053  1.00  0.00    -0.279 NA
HETATM   42  N2  UNL     1     -15.778   9.807  24.225  1.00  0.00    -0.279 NA
HETATM   43  H1  UNL     1     -14.469  11.278  26.579  1.00  0.00     0.126 HD
HETATM   44  H2  UNL     1     -15.838  11.629  25.707  1.00  0.00     0.126 HD
HETATM   45  H3  UNL     1     -15.599   9.157  23.478  1.00  0.00     0.126 HD
HETATM   46  H4  UNL     1     -16.640   9.606  24.715  1.00  0.00     0.126 HD
ATOM     47  H3  UNL     1     -13.002  10.425  25.734  1.00  0.00     0.165 HD
ENDBRANCH   1  39
BRANCH   1  48
HETATM   48  C3  UNL     1     -11.184   9.702  24.062  1.00  0.00     0.070 C 
BRANCH  48  49
HETATM   49  C4  UNL     1     -10.924  11.004  23.272  1.00  0.00     0.043 C 
BRANCH  49  50
HETATM   50  C5  UNL     1     -10.820  12.329  24.050  1.00  0.00     0.058 C 
HETATM   51  C6  UNL     1      -9.397  12.704  24.510  1.00  0.00     0.038 C 
HETATM   52  C7  UNL     1      -9.205  14.195  24.191  1.00  0.00     0.003 C 
HETATM   53  C8  UNL     1     -10.584  14.713  23.821  1.00  0.00     0.003 C 
HETATM   54  C9  UNL     1     -11.223  13.511  23.147  1.00  0.00     0.038 C 
BRANCH  50  55
HETATM   55  O1  UNL     1     -11.731  12.332  25.147  1.00  0.00    -0.390 OA
HETATM   56  H9  UNL     1     -11.225  12.115  25.954  1.00  0.00     0.210 HD
ENDBRANCH  50  55
ENDBRANCH  49  50
ENDBRANCH  48  49
ENDBRANCH   1  48
BRANCH  38  57
HETATM   57 NA1  UNL     1     -14.260   8.686  19.416  1.00  0.00    -0.383 Na
ATOM     58 2HA1 UNL     1     -15.002   8.200  18.912  1.00  0.00     0.091 HD
ATOM     59 1HA1 UNL     1     -14.026   9.402  18.728  1.00  0.00     0.091 HD
ENDBRANCH  38  57
BRANCH  11  60
HETATM   60  S1  UNL     1     -18.374   7.242  20.026  1.00  0.00     0.106 S 
HETATM   61  O3  UNL     1     -19.120   7.040  18.789  1.00  0.00    -0.595 OA
HETATM   62  O4  UNL     1     -18.948   6.597  21.204  1.00  0.00    -0.595 OA
HETATM   63  O5  UNL     1     -17.993   8.636  20.263  1.00  0.00    -0.595 OA
ENDBRANCH  11  60
BRANCH  20  64
HETATM   64  C28 UNL     1     -11.718   9.592  12.697  1.00  0.00     0.169 C 
BRANCH  64  65
HETATM   65  O6  UNL     1     -11.561   9.277  11.321  1.00  0.00    -0.400 OA
HETATM   66  H40 UNL     1     -12.337   9.597  10.841  1.00  0.00     0.209 HD
ENDBRANCH  64  65
ENDBRANCH  20  64
BRANCH  26  67
HETATM   67  O7  UNL     1     -18.946   3.702  12.411  1.00  0.00    -0.361 OA
HETATM   68  H44 UNL     1     -19.884   3.619  12.664  1.00  0.00     0.217 HD
ENDBRANCH  26  67
TORSDOF 10
ENDMDL
MODEL 7
REMARK minimizedAffinity -9.298522
REMARK CNNscore 0.134206906
REMARK CNNaffinity 6.34889078
REMARK  10 active torsions:
REMARK  status: ('A' for Active; 'I' for Inactive)
REMARK       I    between atoms: N1_1  and  C1_2 
REMARK       I    between atoms: C1_2  and  N2_3 
REMARK    1  A    between atoms: N3_4  and  C2_6 
REMARK    2  A    between atoms: C2_6  and  C3_7 
REMARK    3  A    between atoms: C3_7  and  C4_8 
REMARK    4  A    between atoms: C4_8  and  C5_9 
REMARK    5  A    between atoms: C5_9  and  O1_10 
REMARK    6  A    between atoms: C18_24  and  S1_25 
REMARK    7  A    between atoms: C27_37  and  C28_38 
REMARK    8  A    between atoms: C28_38  and  O6_39 
REMARK    9  A    between atoms: C34_45  and  O7_46 
REMARK   10  A    between atoms: C45_58  and  NA1_59 
ROOT
HETATM    1  C2  UNL     1     -11.481  12.175  23.432  1.00  0.00     0.170 C 
HETATM    2  O2  UNL     1     -10.763  11.175  24.263  1.00  0.00    -0.316 OA
HETATM    3  C10 UNL     1     -11.455  10.013  24.515  1.00  0.00     0.072 C 
HETATM    4  C11 UNL     1     -12.768   9.986  24.975  1.00  0.00     0.037 C 
HETATM    5  C12 UNL     1     -13.534   8.844  24.761  1.00  0.00     0.010 C 
HETATM    6  C13 UNL     1     -12.971   7.736  24.112  1.00  0.00    -0.058 C 
HETATM    7  C14 UNL     1     -11.584   7.687  23.909  1.00  0.00     0.010 C 
HETATM    8  C15 UNL     1     -10.823   8.834  24.120  1.00  0.00     0.037 C 
HETATM    9  C16 UNL     1     -13.894   6.868  23.258  1.00  0.00     0.040 C 
HETATM   10  C17 UNL     1     -14.019   7.652  21.932  1.00  0.00     0.028 C 
HETATM   11  C18 UNL     1     -14.928   7.149  20.803  1.00  0.00     0.139 C 
HETATM   12  C19 UNL     1     -14.370   7.602  19.405  1.00  0.00     0.038 C 
HETATM   13  C20 UNL     1     -15.026   6.945  18.200  1.00  0.00    -0.014 C 
HETATM   14  C21 UNL     1     -15.794   7.681  17.372  1.00  0.00    -0.050 C 
HETATM   15  C22 UNL     1     -16.225   9.047  17.793  1.00  0.00     0.042 C 
HETATM   16  C23 UNL     1     -14.954   9.828  18.004  1.00  0.00     0.001 C 
HETATM   17  C24 UNL     1     -14.333  10.092  16.597  1.00  0.00     0.037 C 
HETATM   18  C25 UNL     1     -14.020   8.867  15.659  1.00  0.00     0.123 C 
HETATM   19  C26 UNL     1     -13.149   9.445  14.505  1.00  0.00     0.039 C 
HETATM   20  C27 UNL     1     -12.754   8.514  13.329  1.00  0.00     0.023 C 
HETATM   21  C29 UNL     1     -12.002   7.245  13.778  1.00  0.00     0.101 C 
HETATM   22  C30 UNL     1     -12.966   6.243  14.211  1.00  0.00    -0.101 C 
HETATM   23  C31 UNL     1     -13.929   5.626  14.566  1.00  0.00    -0.066 C 
HETATM   24  C32 UNL     1     -15.180   5.093  14.978  1.00  0.00     0.029 A 
HETATM   25  C33 UNL     1     -15.411   3.724  14.771  1.00  0.00     0.057 A 
HETATM   26  C34 UNL     1     -16.602   3.139  15.188  1.00  0.00     0.067 A 
HETATM   27  C35 UNL     1     -17.577   3.902  15.811  1.00  0.00     0.037 A 
HETATM   28  C36 UNL     1     -17.355   5.268  16.002  1.00  0.00     0.014 A 
HETATM   29  C37 UNL     1     -16.153   5.899  15.590  1.00  0.00    -0.006 A 
HETATM   30  C38 UNL     1     -16.029   7.395  15.918  1.00  0.00     0.185 C 
HETATM   31  O8  UNL     1     -15.180   8.227  15.076  1.00  0.00    -0.371 OA
HETATM   32  C39 UNL     1     -13.961   9.100  18.993  1.00  0.00     0.030 C 
HETATM   33  C40 UNL     1     -13.329  10.007  20.049  1.00  0.00    -0.054 A 
HETATM   34  C41 UNL     1     -11.949   9.931  20.298  1.00  0.00     0.141 A 
HETATM   35  C42 UNL     1     -11.360  10.658  21.340  1.00  0.00     0.014 A 
HETATM   36  C43 UNL     1     -12.122  11.490  22.182  1.00  0.00    -0.005 A 
HETATM   37  C44 UNL     1     -13.494  11.600  21.895  1.00  0.00     0.007 A 
HETATM   38  C45 UNL     1     -14.086  10.883  20.840  1.00  0.00     0.086 A 
ENDROOT
BRANCH   1  39
HETATM   39  N3  UNL     1     -12.484  12.920  24.203  1.00  0.00    -0.336 N 
HETATM   40  C1  UNL     1     -12.532  14.087  24.676  1.00  0.00     0.124 C 
HETATM   41  N1  UNL     1     -13.681  14.481  25.282  1.00  0.00    -0.279 NA
HETATM   42  N2  UNL     1     -11.637  15.089  24.791  1.00  0.00    -0.279 NA
HETATM   43  H1  UNL     1     -14.306  13.682  25.356  1.00  0.00     0.126 HD
HETATM   44  H2  UNL     1     -13.504  14.867  26.199  1.00  0.00     0.126 HD
HETATM   45  H3  UNL     1     -10.762  14.997  24.301  1.00  0.00     0.126 HD
HETATM   46  H4  UNL     1     -12.042  16.010  24.691  1.00  0.00     0.126 HD
ATOM     47  H3  UNL     1     -13.323  12.375  24.397  1.00  0.00     0.165 HD
ENDBRANCH   1  39
BRANCH   1  48
HETATM   48  C3  UNL     1     -10.319  13.091  22.924  1.00  0.00     0.070 C 
BRANCH  48  49
HETATM   49  C4  UNL     1      -8.858  12.597  23.016  1.00  0.00     0.043 C 
BRANCH  49  50
HETATM   50  C5  UNL     1      -7.753  13.438  22.350  1.00  0.00     0.058 C 
HETATM   51  C6  UNL     1      -6.314  12.966  22.638  1.00  0.00     0.038 C 
HETATM   52  C7  UNL     1      -5.560  12.994  21.298  1.00  0.00     0.003 C 
HETATM   53  C8  UNL     1      -6.472  13.734  20.334  1.00  0.00     0.003 C 
HETATM   54  C9  UNL     1      -7.858  13.340  20.816  1.00  0.00     0.038 C 
BRANCH  50  55
HETATM   55  O1  UNL     1      -7.915  14.816  22.678  1.00  0.00    -0.390 OA
HETATM   56  H9  UNL     1      -7.288  15.027  23.396  1.00  0.00     0.210 HD
ENDBRANCH  50  55
ENDBRANCH  49  50
ENDBRANCH  48  49
ENDBRANCH   1  48
BRANCH  38  57
HETATM   57 NA1  UNL     1     -13.327   9.841  19.391  1.00  0.00    -0.383 Na
ATOM     58 2HA1 UNL     1     -13.913   9.032  19.185  1.00  0.00     0.091 HD
ATOM     59 1HA1 UNL     1     -13.412  10.343  18.506  1.00  0.00     0.091 HD
ENDBRANCH  38  57
BRANCH  11  60
HETATM   60  S1  UNL     1     -16.652   7.546  21.138  1.00  0.00     0.106 S 
HETATM   61  O3  UNL     1     -16.874   7.100  22.510  1.00  0.00    -0.595 OA
HETATM   62  O4  UNL     1     -16.754   8.988  20.936  1.00  0.00    -0.595 OA
HETATM   63  O5  UNL     1     -17.393   6.772  20.141  1.00  0.00    -0.595 OA
ENDBRANCH  11  60
BRANCH  20  64
HETATM   64  C28 UNL     1     -11.900   9.297  12.314  1.00  0.00     0.169 C 
BRANCH  64  65
HETATM   65  O6  UNL     1     -12.687  10.034  11.389  1.00  0.00    -0.400 OA
HETATM   66  H40 UNL     1     -13.202  10.691  11.879  1.00  0.00     0.209 HD
ENDBRANCH  64  65
ENDBRANCH  20  64
BRANCH  26  67
HETATM   67  O7  UNL     1     -16.766   1.801  14.987  1.00  0.00    -0.361 OA
HETATM   68  H44 UNL     1     -17.595   1.537  15.428  1.00  0.00     0.217 HD
ENDBRANCH  26  67
TORSDOF 10
ENDMDL
MODEL 8
REMARK minimizedAffinity -8.12002182
REMARK CNNscore 0.133627027
REMARK CNNaffinity 5.68634987
REMARK  10 active torsions:
REMARK  status: ('A' for Active; 'I' for Inactive)
REMARK       I    between atoms: N1_1  and  C1_2 
REMARK       I    between atoms: C1_2  and  N2_3 
REMARK    1  A    between atoms: N3_4  and  C2_6 
REMARK    2  A    between atoms: C2_6  and  C3_7 
REMARK    3  A    between atoms: C3_7  and  C4_8 
REMARK    4  A    between atoms: C4_8  and  C5_9 
REMARK    5  A    between atoms: C5_9  and  O1_10 
REMARK    6  A    between atoms: C18_24  and  S1_25 
REMARK    7  A    between atoms: C27_37  and  C28_38 
REMARK    8  A    between atoms: C28_38  and  O6_39 
REMARK    9  A    between atoms: C34_45  and  O7_46 
REMARK   10  A    between atoms: C45_58  and  NA1_59 
ROOT
HETATM    1  C2  UNL     1     -12.149  12.069  23.956  1.00  0.00     0.170 C 
HETATM    2  O2  UNL     1     -11.226  11.120  24.630  1.00  0.00    -0.316 OA
HETATM    3  C10 UNL     1     -11.707   9.842  24.788  1.00  0.00     0.072 C 
HETATM    4  C11 UNL     1     -12.963   9.553  25.311  1.00  0.00     0.037 C 
HETATM    5  C12 UNL     1     -13.553   8.329  25.013  1.00  0.00     0.010 C 
HETATM    6  C13 UNL     1     -12.871   7.400  24.215  1.00  0.00    -0.058 C 
HETATM    7  C14 UNL     1     -11.511   7.600  23.933  1.00  0.00     0.010 C 
HETATM    8  C15 UNL     1     -10.927   8.828  24.230  1.00  0.00     0.037 C 
HETATM    9  C16 UNL     1     -13.705   6.484  23.319  1.00  0.00     0.040 C 
HETATM   10  C17 UNL     1     -14.045   7.368  22.098  1.00  0.00     0.028 C 
HETATM   11  C18 UNL     1     -14.942   6.841  20.971  1.00  0.00     0.139 C 
HETATM   12  C19 UNL     1     -14.562   7.518  19.604  1.00  0.00     0.038 C 
HETATM   13  C20 UNL     1     -15.191   6.889  18.370  1.00  0.00    -0.014 C 
HETATM   14  C21 UNL     1     -16.121   7.570  17.671  1.00  0.00    -0.050 C 
HETATM   15  C22 UNL     1     -16.731   8.797  18.266  1.00  0.00     0.042 C 
HETATM   16  C23 UNL     1     -15.586   9.750  18.494  1.00  0.00     0.001 C 
HETATM   17  C24 UNL     1     -15.116  10.253  17.094  1.00  0.00     0.037 C 
HETATM   18  C25 UNL     1     -14.682   9.198  16.009  1.00  0.00     0.123 C 
HETATM   19  C26 UNL     1     -13.996  10.025  14.882  1.00  0.00     0.039 C 
HETATM   20  C27 UNL     1     -13.544   9.296  13.590  1.00  0.00     0.023 C 
HETATM   21  C29 UNL     1     -12.573   8.129  13.854  1.00  0.00     0.101 C 
HETATM   22  C30 UNL     1     -13.334   6.943  14.223  1.00  0.00    -0.101 C 
HETATM   23  C31 UNL     1     -14.161   6.144  14.557  1.00  0.00    -0.066 C 
HETATM   24  C32 UNL     1     -15.280   5.374  14.974  1.00  0.00     0.029 A 
HETATM   25  C33 UNL     1     -15.308   4.014  14.628  1.00  0.00     0.057 A 
HETATM   26  C34 UNL     1     -16.359   3.203  15.040  1.00  0.00     0.067 A 
HETATM   27  C35 UNL     1     -17.395   3.729  15.796  1.00  0.00     0.037 A 
HETATM   28  C36 UNL     1     -17.378   5.086  16.126  1.00  0.00     0.014 A 
HETATM   29  C37 UNL     1     -16.322   5.944  15.724  1.00  0.00    -0.006 A 
HETATM   30  C38 UNL     1     -16.411   7.399  16.210  1.00  0.00     0.185 C 
HETATM   31  O8  UNL     1     -15.765   8.439  15.422  1.00  0.00    -0.371 OA
HETATM   32  C39 UNL     1     -14.424   9.097  19.341  1.00  0.00     0.030 C 
HETATM   33  C40 UNL     1     -13.869   9.983  20.456  1.00  0.00    -0.054 A 
HETATM   34  C41 UNL     1     -12.480  10.109  20.620  1.00  0.00     0.141 A 
HETATM   35  C42 UNL     1     -11.940  10.813  21.704  1.00  0.00     0.014 A 
HETATM   36  C43 UNL     1     -12.761  11.419  22.674  1.00  0.00    -0.005 A 
HETATM   37  C44 UNL     1     -14.151  11.332  22.475  1.00  0.00     0.007 A 
HETATM   38  C45 UNL     1     -14.695  10.638  21.380  1.00  0.00     0.086 A 
ENDROOT
BRANCH   1  39
HETATM   39  N3  UNL     1     -13.199  12.557  24.858  1.00  0.00    -0.336 N 
HETATM   40  C1  UNL     1     -14.364  12.166  25.135  1.00  0.00     0.124 C 
HETATM   41  N1  UNL     1     -15.045  12.830  26.103  1.00  0.00    -0.279 NA
HETATM   42  N2  UNL     1     -15.182  11.222  24.625  1.00  0.00    -0.279 NA
HETATM   43  H1  UNL     1     -14.511  13.650  26.379  1.00  0.00     0.126 HD
HETATM   44  H2  UNL     1     -15.965  13.107  25.788  1.00  0.00     0.126 HD
HETATM   45  H3  UNL     1     -14.792  10.570  23.964  1.00  0.00     0.126 HD
HETATM   46  H4  UNL     1     -15.764  10.771  25.318  1.00  0.00     0.126 HD
ATOM     47  H3  UNL     1     -12.926  13.395  25.371  1.00  0.00     0.165 HD
ENDBRANCH   1  39
BRANCH   1  48
HETATM   48  C3  UNL     1     -11.184  13.210  23.492  1.00  0.00     0.070 C 
BRANCH  48  49
HETATM   49  C4  UNL     1     -11.127  14.534  24.285  1.00  0.00     0.043 C 
BRANCH  49  50
HETATM   50  C5  UNL     1      -9.836  15.372  24.227  1.00  0.00     0.058 C 
HETATM   51  C6  UNL     1      -9.805  16.586  25.178  1.00  0.00     0.038 C 
HETATM   52  C7  UNL     1      -8.422  16.588  25.850  1.00  0.00     0.003 C 
HETATM   53  C8  UNL     1      -7.596  15.569  25.085  1.00  0.00     0.003 C 
HETATM   54  C9  UNL     1      -8.631  14.530  24.688  1.00  0.00     0.038 C 
BRANCH  50  55
HETATM   55  O1  UNL     1      -9.562  15.767  22.885  1.00  0.00    -0.390 OA
HETATM   56  H9  UNL     1      -9.862  16.690  22.778  1.00  0.00     0.210 HD
ENDBRANCH  50  55
ENDBRANCH  49  50
ENDBRANCH  48  49
ENDBRANCH   1  48
BRANCH  38  57
HETATM   57 NA1  UNL     1     -13.888   9.888  19.784  1.00  0.00    -0.383 Na
ATOM     58 2HA1 UNL     1     -14.352   9.019  19.521  1.00  0.00     0.091 HD
ATOM     59 1HA1 UNL     1     -14.112  10.456  18.967  1.00  0.00     0.091 HD
ENDBRANCH  38  57
BRANCH  11  60
HETATM   60  S1  UNL     1     -16.679   6.913  21.440  1.00  0.00     0.106 S 
HETATM   61  O3  UNL     1     -17.010   8.334  21.413  1.00  0.00    -0.595 OA
HETATM   62  O4  UNL     1     -17.372   6.099  20.445  1.00  0.00    -0.595 OA
HETATM   63  O5  UNL     1     -16.707   6.328  22.782  1.00  0.00    -0.595 OA
ENDBRANCH  11  60
BRANCH  20  64
HETATM   64  C28 UNL     1     -12.898  10.308  12.624  1.00  0.00     0.169 C 
BRANCH  64  65
HETATM   65  O6  UNL     1     -12.227   9.678  11.542  1.00  0.00    -0.400 OA
HETATM   66  H40 UNL     1     -12.876   9.181  11.024  1.00  0.00     0.209 HD
ENDBRANCH  64  65
ENDBRANCH  20  64
BRANCH  26  67
HETATM   67  O7  UNL     1     -16.325   1.884  14.700  1.00  0.00    -0.361 OA
HETATM   68  H44 UNL     1     -17.068   1.444  15.153  1.00  0.00     0.217 HD
ENDBRANCH  26  67
TORSDOF 10
ENDMDL
MODEL 9
REMARK minimizedAffinity -7.1904273
REMARK CNNscore 0.133045241
REMARK CNNaffinity 6.62818861
REMARK  10 active torsions:
REMARK  status: ('A' for Active; 'I' for Inactive)
REMARK       I    between atoms: N1_1  and  C1_2 
REMARK       I    between atoms: C1_2  and  N2_3 
REMARK    1  A    between atoms: N3_4  and  C2_6 
REMARK    2  A    between atoms: C2_6  and  C3_7 
REMARK    3  A    between atoms: C3_7  and  C4_8 
REMARK    4  A    between atoms: C4_8  and  C5_9 
REMARK    5  A    between atoms: C5_9  and  O1_10 
REMARK    6  A    between atoms: C18_24  and  S1_25 
REMARK    7  A    between atoms: C27_37  and  C28_38 
REMARK    8  A    between atoms: C28_38  and  O6_39 
REMARK    9  A    between atoms: C34_45  and  O7_46 
REMARK   10  A    between atoms: C45_58  and  NA1_59 
ROOT
HETATM    1  C2  UNL     1      15.648  -5.314   5.604  1.00  0.00     0.170 C 
HETATM    2  O2  UNL     1      15.011  -3.982   5.755  1.00  0.00    -0.316 OA
HETATM    3  C10 UNL     1      15.045  -3.183   4.636  1.00  0.00     0.072 C 
HETATM    4  C11 UNL     1      16.199  -2.947   3.896  1.00  0.00     0.037 C 
HETATM    5  C12 UNL     1      16.080  -2.543   2.570  1.00  0.00     0.010 C 
HETATM    6  C13 UNL     1      14.809  -2.357   2.008  1.00  0.00    -0.058 C 
HETATM    7  C14 UNL     1      13.683  -2.334   2.843  1.00  0.00     0.010 C 
HETATM    8  C15 UNL     1      13.807  -2.743   4.168  1.00  0.00     0.037 C 
HETATM    9  C16 UNL     1      14.643  -2.647   0.516  1.00  0.00     0.040 C 
HETATM   10  C17 UNL     1      14.509  -4.185   0.450  1.00  0.00     0.028 C 
HETATM   11  C18 UNL     1      14.389  -4.907  -0.899  1.00  0.00     0.139 C 
HETATM   12  C19 UNL     1      13.559  -6.232  -0.741  1.00  0.00     0.038 C 
HETATM   13  C20 UNL     1      13.141  -6.897  -2.044  1.00  0.00    -0.014 C 
HETATM   14  C21 UNL     1      13.683  -8.079  -2.396  1.00  0.00    -0.050 C 
HETATM   15  C22 UNL     1      14.883  -8.583  -1.663  1.00  0.00     0.042 C 
HETATM   16  C23 UNL     1      14.452  -8.721  -0.225  1.00  0.00     0.001 C 
HETATM   17  C24 UNL     1      13.476  -9.937  -0.149  1.00  0.00     0.037 C 
HETATM   18  C25 UNL     1      12.193  -9.945  -1.061  1.00  0.00     0.123 C 
HETATM   19  C26 UNL     1      11.313 -11.111  -0.522  1.00  0.00     0.039 C 
HETATM   20  C27 UNL     1      10.007 -11.472  -1.277  1.00  0.00     0.023 C 
HETATM   21  C29 UNL     1       9.031 -10.287  -1.414  1.00  0.00     0.101 C 
HETATM   22  C30 UNL     1       9.427  -9.466  -2.550  1.00  0.00    -0.101 C 
HETATM   23  C31 UNL     1       9.981  -8.932  -3.468  1.00  0.00    -0.066 C 
HETATM   24  C32 UNL     1      10.814  -8.433  -4.505  1.00  0.00     0.029 A 
HETATM   25  C33 UNL     1      10.195  -7.830  -5.612  1.00  0.00     0.057 A 
HETATM   26  C34 UNL     1      10.959  -7.291  -6.640  1.00  0.00     0.067 A 
HETATM   27  C35 UNL     1      12.344  -7.344  -6.587  1.00  0.00     0.037 A 
HETATM   28  C36 UNL     1      12.960  -7.959  -5.495  1.00  0.00     0.014 A 
HETATM   29  C37 UNL     1      12.213  -8.520  -4.427  1.00  0.00    -0.006 A 
HETATM   30  C38 UNL     1      13.031  -9.111  -3.268  1.00  0.00     0.185 C 
HETATM   31  O8  UNL     1      12.440 -10.175  -2.469  1.00  0.00    -0.371 OA
HETATM   32  C39 UNL     1      13.825  -7.387   0.342  1.00  0.00     0.030 C 
HETATM   33  C40 UNL     1      14.317  -6.992   1.735  1.00  0.00    -0.054 A 
HETATM   34  C41 UNL     1      13.393  -6.589   2.712  1.00  0.00     0.141 A 
HETATM   35  C42 UNL     1      13.818  -6.104   3.956  1.00  0.00     0.014 A 
HETATM   36  C43 UNL     1      15.185  -5.997   4.278  1.00  0.00    -0.005 A 
HETATM   37  C44 UNL     1      16.103  -6.449   3.313  1.00  0.00     0.007 A 
HETATM   38  C45 UNL     1      15.678  -6.950   2.069  1.00  0.00     0.086 A 
ENDROOT
BRANCH   1  39
HETATM   39  N3  UNL     1      17.112  -5.242   5.681  1.00  0.00    -0.336 N 
HETATM   40  C1  UNL     1      17.919  -4.653   6.449  1.00  0.00     0.124 C 
HETATM   41  N1  UNL     1      19.245  -4.878   6.274  1.00  0.00    -0.279 NA
HETATM   42  N2  UNL     1      17.779  -3.739   7.432  1.00  0.00    -0.279 NA
HETATM   43  H1  UNL     1      19.378  -5.429   5.430  1.00  0.00     0.126 HD
HETATM   44  H2  UNL     1      19.765  -4.013   6.206  1.00  0.00     0.126 HD
HETATM   45  H3  UNL     1      16.848  -3.538   7.758  1.00  0.00     0.126 HD
HETATM   46  H4  UNL     1      18.439  -3.853   8.190  1.00  0.00     0.126 HD
ATOM     47  H3  UNL     1      17.578  -5.786   4.955  1.00  0.00     0.165 HD
ENDBRANCH   1  39
BRANCH   1  48
HETATM   48  C3  UNL     1      15.029  -6.124   6.791  1.00  0.00     0.070 C 
BRANCH  48  49
HETATM   49  C4  UNL     1      14.632  -5.391   8.093  1.00  0.00     0.043 C 
BRANCH  49  50
HETATM   50  C5  UNL     1      13.143  -5.086   8.341  1.00  0.00     0.058 C 
HETATM   51  C6  UNL     1      12.276  -4.998   7.069  1.00  0.00     0.038 C 
HETATM   52  C7  UNL     1      10.987  -5.786   7.354  1.00  0.00     0.003 C 
HETATM   53  C8  UNL     1      11.006  -6.071   8.847  1.00  0.00     0.003 C 
HETATM   54  C9  UNL     1      12.488  -6.231   9.137  1.00  0.00     0.038 C 
BRANCH  50  55
HETATM   55  O1  UNL     1      13.005  -3.911   9.137  1.00  0.00    -0.390 OA
HETATM   56  H9  UNL     1      12.794  -3.169   8.539  1.00  0.00     0.210 HD
ENDBRANCH  50  55
ENDBRANCH  49  50
ENDBRANCH  48  49
ENDBRANCH   1  48
BRANCH  38  57
HETATM   57 NA1  UNL     1      13.925  -7.425   1.390  1.00  0.00    -0.383 Na
ATOM     58 2HA1 UNL     1      13.846  -7.188   0.402  1.00  0.00     0.091 HD
ATOM     59 1HA1 UNL     1      13.826  -8.439   1.331  1.00  0.00     0.091 HD
ENDBRANCH  38  57
BRANCH  11  60
HETATM   60  S1  UNL     1      15.998  -5.064  -1.693  1.00  0.00     0.106 S 
HETATM   61  O3  UNL     1      16.701  -6.071  -0.905  1.00  0.00    -0.595 OA
HETATM   62  O4  UNL     1      15.703  -5.454  -3.069  1.00  0.00    -0.595 OA
HETATM   63  O5  UNL     1      16.577  -3.724  -1.587  1.00  0.00    -0.595 OA
ENDBRANCH  11  60
BRANCH  20  64
HETATM   64  C28 UNL     1       9.307 -12.647  -0.568  1.00  0.00     0.169 C 
BRANCH  64  65
HETATM   65  O6  UNL     1       9.512 -12.640   0.838  1.00  0.00    -0.400 OA
HETATM   66  H40 UNL     1       9.125 -11.831   1.201  1.00  0.00     0.209 HD
ENDBRANCH  64  65
ENDBRANCH  20  64
BRANCH  26  67
HETATM   67  O7  UNL     1      10.310  -6.694  -7.679  1.00  0.00    -0.361 OA
HETATM   68  H44 UNL     1      10.984  -6.280  -8.249  1.00  0.00     0.217 HD
ENDBRANCH  26  67
TORSDOF 10
ENDMDL
