MODEL 1
REMARK minimizedAffinity -7.65304232
REMARK CNNscore 0.776385963
REMARK CNNaffinity 7.71416998
REMARK  12 active torsions:
REMARK  status: ('A' for Active; 'I' for Inactive)
REMARK    1  A    between atoms: O1_2  and  C2_3 
REMARK    2  A    between atoms: C2_3  and  C3_4 
REMARK    3  A    between atoms: C2_3  and  C7_8 
REMARK    4  A    between atoms: C7_8  and  C8_9 
REMARK    5  A    between atoms: C8_9  and  C10_11 
REMARK    6  A    between atoms: C28_30  and  O3_31 
REMARK    7  A    between atoms: O3_31  and  C29_32 
REMARK    8  A    between atoms: C30_34  and  C31_35 
REMARK    9  A    between atoms: C31_35  and  O5_36 
REMARK   10  A    between atoms: C32_37  and  O6_38 
REMARK   11  A    between atoms: C33_39  and  O7_40 
REMARK   12  A    between atoms: C34_41  and  O8_42 
ROOT
HETATM    1  C10 UNL     1       2.484  55.192  -8.747  1.00  0.00    -0.002 C 
HETATM    2  C11 UNL     1       1.304  56.021  -8.139  1.00  0.00     0.006 C 
HETATM    3  C12 UNL     1       0.007  55.208  -8.341  1.00  0.00     0.011 C 
HETATM    4  C13 UNL     1       0.500  53.789  -8.675  1.00  0.00    -0.029 C 
HETATM    5  C14 UNL     1       0.887  53.163  -7.281  1.00  0.00     0.016 C 
HETATM    6  C15 UNL     1      -0.507  52.790  -9.348  1.00  0.00     0.028 C 
HETATM    7  C16 UNL     1      -1.733  53.300 -10.054  1.00  0.00    -0.021 C 
HETATM    8  C17 UNL     1      -2.308  52.580 -11.035  1.00  0.00     0.008 C 
HETATM    9  C18 UNL     1      -1.671  51.327 -11.631  1.00  0.00     0.092 C 
HETATM   10  O2  UNL     1      -1.814  50.297 -10.612  1.00  0.00    -0.374 OA
HETATM   11  C19 UNL     1      -0.618  50.319  -9.773  1.00  0.00     0.179 C 
HETATM   12  C20 UNL     1       0.181  51.615 -10.155  1.00  0.00    -0.004 C 
HETATM   13  C21 UNL     1       1.686  51.489  -9.876  1.00  0.00     0.014 C 
HETATM   14  C22 UNL     1       2.502  52.802  -9.884  1.00  0.00     0.011 C 
HETATM   15  C23 UNL     1       1.723  54.106  -9.591  1.00  0.00    -0.032 C 
HETATM   16  C24 UNL     1       1.295  54.786 -10.921  1.00  0.00     0.016 C 
HETATM   17  C25 UNL     1      -0.144  51.471 -11.661  1.00  0.00     0.036 C 
HETATM   18  C26 UNL     1       0.309  52.335 -12.817  1.00  0.00     0.011 C 
HETATM   19  C27 UNL     1       0.009  51.591 -14.133  1.00  0.00     0.033 C 
HETATM   20  C28 UNL     1      -1.072  50.486 -14.001  1.00  0.00     0.136 C 
HETATM   21  C35 UNL     1      -2.251  50.908 -13.055  1.00  0.00     0.014 C 
HETATM   22  C36 UNL     1      -3.227  49.717 -12.911  1.00  0.00     0.021 C 
HETATM   23  C37 UNL     1      -3.045  52.042 -13.765  1.00  0.00     0.021 C 
ENDROOT
BRANCH  20  24
HETATM   24  O3  UNL     1      -1.578  50.190 -15.309  1.00  0.00    -0.352 OA
BRANCH  24  25
HETATM   25  C29 UNL     1      -1.131  51.075 -16.338  1.00  0.00     0.292 C 
HETATM   26  O4  UNL     1      -2.251  51.447 -17.143  1.00  0.00    -0.348 OA
HETATM   27  C30 UNL     1      -2.633  50.511 -18.162  1.00  0.00     0.179 C 
HETATM   28  C32 UNL     1      -1.481  50.220 -19.151  1.00  0.00     0.180 C 
HETATM   29  C33 UNL     1      -0.114  50.660 -18.616  1.00  0.00     0.183 C 
HETATM   30  C34 UNL     1       0.010  50.386 -17.123  1.00  0.00     0.204 C 
BRANCH  27  31
HETATM   31  C31 UNL     1      -3.210  49.214 -17.560  1.00  0.00     0.198 C 
BRANCH  31  32
HETATM   32  O5  UNL     1      -3.992  49.513 -16.407  1.00  0.00    -0.398 OA
HETATM   33  H48 UNL     1      -3.395  50.023 -15.821  1.00  0.00     0.209 HD
ENDBRANCH  31  32
ENDBRANCH  27  31
BRANCH  28  34
HETATM   34  O6  UNL     1      -1.704  50.929 -20.386  1.00  0.00    -0.390 OA
HETATM   35  H50 UNL     1      -1.097  50.553 -21.055  1.00  0.00     0.210 HD
ENDBRANCH  28  34
BRANCH  29  36
HETATM   36  O7  UNL     1       0.112  52.069 -18.842  1.00  0.00    -0.390 OA
HETATM   37  H52 UNL     1      -0.545  52.342 -19.517  1.00  0.00     0.210 HD
ENDBRANCH  29  36
BRANCH  30  38
HETATM   38  O8  UNL     1       1.287  50.860 -16.667  1.00  0.00    -0.388 OA
HETATM   39  H54 UNL     1       1.425  51.712 -17.132  1.00  0.00     0.210 HD
ENDBRANCH  30  38
ENDBRANCH  24  25
ENDBRANCH  20  24
BRANCH   1  40
HETATM   40  C8  UNL     1       3.556  56.104  -9.433  1.00  0.00    -0.011 C 
HETATM   41  C9  UNL     1       3.185  56.419 -10.884  1.00  0.00     0.010 C 
BRANCH  40  42
HETATM   42  C7  UNL     1       4.961  55.431  -9.361  1.00  0.00     0.040 C 
BRANCH  42  43
HETATM   43  C2  UNL     1       5.828  55.755  -8.116  1.00  0.00     0.144 C 
BRANCH  43  44
HETATM   44  O1  UNL     1       6.245  54.546  -7.486  1.00  0.00    -0.387 OA
HETATM   45  C1  UNL     1       6.717  53.566  -8.401  1.00  0.00     0.202 C 
ENDBRANCH  43  44
BRANCH  43  46
HETATM   46  C3  UNL     1       5.130  56.670  -7.131  1.00  0.00     0.007 C 
HETATM   47  C4  UNL     1       5.612  57.318  -6.050  1.00  0.00    -0.089 C 
HETATM   48  C5  UNL     1       7.054  57.327  -5.626  1.00  0.00     0.042 C 
HETATM   49  C6  UNL     1       4.696  58.115  -5.160  1.00  0.00     0.042 C 
ENDBRANCH  43  46
ENDBRANCH  42  43
ENDBRANCH  40  42
ENDBRANCH   1  40
TORSDOF 12
ENDMDL
MODEL 2
REMARK minimizedAffinity -10.3706808
REMARK CNNscore 0.589942932
REMARK CNNaffinity 7.78141928
REMARK  12 active torsions:
REMARK  status: ('A' for Active; 'I' for Inactive)
REMARK    1  A    between atoms: O1_2  and  C2_3 
REMARK    2  A    between atoms: C2_3  and  C3_4 
REMARK    3  A    between atoms: C2_3  and  C7_8 
REMARK    4  A    between atoms: C7_8  and  C8_9 
REMARK    5  A    between atoms: C8_9  and  C10_11 
REMARK    6  A    between atoms: C28_30  and  O3_31 
REMARK    7  A    between atoms: O3_31  and  C29_32 
REMARK    8  A    between atoms: C30_34  and  C31_35 
REMARK    9  A    between atoms: C31_35  and  O5_36 
REMARK   10  A    between atoms: C32_37  and  O6_38 
REMARK   11  A    between atoms: C33_39  and  O7_40 
REMARK   12  A    between atoms: C34_41  and  O8_42 
ROOT
HETATM    1  C10 UNL     1      -0.531  50.932 -20.401  1.00  0.00    -0.002 C 
HETATM    2  C11 UNL     1      -1.261  51.808 -19.330  1.00  0.00     0.006 C 
HETATM    3  C12 UNL     1      -2.703  51.273 -19.192  1.00  0.00     0.011 C 
HETATM    4  C13 UNL     1      -2.656  49.885 -19.854  1.00  0.00    -0.029 C 
HETATM    5  C14 UNL     1      -2.012  48.946 -18.765  1.00  0.00     0.016 C 
HETATM    6  C15 UNL     1      -4.011  49.215 -20.277  1.00  0.00     0.028 C 
HETATM    7  C16 UNL     1      -5.251  50.046 -20.459  1.00  0.00    -0.021 C 
HETATM    8  C17 UNL     1      -6.238  49.636 -21.277  1.00  0.00     0.008 C 
HETATM    9  C18 UNL     1      -6.100  48.435 -22.211  1.00  0.00     0.092 C 
HETATM   10  O2  UNL     1      -6.149  47.264 -21.346  1.00  0.00    -0.374 OA
HETATM   11  C19 UNL     1      -4.781  46.927 -20.961  1.00  0.00     0.179 C 
HETATM   12  C20 UNL     1      -3.872  48.123 -21.414  1.00  0.00    -0.004 C 
HETATM   13  C21 UNL     1      -2.420  47.700 -21.674  1.00  0.00     0.014 C 
HETATM   14  C22 UNL     1      -1.377  48.838 -21.781  1.00  0.00     0.011 C 
HETATM   15  C23 UNL     1      -1.728  50.169 -21.077  1.00  0.00    -0.032 C 
HETATM   16  C24 UNL     1      -2.378  51.156 -22.086  1.00  0.00     0.016 C 
HETATM   17  C25 UNL     1      -4.660  48.330 -22.730  1.00  0.00     0.036 C 
HETATM   18  C26 UNL     1      -4.400  49.316 -23.847  1.00  0.00     0.011 C 
HETATM   19  C27 UNL     1      -5.238  48.902 -25.073  1.00  0.00     0.033 C 
HETATM   20  C28 UNL     1      -6.442  47.985 -24.733  1.00  0.00     0.136 C 
HETATM   21  C35 UNL     1      -7.159  48.402 -23.400  1.00  0.00     0.014 C 
HETATM   22  C36 UNL     1      -8.281  47.383 -23.097  1.00  0.00     0.021 C 
HETATM   23  C37 UNL     1      -7.863  49.767 -23.649  1.00  0.00     0.021 C 
ENDROOT
BRANCH  20  24
HETATM   24  O3  UNL     1      -7.371  48.036 -25.823  1.00  0.00    -0.352 OA
BRANCH  24  25
HETATM   25  C29 UNL     1      -8.740  47.865 -25.451  1.00  0.00     0.292 C 
HETATM   26  O4  UNL     1      -9.044  46.469 -25.447  1.00  0.00    -0.348 OA
HETATM   27  C30 UNL     1      -9.354  45.888 -26.722  1.00  0.00     0.179 C 
HETATM   28  C32 UNL     1     -10.558  46.579 -27.403  1.00  0.00     0.180 C 
HETATM   29  C33 UNL     1     -10.887  47.942 -26.784  1.00  0.00     0.183 C 
HETATM   30  C34 UNL     1      -9.621  48.700 -26.409  1.00  0.00     0.204 C 
BRANCH  27  31
HETATM   31  C31 UNL     1      -8.121  45.846 -27.646  1.00  0.00     0.198 C 
BRANCH  31  32
HETATM   32  O5  UNL     1      -8.287  46.753 -28.731  1.00  0.00    -0.398 OA
HETATM   33  H48 UNL     1      -9.137  46.498 -29.147  1.00  0.00     0.209 HD
ENDBRANCH  31  32
ENDBRANCH  27  31
BRANCH  28  34
HETATM   34  O6  UNL     1     -11.734  45.756 -27.276  1.00  0.00    -0.390 OA
HETATM   35  H50 UNL     1     -12.404  46.101 -27.899  1.00  0.00     0.210 HD
ENDBRANCH  28  34
BRANCH  29  36
HETATM   36  O7  UNL     1     -11.702  47.799 -25.600  1.00  0.00    -0.390 OA
HETATM   37  H52 UNL     1     -12.067  46.889 -25.633  1.00  0.00     0.210 HD
ENDBRANCH  29  36
BRANCH  30  38
HETATM   38  O8  UNL     1      -9.990  49.945 -25.793  1.00  0.00    -0.388 OA
HETATM   39  H54 UNL     1     -10.750  49.727 -25.213  1.00  0.00     0.210 HD
ENDBRANCH  30  38
ENDBRANCH  24  25
ENDBRANCH  20  24
BRANCH   1  40
HETATM   40  C8  UNL     1       0.457  51.771 -21.280  1.00  0.00    -0.011 C 
HETATM   41  C9  UNL     1       0.848  53.082 -20.594  1.00  0.00     0.010 C 
BRANCH  40  42
HETATM   42  C7  UNL     1      -0.171  52.051 -22.679  1.00  0.00     0.040 C 
BRANCH  42  43
HETATM   43  C2  UNL     1       0.805  52.444 -23.818  1.00  0.00     0.144 C 
BRANCH  43  44
HETATM   44  O1  UNL     1       1.089  53.839 -23.755  1.00  0.00    -0.387 OA
HETATM   45  C1  UNL     1       0.374  54.604 -24.716  1.00  0.00     0.202 C 
ENDBRANCH  43  44
BRANCH  43  46
HETATM   46  C3  UNL     1       0.300  52.052 -25.191  1.00  0.00     0.007 C 
HETATM   47  C4  UNL     1       0.968  51.578 -26.264  1.00  0.00    -0.089 C 
HETATM   48  C5  UNL     1       2.434  51.246 -26.286  1.00  0.00     0.042 C 
HETATM   49  C6  UNL     1       0.255  51.337 -27.568  1.00  0.00     0.042 C 
ENDBRANCH  43  46
ENDBRANCH  42  43
ENDBRANCH  40  42
ENDBRANCH   1  40
TORSDOF 12
ENDMDL
MODEL 3
REMARK minimizedAffinity -7.52863359
REMARK CNNscore 0.555767655
REMARK CNNaffinity 7.4639535
REMARK  12 active torsions:
REMARK  status: ('A' for Active; 'I' for Inactive)
REMARK    1  A    between atoms: O1_2  and  C2_3 
REMARK    2  A    between atoms: C2_3  and  C3_4 
REMARK    3  A    between atoms: C2_3  and  C7_8 
REMARK    4  A    between atoms: C7_8  and  C8_9 
REMARK    5  A    between atoms: C8_9  and  C10_11 
REMARK    6  A    between atoms: C28_30  and  O3_31 
REMARK    7  A    between atoms: O3_31  and  C29_32 
REMARK    8  A    between atoms: C30_34  and  C31_35 
REMARK    9  A    between atoms: C31_35  and  O5_36 
REMARK   10  A    between atoms: C32_37  and  O6_38 
REMARK   11  A    between atoms: C33_39  and  O7_40 
REMARK   12  A    between atoms: C34_41  and  O8_42 
ROOT
HETATM    1  C10 UNL     1       2.882  55.179  -9.001  1.00  0.00    -0.002 C 
HETATM    2  C11 UNL     1       1.775  56.007  -8.268  1.00  0.00     0.006 C 
HETATM    3  C12 UNL     1       0.464  55.195  -8.330  1.00  0.00     0.011 C 
HETATM    4  C13 UNL     1       0.917  53.776  -8.718  1.00  0.00    -0.029 C 
HETATM    5  C14 UNL     1       1.451  53.148  -7.375  1.00  0.00     0.016 C 
HETATM    6  C15 UNL     1      -0.157  52.779  -9.280  1.00  0.00     0.028 C 
HETATM    7  C16 UNL     1      -1.452  53.291  -9.849  1.00  0.00    -0.021 C 
HETATM    8  C17 UNL     1      -2.130  52.573 -10.763  1.00  0.00     0.008 C 
HETATM    9  C18 UNL     1      -1.562  51.320 -11.427  1.00  0.00     0.092 C 
HETATM   10  O2  UNL     1      -1.595  50.289 -10.399  1.00  0.00    -0.374 OA
HETATM   11  C19 UNL     1      -0.316  50.309  -9.695  1.00  0.00     0.179 C 
HETATM   12  C20 UNL     1       0.439  51.605 -10.158  1.00  0.00    -0.004 C 
HETATM   13  C21 UNL     1       1.964  51.477 -10.043  1.00  0.00     0.014 C 
HETATM   14  C22 UNL     1       2.776  52.790 -10.136  1.00  0.00     0.011 C 
HETATM   15  C23 UNL     1       2.035  54.094  -9.760  1.00  0.00    -0.032 C 
HETATM   16  C24 UNL     1       1.466  54.776 -11.035  1.00  0.00     0.016 C 
HETATM   17  C25 UNL     1      -0.046  51.463 -11.621  1.00  0.00     0.036 C 
HETATM   18  C26 UNL     1       0.280  52.329 -12.818  1.00  0.00     0.011 C 
HETATM   19  C27 UNL     1      -0.161  51.587 -14.095  1.00  0.00     0.033 C 
HETATM   20  C28 UNL     1      -1.222  50.483 -13.849  1.00  0.00     0.136 C 
HETATM   21  C35 UNL     1      -2.292  50.904 -12.780  1.00  0.00     0.014 C 
HETATM   22  C36 UNL     1      -3.248  49.714 -12.535  1.00  0.00     0.021 C 
HETATM   23  C37 UNL     1      -3.157  52.039 -13.399  1.00  0.00     0.021 C 
ENDROOT
BRANCH  20  24
HETATM   24  O3  UNL     1      -1.866  50.189 -15.095  1.00  0.00    -0.352 OA
BRANCH  24  25
HETATM   25  C29 UNL     1      -1.284  50.827 -16.234  1.00  0.00     0.292 C 
HETATM   26  O4  UNL     1      -2.330  51.371 -17.040  1.00  0.00    -0.348 OA
HETATM   27  C30 UNL     1      -2.983  50.453 -17.931  1.00  0.00     0.179 C 
HETATM   28  C32 UNL     1      -1.993  49.790 -18.916  1.00  0.00     0.180 C 
HETATM   29  C33 UNL     1      -0.531  49.940 -18.479  1.00  0.00     0.183 C 
HETATM   30  C34 UNL     1      -0.387  49.803 -16.969  1.00  0.00     0.204 C 
BRANCH  27  31
HETATM   31  C31 UNL     1      -3.813  49.405 -17.163  1.00  0.00     0.198 C 
BRANCH  31  32
HETATM   32  O5  UNL     1      -3.468  48.092 -17.594  1.00  0.00    -0.398 OA
HETATM   33  H48 UNL     1      -3.594  48.103 -18.565  1.00  0.00     0.209 HD
ENDBRANCH  31  32
ENDBRANCH  27  31
BRANCH  28  34
HETATM   34  O6  UNL     1      -2.114  50.396 -20.217  1.00  0.00    -0.390 OA
HETATM   35  H50 UNL     1      -1.654  49.817 -20.856  1.00  0.00     0.210 HD
ENDBRANCH  28  34
BRANCH  29  36
HETATM   36  O7  UNL     1       0.008  51.220 -18.876  1.00  0.00    -0.390 OA
HETATM   37  H52 UNL     1      -0.604  51.571 -19.557  1.00  0.00     0.210 HD
ENDBRANCH  29  36
BRANCH  30  38
HETATM   38  O8  UNL     1       0.991  49.999 -16.613  1.00  0.00    -0.388 OA
HETATM   39  H54 UNL     1       1.298  50.739 -17.178  1.00  0.00     0.210 HD
ENDBRANCH  30  38
ENDBRANCH  24  25
ENDBRANCH  20  24
BRANCH   1  40
HETATM   40  C8  UNL     1       3.875  56.090  -9.796  1.00  0.00    -0.011 C 
HETATM   41  C9  UNL     1       3.255  56.596 -11.101  1.00  0.00     0.010 C 
BRANCH  40  42
HETATM   42  C7  UNL     1       5.202  55.323 -10.082  1.00  0.00     0.040 C 
BRANCH  42  43
HETATM   43  C2  UNL     1       5.883  54.631  -8.873  1.00  0.00     0.144 C 
BRANCH  43  44
HETATM   44  O1  UNL     1       6.802  55.527  -8.253  1.00  0.00    -0.387 OA
HETATM   45  C1  UNL     1       6.251  56.218  -7.139  1.00  0.00     0.202 C 
ENDBRANCH  43  44
BRANCH  43  46
HETATM   46  C3  UNL     1       6.561  53.327  -9.242  1.00  0.00     0.007 C 
HETATM   47  C4  UNL     1       6.378  52.081  -8.757  1.00  0.00    -0.089 C 
HETATM   48  C5  UNL     1       5.338  51.698  -7.741  1.00  0.00     0.042 C 
HETATM   49  C6  UNL     1       7.240  50.940  -9.227  1.00  0.00     0.042 C 
ENDBRANCH  43  46
ENDBRANCH  42  43
ENDBRANCH  40  42
ENDBRANCH   1  40
TORSDOF 12
ENDMDL
MODEL 4
REMARK minimizedAffinity -7.90607119
REMARK CNNscore 0.52593118
REMARK CNNaffinity 7.33485794
REMARK  12 active torsions:
REMARK  status: ('A' for Active; 'I' for Inactive)
REMARK    1  A    between atoms: O1_2  and  C2_3 
REMARK    2  A    between atoms: C2_3  and  C3_4 
REMARK    3  A    between atoms: C2_3  and  C7_8 
REMARK    4  A    between atoms: C7_8  and  C8_9 
REMARK    5  A    between atoms: C8_9  and  C10_11 
REMARK    6  A    between atoms: C28_30  and  O3_31 
REMARK    7  A    between atoms: O3_31  and  C29_32 
REMARK    8  A    between atoms: C30_34  and  C31_35 
REMARK    9  A    between atoms: C31_35  and  O5_36 
REMARK   10  A    between atoms: C32_37  and  O6_38 
REMARK   11  A    between atoms: C33_39  and  O7_40 
REMARK   12  A    between atoms: C34_41  and  O8_42 
ROOT
HETATM    1  C10 UNL     1       2.538  55.262  -8.719  1.00  0.00    -0.002 C 
HETATM    2  C11 UNL     1       1.397  56.098  -8.049  1.00  0.00     0.006 C 
HETATM    3  C12 UNL     1       0.080  55.309  -8.213  1.00  0.00     0.011 C 
HETATM    4  C13 UNL     1       0.536  53.888  -8.592  1.00  0.00    -0.029 C 
HETATM    5  C14 UNL     1       0.968  53.232  -7.226  1.00  0.00     0.016 C 
HETATM    6  C15 UNL     1      -0.513  52.918  -9.242  1.00  0.00     0.028 C 
HETATM    7  C16 UNL     1      -1.758  53.459  -9.889  1.00  0.00    -0.021 C 
HETATM    8  C17 UNL     1      -2.383  52.767 -10.858  1.00  0.00     0.008 C 
HETATM    9  C18 UNL     1      -1.791  51.514 -11.501  1.00  0.00     0.092 C 
HETATM   10  O2  UNL     1      -1.910  50.469 -10.495  1.00  0.00    -0.374 OA
HETATM   11  C19 UNL     1      -0.681  50.457  -9.705  1.00  0.00     0.179 C 
HETATM   12  C20 UNL     1       0.123  51.747 -10.096  1.00  0.00    -0.004 C 
HETATM   13  C21 UNL     1       1.635  51.592  -9.880  1.00  0.00     0.014 C 
HETATM   14  C22 UNL     1       2.472  52.892  -9.897  1.00  0.00     0.011 C 
HETATM   15  C23 UNL     1       1.727  54.202  -9.551  1.00  0.00    -0.032 C 
HETATM   16  C24 UNL     1       1.258  54.913 -10.850  1.00  0.00     0.016 C 
HETATM   17  C25 UNL     1      -0.264  51.635 -11.590  1.00  0.00     0.036 C 
HETATM   18  C26 UNL     1       0.157  52.513 -12.748  1.00  0.00     0.011 C 
HETATM   19  C27 UNL     1      -0.207  51.797 -14.064  1.00  0.00     0.033 C 
HETATM   20  C28 UNL     1      -1.300  50.707 -13.908  1.00  0.00     0.136 C 
HETATM   21  C35 UNL     1      -2.434  51.130 -12.908  1.00  0.00     0.014 C 
HETATM   22  C36 UNL     1      -3.422  49.953 -12.746  1.00  0.00     0.021 C 
HETATM   23  C37 UNL     1      -3.236  52.289 -13.566  1.00  0.00     0.021 C 
ENDROOT
BRANCH  20  24
HETATM   24  O3  UNL     1      -1.862  50.443 -15.199  1.00  0.00    -0.352 OA
BRANCH  24  25
HETATM   25  C29 UNL     1      -1.738  49.090 -15.641  1.00  0.00     0.292 C 
HETATM   26  O4  UNL     1      -0.610  48.992 -16.512  1.00  0.00    -0.348 OA
HETATM   27  C30 UNL     1      -0.832  49.380 -17.876  1.00  0.00     0.179 C 
HETATM   28  C32 UNL     1      -1.954  48.552 -18.545  1.00  0.00     0.180 C 
HETATM   29  C33 UNL     1      -2.828  47.809 -17.529  1.00  0.00     0.183 C 
HETATM   30  C34 UNL     1      -3.074  48.655 -16.286  1.00  0.00     0.204 C 
BRANCH  27  31
HETATM   31  C31 UNL     1      -1.085  50.895 -18.005  1.00  0.00     0.198 C 
BRANCH  31  32
HETATM   32  O5  UNL     1      -0.008  51.625 -17.426  1.00  0.00    -0.398 OA
HETATM   33  H48 UNL     1       0.065  51.284 -16.510  1.00  0.00     0.209 HD
ENDBRANCH  31  32
ENDBRANCH  27  31
BRANCH  28  34
HETATM   34  O6  UNL     1      -1.379  47.562 -19.419  1.00  0.00    -0.390 OA
HETATM   35  H50 UNL     1      -2.096  47.218 -19.987  1.00  0.00     0.210 HD
ENDBRANCH  28  34
BRANCH  29  36
HETATM   36  O7  UNL     1      -2.219  46.564 -17.121  1.00  0.00    -0.390 OA
HETATM   37  H52 UNL     1      -1.529  46.370 -17.789  1.00  0.00     0.210 HD
ENDBRANCH  29  36
BRANCH  30  38
HETATM   38  O8  UNL     1      -3.857  47.894 -15.353  1.00  0.00    -0.388 OA
HETATM   39  H54 UNL     1      -3.491  46.985 -15.394  1.00  0.00     0.210 HD
ENDBRANCH  30  38
ENDBRANCH  24  25
ENDBRANCH  20  24
BRANCH   1  40
HETATM   40  C8  UNL     1       3.597  56.168  -9.431  1.00  0.00    -0.011 C 
HETATM   41  C9  UNL     1       3.262  56.373 -10.910  1.00  0.00     0.010 C 
BRANCH  40  42
HETATM   42  C7  UNL     1       5.023  55.559  -9.271  1.00  0.00     0.040 C 
BRANCH  42  43
HETATM   43  C2  UNL     1       5.775  55.873  -7.952  1.00  0.00     0.144 C 
BRANCH  43  44
HETATM   44  O1  UNL     1       6.122  54.659  -7.289  1.00  0.00    -0.387 OA
HETATM   45  C1  UNL     1       6.533  53.629  -8.177  1.00  0.00     0.202 C 
ENDBRANCH  43  44
BRANCH  43  46
HETATM   46  C3  UNL     1       4.996  56.792  -7.033  1.00  0.00     0.007 C 
HETATM   47  C4  UNL     1       5.411  57.528  -5.980  1.00  0.00    -0.089 C 
HETATM   48  C5  UNL     1       6.839  57.655  -5.530  1.00  0.00     0.042 C 
HETATM   49  C6  UNL     1       4.425  58.310  -5.154  1.00  0.00     0.042 C 
ENDBRANCH  43  46
ENDBRANCH  42  43
ENDBRANCH  40  42
ENDBRANCH   1  40
TORSDOF 12
ENDMDL
MODEL 5
REMARK minimizedAffinity -7.95537138
REMARK CNNscore 0.47166124
REMARK CNNaffinity 7.2221446
REMARK  12 active torsions:
REMARK  status: ('A' for Active; 'I' for Inactive)
REMARK    1  A    between atoms: O1_2  and  C2_3 
REMARK    2  A    between atoms: C2_3  and  C3_4 
REMARK    3  A    between atoms: C2_3  and  C7_8 
REMARK    4  A    between atoms: C7_8  and  C8_9 
REMARK    5  A    between atoms: C8_9  and  C10_11 
REMARK    6  A    between atoms: C28_30  and  O3_31 
REMARK    7  A    between atoms: O3_31  and  C29_32 
REMARK    8  A    between atoms: C30_34  and  C31_35 
REMARK    9  A    between atoms: C31_35  and  O5_36 
REMARK   10  A    between atoms: C32_37  and  O6_38 
REMARK   11  A    between atoms: C33_39  and  O7_40 
REMARK   12  A    between atoms: C34_41  and  O8_42 
ROOT
HETATM    1  C10 UNL     1      -6.454  44.486 -19.796  1.00  0.00    -0.002 C 
HETATM    2  C11 UNL     1      -5.740  44.305 -18.416  1.00  0.00     0.006 C 
HETATM    3  C12 UNL     1      -5.018  45.629 -18.085  1.00  0.00     0.011 C 
HETATM    4  C13 UNL     1      -5.650  46.653 -19.044  1.00  0.00    -0.029 C 
HETATM    5  C14 UNL     1      -7.026  47.028 -18.374  1.00  0.00     0.016 C 
HETATM    6  C15 UNL     1      -4.892  48.005 -19.295  1.00  0.00     0.028 C 
HETATM    7  C16 UNL     1      -3.423  48.125 -18.997  1.00  0.00    -0.021 C 
HETATM    8  C17 UNL     1      -2.664  49.028 -19.644  1.00  0.00     0.008 C 
HETATM    9  C18 UNL     1      -3.168  49.838 -20.837  1.00  0.00     0.092 C 
HETATM   10  O2  UNL     1      -4.089  50.817 -20.278  1.00  0.00    -0.374 OA
HETATM   11  C19 UNL     1      -5.432  50.241 -20.298  1.00  0.00     0.179 C 
HETATM   12  C20 UNL     1      -5.269  48.721 -20.655  1.00  0.00    -0.004 C 
HETATM   13  C21 UNL     1      -6.519  48.131 -21.324  1.00  0.00     0.014 C 
HETATM   14  C22 UNL     1      -6.600  46.589 -21.397  1.00  0.00     0.011 C 
HETATM   15  C23 UNL     1      -5.787  45.800 -20.344  1.00  0.00    -0.032 C 
HETATM   16  C24 UNL     1      -4.405  45.396 -20.925  1.00  0.00     0.016 C 
HETATM   17  C25 UNL     1      -4.140  48.997 -21.676  1.00  0.00     0.036 C 
HETATM   18  C26 UNL     1      -3.403  48.019 -22.564  1.00  0.00     0.011 C 
HETATM   19  C27 UNL     1      -2.626  48.815 -23.632  1.00  0.00     0.033 C 
HETATM   20  C28 UNL     1      -2.369  50.296 -23.252  1.00  0.00     0.136 C 
HETATM   21  C35 UNL     1      -2.016  50.476 -21.733  1.00  0.00     0.014 C 
HETATM   22  C36 UNL     1      -1.868  51.984 -21.429  1.00  0.00     0.021 C 
HETATM   23  C37 UNL     1      -0.615  49.842 -21.495  1.00  0.00     0.021 C 
ENDROOT
BRANCH  20  24
HETATM   24  O3  UNL     1      -1.297  50.791 -24.064  1.00  0.00    -0.352 OA
BRANCH  24  25
HETATM   25  C29 UNL     1      -1.505  50.666 -25.472  1.00  0.00     0.292 C 
HETATM   26  O4  UNL     1      -0.236  50.668 -26.126  1.00  0.00    -0.348 OA
HETATM   27  C30 UNL     1       0.350  51.958 -26.363  1.00  0.00     0.179 C 
HETATM   28  C32 UNL     1      -0.565  52.868 -27.215  1.00  0.00     0.180 C 
HETATM   29  C33 UNL     1      -2.012  52.366 -27.275  1.00  0.00     0.183 C 
HETATM   30  C34 UNL     1      -2.456  51.796 -25.934  1.00  0.00     0.204 C 
BRANCH  27  31
HETATM   31  C31 UNL     1       0.774  52.642 -25.048  1.00  0.00     0.198 C 
BRANCH  31  32
HETATM   32  O5  UNL     1       0.602  54.052 -25.150  1.00  0.00    -0.398 OA
HETATM   33  H48 UNL     1       1.110  54.313 -25.946  1.00  0.00     0.209 HD
ENDBRANCH  31  32
ENDBRANCH  27  31
BRANCH  28  34
HETATM   34  O6  UNL     1      -0.076  52.926 -28.569  1.00  0.00    -0.390 OA
HETATM   35  H50 UNL     1      -0.527  53.670 -29.013  1.00  0.00     0.210 HD
ENDBRANCH  28  34
BRANCH  29  36
HETATM   36  O7  UNL     1      -2.173  51.344 -28.282  1.00  0.00    -0.390 OA
HETATM   37  H52 UNL     1      -1.384  51.410 -28.862  1.00  0.00     0.210 HD
ENDBRANCH  29  36
BRANCH  30  38
HETATM   38  O8  UNL     1      -3.798  51.299 -26.061  1.00  0.00    -0.388 OA
HETATM   39  H54 UNL     1      -3.826  50.859 -26.937  1.00  0.00     0.210 HD
ENDBRANCH  30  38
ENDBRANCH  24  25
ENDBRANCH  20  24
BRANCH   1  40
HETATM   40  C8  UNL     1      -6.423  43.178 -20.656  1.00  0.00    -0.011 C 
HETATM   41  C9  UNL     1      -7.513  43.182 -21.730  1.00  0.00     0.010 C 
BRANCH  40  42
HETATM   42  C7  UNL     1      -6.564  41.925 -19.738  1.00  0.00     0.040 C 
BRANCH  42  43
HETATM   43  C2  UNL     1      -6.460  40.539 -20.425  1.00  0.00     0.144 C 
BRANCH  43  44
HETATM   44  O1  UNL     1      -7.751  39.942 -20.514  1.00  0.00    -0.387 OA
HETATM   45  C1  UNL     1      -8.061  39.461 -21.815  1.00  0.00     0.202 C 
ENDBRANCH  43  44
BRANCH  43  46
HETATM   46  C3  UNL     1      -5.477  39.612 -19.740  1.00  0.00     0.007 C 
HETATM   47  C4  UNL     1      -4.665  38.666 -20.256  1.00  0.00    -0.089 C 
HETATM   48  C5  UNL     1      -4.504  38.379 -21.723  1.00  0.00     0.042 C 
HETATM   49  C6  UNL     1      -3.826  37.798 -19.356  1.00  0.00     0.042 C 
ENDBRANCH  43  46
ENDBRANCH  42  43
ENDBRANCH  40  42
ENDBRANCH   1  40
TORSDOF 12
ENDMDL
MODEL 6
REMARK minimizedAffinity -8.02487087
REMARK CNNscore 0.423685789
REMARK CNNaffinity 7.37971163
REMARK  12 active torsions:
REMARK  status: ('A' for Active; 'I' for Inactive)
REMARK    1  A    between atoms: O1_2  and  C2_3 
REMARK    2  A    between atoms: C2_3  and  C3_4 
REMARK    3  A    between atoms: C2_3  and  C7_8 
REMARK    4  A    between atoms: C7_8  and  C8_9 
REMARK    5  A    between atoms: C8_9  and  C10_11 
REMARK    6  A    between atoms: C28_30  and  O3_31 
REMARK    7  A    between atoms: O3_31  and  C29_32 
REMARK    8  A    between atoms: C30_34  and  C31_35 
REMARK    9  A    between atoms: C31_35  and  O5_36 
REMARK   10  A    between atoms: C32_37  and  O6_38 
REMARK   11  A    between atoms: C33_39  and  O7_40 
REMARK   12  A    between atoms: C34_41  and  O8_42 
ROOT
HETATM    1  C10 UNL     1      -1.233  50.517 -22.583  1.00  0.00    -0.002 C 
HETATM    2  C11 UNL     1      -0.865  51.554 -21.471  1.00  0.00     0.006 C 
HETATM    3  C12 UNL     1      -1.415  51.019 -20.131  1.00  0.00     0.011 C 
HETATM    4  C13 UNL     1      -1.715  49.536 -20.412  1.00  0.00    -0.029 C 
HETATM    5  C14 UNL     1      -0.313  48.823 -20.325  1.00  0.00     0.016 C 
HETATM    6  C15 UNL     1      -2.668  48.769 -19.427  1.00  0.00     0.028 C 
HETATM    7  C16 UNL     1      -3.606  49.525 -18.527  1.00  0.00    -0.021 C 
HETATM    8  C17 UNL     1      -4.738  48.951 -18.079  1.00  0.00     0.008 C 
HETATM    9  C18 UNL     1      -5.248  47.606 -18.592  1.00  0.00     0.092 C 
HETATM   10  O2  UNL     1      -4.358  46.609 -18.014  1.00  0.00    -0.374 OA
HETATM   11  C19 UNL     1      -3.264  46.378 -18.955  1.00  0.00     0.179 C 
HETATM   12  C20 UNL     1      -3.365  47.494 -20.053  1.00  0.00    -0.004 C 
HETATM   13  C21 UNL     1      -2.752  47.066 -21.394  1.00  0.00     0.014 C 
HETATM   14  C22 UNL     1      -2.485  48.190 -22.422  1.00  0.00     0.011 C 
HETATM   15  C23 UNL     1      -2.299  49.618 -21.857  1.00  0.00    -0.032 C 
HETATM   16  C24 UNL     1      -3.646  50.392 -21.899  1.00  0.00     0.016 C 
HETATM   17  C25 UNL     1      -4.911  47.443 -20.080  1.00  0.00     0.036 C 
HETATM   18  C26 UNL     1      -5.872  48.219 -20.954  1.00  0.00     0.011 C 
HETATM   19  C27 UNL     1      -7.267  47.572 -20.844  1.00  0.00     0.033 C 
HETATM   20  C28 UNL     1      -7.461  46.702 -19.574  1.00  0.00     0.136 C 
HETATM   21  C35 UNL     1      -6.791  47.335 -18.303  1.00  0.00     0.014 C 
HETATM   22  C36 UNL     1      -6.956  46.361 -17.115  1.00  0.00     0.021 C 
HETATM   23  C37 UNL     1      -7.593  48.616 -17.935  1.00  0.00     0.021 C 
ENDROOT
BRANCH  20  24
HETATM   24  O3  UNL     1      -8.867  46.535 -19.352  1.00  0.00    -0.352 OA
BRANCH  24  25
HETATM   25  C29 UNL     1      -9.700  46.978 -20.426  1.00  0.00     0.292 C 
HETATM   26  O4  UNL     1     -10.476  48.090 -19.977  1.00  0.00    -0.348 OA
HETATM   27  C30 UNL     1     -11.663  47.772 -19.235  1.00  0.00     0.179 C 
HETATM   28  C32 UNL     1     -12.634  46.877 -20.038  1.00  0.00     0.180 C 
HETATM   29  C33 UNL     1     -11.966  46.213 -21.248  1.00  0.00     0.183 C 
HETATM   30  C34 UNL     1     -10.542  45.780 -20.925  1.00  0.00     0.204 C 
BRANCH  27  31
HETATM   31  C31 UNL     1     -11.329  47.162 -17.859  1.00  0.00     0.198 C 
BRANCH  31  32
HETATM   32  O5  UNL     1     -12.280  47.588 -16.888  1.00  0.00    -0.398 OA
HETATM   33  H48 UNL     1     -12.266  48.566 -16.932  1.00  0.00     0.209 HD
ENDBRANCH  31  32
ENDBRANCH  27  31
BRANCH  28  34
HETATM   34  O6  UNL     1     -13.731  47.667 -20.537  1.00  0.00    -0.390 OA
HETATM   35  H50 UNL     1     -14.428  47.049 -20.835  1.00  0.00     0.210 HD
ENDBRANCH  28  34
BRANCH  29  36
HETATM   36  O7  UNL     1     -11.926  47.106 -22.383  1.00  0.00    -0.390 OA
HETATM   37  H52 UNL     1     -12.571  47.818 -22.188  1.00  0.00     0.210 HD
ENDBRANCH  29  36
BRANCH  30  38
HETATM   38  O8  UNL     1      -9.951  45.210 -22.104  1.00  0.00    -0.388 OA
HETATM   39  H54 UNL     1     -10.249  45.782 -22.842  1.00  0.00     0.210 HD
ENDBRANCH  30  38
ENDBRANCH  24  25
ENDBRANCH  20  24
BRANCH   1  40
HETATM   40  C8  UNL     1      -1.590  51.207 -23.942  1.00  0.00    -0.011 C 
HETATM   41  C9  UNL     1      -1.941  50.181 -25.022  1.00  0.00     0.010 C 
BRANCH  40  42
HETATM   42  C7  UNL     1      -0.412  52.115 -24.412  1.00  0.00     0.040 C 
BRANCH  42  43
HETATM   43  C2  UNL     1      -0.684  53.040 -25.626  1.00  0.00     0.144 C 
BRANCH  43  44
HETATM   44  O1  UNL     1      -1.992  52.799 -26.139  1.00  0.00    -0.387 OA
HETATM   45  C1  UNL     1      -2.041  52.751 -27.559  1.00  0.00     0.202 C 
ENDBRANCH  43  44
BRANCH  43  46
HETATM   46  C3  UNL     1       0.361  52.907 -26.716  1.00  0.00     0.007 C 
HETATM   47  C4  UNL     1       1.271  51.935 -26.938  1.00  0.00    -0.089 C 
HETATM   48  C5  UNL     1       1.385  50.666 -26.140  1.00  0.00     0.042 C 
HETATM   49  C6  UNL     1       2.276  52.064 -28.051  1.00  0.00     0.042 C 
ENDBRANCH  43  46
ENDBRANCH  42  43
ENDBRANCH  40  42
ENDBRANCH   1  40
TORSDOF 12
ENDMDL
MODEL 7
REMARK minimizedAffinity -8.99593258
REMARK CNNscore 0.391611964
REMARK CNNaffinity 7.10225534
REMARK  12 active torsions:
REMARK  status: ('A' for Active; 'I' for Inactive)
REMARK    1  A    between atoms: O1_2  and  C2_3 
REMARK    2  A    between atoms: C2_3  and  C3_4 
REMARK    3  A    between atoms: C2_3  and  C7_8 
REMARK    4  A    between atoms: C7_8  and  C8_9 
REMARK    5  A    between atoms: C8_9  and  C10_11 
REMARK    6  A    between atoms: C28_30  and  O3_31 
REMARK    7  A    between atoms: O3_31  and  C29_32 
REMARK    8  A    between atoms: C30_34  and  C31_35 
REMARK    9  A    between atoms: C31_35  and  O5_36 
REMARK   10  A    between atoms: C32_37  and  O6_38 
REMARK   11  A    between atoms: C33_39  and  O7_40 
REMARK   12  A    between atoms: C34_41  and  O8_42 
ROOT
HETATM    1  C10 UNL     1      -3.291  50.834 -24.983  1.00  0.00    -0.002 C 
HETATM    2  C11 UNL     1      -4.346  51.968 -24.763  1.00  0.00     0.006 C 
HETATM    3  C12 UNL     1      -4.822  51.887 -23.297  1.00  0.00     0.011 C 
HETATM    4  C13 UNL     1      -3.765  51.009 -22.605  1.00  0.00    -0.029 C 
HETATM    5  C14 UNL     1      -2.550  51.978 -22.345  1.00  0.00     0.016 C 
HETATM    6  C15 UNL     1      -4.124  50.362 -21.220  1.00  0.00     0.028 C 
HETATM    7  C16 UNL     1      -5.559  50.214 -20.795  1.00  0.00    -0.021 C 
HETATM    8  C17 UNL     1      -5.920  49.256 -19.922  1.00  0.00     0.008 C 
HETATM    9  C18 UNL     1      -4.972  48.150 -19.461  1.00  0.00     0.092 C 
HETATM   10  O2  UNL     1      -4.028  48.799 -18.562  1.00  0.00    -0.374 OA
HETATM   11  C19 UNL     1      -2.881  49.241 -19.351  1.00  0.00     0.179 C 
HETATM   12  C20 UNL     1      -3.276  49.075 -20.861  1.00  0.00    -0.004 C 
HETATM   13  C21 UNL     1      -2.059  48.878 -21.775  1.00  0.00     0.014 C 
HETATM   14  C22 UNL     1      -2.299  49.054 -23.293  1.00  0.00     0.011 C 
HETATM   15  C23 UNL     1      -3.499  49.937 -23.708  1.00  0.00    -0.032 C 
HETATM   16  C24 UNL     1      -4.749  49.054 -23.977  1.00  0.00     0.016 C 
HETATM   17  C25 UNL     1      -4.029  47.749 -20.603  1.00  0.00     0.036 C 
HETATM   18  C26 UNL     1      -4.719  46.839 -21.597  1.00  0.00     0.011 C 
HETATM   19  C27 UNL     1      -5.014  45.493 -20.907  1.00  0.00     0.033 C 
HETATM   20  C28 UNL     1      -5.029  45.568 -19.358  1.00  0.00     0.136 C 
HETATM   21  C35 UNL     1      -5.699  46.883 -18.825  1.00  0.00     0.014 C 
HETATM   22  C36 UNL     1      -5.586  46.912 -17.284  1.00  0.00     0.021 C 
HETATM   23  C37 UNL     1      -7.219  46.805 -19.151  1.00  0.00     0.021 C 
ENDROOT
BRANCH  20  24
HETATM   24  O3  UNL     1      -5.733  44.424 -18.857  1.00  0.00    -0.352 OA
BRANCH  24  25
HETATM   25  C29 UNL     1      -5.529  43.222 -19.603  1.00  0.00     0.292 C 
HETATM   26  O4  UNL     1      -6.801  42.637 -19.887  1.00  0.00    -0.348 OA
HETATM   27  C30 UNL     1      -7.380  41.846 -18.838  1.00  0.00     0.179 C 
HETATM   28  C32 UNL     1      -6.463  40.676 -18.413  1.00  0.00     0.180 C 
HETATM   29  C33 UNL     1      -5.019  40.848 -18.897  1.00  0.00     0.183 C 
HETATM   30  C34 UNL     1      -4.574  42.302 -18.807  1.00  0.00     0.204 C 
BRANCH  27  31
HETATM   31  C31 UNL     1      -7.797  42.714 -17.634  1.00  0.00     0.198 C 
BRANCH  31  32
HETATM   32  O5  UNL     1      -6.937  42.463 -16.526  1.00  0.00    -0.398 OA
HETATM   33  H48 UNL     1      -6.980  41.495 -16.386  1.00  0.00     0.209 HD
ENDBRANCH  31  32
ENDBRANCH  27  31
BRANCH  28  34
HETATM   34  O6  UNL     1      -6.955  39.441 -18.967  1.00  0.00    -0.390 OA
HETATM   35  H50 UNL     1      -6.502  38.709 -18.504  1.00  0.00     0.210 HD
ENDBRANCH  28  34
BRANCH  29  36
HETATM   36  O7  UNL     1      -4.866  40.407 -20.264  1.00  0.00    -0.390 OA
HETATM   37  H52 UNL     1      -5.656  39.860 -20.460  1.00  0.00     0.210 HD
ENDBRANCH  29  36
BRANCH  30  38
HETATM   38  O8  UNL     1      -3.235  42.411 -19.315  1.00  0.00    -0.388 OA
HETATM   39  H54 UNL     1      -3.212  41.826 -20.102  1.00  0.00     0.210 HD
ENDBRANCH  30  38
ENDBRANCH  24  25
ENDBRANCH  20  24
BRANCH   1  40
HETATM   40  C8  UNL     1      -3.392  50.198 -26.410  1.00  0.00    -0.011 C 
HETATM   41  C9  UNL     1      -2.669  48.850 -26.479  1.00  0.00     0.010 C 
BRANCH  40  42
HETATM   42  C7  UNL     1      -2.824  51.180 -27.479  1.00  0.00     0.040 C 
BRANCH  42  43
HETATM   43  C2  UNL     1      -1.811  52.244 -26.984  1.00  0.00     0.144 C 
BRANCH  43  44
HETATM   44  O1  UNL     1      -1.991  53.461 -27.704  1.00  0.00    -0.387 OA
HETATM   45  C1  UNL     1      -0.769  54.060 -28.114  1.00  0.00     0.202 C 
ENDBRANCH  43  44
BRANCH  43  46
HETATM   46  C3  UNL     1      -0.373  51.773 -27.063  1.00  0.00     0.007 C 
HETATM   47  C4  UNL     1       0.555  51.636 -26.092  1.00  0.00    -0.089 C 
HETATM   48  C5  UNL     1       0.306  51.863 -24.627  1.00  0.00     0.042 C 
HETATM   49  C6  UNL     1       1.964  51.226 -26.428  1.00  0.00     0.042 C 
ENDBRANCH  43  46
ENDBRANCH  42  43
ENDBRANCH  40  42
ENDBRANCH   1  40
TORSDOF 12
ENDMDL
MODEL 8
REMARK minimizedAffinity -10.2760544
REMARK CNNscore 0.350963712
REMARK CNNaffinity 7.29615831
REMARK  12 active torsions:
REMARK  status: ('A' for Active; 'I' for Inactive)
REMARK    1  A    between atoms: O1_2  and  C2_3 
REMARK    2  A    between atoms: C2_3  and  C3_4 
REMARK    3  A    between atoms: C2_3  and  C7_8 
REMARK    4  A    between atoms: C7_8  and  C8_9 
REMARK    5  A    between atoms: C8_9  and  C10_11 
REMARK    6  A    between atoms: C28_30  and  O3_31 
REMARK    7  A    between atoms: O3_31  and  C29_32 
REMARK    8  A    between atoms: C30_34  and  C31_35 
REMARK    9  A    between atoms: C31_35  and  O5_36 
REMARK   10  A    between atoms: C32_37  and  O6_38 
REMARK   11  A    between atoms: C33_39  and  O7_40 
REMARK   12  A    between atoms: C34_41  and  O8_42 
ROOT
HETATM    1  C10 UNL     1      -0.376  50.963 -20.897  1.00  0.00    -0.002 C 
HETATM    2  C11 UNL     1      -0.927  51.780 -19.681  1.00  0.00     0.006 C 
HETATM    3  C12 UNL     1      -2.213  51.081 -19.191  1.00  0.00     0.011 C 
HETATM    4  C13 UNL     1      -2.155  49.687 -19.841  1.00  0.00    -0.029 C 
HETATM    5  C14 UNL     1      -1.153  48.869 -18.942  1.00  0.00     0.016 C 
HETATM    6  C15 UNL     1      -3.478  48.845 -19.916  1.00  0.00     0.028 C 
HETATM    7  C16 UNL     1      -4.819  49.514 -19.789  1.00  0.00    -0.021 C 
HETATM    8  C17 UNL     1      -5.916  48.961 -20.337  1.00  0.00     0.008 C 
HETATM    9  C18 UNL     1      -5.861  47.755 -21.273  1.00  0.00     0.092 C 
HETATM   10  O2  UNL     1      -5.552  46.616 -20.421  1.00  0.00    -0.374 OA
HETATM   11  C19 UNL     1      -4.100  46.459 -20.383  1.00  0.00     0.179 C 
HETATM   12  C20 UNL     1      -3.486  47.740 -21.050  1.00  0.00    -0.004 C 
HETATM   13  C21 UNL     1      -2.099  47.487 -21.658  1.00  0.00     0.014 C 
HETATM   14  C22 UNL     1      -1.266  48.738 -22.021  1.00  0.00     0.011 C 
HETATM   15  C23 UNL     1      -1.597  50.041 -21.256  1.00  0.00    -0.032 C 
HETATM   16  C24 UNL     1      -2.592  50.907 -22.076  1.00  0.00     0.016 C 
HETATM   17  C25 UNL     1      -4.590  47.807 -22.131  1.00  0.00     0.036 C 
HETATM   18  C26 UNL     1      -4.736  48.781 -23.280  1.00  0.00     0.011 C 
HETATM   19  C27 UNL     1      -5.789  48.228 -24.261  1.00  0.00     0.033 C 
HETATM   20  C28 UNL     1      -6.750  47.184 -23.633  1.00  0.00     0.136 C 
HETATM   21  C35 UNL     1      -7.166  47.555 -22.165  1.00  0.00     0.014 C 
HETATM   22  C36 UNL     1      -8.044  46.419 -21.592  1.00  0.00     0.021 C 
HETATM   23  C37 UNL     1      -8.074  48.817 -22.237  1.00  0.00     0.021 C 
ENDROOT
BRANCH  20  24
HETATM   24  O3  UNL     1      -7.915  47.087 -24.461  1.00  0.00    -0.352 OA
BRANCH  24  25
HETATM   25  C29 UNL     1      -7.912  47.946 -25.603  1.00  0.00     0.292 C 
HETATM   26  O4  UNL     1      -9.122  48.705 -25.611  1.00  0.00    -0.348 OA
HETATM   27  C30 UNL     1     -10.276  48.046 -26.154  1.00  0.00     0.179 C 
HETATM   28  C32 UNL     1     -10.056  47.588 -27.614  1.00  0.00     0.180 C 
HETATM   29  C33 UNL     1      -8.576  47.572 -28.014  1.00  0.00     0.183 C 
HETATM   30  C34 UNL     1      -7.698  47.084 -26.869  1.00  0.00     0.204 C 
BRANCH  27  31
HETATM   31  C31 UNL     1     -10.745  46.884 -25.256  1.00  0.00     0.198 C 
BRANCH  31  32
HETATM   32  O5  UNL     1     -11.885  47.278 -24.498  1.00  0.00    -0.398 OA
HETATM   33  H48 UNL     1     -11.608  48.092 -24.028  1.00  0.00     0.209 HD
ENDBRANCH  31  32
ENDBRANCH  27  31
BRANCH  28  34
HETATM   34  O6  UNL     1     -10.732  48.484 -28.517  1.00  0.00    -0.390 OA
HETATM   35  H50 UNL     1     -10.767  48.050 -29.392  1.00  0.00     0.210 HD
ENDBRANCH  28  34
BRANCH  29  36
HETATM   36  O7  UNL     1      -8.123  48.886 -28.409  1.00  0.00    -0.390 OA
HETATM   37  H52 UNL     1      -8.934  49.410 -28.581  1.00  0.00     0.210 HD
ENDBRANCH  29  36
BRANCH  30  38
HETATM   38  O8  UNL     1      -6.323  47.135 -27.283  1.00  0.00    -0.388 OA
HETATM   39  H54 UNL     1      -6.239  47.972 -27.786  1.00  0.00     0.210 HD
ENDBRANCH  30  38
ENDBRANCH  24  25
ENDBRANCH  20  24
BRANCH   1  40
HETATM   40  C8  UNL     1       0.254  51.886 -21.994  1.00  0.00    -0.011 C 
HETATM   41  C9  UNL     1       0.550  53.286 -21.452  1.00  0.00     0.010 C 
BRANCH  40  42
HETATM   42  C7  UNL     1      -0.685  51.966 -23.236  1.00  0.00     0.040 C 
BRANCH  42  43
HETATM   43  C2  UNL     1      -0.333  53.026 -24.311  1.00  0.00     0.144 C 
BRANCH  43  44
HETATM   44  O1  UNL     1      -1.450  53.236 -25.172  1.00  0.00    -0.387 OA
HETATM   45  C1  UNL     1      -2.608  52.510 -24.780  1.00  0.00     0.202 C 
ENDBRANCH  43  44
BRANCH  43  46
HETATM   46  C3  UNL     1       0.908  52.673 -25.106  1.00  0.00     0.007 C 
HETATM   47  C4  UNL     1       1.128  51.668 -25.979  1.00  0.00    -0.089 C 
HETATM   48  C5  UNL     1       0.090  50.677 -26.428  1.00  0.00     0.042 C 
HETATM   49  C6  UNL     1       2.488  51.465 -26.590  1.00  0.00     0.042 C 
ENDBRANCH  43  46
ENDBRANCH  42  43
ENDBRANCH  40  42
ENDBRANCH   1  40
TORSDOF 12
ENDMDL
MODEL 9
REMARK minimizedAffinity -8.26391506
REMARK CNNscore 0.348191112
REMARK CNNaffinity 7.11306381
REMARK  12 active torsions:
REMARK  status: ('A' for Active; 'I' for Inactive)
REMARK    1  A    between atoms: O1_2  and  C2_3 
REMARK    2  A    between atoms: C2_3  and  C3_4 
REMARK    3  A    between atoms: C2_3  and  C7_8 
REMARK    4  A    between atoms: C7_8  and  C8_9 
REMARK    5  A    between atoms: C8_9  and  C10_11 
REMARK    6  A    between atoms: C28_30  and  O3_31 
REMARK    7  A    between atoms: O3_31  and  C29_32 
REMARK    8  A    between atoms: C30_34  and  C31_35 
REMARK    9  A    between atoms: C31_35  and  O5_36 
REMARK   10  A    between atoms: C32_37  and  O6_38 
REMARK   11  A    between atoms: C33_39  and  O7_40 
REMARK   12  A    between atoms: C34_41  and  O8_42 
ROOT
HETATM    1  C10 UNL     1      -1.332  50.594 -22.191  1.00  0.00    -0.002 C 
HETATM    2  C11 UNL     1      -1.533  51.616 -21.023  1.00  0.00     0.006 C 
HETATM    3  C12 UNL     1      -2.536  50.997 -20.026  1.00  0.00     0.011 C 
HETATM    4  C13 UNL     1      -2.577  49.507 -20.408  1.00  0.00    -0.029 C 
HETATM    5  C14 UNL     1      -1.279  48.894 -19.758  1.00  0.00     0.016 C 
HETATM    6  C15 UNL     1      -3.783  48.641 -19.899  1.00  0.00     0.028 C 
HETATM    7  C16 UNL     1      -5.063  49.295 -19.459  1.00  0.00    -0.021 C 
HETATM    8  C17 UNL     1      -6.229  48.627 -19.514  1.00  0.00     0.008 C 
HETATM    9  C18 UNL     1      -6.378  47.267 -20.193  1.00  0.00     0.092 C 
HETATM   10  O2  UNL     1      -5.723  46.316 -19.304  1.00  0.00    -0.374 OA
HETATM   11  C19 UNL     1      -4.327  46.198 -19.717  1.00  0.00     0.179 C 
HETATM   12  C20 UNL     1      -4.061  47.341 -20.758  1.00  0.00    -0.004 C 
HETATM   13  C21 UNL     1      -2.923  47.004 -21.732  1.00  0.00     0.014 C 
HETATM   14  C22 UNL     1      -2.351  48.179 -22.559  1.00  0.00     0.011 C 
HETATM   15  C23 UNL     1      -2.526  49.596 -21.966  1.00  0.00    -0.032 C 
HETATM   16  C24 UNL     1      -3.796  50.272 -22.552  1.00  0.00     0.016 C 
HETATM   17  C25 UNL     1      -5.453  47.179 -21.414  1.00  0.00     0.036 C 
HETATM   18  C26 UNL     1      -6.034  47.913 -22.603  1.00  0.00     0.011 C 
HETATM   19  C27 UNL     1      -7.296  47.164 -23.074  1.00  0.00     0.033 C 
HETATM   20  C28 UNL     1      -7.920  46.240 -21.996  1.00  0.00     0.136 C 
HETATM   21  C35 UNL     1      -7.878  46.875 -20.561  1.00  0.00     0.014 C 
HETATM   22  C36 UNL     1      -8.434  45.852 -19.544  1.00  0.00     0.021 C 
HETATM   23  C37 UNL     1      -8.860  48.082 -20.549  1.00  0.00     0.021 C 
ENDROOT
BRANCH  20  24
HETATM   24  O3  UNL     1      -9.276  45.965 -22.367  1.00  0.00    -0.352 OA
BRANCH  24  25
HETATM   25  C29 UNL     1      -9.580  46.201 -23.743  1.00  0.00     0.292 C 
HETATM   26  O4  UNL     1     -10.671  47.119 -23.822  1.00  0.00    -0.348 OA
HETATM   27  C30 UNL     1     -11.982  46.556 -23.666  1.00  0.00     0.179 C 
HETATM   28  C32 UNL     1     -12.277  45.460 -24.716  1.00  0.00     0.180 C 
HETATM   29  C33 UNL     1     -11.010  44.946 -25.410  1.00  0.00     0.183 C 
HETATM   30  C34 UNL     1      -9.847  44.842 -24.432  1.00  0.00     0.204 C 
BRANCH  27  31
HETATM   31  C31 UNL     1     -12.219  46.049 -22.230  1.00  0.00     0.198 C 
BRANCH  31  32
HETATM   32  O5  UNL     1     -13.544  45.544 -22.098  1.00  0.00    -0.398 OA
HETATM   33  H48 UNL     1     -14.124  46.277 -22.389  1.00  0.00     0.209 HD
ENDBRANCH  31  32
ENDBRANCH  27  31
BRANCH  28  34
HETATM   34  O6  UNL     1     -13.143  45.983 -25.742  1.00  0.00    -0.390 OA
HETATM   35  H50 UNL     1     -13.488  45.223 -26.252  1.00  0.00     0.210 HD
ENDBRANCH  28  34
BRANCH  29  36
HETATM   36  O7  UNL     1     -10.617  45.813 -26.496  1.00  0.00    -0.390 OA
HETATM   37  H52 UNL     1     -11.400  46.368 -26.696  1.00  0.00     0.210 HD
ENDBRANCH  29  36
BRANCH  30  38
HETATM   38  O8  UNL     1      -8.679  44.403 -25.143  1.00  0.00    -0.388 OA
HETATM   39  H54 UNL     1      -8.701  44.887 -25.995  1.00  0.00     0.210 HD
ENDBRANCH  30  38
ENDBRANCH  24  25
ENDBRANCH  20  24
BRANCH   1  40
HETATM   40  C8  UNL     1      -1.159  51.303 -23.576  1.00  0.00    -0.011 C 
HETATM   41  C9  UNL     1      -2.038  52.552 -23.684  1.00  0.00     0.010 C 
BRANCH  40  42
HETATM   42  C7  UNL     1      -1.475  50.309 -24.735  1.00  0.00     0.040 C 
BRANCH  42  43
HETATM   43  C2  UNL     1      -1.237  50.820 -26.179  1.00  0.00     0.144 C 
BRANCH  43  44
HETATM   44  O1  UNL     1      -2.024  50.067 -27.098  1.00  0.00    -0.387 OA
HETATM   45  C1  UNL     1      -3.008  50.845 -27.768  1.00  0.00     0.202 C 
ENDBRANCH  43  44
BRANCH  43  46
HETATM   46  C3  UNL     1       0.225  50.807 -26.577  1.00  0.00     0.007 C 
HETATM   47  C4  UNL     1       1.184  51.741 -26.407  1.00  0.00    -0.089 C 
HETATM   48  C5  UNL     1       1.000  53.037 -25.667  1.00  0.00     0.042 C 
HETATM   49  C6  UNL     1       2.565  51.536 -26.970  1.00  0.00     0.042 C 
ENDBRANCH  43  46
ENDBRANCH  42  43
ENDBRANCH  40  42
ENDBRANCH   1  40
TORSDOF 12
ENDMDL
