MODEL 1
REMARK minimizedAffinity -8.17459106
REMARK  8 active torsions:
REMARK  status: ('A' for Active; 'I' for Inactive)
REMARK    1  A    between atoms: C4_4  and  C5_5 
REMARK    2  A    between atoms: C5_5  and  C6_6 
REMARK    3  A    between atoms: C6_6  and  C7_7 
REMARK    4  A    between atoms: C7_7  and  C9_9 
REMARK    5  A    between atoms: C21_21  and  C22_22 
REMARK    6  A    between atoms: C22_22  and  C23_23 
REMARK    7  A    between atoms: C23_23  and  C24_24 
REMARK    8  A    between atoms: C24_24  and  O1_25 
ROOT
HETATM    1  C9  UNL     1      -1.720   6.755  12.546  1.00  0.00    -0.002 C 
HETATM    2  C10 UNL     1      -1.760   5.204  12.349  1.00  0.00     0.006 C 
HETATM    3  C11 UNL     1      -0.334   4.742  11.979  1.00  0.00     0.011 C 
HETATM    4  C12 UNL     1       0.413   6.042  11.620  1.00  0.00    -0.032 C 
HETATM    5  C13 UNL     1      -0.019   6.357  10.155  1.00  0.00     0.016 C 
HETATM    6  C14 UNL     1       1.969   5.987  11.772  1.00  0.00     0.003 C 
HETATM    7  C15 UNL     1       2.692   4.926  10.910  1.00  0.00     0.010 C 
HETATM    8  C16 UNL     1       3.031   5.320   9.469  1.00  0.00     0.035 C 
HETATM    9  C17 UNL     1       3.114   6.824   9.251  1.00  0.00    -0.073 C 
HETATM   10  C18 UNL     1       2.689   7.380   8.084  1.00  0.00    -0.085 C 
HETATM   11  C19 UNL     1       2.526   8.851   7.803  1.00  0.00     0.043 C 
HETATM   12  C20 UNL     1       2.293   6.549   6.879  1.00  0.00     0.043 C 
HETATM   13  C21 UNL     1       3.706   7.492  10.504  1.00  0.00     0.023 C 
HETATM   14  C25 UNL     1       2.673   7.416  11.719  1.00  0.00    -0.032 C 
HETATM   15  C26 UNL     1       3.510   7.590  13.023  1.00  0.00     0.016 C 
HETATM   16  C27 UNL     1       1.652   8.590  11.660  1.00  0.00     0.011 C 
HETATM   17  C28 UNL     1       0.310   8.457  12.415  1.00  0.00     0.011 C 
HETATM   18  C29 UNL     1      -0.183   7.024  12.701  1.00  0.00    -0.032 C 
HETATM   19  C30 UNL     1       0.184   6.667  14.178  1.00  0.00     0.016 C 
ENDROOT
BRANCH   1  20
HETATM   20  C7  UNL     1      -2.722   7.232  13.644  1.00  0.00    -0.014 C 
HETATM   21  C8  UNL     1      -2.638   6.304  14.870  1.00  0.00     0.010 C 
BRANCH  20  22
HETATM   22  C6  UNL     1      -4.177   7.288  13.120  1.00  0.00     0.008 C 
BRANCH  22  23
HETATM   23  C5  UNL     1      -5.180   6.353  13.814  1.00  0.00     0.028 C 
BRANCH  23  24
HETATM   24  C4  UNL     1      -5.324   5.031  13.109  1.00  0.00    -0.025 C 
HETATM   25  C2  UNL     1      -6.435   4.287  12.944  1.00  0.00    -0.091 C 
HETATM   26  C1  UNL     1      -7.804   4.630  13.462  1.00  0.00     0.042 C 
HETATM   27  C3  UNL     1      -6.375   2.985  12.186  1.00  0.00     0.042 C 
ENDBRANCH  23  24
ENDBRANCH  22  23
ENDBRANCH  20  22
ENDBRANCH   1  20
BRANCH  13  28
HETATM   28  C22 UNL     1       4.425   8.860  10.331  1.00  0.00     0.012 C 
BRANCH  28  29
HETATM   29  C23 UNL     1       5.954   8.832  10.528  1.00  0.00     0.027 C 
BRANCH  29  30
HETATM   30  C24 UNL     1       6.463   7.579  11.238  1.00  0.00     0.164 C 
BRANCH  30  31
HETATM   31  O1  UNL     1       7.193   6.749  10.349  1.00  0.00    -0.401 OA
HETATM   32  H42 UNL     1       7.549   6.013  10.874  1.00  0.00     0.209 HD
ENDBRANCH  30  31
ENDBRANCH  29  30
ENDBRANCH  28  29
ENDBRANCH  13  28
TORSDOF 8
ENDMDL
MODEL 2
REMARK minimizedAffinity -7.88761139
REMARK  8 active torsions:
REMARK  status: ('A' for Active; 'I' for Inactive)
REMARK    1  A    between atoms: C4_4  and  C5_5 
REMARK    2  A    between atoms: C5_5  and  C6_6 
REMARK    3  A    between atoms: C6_6  and  C7_7 
REMARK    4  A    between atoms: C7_7  and  C9_9 
REMARK    5  A    between atoms: C21_21  and  C22_22 
REMARK    6  A    between atoms: C22_22  and  C23_23 
REMARK    7  A    between atoms: C23_23  and  C24_24 
REMARK    8  A    between atoms: C24_24  and  O1_25 
ROOT
HETATM    1  C9  UNL     1      -1.183   5.475  13.568  1.00  0.00    -0.002 C 
HETATM    2  C10 UNL     1      -1.101   6.486  14.759  1.00  0.00     0.006 C 
HETATM    3  C11 UNL     1      -0.284   7.706  14.281  1.00  0.00     0.011 C 
HETATM    4  C12 UNL     1       0.386   7.237  12.976  1.00  0.00    -0.032 C 
HETATM    5  C13 UNL     1       1.624   6.409  13.438  1.00  0.00     0.016 C 
HETATM    6  C14 UNL     1       0.784   8.374  11.978  1.00  0.00     0.003 C 
HETATM    7  C15 UNL     1       1.781   9.424  12.517  1.00  0.00     0.010 C 
HETATM    8  C16 UNL     1       3.270   9.075  12.425  1.00  0.00     0.035 C 
HETATM    9  C17 UNL     1       3.588   8.039  11.356  1.00  0.00    -0.073 C 
HETATM   10  C18 UNL     1       4.564   7.111  11.559  1.00  0.00    -0.085 C 
HETATM   11  C19 UNL     1       4.853   5.916  10.690  1.00  0.00     0.043 C 
HETATM   12  C20 UNL     1       5.506   7.161  12.746  1.00  0.00     0.043 C 
HETATM   13  C21 UNL     1       2.661   8.246  10.147  1.00  0.00     0.023 C 
HETATM   14  C25 UNL     1       1.160   7.850  10.520  1.00  0.00    -0.032 C 
HETATM   15  C26 UNL     1       0.241   8.581   9.493  1.00  0.00     0.016 C 
HETATM   16  C27 UNL     1       0.925   6.320  10.349  1.00  0.00     0.011 C 
HETATM   17  C28 UNL     1      -0.257   5.654  11.089  1.00  0.00     0.011 C 
HETATM   18  C29 UNL     1      -0.777   6.375  12.349  1.00  0.00    -0.032 C 
HETATM   19  C30 UNL     1      -2.052   7.190  11.954  1.00  0.00     0.016 C 
ENDROOT
BRANCH   1  20
HETATM   20  C7  UNL     1      -2.533   4.691  13.557  1.00  0.00    -0.014 C 
HETATM   21  C8  UNL     1      -2.847   4.208  12.129  1.00  0.00     0.010 C 
BRANCH  20  22
HETATM   22  C6  UNL     1      -3.705   5.543  14.099  1.00  0.00     0.008 C 
BRANCH  22  23
HETATM   23  C5  UNL     1      -4.958   5.610  13.210  1.00  0.00     0.028 C 
BRANCH  23  24
HETATM   24  C4  UNL     1      -5.812   4.375  13.321  1.00  0.00    -0.025 C 
HETATM   25  C2  UNL     1      -7.108   4.222  12.986  1.00  0.00    -0.091 C 
HETATM   26  C1  UNL     1      -8.002   5.293  12.426  1.00  0.00     0.042 C 
HETATM   27  C3  UNL     1      -7.787   2.887  13.160  1.00  0.00     0.042 C 
ENDBRANCH  23  24
ENDBRANCH  22  23
ENDBRANCH  20  22
ENDBRANCH   1  20
BRANCH  13  28
HETATM   28  C22 UNL     1       3.151   7.750   8.757  1.00  0.00     0.012 C 
BRANCH  28  29
HETATM   29  C23 UNL     1       2.729   6.315   8.383  1.00  0.00     0.027 C 
BRANCH  29  30
HETATM   30  C24 UNL     1       2.350   6.144   6.914  1.00  0.00     0.164 C 
BRANCH  30  31
HETATM   31  O1  UNL     1       1.844   7.353   6.372  1.00  0.00    -0.401 OA
HETATM   32  H42 UNL     1       1.691   7.199   5.425  1.00  0.00     0.209 HD
ENDBRANCH  30  31
ENDBRANCH  29  30
ENDBRANCH  28  29
ENDBRANCH  13  28
TORSDOF 8
ENDMDL
MODEL 3
REMARK minimizedAffinity -7.66568661
REMARK  8 active torsions:
REMARK  status: ('A' for Active; 'I' for Inactive)
REMARK    1  A    between atoms: C4_4  and  C5_5 
REMARK    2  A    between atoms: C5_5  and  C6_6 
REMARK    3  A    between atoms: C6_6  and  C7_7 
REMARK    4  A    between atoms: C7_7  and  C9_9 
REMARK    5  A    between atoms: C21_21  and  C22_22 
REMARK    6  A    between atoms: C22_22  and  C23_23 
REMARK    7  A    between atoms: C23_23  and  C24_24 
REMARK    8  A    between atoms: C24_24  and  O1_25 
ROOT
HETATM    1  C9  UNL     1      -1.507   6.970  12.612  1.00  0.00    -0.002 C 
HETATM    2  C10 UNL     1      -1.647   5.431  12.367  1.00  0.00     0.006 C 
HETATM    3  C11 UNL     1      -0.272   4.905  11.902  1.00  0.00     0.011 C 
HETATM    4  C12 UNL     1       0.527   6.172  11.543  1.00  0.00    -0.032 C 
HETATM    5  C13 UNL     1       0.034   6.564  10.116  1.00  0.00     0.016 C 
HETATM    6  C14 UNL     1       2.083   6.026  11.603  1.00  0.00     0.003 C 
HETATM    7  C15 UNL     1       2.696   4.959  10.668  1.00  0.00     0.010 C 
HETATM    8  C16 UNL     1       2.976   5.383   9.223  1.00  0.00     0.035 C 
HETATM    9  C17 UNL     1       3.134   6.887   9.050  1.00  0.00    -0.073 C 
HETATM   10  C18 UNL     1       2.677   7.507   7.928  1.00  0.00    -0.085 C 
HETATM   11  C19 UNL     1       2.584   8.994   7.704  1.00  0.00     0.043 C 
HETATM   12  C20 UNL     1       2.168   6.743   6.721  1.00  0.00     0.043 C 
HETATM   13  C21 UNL     1       3.832   7.477  10.287  1.00  0.00     0.023 C 
HETATM   14  C25 UNL     1       2.865   7.415  11.556  1.00  0.00    -0.032 C 
HETATM   15  C26 UNL     1       3.781   7.495  12.816  1.00  0.00     0.016 C 
HETATM   16  C27 UNL     1       1.910   8.645  11.594  1.00  0.00     0.011 C 
HETATM   17  C28 UNL     1       0.607   8.560  12.420  1.00  0.00     0.011 C 
HETATM   18  C29 UNL     1       0.049   7.148  12.688  1.00  0.00    -0.032 C 
HETATM   19  C30 UNL     1       0.476   6.718  14.129  1.00  0.00     0.016 C 
ENDROOT
BRANCH   1  20
HETATM   20  C7  UNL     1      -2.417   7.462  13.780  1.00  0.00    -0.014 C 
HETATM   21  C8  UNL     1      -3.253   6.289  14.324  1.00  0.00     0.010 C 
BRANCH  20  22
HETATM   22  C6  UNL     1      -3.348   8.619  13.344  1.00  0.00     0.008 C 
BRANCH  22  23
HETATM   23  C5  UNL     1      -4.793   8.227  12.995  1.00  0.00     0.028 C 
BRANCH  23  24
HETATM   24  C4  UNL     1      -5.729   8.363  14.166  1.00  0.00    -0.025 C 
HETATM   25  C2  UNL     1      -6.758   7.565  14.512  1.00  0.00    -0.091 C 
HETATM   26  C1  UNL     1      -7.208   6.341  13.764  1.00  0.00     0.042 C 
HETATM   27  C3  UNL     1      -7.574   7.865  15.744  1.00  0.00     0.042 C 
ENDBRANCH  23  24
ENDBRANCH  22  23
ENDBRANCH  20  22
ENDBRANCH   1  20
BRANCH  13  28
HETATM   28  C22 UNL     1       4.617   8.808  10.119  1.00  0.00     0.012 C 
BRANCH  28  29
HETATM   29  C23 UNL     1       6.113   8.743  10.485  1.00  0.00     0.027 C 
BRANCH  29  30
HETATM   30  C24 UNL     1       6.569   9.853  11.429  1.00  0.00     0.164 C 
BRANCH  30  31
HETATM   31  O1  UNL     1       7.953  10.120  11.274  1.00  0.00    -0.401 OA
HETATM   32  H42 UNL     1       8.162  10.878  11.845  1.00  0.00     0.209 HD
ENDBRANCH  30  31
ENDBRANCH  29  30
ENDBRANCH  28  29
ENDBRANCH  13  28
TORSDOF 8
ENDMDL
MODEL 4
REMARK minimizedAffinity -7.51700401
REMARK  8 active torsions:
REMARK  status: ('A' for Active; 'I' for Inactive)
REMARK    1  A    between atoms: C4_4  and  C5_5 
REMARK    2  A    between atoms: C5_5  and  C6_6 
REMARK    3  A    between atoms: C6_6  and  C7_7 
REMARK    4  A    between atoms: C7_7  and  C9_9 
REMARK    5  A    between atoms: C21_21  and  C22_22 
REMARK    6  A    between atoms: C22_22  and  C23_23 
REMARK    7  A    between atoms: C23_23  and  C24_24 
REMARK    8  A    between atoms: C24_24  and  O1_25 
ROOT
HETATM    1  C9  UNL     1      -6.088   6.851  14.366  1.00  0.00    -0.002 C 
HETATM    2  C10 UNL     1      -5.797   6.082  15.696  1.00  0.00     0.006 C 
HETATM    3  C11 UNL     1      -4.300   6.268  16.027  1.00  0.00     0.011 C 
HETATM    4  C12 UNL     1      -3.683   6.821  14.728  1.00  0.00    -0.032 C 
HETATM    5  C13 UNL     1      -3.474   5.570  13.821  1.00  0.00     0.016 C 
HETATM    6  C14 UNL     1      -2.362   7.640  14.907  1.00  0.00     0.003 C 
HETATM    7  C15 UNL     1      -1.181   6.879  15.551  1.00  0.00     0.010 C 
HETATM    8  C16 UNL     1      -0.312   6.031  14.617  1.00  0.00     0.035 C 
HETATM    9  C17 UNL     1      -0.375   6.470  13.160  1.00  0.00    -0.073 C 
HETATM   10  C18 UNL     1      -0.329   5.552  12.157  1.00  0.00    -0.085 C 
HETATM   11  C19 UNL     1      -0.578   5.815  10.694  1.00  0.00     0.043 C 
HETATM   12  C20 UNL     1      -0.024   4.087  12.402  1.00  0.00     0.043 C 
HETATM   13  C21 UNL     1      -0.501   8.002  13.091  1.00  0.00     0.023 C 
HETATM   14  C25 UNL     1      -1.936   8.469  13.614  1.00  0.00    -0.032 C 
HETATM   15  C26 UNL     1      -1.791   9.965  14.027  1.00  0.00     0.016 C 
HETATM   16  C27 UNL     1      -2.997   8.399  12.476  1.00  0.00     0.011 C 
HETATM   17  C28 UNL     1      -4.495   8.334  12.850  1.00  0.00     0.011 C 
HETATM   18  C29 UNL     1      -4.835   7.788  14.250  1.00  0.00    -0.032 C 
HETATM   19  C30 UNL     1      -5.100   9.003  15.197  1.00  0.00     0.016 C 
ENDROOT
BRANCH   1  20
HETATM   20  C7  UNL     1      -7.529   7.451  14.338  1.00  0.00    -0.014 C 
HETATM   21  C8  UNL     1      -7.775   8.284  15.609  1.00  0.00     0.010 C 
BRANCH  20  22
HETATM   22  C6  UNL     1      -8.613   6.354  14.206  1.00  0.00     0.008 C 
BRANCH  22  23
HETATM   23  C5  UNL     1      -8.874   5.831  12.784  1.00  0.00     0.028 C 
BRANCH  23  24
HETATM   24  C4  UNL     1      -7.668   5.158  12.184  1.00  0.00    -0.025 C 
HETATM   25  C2  UNL     1      -7.107   3.983  12.532  1.00  0.00    -0.091 C 
HETATM   26  C1  UNL     1      -7.578   3.080  13.638  1.00  0.00     0.042 C 
HETATM   27  C3  UNL     1      -5.900   3.467  11.791  1.00  0.00     0.042 C 
ENDBRANCH  23  24
ENDBRANCH  22  23
ENDBRANCH  20  22
ENDBRANCH   1  20
BRANCH  13  28
HETATM   28  C22 UNL     1      -0.000   8.718  11.804  1.00  0.00     0.012 C 
BRANCH  28  29
HETATM   29  C23 UNL     1       1.530   8.767  11.630  1.00  0.00     0.027 C 
BRANCH  29  30
HETATM   30  C24 UNL     1       2.291   9.063  12.921  1.00  0.00     0.164 C 
BRANCH  30  31
HETATM   31  O1  UNL     1       2.340  10.456  13.178  1.00  0.00    -0.401 OA
HETATM   32  H42 UNL     1       2.769  10.572  14.042  1.00  0.00     0.209 HD
ENDBRANCH  30  31
ENDBRANCH  29  30
ENDBRANCH  28  29
ENDBRANCH  13  28
TORSDOF 8
ENDMDL
MODEL 5
REMARK minimizedAffinity -7.5073514
REMARK  8 active torsions:
REMARK  status: ('A' for Active; 'I' for Inactive)
REMARK    1  A    between atoms: C4_4  and  C5_5 
REMARK    2  A    between atoms: C5_5  and  C6_6 
REMARK    3  A    between atoms: C6_6  and  C7_7 
REMARK    4  A    between atoms: C7_7  and  C9_9 
REMARK    5  A    between atoms: C21_21  and  C22_22 
REMARK    6  A    between atoms: C22_22  and  C23_23 
REMARK    7  A    between atoms: C23_23  and  C24_24 
REMARK    8  A    between atoms: C24_24  and  O1_25 
ROOT
HETATM    1  C9  UNL     1      -0.308  10.441  16.714  1.00  0.00    -0.002 C 
HETATM    2  C10 UNL     1      -0.696  11.695  15.863  1.00  0.00     0.006 C 
HETATM    3  C11 UNL     1      -1.339  11.189  14.553  1.00  0.00     0.011 C 
HETATM    4  C12 UNL     1      -0.992   9.689  14.505  1.00  0.00    -0.032 C 
HETATM    5  C13 UNL     1       0.474   9.636  13.974  1.00  0.00     0.016 C 
HETATM    6  C14 UNL     1      -1.955   8.803  13.649  1.00  0.00     0.003 C 
HETATM    7  C15 UNL     1      -2.064   9.178  12.153  1.00  0.00     0.010 C 
HETATM    8  C16 UNL     1      -0.999   8.601  11.216  1.00  0.00     0.035 C 
HETATM    9  C17 UNL     1      -0.333   7.342  11.752  1.00  0.00    -0.073 C 
HETATM   10  C18 UNL     1       0.989   7.106  11.525  1.00  0.00    -0.085 C 
HETATM   11  C19 UNL     1       1.822   6.018  12.152  1.00  0.00     0.043 C 
HETATM   12  C20 UNL     1       1.822   7.957  10.586  1.00  0.00     0.043 C 
HETATM   13  C21 UNL     1      -1.365   6.504  12.526  1.00  0.00     0.023 C 
HETATM   14  C25 UNL     1      -1.773   7.237  13.885  1.00  0.00    -0.032 C 
HETATM   15  C26 UNL     1      -3.154   6.649  14.307  1.00  0.00     0.016 C 
HETATM   16  C27 UNL     1      -0.760   6.913  15.022  1.00  0.00     0.011 C 
HETATM   17  C28 UNL     1      -0.673   7.857  16.242  1.00  0.00     0.011 C 
HETATM   18  C29 UNL     1      -1.147   9.308  16.028  1.00  0.00    -0.032 C 
HETATM   19  C30 UNL     1      -2.603   9.434  16.585  1.00  0.00     0.016 C 
ENDROOT
BRANCH   1  20
HETATM   20  C7  UNL     1      -0.443  10.709  18.247  1.00  0.00    -0.014 C 
HETATM   21  C8  UNL     1      -1.161  12.050  18.483  1.00  0.00     0.010 C 
BRANCH  20  22
HETATM   22  C6  UNL     1       0.930  10.708  18.960  1.00  0.00     0.008 C 
BRANCH  22  23
HETATM   23  C5  UNL     1       0.892  10.652  20.496  1.00  0.00     0.028 C 
BRANCH  23  24
HETATM   24  C4  UNL     1       2.266  10.577  21.106  1.00  0.00    -0.025 C 
HETATM   25  C2  UNL     1       2.773   9.623  21.911  1.00  0.00    -0.091 C 
HETATM   26  C1  UNL     1       2.039   8.402  22.393  1.00  0.00     0.042 C 
HETATM   27  C3  UNL     1       4.192   9.722  22.411  1.00  0.00     0.042 C 
ENDBRANCH  23  24
ENDBRANCH  22  23
ENDBRANCH  20  22
ENDBRANCH   1  20
BRANCH  13  28
HETATM   28  C22 UNL     1      -1.121   4.973  12.647  1.00  0.00     0.012 C 
BRANCH  28  29
HETATM   29  C23 UNL     1      -1.715   4.119  11.510  1.00  0.00     0.027 C 
BRANCH  29  30
HETATM   30  C24 UNL     1      -1.040   2.759  11.340  1.00  0.00     0.164 C 
BRANCH  30  31
HETATM   31  O1  UNL     1      -1.551   2.073  10.209  1.00  0.00    -0.401 OA
HETATM   32  H42 UNL     1      -1.034   1.256  10.114  1.00  0.00     0.209 HD
ENDBRANCH  30  31
ENDBRANCH  29  30
ENDBRANCH  28  29
ENDBRANCH  13  28
TORSDOF 8
ENDMDL
MODEL 6
REMARK minimizedAffinity -7.45654392
REMARK  8 active torsions:
REMARK  status: ('A' for Active; 'I' for Inactive)
REMARK    1  A    between atoms: C4_4  and  C5_5 
REMARK    2  A    between atoms: C5_5  and  C6_6 
REMARK    3  A    between atoms: C6_6  and  C7_7 
REMARK    4  A    between atoms: C7_7  and  C9_9 
REMARK    5  A    between atoms: C21_21  and  C22_22 
REMARK    6  A    between atoms: C22_22  and  C23_23 
REMARK    7  A    between atoms: C23_23  and  C24_24 
REMARK    8  A    between atoms: C24_24  and  O1_25 
ROOT
HETATM    1  C9  UNL     1      -4.390   6.748  13.366  1.00  0.00    -0.002 C 
HETATM    2  C10 UNL     1      -4.464   5.227  13.009  1.00  0.00     0.006 C 
HETATM    3  C11 UNL     1      -3.048   4.636  13.183  1.00  0.00     0.011 C 
HETATM    4  C12 UNL     1      -2.125   5.866  13.282  1.00  0.00    -0.032 C 
HETATM    5  C13 UNL     1      -1.909   6.322  11.806  1.00  0.00     0.016 C 
HETATM    6  C14 UNL     1      -0.769   5.630  14.025  1.00  0.00     0.003 C 
HETATM    7  C15 UNL     1       0.157   4.555  13.411  1.00  0.00     0.010 C 
HETATM    8  C16 UNL     1       1.072   5.001  12.267  1.00  0.00     0.035 C 
HETATM    9  C17 UNL     1       1.349   6.498  12.256  1.00  0.00    -0.073 C 
HETATM   10  C18 UNL     1       1.469   7.172  11.080  1.00  0.00    -0.085 C 
HETATM   11  C19 UNL     1       1.544   8.667  10.912  1.00  0.00     0.043 C 
HETATM   12  C20 UNL     1       1.528   6.470   9.737  1.00  0.00     0.043 C 
HETATM   13  C21 UNL     1       1.439   7.014  13.702  1.00  0.00     0.023 C 
HETATM   14  C25 UNL     1       0.004   6.974  14.400  1.00  0.00    -0.032 C 
HETATM   15  C26 UNL     1       0.259   6.969  15.938  1.00  0.00     0.016 C 
HETATM   16  C27 UNL     1      -0.818   8.254  14.068  1.00  0.00     0.011 C 
HETATM   17  C28 UNL     1      -2.355   8.221  14.218  1.00  0.00     0.011 C 
HETATM   18  C29 UNL     1      -3.028   6.836  14.138  1.00  0.00    -0.032 C 
HETATM   19  C30 UNL     1      -3.310   6.345  15.596  1.00  0.00     0.016 C 
ENDROOT
BRANCH   1  20
HETATM   20  C7  UNL     1      -5.708   7.261  14.027  1.00  0.00    -0.014 C 
HETATM   21  C8  UNL     1      -5.551   8.738  14.434  1.00  0.00     0.010 C 
BRANCH  20  22
HETATM   22  C6  UNL     1      -6.111   6.411  15.256  1.00  0.00     0.008 C 
BRANCH  22  23
HETATM   23  C5  UNL     1      -7.507   5.771  15.205  1.00  0.00     0.028 C 
BRANCH  23  24
HETATM   24  C4  UNL     1      -7.496   4.407  14.567  1.00  0.00    -0.025 C 
HETATM   25  C2  UNL     1      -7.823   4.072  13.304  1.00  0.00    -0.091 C 
HETATM   26  C1  UNL     1      -8.299   5.022  12.240  1.00  0.00     0.042 C 
HETATM   27  C3  UNL     1      -7.730   2.638  12.848  1.00  0.00     0.042 C 
ENDBRANCH  23  24
ENDBRANCH  22  23
ENDBRANCH  20  22
ENDBRANCH   1  20
BRANCH  13  28
HETATM   28  C22 UNL     1       2.268   8.303  13.968  1.00  0.00     0.012 C 
BRANCH  28  29
HETATM   29  C23 UNL     1       3.119   8.286  15.253  1.00  0.00     0.027 C 
BRANCH  29  30
HETATM   30  C24 UNL     1       4.623   8.216  14.998  1.00  0.00     0.164 C 
BRANCH  30  31
HETATM   31  O1  UNL     1       5.181   7.036  15.553  1.00  0.00    -0.401 OA
HETATM   32  H42 UNL     1       6.117   7.015  15.296  1.00  0.00     0.209 HD
ENDBRANCH  30  31
ENDBRANCH  29  30
ENDBRANCH  28  29
ENDBRANCH  13  28
TORSDOF 8
ENDMDL
MODEL 7
REMARK minimizedAffinity -7.26303673
REMARK  8 active torsions:
REMARK  status: ('A' for Active; 'I' for Inactive)
REMARK    1  A    between atoms: C4_4  and  C5_5 
REMARK    2  A    between atoms: C5_5  and  C6_6 
REMARK    3  A    between atoms: C6_6  and  C7_7 
REMARK    4  A    between atoms: C7_7  and  C9_9 
REMARK    5  A    between atoms: C21_21  and  C22_22 
REMARK    6  A    between atoms: C22_22  and  C23_23 
REMARK    7  A    between atoms: C23_23  and  C24_24 
REMARK    8  A    between atoms: C24_24  and  O1_25 
ROOT
HETATM    1  C9  UNL     1      -1.692   7.347  12.654  1.00  0.00    -0.002 C 
HETATM    2  C10 UNL     1      -1.939   5.818  12.436  1.00  0.00     0.006 C 
HETATM    3  C11 UNL     1      -0.587   5.176  12.056  1.00  0.00     0.011 C 
HETATM    4  C12 UNL     1       0.325   6.369  11.711  1.00  0.00    -0.032 C 
HETATM    5  C13 UNL     1      -0.063   6.760  10.252  1.00  0.00     0.016 C 
HETATM    6  C14 UNL     1       1.860   6.105  11.856  1.00  0.00     0.003 C 
HETATM    7  C15 UNL     1       2.434   4.970  10.978  1.00  0.00     0.010 C 
HETATM    8  C16 UNL     1       2.820   5.335   9.541  1.00  0.00     0.035 C 
HETATM    9  C17 UNL     1       3.103   6.817   9.343  1.00  0.00    -0.073 C 
HETATM   10  C18 UNL     1       2.753   7.441   8.185  1.00  0.00    -0.085 C 
HETATM   11  C19 UNL     1       2.787   8.925   7.925  1.00  0.00     0.043 C 
HETATM   12  C20 UNL     1       2.247   6.687   6.970  1.00  0.00     0.043 C 
HETATM   13  C21 UNL     1       3.781   7.383  10.602  1.00  0.00     0.023 C 
HETATM   14  C25 UNL     1       2.749   7.429  11.820  1.00  0.00    -0.032 C 
HETATM   15  C26 UNL     1       3.603   7.471  13.123  1.00  0.00     0.016 C 
HETATM   16  C27 UNL     1       1.893   8.729  11.781  1.00  0.00     0.011 C 
HETATM   17  C28 UNL     1       0.547   8.765  12.539  1.00  0.00     0.011 C 
HETATM   18  C29 UNL     1      -0.132   7.408  12.808  1.00  0.00    -0.032 C 
HETATM   19  C30 UNL     1       0.187   6.984  14.278  1.00  0.00     0.016 C 
ENDROOT
BRANCH   1  20
HETATM   20  C7  UNL     1      -2.619   7.939  13.763  1.00  0.00    -0.014 C 
HETATM   21  C8  UNL     1      -4.081   7.537  13.492  1.00  0.00     0.010 C 
BRANCH  20  22
HETATM   22  C6  UNL     1      -2.501   9.479  13.858  1.00  0.00     0.008 C 
BRANCH  22  23
HETATM   23  C5  UNL     1      -1.779  10.024  15.101  1.00  0.00     0.028 C 
BRANCH  23  24
HETATM   24  C4  UNL     1      -2.677  10.094  16.308  1.00  0.00    -0.025 C 
HETATM   25  C2  UNL     1      -2.366  10.477  17.561  1.00  0.00    -0.091 C 
HETATM   26  C1  UNL     1      -1.007  10.915  18.032  1.00  0.00     0.042 C 
HETATM   27  C3  UNL     1      -3.422  10.493  18.637  1.00  0.00     0.042 C 
ENDBRANCH  23  24
ENDBRANCH  22  23
ENDBRANCH  20  22
ENDBRANCH   1  20
BRANCH  13  28
HETATM   28  C22 UNL     1       4.675   8.646  10.446  1.00  0.00     0.012 C 
BRANCH  28  29
HETATM   29  C23 UNL     1       6.192   8.378  10.402  1.00  0.00     0.027 C 
BRANCH  29  30
HETATM   30  C24 UNL     1       6.596   7.014  10.957  1.00  0.00     0.164 C 
BRANCH  30  31
HETATM   31  O1  UNL     1       7.570   7.145  11.979  1.00  0.00    -0.401 OA
HETATM   32  H42 UNL     1       7.729   6.256  12.338  1.00  0.00     0.209 HD
ENDBRANCH  30  31
ENDBRANCH  29  30
ENDBRANCH  28  29
ENDBRANCH  13  28
TORSDOF 8
ENDMDL
MODEL 8
REMARK minimizedAffinity -7.1228776
REMARK  8 active torsions:
REMARK  status: ('A' for Active; 'I' for Inactive)
REMARK    1  A    between atoms: C4_4  and  C5_5 
REMARK    2  A    between atoms: C5_5  and  C6_6 
REMARK    3  A    between atoms: C6_6  and  C7_7 
REMARK    4  A    between atoms: C7_7  and  C9_9 
REMARK    5  A    between atoms: C21_21  and  C22_22 
REMARK    6  A    between atoms: C22_22  and  C23_23 
REMARK    7  A    between atoms: C23_23  and  C24_24 
REMARK    8  A    between atoms: C24_24  and  O1_25 
ROOT
HETATM    1  C9  UNL     1       0.867   8.459  11.406  1.00  0.00    -0.002 C 
HETATM    2  C10 UNL     1       1.798   9.221  12.406  1.00  0.00     0.006 C 
HETATM    3  C11 UNL     1       1.323   8.885  13.836  1.00  0.00     0.011 C 
HETATM    4  C12 UNL     1      -0.064   8.243  13.643  1.00  0.00    -0.032 C 
HETATM    5  C13 UNL     1      -1.037   9.446  13.449  1.00  0.00     0.016 C 
HETATM    6  C14 UNL     1      -0.532   7.293  14.795  1.00  0.00     0.003 C 
HETATM    7  C15 UNL     1      -0.644   7.939  16.194  1.00  0.00     0.010 C 
HETATM    8  C16 UNL     1      -1.952   8.670  16.516  1.00  0.00     0.035 C 
HETATM    9  C17 UNL     1      -3.131   8.210  15.670  1.00  0.00    -0.073 C 
HETATM   10  C18 UNL     1      -4.079   9.098  15.262  1.00  0.00    -0.085 C 
HETATM   11  C19 UNL     1      -5.181   8.833  14.269  1.00  0.00     0.043 C 
HETATM   12  C20 UNL     1      -4.132  10.527  15.765  1.00  0.00     0.043 C 
HETATM   13  C21 UNL     1      -3.015   6.700  15.405  1.00  0.00     0.023 C 
HETATM   14  C25 UNL     1      -1.796   6.398  14.419  1.00  0.00    -0.032 C 
HETATM   15  C26 UNL     1      -1.409   4.903  14.638  1.00  0.00     0.016 C 
HETATM   16  C27 UNL     1      -2.226   6.555  12.931  1.00  0.00     0.011 C 
HETATM   17  C28 UNL     1      -1.141   6.786  11.856  1.00  0.00     0.011 C 
HETATM   18  C29 UNL     1       0.191   7.394  12.337  1.00  0.00    -0.032 C 
HETATM   19  C30 UNL     1       1.225   6.233  12.507  1.00  0.00     0.016 C 
ENDROOT
BRANCH   1  20
HETATM   20  C7  UNL     1       1.629   8.015  10.118  1.00  0.00    -0.014 C 
HETATM   21  C8  UNL     1       0.675   8.040   8.910  1.00  0.00     0.010 C 
BRANCH  20  22
HETATM   22  C6  UNL     1       2.255   6.608  10.270  1.00  0.00     0.008 C 
BRANCH  22  23
HETATM   23  C5  UNL     1       3.732   6.480   9.862  1.00  0.00     0.028 C 
BRANCH  23  24
HETATM   24  C4  UNL     1       4.547   7.683  10.252  1.00  0.00    -0.025 C 
HETATM   25  C2  UNL     1       5.803   7.722  10.737  1.00  0.00    -0.091 C 
HETATM   26  C1  UNL     1       6.675   6.528  11.010  1.00  0.00     0.042 C 
HETATM   27  C3  UNL     1       6.457   9.043  11.055  1.00  0.00     0.042 C 
ENDBRANCH  23  24
ENDBRANCH  22  23
ENDBRANCH  20  22
ENDBRANCH   1  20
BRANCH  13  28
HETATM   28  C22 UNL     1      -4.320   5.908  15.106  1.00  0.00     0.012 C 
BRANCH  28  29
HETATM   29  C23 UNL     1      -4.522   5.503  13.633  1.00  0.00     0.027 C 
BRANCH  29  30
HETATM   30  C24 UNL     1      -5.977   5.228  13.260  1.00  0.00     0.164 C 
BRANCH  30  31
HETATM   31  O1  UNL     1      -6.247   3.836  13.246  1.00  0.00    -0.401 OA
HETATM   32  H42 UNL     1      -7.199   3.732  13.076  1.00  0.00     0.209 HD
ENDBRANCH  30  31
ENDBRANCH  29  30
ENDBRANCH  28  29
ENDBRANCH  13  28
TORSDOF 8
ENDMDL
MODEL 9
REMARK minimizedAffinity -7.08572292
REMARK  8 active torsions:
REMARK  status: ('A' for Active; 'I' for Inactive)
REMARK    1  A    between atoms: C4_4  and  C5_5 
REMARK    2  A    between atoms: C5_5  and  C6_6 
REMARK    3  A    between atoms: C6_6  and  C7_7 
REMARK    4  A    between atoms: C7_7  and  C9_9 
REMARK    5  A    between atoms: C21_21  and  C22_22 
REMARK    6  A    between atoms: C22_22  and  C23_23 
REMARK    7  A    between atoms: C23_23  and  C24_24 
REMARK    8  A    between atoms: C24_24  and  O1_25 
ROOT
HETATM    1  C9  UNL     1       0.893   8.340  11.629  1.00  0.00    -0.002 C 
HETATM    2  C10 UNL     1       1.838   7.679  12.686  1.00  0.00     0.006 C 
HETATM    3  C11 UNL     1       0.959   7.187  13.856  1.00  0.00     0.011 C 
HETATM    4  C12 UNL     1      -0.401   7.877  13.636  1.00  0.00    -0.032 C 
HETATM    5  C13 UNL     1      -0.211   9.320  14.196  1.00  0.00     0.016 C 
HETATM    6  C14 UNL     1      -1.631   7.157  14.280  1.00  0.00     0.003 C 
HETATM    7  C15 UNL     1      -1.581   6.981  15.814  1.00  0.00     0.010 C 
HETATM    8  C16 UNL     1      -2.061   8.162  16.663  1.00  0.00     0.035 C 
HETATM    9  C17 UNL     1      -3.007   9.099  15.924  1.00  0.00    -0.073 C 
HETATM   10  C18 UNL     1      -2.969  10.441  16.147  1.00  0.00    -0.085 C 
HETATM   11  C19 UNL     1      -3.695  11.498  15.357  1.00  0.00     0.043 C 
HETATM   12  C20 UNL     1      -2.141  11.062  17.255  1.00  0.00     0.043 C 
HETATM   13  C21 UNL     1      -3.900   8.282  14.974  1.00  0.00     0.023 C 
HETATM   14  C25 UNL     1      -3.039   7.699  13.762  1.00  0.00    -0.032 C 
HETATM   15  C26 UNL     1      -3.840   6.489  13.192  1.00  0.00     0.016 C 
HETATM   16  C27 UNL     1      -2.899   8.746  12.619  1.00  0.00     0.011 C 
HETATM   17  C28 UNL     1      -1.747   8.596  11.600  1.00  0.00     0.011 C 
HETATM   18  C29 UNL     1      -0.513   7.797  12.064  1.00  0.00    -0.032 C 
HETATM   19  C30 UNL     1      -0.626   6.347  11.492  1.00  0.00     0.016 C 
ENDROOT
BRANCH   1  20
HETATM   20  C7  UNL     1       1.406   8.128  10.170  1.00  0.00    -0.014 C 
HETATM   21  C8  UNL     1       0.281   8.446   9.168  1.00  0.00     0.010 C 
BRANCH  20  22
HETATM   22  C6  UNL     1       1.930   6.691   9.941  1.00  0.00     0.008 C 
BRANCH  22  23
HETATM   23  C5  UNL     1       3.373   6.572   9.426  1.00  0.00     0.028 C 
BRANCH  23  24
HETATM   24  C4  UNL     1       4.182   7.817   9.679  1.00  0.00    -0.025 C 
HETATM   25  C2  UNL     1       5.106   8.034  10.634  1.00  0.00    -0.091 C 
HETATM   26  C1  UNL     1       5.525   7.048  11.689  1.00  0.00     0.042 C 
HETATM   27  C3  UNL     1       5.825   9.358  10.712  1.00  0.00     0.042 C 
ENDBRANCH  23  24
ENDBRANCH  22  23
ENDBRANCH  20  22
ENDBRANCH   1  20
BRANCH  13  28
HETATM   28  C22 UNL     1      -5.281   8.877  14.578  1.00  0.00     0.012 C 
BRANCH  28  29
HETATM   29  C23 UNL     1      -6.452   8.499  15.506  1.00  0.00     0.027 C 
BRANCH  29  30
HETATM   30  C24 UNL     1      -6.642   6.994  15.683  1.00  0.00     0.164 C 
BRANCH  30  31
HETATM   31  O1  UNL     1      -7.023   6.679  17.011  1.00  0.00    -0.401 OA
HETATM   32  H42 UNL     1      -7.198   5.724  17.039  1.00  0.00     0.209 HD
ENDBRANCH  30  31
ENDBRANCH  29  30
ENDBRANCH  28  29
ENDBRANCH  13  28
TORSDOF 8
ENDMDL
