MODEL 1
REMARK minimizedAffinity -8.65672493
REMARK CNNscore 0.557453632
REMARK CNNaffinity 7.26077604
REMARK  19 active torsions:
REMARK  status: ('A' for Active; 'I' for Inactive)
REMARK    1  A    between atoms: C19_20  and  O2_21 
REMARK    2  A    between atoms: C19_20  and  C20_22 
REMARK    3  A    between atoms: C20_22  and  C21_24 
REMARK    4  A    between atoms: C21_24  and  O4_25 
REMARK    5  A    between atoms: O4_25  and  C22_26 
REMARK    6  A    between atoms: C22_26  and  C23_28 
REMARK    7  A    between atoms: C23_28  and  C24_29 
REMARK    8  A    between atoms: C24_29  and  C25_30 
REMARK       I    between atoms: C25_30  and  N1_32 
REMARK    9  A    between atoms: N1_32  and  C26_33 
REMARK   10  A    between atoms: C26_33  and  C27_34 
REMARK   11  A    between atoms: C27_34  and  C28_35 
REMARK   12  A    between atoms: C28_35  and  C29_36 
REMARK   13  A    between atoms: C29_36  and  C30_37 
REMARK   14  A    between atoms: C30_37  and  C31_38 
REMARK       I    between atoms: C31_38  and  N2_40 
REMARK   15  A    between atoms: N2_40  and  C32_41 
REMARK   16  A    between atoms: C32_41  and  C33_42 
REMARK   17  A    between atoms: C32_41  and  C40_49 
REMARK   18  A    between atoms: C33_42  and  C34_43 
REMARK   19  A    between atoms: C40_49  and  O9_51 
ROOT
HETATM    1  C22 UNL     1       1.041  53.402 -22.036  1.00  0.00     0.259 C 
HETATM    2  O5  UNL     1       1.419  54.442 -22.563  1.00  0.00    -0.265 OA
ENDROOT
BRANCH   1   3
HETATM    3  O4  UNL     1       0.298  52.455 -22.661  1.00  0.00    -0.314 OA
BRANCH   3   4
HETATM    4  C21 UNL     1      -0.111  52.793 -23.990  1.00  0.00     0.260 C 
BRANCH   4   5
HETATM    5  C20 UNL     1      -1.073  51.721 -24.497  1.00  0.00     0.185 C 
HETATM    6  O3  UNL     1      -1.111  51.402 -25.688  1.00  0.00    -0.292 OA
BRANCH   5   7
HETATM    7  C19 UNL     1      -2.071  51.128 -23.478  1.00  0.00     0.128 C 
HETATM    8  C14 UNL     1      -3.438  50.627 -24.050  1.00  0.00    -0.002 C 
HETATM    9  C13 UNL     1      -3.435  49.218 -24.693  1.00  0.00     0.013 C 
HETATM   10  C15 UNL     1      -4.016  51.676 -25.038  1.00  0.00     0.019 C 
HETATM   11  C16 UNL     1      -4.252  50.534 -22.743  1.00  0.00     0.002 C 
HETATM   12  C12 UNL     1      -4.624  48.315 -24.277  1.00  0.00     0.007 C 
HETATM   13  C11 UNL     1      -5.936  49.107 -24.069  1.00  0.00     0.002 C 
HETATM   14  C2  UNL     1      -7.292  48.281 -24.000  1.00  0.00    -0.016 C 
HETATM   15  C10 UNL     1      -5.739  50.157 -22.918  1.00  0.00    -0.004 C 
HETATM   16  C1  UNL     1      -8.388  49.126 -24.707  1.00  0.00     0.020 C 
HETATM   17  C3  UNL     1      -7.162  46.922 -24.749  1.00  0.00     0.022 C 
HETATM   18  C7  UNL     1      -7.787  48.025 -22.577  1.00  0.00    -0.068 C 
HETATM   19  C4  UNL     1      -8.371  46.011 -24.586  1.00  0.00     0.084 C 
HETATM   20  C5  UNL     1      -8.627  45.766 -23.122  1.00  0.00     0.149 C 
HETATM   21  O1  UNL     1      -9.109  44.717 -22.703  1.00  0.00    -0.293 OA
HETATM   22  C6  UNL     1      -8.351  46.871 -22.176  1.00  0.00     0.053 C 
HETATM   23  C8  UNL     1      -7.684  49.173 -21.615  1.00  0.00     0.035 C 
HETATM   24  C9  UNL     1      -6.258  49.672 -21.553  1.00  0.00     0.010 C 
HETATM   25  C17 UNL     1      -3.948  51.834 -22.010  1.00  0.00     0.009 C 
HETATM   26  C18 UNL     1      -2.498  52.168 -22.402  1.00  0.00     0.047 C 
BRANCH   7  27
HETATM   27  O2  UNL     1      -1.395  50.058 -22.806  1.00  0.00    -0.381 OA
HETATM   28  H27 UNL     1      -0.670  50.447 -22.281  1.00  0.00     0.211 HD
ENDBRANCH   7  27
ENDBRANCH   5   7
ENDBRANCH   4   5
ENDBRANCH   3   4
ENDBRANCH   1   3
BRANCH   1  29
HETATM   29  C23 UNL     1       1.247  53.080 -20.573  1.00  0.00     0.120 C 
BRANCH  29  30
HETATM   30  C24 UNL     1       0.098  52.307 -19.935  1.00  0.00     0.112 C 
BRANCH  30  31
HETATM   31  C25 UNL     1       0.349  52.026 -18.468  1.00  0.00     0.217 C 
HETATM   32  O6  UNL     1      -0.086  51.036 -17.891  1.00  0.00    -0.274 OA
HETATM   33  N1  UNL     1       1.136  52.982 -17.864  1.00  0.00    -0.361 N 
HETATM   34  H34 UNL     1       1.477  53.760 -18.414  1.00  0.00     0.162 HD
BRANCH  33  35
HETATM   35  C26 UNL     1       1.625  52.830 -16.508  1.00  0.00     0.122 C 
BRANCH  35  36
HETATM   36  C27 UNL     1       3.049  52.278 -16.514  1.00  0.00     0.020 C 
BRANCH  36  37
HETATM   37  C28 UNL     1       3.748  52.374 -15.156  1.00  0.00     0.002 C 
BRANCH  37  38
HETATM   38  C29 UNL     1       3.281  51.297 -14.171  1.00  0.00     0.009 C 
BRANCH  38  39
HETATM   39  C30 UNL     1       2.146  51.785 -13.270  1.00  0.00     0.103 C 
BRANCH  39  40
HETATM   40  C31 UNL     1       2.628  52.398 -11.967  1.00  0.00     0.218 C 
HETATM   41  O7  UNL     1       3.508  51.918 -11.263  1.00  0.00    -0.274 OA
HETATM   42  N2  UNL     1       1.962  53.564 -11.647  1.00  0.00    -0.346 N 
HETATM   43  H45 UNL     1       1.041  53.679 -12.056  1.00  0.00     0.163 HD
BRANCH  42  44
HETATM   44  C32 UNL     1       2.160  54.191 -10.331  1.00  0.00     0.186 C 
BRANCH  44  45
HETATM   45  C33 UNL     1       2.994  55.468 -10.478  1.00  0.00     0.074 C 
BRANCH  45  46
HETATM   46  C34 UNL     1       4.245  55.484  -9.634  1.00  0.00    -0.056 A 
HETATM   47  C35 UNL     1       4.309  56.266  -8.471  1.00  0.00     0.007 A 
HETATM   48  C36 UNL     1       5.472  56.293  -7.701  1.00  0.00     0.001 A 
HETATM   49  C37 UNL     1       6.580  55.538  -8.081  1.00  0.00     0.000 A 
HETATM   50  C38 UNL     1       6.526  54.757  -9.234  1.00  0.00     0.001 A 
HETATM   51  C39 UNL     1       5.366  54.729 -10.008  1.00  0.00     0.007 A 
ENDBRANCH  45  46
ENDBRANCH  44  45
BRANCH  44  52
HETATM   52  C40 UNL     1       0.775  54.529  -9.785  1.00  0.00     0.163 C 
HETATM   53  O8  UNL     1       0.464  55.577  -9.233  1.00  0.00    -0.648 OA
BRANCH  52  54
HETATM   54  O9  UNL     1      -0.127  53.544  -9.948  1.00  0.00    -0.775 OA
HETATM   55  H54 UNL     1      -0.960  53.895  -9.575  1.00  0.00     0.167 HD
ENDBRANCH  52  54
ENDBRANCH  44  52
ENDBRANCH  42  44
ENDBRANCH  39  40
ENDBRANCH  38  39
ENDBRANCH  37  38
ENDBRANCH  36  37
ENDBRANCH  35  36
ENDBRANCH  33  35
ENDBRANCH  30  31
ENDBRANCH  29  30
ENDBRANCH   1  29
TORSDOF 19
ENDMDL
MODEL 2
REMARK minimizedAffinity -8.79907227
REMARK CNNscore 0.51670295
REMARK CNNaffinity 7.05524254
REMARK  19 active torsions:
REMARK  status: ('A' for Active; 'I' for Inactive)
REMARK    1  A    between atoms: C19_20  and  O2_21 
REMARK    2  A    between atoms: C19_20  and  C20_22 
REMARK    3  A    between atoms: C20_22  and  C21_24 
REMARK    4  A    between atoms: C21_24  and  O4_25 
REMARK    5  A    between atoms: O4_25  and  C22_26 
REMARK    6  A    between atoms: C22_26  and  C23_28 
REMARK    7  A    between atoms: C23_28  and  C24_29 
REMARK    8  A    between atoms: C24_29  and  C25_30 
REMARK       I    between atoms: C25_30  and  N1_32 
REMARK    9  A    between atoms: N1_32  and  C26_33 
REMARK   10  A    between atoms: C26_33  and  C27_34 
REMARK   11  A    between atoms: C27_34  and  C28_35 
REMARK   12  A    between atoms: C28_35  and  C29_36 
REMARK   13  A    between atoms: C29_36  and  C30_37 
REMARK   14  A    between atoms: C30_37  and  C31_38 
REMARK       I    between atoms: C31_38  and  N2_40 
REMARK   15  A    between atoms: N2_40  and  C32_41 
REMARK   16  A    between atoms: C32_41  and  C33_42 
REMARK   17  A    between atoms: C32_41  and  C40_49 
REMARK   18  A    between atoms: C33_42  and  C34_43 
REMARK   19  A    between atoms: C40_49  and  O9_51 
ROOT
HETATM    1  C22 UNL     1      -2.902  50.698 -16.134  1.00  0.00     0.259 C 
HETATM    2  O5  UNL     1      -2.774  51.363 -17.155  1.00  0.00    -0.265 OA
ENDROOT
BRANCH   1   3
HETATM    3  O4  UNL     1      -3.055  49.350 -16.114  1.00  0.00    -0.314 OA
BRANCH   3   4
HETATM    4  C21 UNL     1      -2.382  48.654 -17.168  1.00  0.00     0.260 C 
BRANCH   4   5
HETATM    5  C20 UNL     1      -3.425  48.096 -18.134  1.00  0.00     0.185 C 
HETATM    6  O3  UNL     1      -4.531  47.720 -17.740  1.00  0.00    -0.292 OA
BRANCH   5   7
HETATM    7  C19 UNL     1      -3.000  47.923 -19.610  1.00  0.00     0.128 C 
HETATM    8  C14 UNL     1      -2.822  49.235 -20.443  1.00  0.00    -0.002 C 
HETATM    9  C13 UNL     1      -1.478  49.982 -20.265  1.00  0.00     0.013 C 
HETATM   10  C15 UNL     1      -4.018  50.193 -20.186  1.00  0.00     0.019 C 
HETATM   11  C16 UNL     1      -2.834  48.644 -21.868  1.00  0.00     0.002 C 
HETATM   12  C12 UNL     1      -0.821  50.456 -21.586  1.00  0.00     0.007 C 
HETATM   13  C11 UNL     1      -1.856  50.894 -22.648  1.00  0.00     0.002 C 
HETATM   14  C2  UNL     1      -1.326  51.731 -23.891  1.00  0.00    -0.016 C 
HETATM   15  C10 UNL     1      -2.783  49.681 -23.012  1.00  0.00    -0.004 C 
HETATM   16  C1  UNL     1      -2.415  52.784 -24.241  1.00  0.00     0.020 C 
HETATM   17  C3  UNL     1      -0.010  52.486 -23.542  1.00  0.00     0.022 C 
HETATM   18  C7  UNL     1      -1.107  50.894 -25.150  1.00  0.00    -0.068 C 
HETATM   19  C4  UNL     1       0.639  53.178 -24.734  1.00  0.00     0.084 C 
HETATM   20  C5  UNL     1       0.899  52.171 -25.824  1.00  0.00     0.149 C 
HETATM   21  O1  UNL     1       1.845  52.270 -26.600  1.00  0.00    -0.293 OA
HETATM   22  C6  UNL     1      -0.076  51.070 -25.998  1.00  0.00     0.053 C 
HETATM   23  C8  UNL     1      -2.158  49.870 -25.466  1.00  0.00     0.035 C 
HETATM   24  C9  UNL     1      -2.347  48.940 -24.289  1.00  0.00     0.010 C 
HETATM   25  C17 UNL     1      -4.005  47.669 -21.869  1.00  0.00     0.009 C 
HETATM   26  C18 UNL     1      -4.050  47.122 -20.431  1.00  0.00     0.047 C 
BRANCH   7  27
HETATM   27  O2  UNL     1      -1.781  47.171 -19.607  1.00  0.00    -0.381 OA
HETATM   28  H27 UNL     1      -1.984  46.275 -19.276  1.00  0.00     0.211 HD
ENDBRANCH   7  27
ENDBRANCH   5   7
ENDBRANCH   4   5
ENDBRANCH   3   4
ENDBRANCH   1   3
BRANCH   1  29
HETATM   29  C23 UNL     1      -3.027  51.298 -14.752  1.00  0.00     0.120 C 
BRANCH  29  30
HETATM   30  C24 UNL     1      -2.733  50.321 -13.618  1.00  0.00     0.112 C 
BRANCH  30  31
HETATM   31  C25 UNL     1      -3.365  50.763 -12.313  1.00  0.00     0.217 C 
HETATM   32  O6  UNL     1      -3.627  49.989 -11.399  1.00  0.00    -0.274 OA
HETATM   33  N1  UNL     1      -3.586  52.121 -12.255  1.00  0.00    -0.361 N 
HETATM   34  H34 UNL     1      -3.322  52.699 -13.042  1.00  0.00     0.162 HD
BRANCH  33  35
HETATM   35  C26 UNL     1      -4.039  52.775 -11.043  1.00  0.00     0.122 C 
BRANCH  35  36
HETATM   36  C27 UNL     1      -2.848  53.296 -10.242  1.00  0.00     0.020 C 
BRANCH  36  37
HETATM   37  C28 UNL     1      -2.473  54.742 -10.576  1.00  0.00     0.002 C 
BRANCH  37  38
HETATM   38  C29 UNL     1      -0.987  55.038 -10.345  1.00  0.00     0.009 C 
BRANCH  38  39
HETATM   39  C30 UNL     1      -0.706  55.535  -8.926  1.00  0.00     0.103 C 
BRANCH  39  40
HETATM   40  C31 UNL     1       0.744  55.373  -8.504  1.00  0.00     0.218 C 
HETATM   41  O7  UNL     1       1.454  54.429  -8.826  1.00  0.00    -0.274 OA
HETATM   42  N2  UNL     1       1.186  56.408  -7.704  1.00  0.00    -0.346 N 
HETATM   43  H45 UNL     1       0.471  56.918  -7.198  1.00  0.00     0.163 HD
BRANCH  42  44
HETATM   44  C32 UNL     1       2.498  56.323  -7.045  1.00  0.00     0.186 C 
BRANCH  44  45
HETATM   45  C33 UNL     1       3.544  57.093  -7.857  1.00  0.00     0.074 C 
BRANCH  45  46
HETATM   46  C34 UNL     1       4.761  56.278  -8.220  1.00  0.00    -0.056 A 
HETATM   47  C35 UNL     1       4.776  55.502  -9.389  1.00  0.00     0.007 A 
HETATM   48  C36 UNL     1       5.896  54.736  -9.714  1.00  0.00     0.001 A 
HETATM   49  C37 UNL     1       7.012  54.739  -8.879  1.00  0.00     0.000 A 
HETATM   50  C38 UNL     1       7.008  55.508  -7.717  1.00  0.00     0.001 A 
HETATM   51  C39 UNL     1       5.889  56.274  -7.387  1.00  0.00     0.007 A 
ENDBRANCH  45  46
ENDBRANCH  44  45
BRANCH  44  52
HETATM   52  C40 UNL     1       2.343  56.951  -5.662  1.00  0.00     0.163 C 
HETATM   53  O8  UNL     1       1.412  57.660  -5.302  1.00  0.00    -0.648 OA
BRANCH  52  54
HETATM   54  O9  UNL     1       3.357  56.669  -4.822  1.00  0.00    -0.775 OA
HETATM   55  H54 UNL     1       3.124  57.113  -3.982  1.00  0.00     0.167 HD
ENDBRANCH  52  54
ENDBRANCH  44  52
ENDBRANCH  42  44
ENDBRANCH  39  40
ENDBRANCH  38  39
ENDBRANCH  37  38
ENDBRANCH  36  37
ENDBRANCH  35  36
ENDBRANCH  33  35
ENDBRANCH  30  31
ENDBRANCH  29  30
ENDBRANCH   1  29
TORSDOF 19
ENDMDL
MODEL 3
REMARK minimizedAffinity -9.00286007
REMARK CNNscore 0.47573477
REMARK CNNaffinity 7.43438101
REMARK  19 active torsions:
REMARK  status: ('A' for Active; 'I' for Inactive)
REMARK    1  A    between atoms: C19_20  and  O2_21 
REMARK    2  A    between atoms: C19_20  and  C20_22 
REMARK    3  A    between atoms: C20_22  and  C21_24 
REMARK    4  A    between atoms: C21_24  and  O4_25 
REMARK    5  A    between atoms: O4_25  and  C22_26 
REMARK    6  A    between atoms: C22_26  and  C23_28 
REMARK    7  A    between atoms: C23_28  and  C24_29 
REMARK    8  A    between atoms: C24_29  and  C25_30 
REMARK       I    between atoms: C25_30  and  N1_32 
REMARK    9  A    between atoms: N1_32  and  C26_33 
REMARK   10  A    between atoms: C26_33  and  C27_34 
REMARK   11  A    between atoms: C27_34  and  C28_35 
REMARK   12  A    between atoms: C28_35  and  C29_36 
REMARK   13  A    between atoms: C29_36  and  C30_37 
REMARK   14  A    between atoms: C30_37  and  C31_38 
REMARK       I    between atoms: C31_38  and  N2_40 
REMARK   15  A    between atoms: N2_40  and  C32_41 
REMARK   16  A    between atoms: C32_41  and  C33_42 
REMARK   17  A    between atoms: C32_41  and  C40_49 
REMARK   18  A    between atoms: C33_42  and  C34_43 
REMARK   19  A    between atoms: C40_49  and  O9_51 
ROOT
HETATM    1  C22 UNL     1       1.299  53.857 -21.813  1.00  0.00     0.259 C 
HETATM    2  O5  UNL     1       1.914  54.902 -21.989  1.00  0.00    -0.265 OA
ENDROOT
BRANCH   1   3
HETATM    3  O4  UNL     1       0.431  53.320 -22.707  1.00  0.00    -0.314 OA
BRANCH   3   4
HETATM    4  C21 UNL     1       1.007  52.978 -23.971  1.00  0.00     0.260 C 
BRANCH   4   5
HETATM    5  C20 UNL     1       0.141  53.567 -25.082  1.00  0.00     0.185 C 
HETATM    6  O3  UNL     1       0.156  54.774 -25.339  1.00  0.00    -0.292 OA
BRANCH   5   7
HETATM    7  C19 UNL     1      -0.834  52.609 -25.802  1.00  0.00     0.128 C 
HETATM    8  C14 UNL     1      -1.767  51.747 -24.887  1.00  0.00    -0.002 C 
HETATM    9  C13 UNL     1      -3.037  52.451 -24.350  1.00  0.00     0.013 C 
HETATM   10  C15 UNL     1      -0.947  51.134 -23.720  1.00  0.00     0.019 C 
HETATM   11  C16 UNL     1      -2.227  50.685 -25.908  1.00  0.00     0.002 C 
HETATM   12  C12 UNL     1      -4.336  51.610 -24.455  1.00  0.00     0.007 C 
HETATM   13  C11 UNL     1      -4.092  50.099 -24.234  1.00  0.00     0.002 C 
HETATM   14  C2  UNL     1      -5.360  49.182 -23.954  1.00  0.00    -0.016 C 
HETATM   15  C10 UNL     1      -3.111  49.558 -25.333  1.00  0.00    -0.004 C 
HETATM   16  C1  UNL     1      -4.935  48.105 -22.917  1.00  0.00     0.020 C 
HETATM   17  C3  UNL     1      -6.531  50.010 -23.348  1.00  0.00     0.022 C 
HETATM   18  C7  UNL     1      -5.861  48.429 -25.185  1.00  0.00    -0.068 C 
HETATM   19  C4  UNL     1      -7.830  49.228 -23.205  1.00  0.00     0.084 C 
HETATM   20  C5  UNL     1      -8.235  48.671 -24.545  1.00  0.00     0.149 C 
HETATM   21  O1  UNL     1      -9.410  48.509 -24.863  1.00  0.00    -0.293 OA
HETATM   22  C6  UNL     1      -7.162  48.238 -25.470  1.00  0.00     0.053 C 
HETATM   23  C8  UNL     1      -4.812  47.824 -26.073  1.00  0.00     0.035 C 
HETATM   24  C9  UNL     1      -3.831  48.885 -26.516  1.00  0.00     0.010 C 
HETATM   25  C17 UNL     1      -0.950  50.267 -26.626  1.00  0.00     0.009 C 
HETATM   26  C18 UNL     1      -0.087  51.540 -26.651  1.00  0.00     0.047 C 
BRANCH   7  27
HETATM   27  O2  UNL     1      -1.619  53.407 -26.696  1.00  0.00    -0.381 OA
HETATM   28  H27 UNL     1      -1.023  53.755 -27.386  1.00  0.00     0.211 HD
ENDBRANCH   7  27
ENDBRANCH   5   7
ENDBRANCH   4   5
ENDBRANCH   3   4
ENDBRANCH   1   3
BRANCH   1  29
HETATM   29  C23 UNL     1       1.328  53.075 -20.519  1.00  0.00     0.120 C 
BRANCH  29  30
HETATM   30  C24 UNL     1       0.248  53.479 -19.520  1.00  0.00     0.112 C 
BRANCH  30  31
HETATM   31  C25 UNL     1       0.130  52.487 -18.381  1.00  0.00     0.217 C 
HETATM   32  O6  UNL     1      -0.819  51.722 -18.253  1.00  0.00    -0.274 OA
HETATM   33  N1  UNL     1       1.210  52.517 -17.526  1.00  0.00    -0.361 N 
HETATM   34  H34 UNL     1       1.969  53.162 -17.711  1.00  0.00     0.162 HD
BRANCH  33  35
HETATM   35  C26 UNL     1       1.375  51.549 -16.460  1.00  0.00     0.122 C 
BRANCH  35  36
HETATM   36  C27 UNL     1       1.170  52.214 -15.101  1.00  0.00     0.020 C 
BRANCH  36  37
HETATM   37  C28 UNL     1       1.900  51.504 -13.958  1.00  0.00     0.002 C 
BRANCH  37  38
HETATM   38  C29 UNL     1       1.033  51.357 -12.702  1.00  0.00     0.009 C 
BRANCH  38  39
HETATM   39  C30 UNL     1       1.641  52.060 -11.489  1.00  0.00     0.103 C 
BRANCH  39  40
HETATM   40  C31 UNL     1       0.718  53.088 -10.858  1.00  0.00     0.218 C 
HETATM   41  O7  UNL     1       0.182  54.002 -11.473  1.00  0.00    -0.274 OA
HETATM   42  N2  UNL     1       0.545  52.890  -9.503  1.00  0.00    -0.346 N 
HETATM   43  H45 UNL     1       1.281  52.379  -9.029  1.00  0.00     0.163 HD
BRANCH  42  44
HETATM   44  C32 UNL     1      -0.159  53.896  -8.693  1.00  0.00     0.186 C 
BRANCH  44  45
HETATM   45  C33 UNL     1      -1.418  53.284  -8.072  1.00  0.00     0.074 C 
BRANCH  45  46
HETATM   46  C34 UNL     1      -2.424  52.793  -9.084  1.00  0.00    -0.056 A 
HETATM   47  C35 UNL     1      -2.735  51.428  -9.175  1.00  0.00     0.007 A 
HETATM   48  C36 UNL     1      -3.653  50.974 -10.123  1.00  0.00     0.001 A 
HETATM   49  C37 UNL     1      -4.272  51.876 -10.985  1.00  0.00     0.000 A 
HETATM   50  C38 UNL     1      -3.972  53.235 -10.902  1.00  0.00     0.001 A 
HETATM   51  C39 UNL     1      -3.052  53.692  -9.957  1.00  0.00     0.007 A 
ENDBRANCH  45  46
ENDBRANCH  44  45
BRANCH  44  52
HETATM   52  C40 UNL     1       0.806  54.338  -7.595  1.00  0.00     0.163 C 
HETATM   53  O8  UNL     1       1.866  54.924  -7.772  1.00  0.00    -0.648 OA
BRANCH  52  54
HETATM   54  O9  UNL     1       0.399  54.012  -6.354  1.00  0.00    -0.775 OA
HETATM   55  H54 UNL     1       1.090  54.364  -5.758  1.00  0.00     0.167 HD
ENDBRANCH  52  54
ENDBRANCH  44  52
ENDBRANCH  42  44
ENDBRANCH  39  40
ENDBRANCH  38  39
ENDBRANCH  37  38
ENDBRANCH  36  37
ENDBRANCH  35  36
ENDBRANCH  33  35
ENDBRANCH  30  31
ENDBRANCH  29  30
ENDBRANCH   1  29
TORSDOF 19
ENDMDL
MODEL 4
REMARK minimizedAffinity -8.90952778
REMARK CNNscore 0.438655198
REMARK CNNaffinity 6.44858122
REMARK  19 active torsions:
REMARK  status: ('A' for Active; 'I' for Inactive)
REMARK    1  A    between atoms: C19_20  and  O2_21 
REMARK    2  A    between atoms: C19_20  and  C20_22 
REMARK    3  A    between atoms: C20_22  and  C21_24 
REMARK    4  A    between atoms: C21_24  and  O4_25 
REMARK    5  A    between atoms: O4_25  and  C22_26 
REMARK    6  A    between atoms: C22_26  and  C23_28 
REMARK    7  A    between atoms: C23_28  and  C24_29 
REMARK    8  A    between atoms: C24_29  and  C25_30 
REMARK       I    between atoms: C25_30  and  N1_32 
REMARK    9  A    between atoms: N1_32  and  C26_33 
REMARK   10  A    between atoms: C26_33  and  C27_34 
REMARK   11  A    between atoms: C27_34  and  C28_35 
REMARK   12  A    between atoms: C28_35  and  C29_36 
REMARK   13  A    between atoms: C29_36  and  C30_37 
REMARK   14  A    between atoms: C30_37  and  C31_38 
REMARK       I    between atoms: C31_38  and  N2_40 
REMARK   15  A    between atoms: N2_40  and  C32_41 
REMARK   16  A    between atoms: C32_41  and  C33_42 
REMARK   17  A    between atoms: C32_41  and  C40_49 
REMARK   18  A    between atoms: C33_42  and  C34_43 
REMARK   19  A    between atoms: C40_49  and  O9_51 
ROOT
HETATM    1  C22 UNL     1      -7.776  48.210 -24.501  1.00  0.00     0.259 C 
HETATM    2  O5  UNL     1      -7.190  47.141 -24.620  1.00  0.00    -0.265 OA
ENDROOT
BRANCH   1   3
HETATM    3  O4  UNL     1      -7.363  49.225 -23.701  1.00  0.00    -0.314 OA
BRANCH   3   4
HETATM    4  C21 UNL     1      -7.531  48.989 -22.299  1.00  0.00     0.260 C 
BRANCH   4   5
HETATM    5  C20 UNL     1      -6.186  48.581 -21.704  1.00  0.00     0.185 C 
HETATM    6  O3  UNL     1      -6.006  47.456 -21.231  1.00  0.00    -0.292 OA
BRANCH   5   7
HETATM    7  C19 UNL     1      -5.091  49.668 -21.619  1.00  0.00     0.128 C 
HETATM    8  C14 UNL     1      -4.112  49.768 -22.836  1.00  0.00    -0.002 C 
HETATM    9  C13 UNL     1      -4.631  50.550 -24.068  1.00  0.00     0.013 C 
HETATM   10  C15 UNL     1      -3.634  48.350 -23.251  1.00  0.00     0.019 C 
HETATM   11  C16 UNL     1      -2.987  50.609 -22.199  1.00  0.00     0.002 C 
HETATM   12  C12 UNL     1      -3.612  51.546 -24.678  1.00  0.00     0.007 C 
HETATM   13  C11 UNL     1      -2.153  51.038 -24.596  1.00  0.00     0.002 C 
HETATM   14  C2  UNL     1      -1.066  51.773 -25.493  1.00  0.00    -0.016 C 
HETATM   15  C10 UNL     1      -1.749  50.839 -23.093  1.00  0.00    -0.004 C 
HETATM   16  C1  UNL     1      -0.070  50.692 -25.998  1.00  0.00     0.020 C 
HETATM   17  C3  UNL     1      -1.722  52.451 -26.732  1.00  0.00     0.022 C 
HETATM   18  C7  UNL     1      -0.238  52.809 -24.734  1.00  0.00    -0.068 C 
HETATM   19  C4  UNL     1      -0.763  53.308 -27.546  1.00  0.00     0.084 C 
HETATM   20  C5  UNL     1      -0.142  54.355 -26.659  1.00  0.00     0.149 C 
HETATM   21  O1  UNL     1       0.190  55.461 -27.077  1.00  0.00    -0.293 OA
HETATM   22  C6  UNL     1       0.141  53.992 -25.251  1.00  0.00     0.053 C 
HETATM   23  C8  UNL     1       0.218  52.423 -23.356  1.00  0.00     0.035 C 
HETATM   24  C9  UNL     1      -0.969  52.029 -22.507  1.00  0.00     0.010 C 
HETATM   25  C17 UNL     1      -2.750  49.963 -20.839  1.00  0.00     0.009 C 
HETATM   26  C18 UNL     1      -4.134  49.443 -20.413  1.00  0.00     0.047 C 
BRANCH   7  27
HETATM   27  O2  UNL     1      -5.760  50.919 -21.419  1.00  0.00    -0.381 OA
HETATM   28  H27 UNL     1      -6.184  50.892 -20.540  1.00  0.00     0.211 HD
ENDBRANCH   7  27
ENDBRANCH   5   7
ENDBRANCH   4   5
ENDBRANCH   3   4
ENDBRANCH   1   3
BRANCH   1  29
HETATM   29  C23 UNL     1      -9.114  48.508 -25.140  1.00  0.00     0.120 C 
BRANCH  29  30
HETATM   30  C24 UNL     1      -9.171  48.220 -26.636  1.00  0.00     0.112 C 
BRANCH  30  31
HETATM   31  C25 UNL     1     -10.592  48.016 -27.120  1.00  0.00     0.217 C 
HETATM   32  O6  UNL     1     -11.575  48.395 -26.494  1.00  0.00    -0.274 OA
HETATM   33  N1  UNL     1     -10.658  47.386 -28.344  1.00  0.00    -0.361 N 
HETATM   34  H34 UNL     1      -9.800  47.123 -28.812  1.00  0.00     0.162 HD
BRANCH  33  35
HETATM   35  C26 UNL     1     -11.908  47.230 -29.061  1.00  0.00     0.122 C 
BRANCH  35  36
HETATM   36  C27 UNL     1     -12.646  45.983 -28.579  1.00  0.00     0.020 C 
BRANCH  36  37
HETATM   37  C28 UNL     1     -14.124  46.229 -28.267  1.00  0.00     0.002 C 
BRANCH  37  38
HETATM   38  C29 UNL     1     -14.581  45.535 -26.979  1.00  0.00     0.009 C 
BRANCH  38  39
HETATM   39  C30 UNL     1     -14.346  46.397 -25.738  1.00  0.00     0.103 C 
BRANCH  39  40
HETATM   40  C31 UNL     1     -15.601  46.631 -24.916  1.00  0.00     0.218 C 
HETATM   41  O7  UNL     1     -15.700  47.476 -24.035  1.00  0.00    -0.274 OA
HETATM   42  N2  UNL     1     -16.631  45.780 -25.262  1.00  0.00    -0.346 N 
HETATM   43  H45 UNL     1     -16.362  44.909 -25.704  1.00  0.00     0.163 HD
BRANCH  42  44
HETATM   44  C32 UNL     1     -17.855  45.731 -24.446  1.00  0.00     0.186 C 
BRANCH  44  45
HETATM   45  C33 UNL     1     -17.784  46.779 -23.330  1.00  0.00     0.074 C 
BRANCH  45  46
HETATM   46  C34 UNL     1     -18.000  46.218 -21.946  1.00  0.00    -0.056 A 
HETATM   47  C35 UNL     1     -17.097  46.506 -20.912  1.00  0.00     0.007 A 
HETATM   48  C36 UNL     1     -17.290  45.973 -19.637  1.00  0.00     0.001 A 
HETATM   49  C37 UNL     1     -18.385  45.150 -19.381  1.00  0.00     0.000 A 
HETATM   50  C38 UNL     1     -19.289  44.859 -20.401  1.00  0.00     0.001 A 
HETATM   51  C39 UNL     1     -19.098  45.389 -21.678  1.00  0.00     0.007 A 
ENDBRANCH  45  46
ENDBRANCH  44  45
BRANCH  44  52
HETATM   52  C40 UNL     1     -19.025  46.036 -25.377  1.00  0.00     0.163 C 
HETATM   53  O8  UNL     1     -19.993  46.733 -25.100  1.00  0.00    -0.648 OA
BRANCH  52  54
HETATM   54  O9  UNL     1     -18.925  45.447 -26.583  1.00  0.00    -0.775 OA
HETATM   55  H54 UNL     1     -19.719  45.735 -27.076  1.00  0.00     0.167 HD
ENDBRANCH  52  54
ENDBRANCH  44  52
ENDBRANCH  42  44
ENDBRANCH  39  40
ENDBRANCH  38  39
ENDBRANCH  37  38
ENDBRANCH  36  37
ENDBRANCH  35  36
ENDBRANCH  33  35
ENDBRANCH  30  31
ENDBRANCH  29  30
ENDBRANCH   1  29
TORSDOF 19
ENDMDL
MODEL 5
REMARK minimizedAffinity -9.22761154
REMARK CNNscore 0.30726552
REMARK CNNaffinity 6.84521294
REMARK  19 active torsions:
REMARK  status: ('A' for Active; 'I' for Inactive)
REMARK    1  A    between atoms: C19_20  and  O2_21 
REMARK    2  A    between atoms: C19_20  and  C20_22 
REMARK    3  A    between atoms: C20_22  and  C21_24 
REMARK    4  A    between atoms: C21_24  and  O4_25 
REMARK    5  A    between atoms: O4_25  and  C22_26 
REMARK    6  A    between atoms: C22_26  and  C23_28 
REMARK    7  A    between atoms: C23_28  and  C24_29 
REMARK    8  A    between atoms: C24_29  and  C25_30 
REMARK       I    between atoms: C25_30  and  N1_32 
REMARK    9  A    between atoms: N1_32  and  C26_33 
REMARK   10  A    between atoms: C26_33  and  C27_34 
REMARK   11  A    between atoms: C27_34  and  C28_35 
REMARK   12  A    between atoms: C28_35  and  C29_36 
REMARK   13  A    between atoms: C29_36  and  C30_37 
REMARK   14  A    between atoms: C30_37  and  C31_38 
REMARK       I    between atoms: C31_38  and  N2_40 
REMARK   15  A    between atoms: N2_40  and  C32_41 
REMARK   16  A    between atoms: C32_41  and  C33_42 
REMARK   17  A    between atoms: C32_41  and  C40_49 
REMARK   18  A    between atoms: C33_42  and  C34_43 
REMARK   19  A    between atoms: C40_49  and  O9_51 
ROOT
HETATM    1  C22 UNL     1      -5.152  48.035 -28.609  1.00  0.00     0.259 C 
HETATM    2  O5  UNL     1      -5.956  47.664 -27.762  1.00  0.00    -0.265 OA
ENDROOT
BRANCH   1   3
HETATM    3  O4  UNL     1      -3.944  48.584 -28.328  1.00  0.00    -0.314 OA
BRANCH   3   4
HETATM    4  C21 UNL     1      -3.832  49.150 -27.018  1.00  0.00     0.260 C 
BRANCH   4   5
HETATM    5  C20 UNL     1      -3.109  50.490 -27.121  1.00  0.00     0.185 C 
HETATM    6  O3  UNL     1      -3.273  51.238 -28.089  1.00  0.00    -0.292 OA
BRANCH   5   7
HETATM    7  C19 UNL     1      -2.081  50.826 -26.017  1.00  0.00     0.128 C 
HETATM    8  C14 UNL     1      -2.604  50.788 -24.543  1.00  0.00    -0.002 C 
HETATM    9  C13 UNL     1      -2.684  49.391 -23.882  1.00  0.00     0.013 C 
HETATM   10  C15 UNL     1      -3.971  51.518 -24.445  1.00  0.00     0.019 C 
HETATM   11  C16 UNL     1      -1.468  51.563 -23.842  1.00  0.00     0.002 C 
HETATM   12  C12 UNL     1      -2.125  49.325 -22.437  1.00  0.00     0.007 C 
HETATM   13  C11 UNL     1      -2.389  50.618 -21.632  1.00  0.00     0.002 C 
HETATM   14  C2  UNL     1      -2.200  50.555 -20.055  1.00  0.00    -0.016 C 
HETATM   15  C10 UNL     1      -1.685  51.831 -22.337  1.00  0.00    -0.004 C 
HETATM   16  C1  UNL     1      -3.301  51.449 -19.418  1.00  0.00     0.020 C 
HETATM   17  C3  UNL     1      -2.381  49.103 -19.524  1.00  0.00     0.022 C 
HETATM   18  C7  UNL     1      -0.859  51.104 -19.572  1.00  0.00    -0.068 C 
HETATM   19  C4  UNL     1      -2.055  48.942 -18.045  1.00  0.00     0.084 C 
HETATM   20  C5  UNL     1      -0.649  49.412 -17.783  1.00  0.00     0.149 C 
HETATM   21  O1  UNL     1       0.057  48.924 -16.905  1.00  0.00    -0.293 OA
HETATM   22  C6  UNL     1      -0.141  50.558 -18.573  1.00  0.00     0.053 C 
HETATM   23  C8  UNL     1      -0.375  52.365 -20.228  1.00  0.00     0.035 C 
HETATM   24  C9  UNL     1      -0.315  52.180 -21.727  1.00  0.00     0.010 C 
HETATM   25  C17 UNL     1      -1.226  52.775 -24.734  1.00  0.00     0.009 C 
HETATM   26  C18 UNL     1      -1.522  52.271 -26.157  1.00  0.00     0.047 C 
BRANCH   7  27
HETATM   27  O2  UNL     1      -0.986  49.916 -26.177  1.00  0.00    -0.381 OA
HETATM   28  H27 UNL     1      -0.549  50.122 -27.025  1.00  0.00     0.211 HD
ENDBRANCH   7  27
ENDBRANCH   5   7
ENDBRANCH   4   5
ENDBRANCH   3   4
ENDBRANCH   1   3
BRANCH   1  29
HETATM   29  C23 UNL     1      -5.442  48.045 -30.093  1.00  0.00     0.120 C 
BRANCH  29  30
HETATM   30  C24 UNL     1      -6.580  47.122 -30.514  1.00  0.00     0.112 C 
BRANCH  30  31
HETATM   31  C25 UNL     1      -7.515  47.790 -31.502  1.00  0.00     0.217 C 
HETATM   32  O6  UNL     1      -8.153  48.803 -31.242  1.00  0.00    -0.274 OA
HETATM   33  N1  UNL     1      -7.549  47.154 -32.724  1.00  0.00    -0.361 N 
HETATM   34  H34 UNL     1      -6.976  46.333 -32.871  1.00  0.00     0.162 HD
BRANCH  33  35
HETATM   35  C26 UNL     1      -8.257  47.711 -33.860  1.00  0.00     0.122 C 
BRANCH  35  36
HETATM   36  C27 UNL     1      -7.867  46.979 -35.142  1.00  0.00     0.020 C 
BRANCH  36  37
HETATM   37  C28 UNL     1      -8.835  47.218 -36.302  1.00  0.00     0.002 C 
BRANCH  37  38
HETATM   38  C29 UNL     1      -8.144  47.799 -37.541  1.00  0.00     0.009 C 
BRANCH  38  39
HETATM   39  C30 UNL     1      -8.671  49.188 -37.904  1.00  0.00     0.103 C 
BRANCH  39  40
HETATM   40  C31 UNL     1      -7.678  50.024 -38.694  1.00  0.00     0.218 C 
HETATM   41  O7  UNL     1      -7.141  49.657 -39.731  1.00  0.00    -0.274 OA
HETATM   42  N2  UNL     1      -7.434  51.252 -38.113  1.00  0.00    -0.346 N 
HETATM   43  H45 UNL     1      -7.610  51.318 -37.117  1.00  0.00     0.163 HD
BRANCH  42  44
HETATM   44  C32 UNL     1      -6.359  52.113 -38.630  1.00  0.00     0.186 C 
BRANCH  44  45
HETATM   45  C33 UNL     1      -6.953  53.226 -39.500  1.00  0.00     0.074 C 
BRANCH  45  46
HETATM   46  C34 UNL     1      -6.113  53.577 -40.704  1.00  0.00    -0.056 A 
HETATM   47  C35 UNL     1      -6.389  53.005 -41.955  1.00  0.00     0.007 A 
HETATM   48  C36 UNL     1      -5.601  53.317 -43.064  1.00  0.00     0.001 A 
HETATM   49  C37 UNL     1      -4.535  54.205 -42.936  1.00  0.00     0.000 A 
HETATM   50  C38 UNL     1      -4.254  54.781 -41.699  1.00  0.00     0.001 A 
HETATM   51  C39 UNL     1      -5.037  54.469 -40.587  1.00  0.00     0.007 A 
ENDBRANCH  45  46
ENDBRANCH  44  45
BRANCH  44  52
HETATM   52  C40 UNL     1      -5.649  52.715 -37.421  1.00  0.00     0.163 C 
HETATM   53  O8  UNL     1      -5.480  53.911 -37.217  1.00  0.00    -0.648 OA
BRANCH  52  54
HETATM   54  O9  UNL     1      -5.185  51.798 -36.552  1.00  0.00    -0.775 OA
HETATM   55  H54 UNL     1      -4.775  52.313 -35.830  1.00  0.00     0.167 HD
ENDBRANCH  52  54
ENDBRANCH  44  52
ENDBRANCH  42  44
ENDBRANCH  39  40
ENDBRANCH  38  39
ENDBRANCH  37  38
ENDBRANCH  36  37
ENDBRANCH  35  36
ENDBRANCH  33  35
ENDBRANCH  30  31
ENDBRANCH  29  30
ENDBRANCH   1  29
TORSDOF 19
ENDMDL
MODEL 6
REMARK minimizedAffinity -8.19821453
REMARK CNNscore 0.292186975
REMARK CNNaffinity 6.27064371
REMARK  19 active torsions:
REMARK  status: ('A' for Active; 'I' for Inactive)
REMARK    1  A    between atoms: C19_20  and  O2_21 
REMARK    2  A    between atoms: C19_20  and  C20_22 
REMARK    3  A    between atoms: C20_22  and  C21_24 
REMARK    4  A    between atoms: C21_24  and  O4_25 
REMARK    5  A    between atoms: O4_25  and  C22_26 
REMARK    6  A    between atoms: C22_26  and  C23_28 
REMARK    7  A    between atoms: C23_28  and  C24_29 
REMARK    8  A    between atoms: C24_29  and  C25_30 
REMARK       I    between atoms: C25_30  and  N1_32 
REMARK    9  A    between atoms: N1_32  and  C26_33 
REMARK   10  A    between atoms: C26_33  and  C27_34 
REMARK   11  A    between atoms: C27_34  and  C28_35 
REMARK   12  A    between atoms: C28_35  and  C29_36 
REMARK   13  A    between atoms: C29_36  and  C30_37 
REMARK   14  A    between atoms: C30_37  and  C31_38 
REMARK       I    between atoms: C31_38  and  N2_40 
REMARK   15  A    between atoms: N2_40  and  C32_41 
REMARK   16  A    between atoms: C32_41  and  C33_42 
REMARK   17  A    between atoms: C32_41  and  C40_49 
REMARK   18  A    between atoms: C33_42  and  C34_43 
REMARK   19  A    between atoms: C40_49  and  O9_51 
ROOT
HETATM    1  C22 UNL     1      -7.839  48.620 -18.563  1.00  0.00     0.259 C 
HETATM    2  O5  UNL     1      -8.093  49.627 -19.213  1.00  0.00    -0.265 OA
ENDROOT
BRANCH   1   3
HETATM    3  O4  UNL     1      -6.647  48.380 -17.961  1.00  0.00    -0.314 OA
BRANCH   3   4
HETATM    4  C21 UNL     1      -5.906  47.287 -18.512  1.00  0.00     0.260 C 
BRANCH   4   5
HETATM    5  C20 UNL     1      -4.465  47.736 -18.743  1.00  0.00     0.185 C 
HETATM    6  O3  UNL     1      -3.793  48.232 -17.836  1.00  0.00    -0.292 OA
BRANCH   5   7
HETATM    7  C19 UNL     1      -3.918  47.643 -20.185  1.00  0.00     0.128 C 
HETATM    8  C14 UNL     1      -3.520  48.993 -20.869  1.00  0.00    -0.002 C 
HETATM    9  C13 UNL     1      -2.127  49.561 -20.500  1.00  0.00     0.013 C 
HETATM   10  C15 UNL     1      -4.625  50.056 -20.627  1.00  0.00     0.019 C 
HETATM   11  C16 UNL     1      -3.454  48.532 -22.340  1.00  0.00     0.002 C 
HETATM   12  C12 UNL     1      -1.296  50.067 -21.707  1.00  0.00     0.007 C 
HETATM   13  C11 UNL     1      -2.168  50.712 -22.808  1.00  0.00     0.002 C 
HETATM   14  C2  UNL     1      -1.431  51.587 -23.913  1.00  0.00    -0.016 C 
HETATM   15  C10 UNL     1      -3.180  49.651 -23.368  1.00  0.00    -0.004 C 
HETATM   16  C1  UNL     1      -2.361  52.785 -24.254  1.00  0.00     0.020 C 
HETATM   17  C3  UNL     1      -0.083  52.151 -23.377  1.00  0.00     0.022 C 
HETATM   18  C7  UNL     1      -1.180  50.842 -25.223  1.00  0.00    -0.068 C 
HETATM   19  C4  UNL     1       0.751  52.863 -24.434  1.00  0.00     0.084 C 
HETATM   20  C5  UNL     1       1.008  51.932 -25.589  1.00  0.00     0.149 C 
HETATM   21  O1  UNL     1       2.031  51.986 -26.266  1.00  0.00    -0.293 OA
HETATM   22  C6  UNL     1      -0.058  50.969 -25.955  1.00  0.00     0.053 C 
HETATM   23  C8  UNL     1      -2.299  49.977 -25.728  1.00  0.00     0.035 C 
HETATM   24  C9  UNL     1      -2.702  48.978 -24.668  1.00  0.00     0.010 C 
HETATM   25  C17 UNL     1      -4.717  47.703 -22.538  1.00  0.00     0.009 C 
HETATM   26  C18 UNL     1      -4.962  47.042 -21.170  1.00  0.00     0.047 C 
BRANCH   7  27
HETATM   27  O2  UNL     1      -2.793  46.757 -20.147  1.00  0.00    -0.381 OA
HETATM   28  H27 UNL     1      -3.122  45.866 -19.925  1.00  0.00     0.211 HD
ENDBRANCH   7  27
ENDBRANCH   5   7
ENDBRANCH   4   5
ENDBRANCH   3   4
ENDBRANCH   1   3
BRANCH   1  29
HETATM   29  C23 UNL     1      -8.778  47.442 -18.440  1.00  0.00     0.120 C 
BRANCH  29  30
HETATM   30  C24 UNL     1     -10.073  47.750 -17.695  1.00  0.00     0.112 C 
BRANCH  30  31
HETATM   31  C25 UNL     1     -11.279  47.701 -18.610  1.00  0.00     0.217 C 
HETATM   32  O6  UNL     1     -11.203  47.823 -19.827  1.00  0.00    -0.274 OA
HETATM   33  N1  UNL     1     -12.459  47.480 -17.934  1.00  0.00    -0.361 N 
HETATM   34  H34 UNL     1     -12.439  47.367 -16.928  1.00  0.00     0.162 HD
BRANCH  33  35
HETATM   35  C26 UNL     1     -13.710  47.246 -18.627  1.00  0.00     0.122 C 
BRANCH  35  36
HETATM   36  C27 UNL     1     -14.712  48.352 -18.307  1.00  0.00     0.020 C 
BRANCH  36  37
HETATM   37  C28 UNL     1     -16.159  47.984 -18.645  1.00  0.00     0.002 C 
BRANCH  37  38
HETATM   38  C29 UNL     1     -16.262  47.009 -19.824  1.00  0.00     0.009 C 
BRANCH  38  39
HETATM   39  C30 UNL     1     -17.698  46.850 -20.324  1.00  0.00     0.103 C 
BRANCH  39  40
HETATM   40  C31 UNL     1     -17.841  45.830 -21.439  1.00  0.00     0.218 C 
HETATM   41  O7  UNL     1     -17.239  44.764 -21.480  1.00  0.00    -0.274 OA
HETATM   42  N2  UNL     1     -18.724  46.233 -22.421  1.00  0.00    -0.346 N 
HETATM   43  H45 UNL     1     -18.876  47.232 -22.503  1.00  0.00     0.163 HD
BRANCH  42  44
HETATM   44  C32 UNL     1     -18.842  45.464 -23.670  1.00  0.00     0.186 C 
BRANCH  44  45
HETATM   45  C33 UNL     1     -20.262  44.906 -23.810  1.00  0.00     0.074 C 
BRANCH  45  46
HETATM   46  C34 UNL     1     -20.451  43.544 -23.187  1.00  0.00    -0.056 A 
HETATM   47  C35 UNL     1     -19.412  42.602 -23.208  1.00  0.00     0.007 A 
HETATM   48  C36 UNL     1     -19.594  41.337 -22.646  1.00  0.00     0.001 A 
HETATM   49  C37 UNL     1     -20.811  41.004 -22.054  1.00  0.00     0.000 A 
HETATM   50  C38 UNL     1     -21.848  41.935 -22.025  1.00  0.00     0.001 A 
HETATM   51  C39 UNL     1     -21.671  43.199 -22.589  1.00  0.00     0.007 A 
ENDBRANCH  45  46
ENDBRANCH  44  45
BRANCH  44  52
HETATM   52  C40 UNL     1     -18.541  46.426 -24.816  1.00  0.00     0.163 C 
HETATM   53  O8  UNL     1     -17.839  46.178 -25.788  1.00  0.00    -0.648 OA
BRANCH  52  54
HETATM   54  O9  UNL     1     -19.118  47.634 -24.675  1.00  0.00    -0.775 OA
HETATM   55  H54 UNL     1     -18.860  48.136 -25.474  1.00  0.00     0.167 HD
ENDBRANCH  52  54
ENDBRANCH  44  52
ENDBRANCH  42  44
ENDBRANCH  39  40
ENDBRANCH  38  39
ENDBRANCH  37  38
ENDBRANCH  36  37
ENDBRANCH  35  36
ENDBRANCH  33  35
ENDBRANCH  30  31
ENDBRANCH  29  30
ENDBRANCH   1  29
TORSDOF 19
ENDMDL
MODEL 7
REMARK minimizedAffinity -8.70306969
REMARK CNNscore 0.286016405
REMARK CNNaffinity 6.90024614
REMARK  19 active torsions:
REMARK  status: ('A' for Active; 'I' for Inactive)
REMARK    1  A    between atoms: C19_20  and  O2_21 
REMARK    2  A    between atoms: C19_20  and  C20_22 
REMARK    3  A    between atoms: C20_22  and  C21_24 
REMARK    4  A    between atoms: C21_24  and  O4_25 
REMARK    5  A    between atoms: O4_25  and  C22_26 
REMARK    6  A    between atoms: C22_26  and  C23_28 
REMARK    7  A    between atoms: C23_28  and  C24_29 
REMARK    8  A    between atoms: C24_29  and  C25_30 
REMARK       I    between atoms: C25_30  and  N1_32 
REMARK    9  A    between atoms: N1_32  and  C26_33 
REMARK   10  A    between atoms: C26_33  and  C27_34 
REMARK   11  A    between atoms: C27_34  and  C28_35 
REMARK   12  A    between atoms: C28_35  and  C29_36 
REMARK   13  A    between atoms: C29_36  and  C30_37 
REMARK   14  A    between atoms: C30_37  and  C31_38 
REMARK       I    between atoms: C31_38  and  N2_40 
REMARK   15  A    between atoms: N2_40  and  C32_41 
REMARK   16  A    between atoms: C32_41  and  C33_42 
REMARK   17  A    between atoms: C32_41  and  C40_49 
REMARK   18  A    between atoms: C33_42  and  C34_43 
REMARK   19  A    between atoms: C40_49  and  O9_51 
ROOT
HETATM    1  C22 UNL     1      -4.035  48.626 -27.174  1.00  0.00     0.259 C 
HETATM    2  O5  UNL     1      -4.635  48.133 -26.226  1.00  0.00    -0.265 OA
ENDROOT
BRANCH   1   3
HETATM    3  O4  UNL     1      -4.167  48.215 -28.460  1.00  0.00    -0.314 OA
BRANCH   3   4
HETATM    4  C21 UNL     1      -5.516  47.993 -28.883  1.00  0.00     0.260 C 
BRANCH   4   5
HETATM    5  C20 UNL     1      -5.513  47.636 -30.368  1.00  0.00     0.185 C 
HETATM    6  O3  UNL     1      -4.988  48.372 -31.206  1.00  0.00    -0.292 OA
BRANCH   5   7
HETATM    7  C19 UNL     1      -6.288  46.367 -30.791  1.00  0.00     0.128 C 
HETATM    8  C14 UNL     1      -7.552  46.588 -31.687  1.00  0.00    -0.002 C 
HETATM    9  C13 UNL     1      -7.290  46.793 -33.199  1.00  0.00     0.013 C 
HETATM   10  C15 UNL     1      -8.409  47.752 -31.119  1.00  0.00     0.019 C 
HETATM   11  C16 UNL     1      -8.235  45.215 -31.520  1.00  0.00     0.002 C 
HETATM   12  C12 UNL     1      -8.226  45.983 -34.133  1.00  0.00     0.007 C 
HETATM   13  C11 UNL     1      -9.659  45.842 -33.571  1.00  0.00     0.002 C 
HETATM   14  C2  UNL     1     -10.798  45.362 -34.571  1.00  0.00    -0.016 C 
HETATM   15  C10 UNL     1      -9.615  45.079 -32.200  1.00  0.00    -0.004 C 
HETATM   16  C1  UNL     1     -12.097  46.133 -34.202  1.00  0.00     0.020 C 
HETATM   17  C3  UNL     1     -10.431  45.699 -36.046  1.00  0.00     0.022 C 
HETATM   18  C7  UNL     1     -11.128  43.874 -34.462  1.00  0.00    -0.068 C 
HETATM   19  C4  UNL     1     -11.402  45.124 -37.069  1.00  0.00     0.084 C 
HETATM   20  C5  UNL     1     -11.498  43.631 -36.893  1.00  0.00     0.149 C 
HETATM   21  O1  UNL     1     -11.713  42.869 -37.831  1.00  0.00    -0.293 OA
HETATM   22  C6  UNL     1     -11.402  43.087 -35.518  1.00  0.00     0.053 C 
HETATM   23  C8  UNL     1     -11.208  43.305 -33.074  1.00  0.00     0.035 C 
HETATM   24  C9  UNL     1      -9.922  43.576 -32.327  1.00  0.00     0.010 C 
HETATM   25  C17 UNL     1      -8.168  44.934 -30.025  1.00  0.00     0.009 C 
HETATM   26  C18 UNL     1      -6.854  45.591 -29.567  1.00  0.00     0.047 C 
BRANCH   7  27
HETATM   27  O2  UNL     1      -5.353  45.511 -31.458  1.00  0.00    -0.381 OA
HETATM   28  H27 UNL     1      -4.695  45.219 -30.799  1.00  0.00     0.211 HD
ENDBRANCH   7  27
ENDBRANCH   5   7
ENDBRANCH   4   5
ENDBRANCH   3   4
ENDBRANCH   1   3
BRANCH   1  29
HETATM   29  C23 UNL     1      -2.967  49.687 -27.030  1.00  0.00     0.120 C 
BRANCH  29  30
HETATM   30  C24 UNL     1      -3.195  50.924 -27.892  1.00  0.00     0.112 C 
BRANCH  30  31
HETATM   31  C25 UNL     1      -2.213  52.031 -27.565  1.00  0.00     0.217 C 
HETATM   32  O6  UNL     1      -2.486  52.976 -26.834  1.00  0.00    -0.274 OA
HETATM   33  N1  UNL     1      -0.981  51.848 -28.154  1.00  0.00    -0.361 N 
HETATM   34  H34 UNL     1      -0.824  51.029 -28.728  1.00  0.00     0.162 HD
BRANCH  33  35
HETATM   35  C26 UNL     1       0.150  52.704 -27.853  1.00  0.00     0.122 C 
BRANCH  35  36
HETATM   36  C27 UNL     1       1.394  51.864 -27.576  1.00  0.00     0.020 C 
BRANCH  36  37
HETATM   37  C28 UNL     1       1.766  51.792 -26.093  1.00  0.00     0.002 C 
BRANCH  37  38
HETATM   38  C29 UNL     1       0.703  52.418 -25.184  1.00  0.00     0.009 C 
BRANCH  38  39
HETATM   39  C30 UNL     1      -0.279  51.381 -24.638  1.00  0.00     0.103 C 
BRANCH  39  40
HETATM   40  C31 UNL     1      -0.939  51.799 -23.335  1.00  0.00     0.218 C 
HETATM   41  O7  UNL     1      -2.067  52.268 -23.254  1.00  0.00    -0.274 OA
HETATM   42  N2  UNL     1      -0.125  51.603 -22.238  1.00  0.00    -0.346 N 
HETATM   43  H45 UNL     1       0.872  51.575 -22.420  1.00  0.00     0.163 HD
BRANCH  42  44
HETATM   44  C32 UNL     1      -0.520  52.127 -20.921  1.00  0.00     0.186 C 
BRANCH  44  45
HETATM   45  C33 UNL     1      -0.567  50.990 -19.896  1.00  0.00     0.074 C 
BRANCH  45  46
HETATM   46  C34 UNL     1      -1.363  49.789 -20.348  1.00  0.00    -0.056 A 
HETATM   47  C35 UNL     1      -2.765  49.819 -20.339  1.00  0.00     0.007 A 
HETATM   48  C36 UNL     1      -3.498  48.703 -20.741  1.00  0.00     0.001 A 
HETATM   49  C37 UNL     1      -2.840  47.548 -21.161  1.00  0.00     0.000 A 
HETATM   50  C38 UNL     1      -1.447  47.509 -21.176  1.00  0.00     0.001 A 
HETATM   51  C39 UNL     1      -0.710  48.623 -20.771  1.00  0.00     0.007 A 
ENDBRANCH  45  46
ENDBRANCH  44  45
BRANCH  44  52
HETATM   52  C40 UNL     1       0.534  53.154 -20.516  1.00  0.00     0.163 C 
HETATM   53  O8  UNL     1       0.346  54.116 -19.782  1.00  0.00    -0.648 OA
BRANCH  52  54
HETATM   54  O9  UNL     1       1.746  52.929 -21.057  1.00  0.00    -0.775 OA
HETATM   55  H54 UNL     1       2.319  53.640 -20.706  1.00  0.00     0.167 HD
ENDBRANCH  52  54
ENDBRANCH  44  52
ENDBRANCH  42  44
ENDBRANCH  39  40
ENDBRANCH  38  39
ENDBRANCH  37  38
ENDBRANCH  36  37
ENDBRANCH  35  36
ENDBRANCH  33  35
ENDBRANCH  30  31
ENDBRANCH  29  30
ENDBRANCH   1  29
TORSDOF 19
ENDMDL
MODEL 8
REMARK minimizedAffinity -8.92849255
REMARK CNNscore 0.284144759
REMARK CNNaffinity 7.47471857
REMARK  19 active torsions:
REMARK  status: ('A' for Active; 'I' for Inactive)
REMARK    1  A    between atoms: C19_20  and  O2_21 
REMARK    2  A    between atoms: C19_20  and  C20_22 
REMARK    3  A    between atoms: C20_22  and  C21_24 
REMARK    4  A    between atoms: C21_24  and  O4_25 
REMARK    5  A    between atoms: O4_25  and  C22_26 
REMARK    6  A    between atoms: C22_26  and  C23_28 
REMARK    7  A    between atoms: C23_28  and  C24_29 
REMARK    8  A    between atoms: C24_29  and  C25_30 
REMARK       I    between atoms: C25_30  and  N1_32 
REMARK    9  A    between atoms: N1_32  and  C26_33 
REMARK   10  A    between atoms: C26_33  and  C27_34 
REMARK   11  A    between atoms: C27_34  and  C28_35 
REMARK   12  A    between atoms: C28_35  and  C29_36 
REMARK   13  A    between atoms: C29_36  and  C30_37 
REMARK   14  A    between atoms: C30_37  and  C31_38 
REMARK       I    between atoms: C31_38  and  N2_40 
REMARK   15  A    between atoms: N2_40  and  C32_41 
REMARK   16  A    between atoms: C32_41  and  C33_42 
REMARK   17  A    between atoms: C32_41  and  C40_49 
REMARK   18  A    between atoms: C33_42  and  C34_43 
REMARK   19  A    between atoms: C40_49  and  O9_51 
ROOT
HETATM    1  C22 UNL     1       0.870  53.985 -23.658  1.00  0.00     0.259 C 
HETATM    2  O5  UNL     1       1.679  54.905 -23.658  1.00  0.00    -0.265 OA
ENDROOT
BRANCH   1   3
HETATM    3  O4  UNL     1      -0.045  53.771 -24.637  1.00  0.00    -0.314 OA
BRANCH   3   4
HETATM    4  C21 UNL     1       0.293  52.727 -25.556  1.00  0.00     0.260 C 
BRANCH   4   5
HETATM    5  C20 UNL     1      -0.703  52.749 -26.713  1.00  0.00     0.185 C 
HETATM    6  O3  UNL     1      -0.486  53.404 -27.736  1.00  0.00    -0.292 OA
BRANCH   5   7
HETATM    7  C19 UNL     1      -2.042  52.005 -26.508  1.00  0.00     0.128 C 
HETATM    8  C14 UNL     1      -2.189  51.187 -25.183  1.00  0.00    -0.002 C 
HETATM    9  C13 UNL     1      -2.578  51.994 -23.920  1.00  0.00     0.013 C 
HETATM   10  C15 UNL     1      -0.902  50.357 -24.926  1.00  0.00     0.019 C 
HETATM   11  C16 UNL     1      -3.398  50.303 -25.554  1.00  0.00     0.002 C 
HETATM   12  C12 UNL     1      -3.690  51.347 -23.056  1.00  0.00     0.007 C 
HETATM   13  C11 UNL     1      -3.614  49.802 -23.038  1.00  0.00     0.002 C 
HETATM   14  C2  UNL     1      -4.448  49.037 -21.922  1.00  0.00    -0.016 C 
HETATM   15  C10 UNL     1      -3.793  49.249 -24.496  1.00  0.00    -0.004 C 
HETATM   16  C1  UNL     1      -3.603  47.815 -21.466  1.00  0.00     0.020 C 
HETATM   17  C3  UNL     1      -4.700  49.947 -20.684  1.00  0.00     0.022 C 
HETATM   18  C7  UNL     1      -5.783  48.485 -22.419  1.00  0.00    -0.068 C 
HETATM   19  C4  UNL     1      -5.629  49.333 -19.646  1.00  0.00     0.084 C 
HETATM   20  C5  UNL     1      -6.941  48.971 -20.291  1.00  0.00     0.149 C 
HETATM   21  O1  UNL     1      -8.006  48.998 -19.681  1.00  0.00    -0.293 OA
HETATM   22  C6  UNL     1      -6.916  48.496 -21.694  1.00  0.00     0.053 C 
HETATM   23  C8  UNL     1      -5.777  47.838 -23.775  1.00  0.00     0.035 C 
HETATM   24  C9  UNL     1      -5.232  48.799 -24.806  1.00  0.00     0.010 C 
HETATM   25  C17 UNL     1      -3.085  49.794 -26.955  1.00  0.00     0.009 C 
HETATM   26  C18 UNL     1      -2.294  50.938 -27.613  1.00  0.00     0.047 C 
BRANCH   7  27
HETATM   27  O2  UNL     1      -3.082  52.986 -26.602  1.00  0.00    -0.381 OA
HETATM   28  H27 UNL     1      -3.095  53.319 -27.519  1.00  0.00     0.211 HD
ENDBRANCH   7  27
ENDBRANCH   5   7
ENDBRANCH   4   5
ENDBRANCH   3   4
ENDBRANCH   1   3
BRANCH   1  29
HETATM   29  C23 UNL     1       0.695  53.022 -22.506  1.00  0.00     0.120 C 
BRANCH  29  30
HETATM   30  C24 UNL     1       1.057  53.605 -21.144  1.00  0.00     0.112 C 
BRANCH  30  31
HETATM   31  C25 UNL     1       0.645  52.691 -20.008  1.00  0.00     0.217 C 
HETATM   32  O6  UNL     1      -0.060  51.701 -20.166  1.00  0.00    -0.274 OA
HETATM   33  N1  UNL     1       1.167  53.075 -18.792  1.00  0.00    -0.361 N 
HETATM   34  H34 UNL     1       1.760  53.893 -18.745  1.00  0.00     0.162 HD
BRANCH  33  35
HETATM   35  C26 UNL     1       1.025  52.258 -17.603  1.00  0.00     0.122 C 
BRANCH  35  36
HETATM   36  C27 UNL     1       2.079  52.639 -16.566  1.00  0.00     0.020 C 
BRANCH  36  37
HETATM   37  C28 UNL     1       2.362  51.533 -15.546  1.00  0.00     0.002 C 
BRANCH  37  38
HETATM   38  C29 UNL     1       1.096  51.049 -14.830  1.00  0.00     0.009 C 
BRANCH  38  39
HETATM   39  C30 UNL     1       0.336  52.192 -14.154  1.00  0.00     0.103 C 
BRANCH  39  40
HETATM   40  C31 UNL     1       0.678  52.360 -12.685  1.00  0.00     0.218 C 
HETATM   41  O7  UNL     1       1.208  51.496 -11.997  1.00  0.00    -0.274 OA
HETATM   42  N2  UNL     1       0.322  53.599 -12.192  1.00  0.00    -0.346 N 
HETATM   43  H45 UNL     1      -0.415  54.084 -12.692  1.00  0.00     0.163 HD
BRANCH  42  44
HETATM   44  C32 UNL     1       0.400  53.871 -10.748  1.00  0.00     0.186 C 
BRANCH  44  45
HETATM   45  C33 UNL     1       1.012  55.254 -10.507  1.00  0.00     0.074 C 
BRANCH  45  46
HETATM   46  C34 UNL     1       2.462  55.219 -10.086  1.00  0.00    -0.056 A 
HETATM   47  C35 UNL     1       3.307  54.193 -10.534  1.00  0.00     0.007 A 
HETATM   48  C36 UNL     1       4.643  54.152 -10.130  1.00  0.00     0.001 A 
HETATM   49  C37 UNL     1       5.147  55.136  -9.281  1.00  0.00     0.000 A 
HETATM   50  C38 UNL     1       4.315  56.160  -8.834  1.00  0.00     0.001 A 
HETATM   51  C39 UNL     1       2.979  56.203  -9.232  1.00  0.00     0.007 A 
ENDBRANCH  45  46
ENDBRANCH  44  45
BRANCH  44  52
HETATM   52  C40 UNL     1      -1.028  53.829 -10.209  1.00  0.00     0.163 C 
HETATM   53  O8  UNL     1      -1.444  53.056  -9.355  1.00  0.00    -0.648 OA
BRANCH  52  54
HETATM   54  O9  UNL     1      -1.847  54.736 -10.773  1.00  0.00    -0.775 OA
HETATM   55  H54 UNL     1      -2.710  54.611 -10.330  1.00  0.00     0.167 HD
ENDBRANCH  52  54
ENDBRANCH  44  52
ENDBRANCH  42  44
ENDBRANCH  39  40
ENDBRANCH  38  39
ENDBRANCH  37  38
ENDBRANCH  36  37
ENDBRANCH  35  36
ENDBRANCH  33  35
ENDBRANCH  30  31
ENDBRANCH  29  30
ENDBRANCH   1  29
TORSDOF 19
ENDMDL
MODEL 9
REMARK minimizedAffinity -8.57879639
REMARK CNNscore 0.281254917
REMARK CNNaffinity 5.93188667
REMARK  19 active torsions:
REMARK  status: ('A' for Active; 'I' for Inactive)
REMARK    1  A    between atoms: C19_20  and  O2_21 
REMARK    2  A    between atoms: C19_20  and  C20_22 
REMARK    3  A    between atoms: C20_22  and  C21_24 
REMARK    4  A    between atoms: C21_24  and  O4_25 
REMARK    5  A    between atoms: O4_25  and  C22_26 
REMARK    6  A    between atoms: C22_26  and  C23_28 
REMARK    7  A    between atoms: C23_28  and  C24_29 
REMARK    8  A    between atoms: C24_29  and  C25_30 
REMARK       I    between atoms: C25_30  and  N1_32 
REMARK    9  A    between atoms: N1_32  and  C26_33 
REMARK   10  A    between atoms: C26_33  and  C27_34 
REMARK   11  A    between atoms: C27_34  and  C28_35 
REMARK   12  A    between atoms: C28_35  and  C29_36 
REMARK   13  A    between atoms: C29_36  and  C30_37 
REMARK   14  A    between atoms: C30_37  and  C31_38 
REMARK       I    between atoms: C31_38  and  N2_40 
REMARK   15  A    between atoms: N2_40  and  C32_41 
REMARK   16  A    between atoms: C32_41  and  C33_42 
REMARK   17  A    between atoms: C32_41  and  C40_49 
REMARK   18  A    between atoms: C33_42  and  C34_43 
REMARK   19  A    between atoms: C40_49  and  O9_51 
ROOT
HETATM    1  C22 UNL     1      -9.805  46.298 -28.489  1.00  0.00     0.259 C 
HETATM    2  O5  UNL     1      -8.980  45.482 -28.097  1.00  0.00    -0.265 OA
ENDROOT
BRANCH   1   3
HETATM    3  O4  UNL     1     -11.072  46.393 -28.014  1.00  0.00    -0.314 OA
BRANCH   3   4
HETATM    4  C21 UNL     1     -12.034  45.591 -28.706  1.00  0.00     0.260 C 
BRANCH   4   5
HETATM    5  C20 UNL     1     -12.575  44.534 -27.746  1.00  0.00     0.185 C 
HETATM    6  O3  UNL     1     -12.492  43.330 -28.001  1.00  0.00    -0.292 OA
BRANCH   5   7
HETATM    7  C19 UNL     1     -13.328  45.036 -26.493  1.00  0.00     0.128 C 
HETATM    8  C14 UNL     1     -14.877  44.819 -26.476  1.00  0.00    -0.002 C 
HETATM    9  C13 UNL     1     -15.366  43.409 -26.063  1.00  0.00     0.013 C 
HETATM   10  C15 UNL     1     -15.485  45.228 -27.845  1.00  0.00     0.019 C 
HETATM   11  C16 UNL     1     -15.266  45.791 -25.343  1.00  0.00     0.002 C 
HETATM   12  C12 UNL     1     -16.541  43.402 -25.052  1.00  0.00     0.007 C 
HETATM   13  C11 UNL     1     -17.531  44.569 -25.275  1.00  0.00     0.002 C 
HETATM   14  C2  UNL     1     -18.949  44.478 -24.561  1.00  0.00    -0.016 C 
HETATM   15  C10 UNL     1     -16.782  45.937 -25.091  1.00  0.00    -0.004 C 
HETATM   16  C1  UNL     1     -19.999  45.081 -25.536  1.00  0.00     0.020 C 
HETATM   17  C3  UNL     1     -19.340  42.999 -24.274  1.00  0.00     0.022 C 
HETATM   18  C7  UNL     1     -19.041  45.284 -23.267  1.00  0.00    -0.068 C 
HETATM   19  C4  UNL     1     -20.611  42.847 -23.448  1.00  0.00     0.084 C 
HETATM   20  C5  UNL     1     -20.466  43.601 -22.152  1.00  0.00     0.149 C 
HETATM   21  O1  UNL     1     -21.013  43.239 -21.114  1.00  0.00    -0.293 OA
HETATM   22  C6  UNL     1     -19.692  44.864 -22.166  1.00  0.00     0.053 C 
HETATM   23  C8  UNL     1     -18.414  46.648 -23.280  1.00  0.00     0.035 C 
HETATM   24  C9  UNL     1     -16.962  46.548 -23.690  1.00  0.00     0.010 C 
HETATM   25  C17 UNL     1     -14.488  47.065 -25.647  1.00  0.00     0.009 C 
HETATM   26  C18 UNL     1     -13.184  46.573 -26.300  1.00  0.00     0.047 C 
BRANCH   7  27
HETATM   27  O2  UNL     1     -12.726  44.395 -25.362  1.00  0.00    -0.381 OA
HETATM   28  H27 UNL     1     -11.813  44.728 -25.281  1.00  0.00     0.211 HD
ENDBRANCH   7  27
ENDBRANCH   5   7
ENDBRANCH   4   5
ENDBRANCH   3   4
ENDBRANCH   1   3
BRANCH   1  29
HETATM   29  C23 UNL     1      -9.567  47.242 -29.646  1.00  0.00     0.120 C 
BRANCH  29  30
HETATM   30  C24 UNL     1      -8.546  48.338 -29.359  1.00  0.00     0.112 C 
BRANCH  30  31
HETATM   31  C25 UNL     1      -7.214  47.769 -28.915  1.00  0.00     0.217 C 
HETATM   32  O6  UNL     1      -6.502  47.083 -29.639  1.00  0.00    -0.274 OA
HETATM   33  N1  UNL     1      -6.880  48.125 -27.626  1.00  0.00    -0.361 N 
HETATM   34  H34 UNL     1      -7.511  48.714 -27.097  1.00  0.00     0.162 HD
BRANCH  33  35
HETATM   35  C26 UNL     1      -5.583  47.818 -27.055  1.00  0.00     0.122 C 
BRANCH  35  36
HETATM   36  C27 UNL     1      -4.483  48.573 -27.797  1.00  0.00     0.020 C 
BRANCH  36  37
HETATM   37  C28 UNL     1      -3.245  48.847 -26.940  1.00  0.00     0.002 C 
BRANCH  37  38
HETATM   38  C29 UNL     1      -3.211  50.277 -26.387  1.00  0.00     0.009 C 
BRANCH  38  39
HETATM   39  C30 UNL     1      -3.082  51.325 -27.493  1.00  0.00     0.103 C 
BRANCH  39  40
HETATM   40  C31 UNL     1      -2.028  52.380 -27.207  1.00  0.00     0.218 C 
HETATM   41  O7  UNL     1      -2.002  53.488 -27.727  1.00  0.00    -0.274 OA
HETATM   42  N2  UNL     1      -1.083  51.956 -26.294  1.00  0.00    -0.346 N 
HETATM   43  H45 UNL     1      -0.962  50.953 -26.209  1.00  0.00     0.163 HD
BRANCH  42  44
HETATM   44  C32 UNL     1       0.118  52.768 -26.042  1.00  0.00     0.186 C 
BRANCH  44  45
HETATM   45  C33 UNL     1       0.105  53.291 -24.602  1.00  0.00     0.074 C 
BRANCH  45  46
HETATM   46  C34 UNL     1      -0.237  52.242 -23.572  1.00  0.00    -0.056 A 
HETATM   47  C35 UNL     1      -1.097  51.182 -23.893  1.00  0.00     0.007 A 
HETATM   48  C36 UNL     1      -1.426  50.223 -22.934  1.00  0.00     0.001 A 
HETATM   49  C37 UNL     1      -0.897  50.310 -21.648  1.00  0.00     0.000 A 
HETATM   50  C38 UNL     1      -0.040  51.359 -21.319  1.00  0.00     0.001 A 
HETATM   51  C39 UNL     1       0.289  52.322 -22.275  1.00  0.00     0.007 A 
ENDBRANCH  45  46
ENDBRANCH  44  45
BRANCH  44  52
HETATM   52  C40 UNL     1       1.325  51.858 -26.258  1.00  0.00     0.163 C 
HETATM   53  O8  UNL     1       2.494  52.221 -26.287  1.00  0.00    -0.648 OA
BRANCH  52  54
HETATM   54  O9  UNL     1       1.002  50.564 -26.437  1.00  0.00    -0.775 OA
HETATM   55  H54 UNL     1       1.857  50.100 -26.546  1.00  0.00     0.167 HD
ENDBRANCH  52  54
ENDBRANCH  44  52
ENDBRANCH  42  44
ENDBRANCH  39  40
ENDBRANCH  38  39
ENDBRANCH  37  38
ENDBRANCH  36  37
ENDBRANCH  35  36
ENDBRANCH  33  35
ENDBRANCH  30  31
ENDBRANCH  29  30
ENDBRANCH   1  29
TORSDOF 19
ENDMDL
