MODEL 1
REMARK minimizedAffinity -8.56237888
REMARK  6 active torsions:
REMARK  status: ('A' for Active; 'I' for Inactive)
REMARK    1  A    between atoms: C2_2  and  C3_3 
REMARK    2  A    between atoms: C5_5  and  C6_6 
REMARK    3  A    between atoms: C6_6  and  C7_7 
REMARK    4  A    between atoms: C8_8  and  C9_9 
REMARK       I    between atoms: C9_9  and  N1_11 
REMARK    5  A    between atoms: N1_11  and  C10_12 
REMARK    6  A    between atoms: C10_12  and  C12_14 
ROOT
HETATM    1  C7  UNL     1      -2.194   6.021  12.757  1.00  0.00     0.036 C 
HETATM    2  C8  UNL     1      -2.768   7.253  13.447  1.00  0.00     0.011 C 
HETATM    3  C18 UNL     1      -2.047   8.324  13.822  1.00  0.00    -0.013 C 
HETATM    4  C19 UNL     1      -0.578   8.443  13.591  1.00  0.00     0.034 C 
HETATM    5  C20 UNL     1      -0.046   7.444  12.540  1.00  0.00     0.005 C 
HETATM    6  C21 UNL     1       1.514   7.578  12.313  1.00  0.00    -0.043 C 
HETATM    7  C22 UNL     1       2.312   7.992  13.569  1.00  0.00     0.015 C 
HETATM    8  C23 UNL     1       1.750   8.699  11.265  1.00  0.00     0.015 C 
HETATM    9  C24 UNL     1       2.126   6.267  11.772  1.00  0.00     0.009 C 
HETATM   10  C25 UNL     1       1.153   5.507  10.891  1.00  0.00     0.002 C 
HETATM   11  C26 UNL     1      -0.074   5.033  11.667  1.00  0.00     0.010 C 
HETATM   12  C27 UNL     1      -0.590   5.987  12.791  1.00  0.00    -0.031 C 
HETATM   13  C28 UNL     1      -0.101   5.455  14.163  1.00  0.00     0.016 C 
ENDROOT
BRANCH   2  14
HETATM   14  C9  UNL     1      -4.248   7.356  13.594  1.00  0.00     0.248 C 
HETATM   15  O1  UNL     1      -4.920   7.993  12.793  1.00  0.00    -0.268 OA
HETATM   16  N1  UNL     1      -4.745   6.653  14.661  1.00  0.00    -0.349 N 
HETATM   17  H11 UNL     1      -4.091   6.233  15.307  1.00  0.00     0.163 HD
BRANCH  16  18
HETATM   18  C10 UNL     1      -6.125   6.789  15.094  1.00  0.00     0.114 C 
HETATM   19  C11 UNL     1      -6.553   8.254  15.010  1.00  0.00     0.037 C 
BRANCH  18  20
HETATM   20  C12 UNL     1      -6.992   5.829  14.294  1.00  0.00    -0.036 A 
HETATM   21  C13 UNL     1      -7.842   6.250  13.260  1.00  0.00     0.009 A 
HETATM   22  C14 UNL     1      -8.596   5.323  12.535  1.00  0.00     0.001 A 
HETATM   23  C15 UNL     1      -8.502   3.963  12.823  1.00  0.00     0.000 A 
HETATM   24  C16 UNL     1      -7.651   3.527  13.834  1.00  0.00     0.001 A 
HETATM   25  C17 UNL     1      -6.899   4.451  14.560  1.00  0.00     0.009 A 
ENDBRANCH  18  20
ENDBRANCH  16  18
ENDBRANCH   2  14
BRANCH   1  26
HETATM   26  C6  UNL     1      -2.894   4.727  13.296  1.00  0.00     0.038 C 
BRANCH  26  27
HETATM   27  C5  UNL     1      -4.017   4.200  12.440  1.00  0.00    -0.019 C 
HETATM   28  C3  UNL     1      -4.086   3.044  11.746  1.00  0.00    -0.067 C 
HETATM   29  C4  UNL     1      -2.995   2.005  11.716  1.00  0.00     0.048 C 
BRANCH  28  30
HETATM   30  C2  UNL     1      -5.301   2.773  10.978  1.00  0.00    -0.004 C 
HETATM   31  C1  UNL     1      -6.053   1.666  11.035  1.00  0.00     0.012 C 
ENDBRANCH  28  30
ENDBRANCH  26  27
ENDBRANCH   1  26
TORSDOF 6
ENDMDL
MODEL 2
REMARK minimizedAffinity -8.43543243
REMARK  6 active torsions:
REMARK  status: ('A' for Active; 'I' for Inactive)
REMARK    1  A    between atoms: C2_2  and  C3_3 
REMARK    2  A    between atoms: C5_5  and  C6_6 
REMARK    3  A    between atoms: C6_6  and  C7_7 
REMARK    4  A    between atoms: C8_8  and  C9_9 
REMARK       I    between atoms: C9_9  and  N1_11 
REMARK    5  A    between atoms: N1_11  and  C10_12 
REMARK    6  A    between atoms: C10_12  and  C12_14 
ROOT
HETATM    1  C7  UNL     1      -1.101   7.495  13.286  1.00  0.00     0.036 C 
HETATM    2  C8  UNL     1      -1.865   6.260  12.825  1.00  0.00     0.011 C 
HETATM    3  C18 UNL     1      -1.516   5.492  11.778  1.00  0.00    -0.013 C 
HETATM    4  C19 UNL     1      -0.310   5.753  10.938  1.00  0.00     0.034 C 
HETATM    5  C20 UNL     1       0.703   6.706  11.610  1.00  0.00     0.005 C 
HETATM    6  C21 UNL     1       1.970   6.978  10.703  1.00  0.00    -0.043 C 
HETATM    7  C22 UNL     1       1.685   6.979   9.185  1.00  0.00     0.015 C 
HETATM    8  C23 UNL     1       2.990   5.834  10.950  1.00  0.00     0.015 C 
HETATM    9  C24 UNL     1       2.648   8.321  11.059  1.00  0.00     0.009 C 
HETATM   10  C25 UNL     1       2.510   8.653  12.532  1.00  0.00     0.002 C 
HETATM   11  C26 UNL     1       1.054   8.872  12.938  1.00  0.00     0.010 C 
HETATM   12  C27 UNL     1      -0.004   7.975  12.218  1.00  0.00    -0.031 C 
HETATM   13  C28 UNL     1      -0.684   8.805  11.098  1.00  0.00     0.016 C 
ENDROOT
BRANCH   2  14
HETATM   14  C9  UNL     1      -2.996   5.772  13.666  1.00  0.00     0.248 C 
HETATM   15  O1  UNL     1      -2.800   5.313  14.783  1.00  0.00    -0.268 OA
HETATM   16  N1  UNL     1      -4.225   5.929  13.079  1.00  0.00    -0.349 N 
HETATM   17  H11 UNL     1      -4.263   6.239  12.118  1.00  0.00     0.163 HD
BRANCH  16  18
HETATM   18  C10 UNL     1      -5.425   5.336  13.641  1.00  0.00     0.114 C 
HETATM   19  C11 UNL     1      -6.561   6.360  13.639  1.00  0.00     0.037 C 
BRANCH  18  20
HETATM   20  C12 UNL     1      -5.735   4.046  12.897  1.00  0.00    -0.036 A 
HETATM   21  C13 UNL     1      -4.831   3.439  12.013  1.00  0.00     0.009 A 
HETATM   22  C14 UNL     1      -5.154   2.237  11.377  1.00  0.00     0.001 A 
HETATM   23  C15 UNL     1      -6.377   1.618  11.625  1.00  0.00     0.000 A 
HETATM   24  C16 UNL     1      -7.278   2.198  12.512  1.00  0.00     0.001 A 
HETATM   25  C17 UNL     1      -6.959   3.399  13.146  1.00  0.00     0.009 A 
ENDBRANCH  18  20
ENDBRANCH  16  18
ENDBRANCH   2  14
BRANCH   1  26
HETATM   26  C6  UNL     1      -2.104   8.607  13.749  1.00  0.00     0.038 C 
BRANCH  26  27
HETATM   27  C5  UNL     1      -1.974   9.030  15.189  1.00  0.00    -0.019 C 
HETATM   28  C3  UNL     1      -2.941   9.395  16.059  1.00  0.00    -0.067 C 
HETATM   29  C4  UNL     1      -4.411   9.427  15.728  1.00  0.00     0.048 C 
BRANCH  28  30
HETATM   30  C2  UNL     1      -2.543   9.776  17.413  1.00  0.00    -0.004 C 
HETATM   31  C1  UNL     1      -3.313  10.364  18.337  1.00  0.00     0.012 C 
ENDBRANCH  28  30
ENDBRANCH  26  27
ENDBRANCH   1  26
TORSDOF 6
ENDMDL
MODEL 3
REMARK minimizedAffinity -8.33893204
REMARK  6 active torsions:
REMARK  status: ('A' for Active; 'I' for Inactive)
REMARK    1  A    between atoms: C2_2  and  C3_3 
REMARK    2  A    between atoms: C5_5  and  C6_6 
REMARK    3  A    between atoms: C6_6  and  C7_7 
REMARK    4  A    between atoms: C8_8  and  C9_9 
REMARK       I    between atoms: C9_9  and  N1_11 
REMARK    5  A    between atoms: N1_11  and  C10_12 
REMARK    6  A    between atoms: C10_12  and  C12_14 
ROOT
HETATM    1  C7  UNL     1      -3.936   5.854  13.230  1.00  0.00     0.036 C 
HETATM    2  C8  UNL     1      -5.022   6.270  14.215  1.00  0.00     0.011 C 
HETATM    3  C18 UNL     1      -4.878   7.222  15.154  1.00  0.00    -0.013 C 
HETATM    4  C19 UNL     1      -3.623   8.008  15.337  1.00  0.00     0.034 C 
HETATM    5  C20 UNL     1      -2.674   7.928  14.121  1.00  0.00     0.005 C 
HETATM    6  C21 UNL     1      -1.345   8.760  14.335  1.00  0.00    -0.043 C 
HETATM    7  C22 UNL     1      -0.847   8.808  15.796  1.00  0.00     0.015 C 
HETATM    8  C23 UNL     1      -1.630  10.231  13.929  1.00  0.00     0.015 C 
HETATM    9  C24 UNL     1      -0.191   8.225  13.457  1.00  0.00     0.009 C 
HETATM   10  C25 UNL     1      -0.693   7.658  12.143  1.00  0.00     0.002 C 
HETATM   11  C26 UNL     1      -1.580   6.432  12.349  1.00  0.00     0.010 C 
HETATM   12  C27 UNL     1      -2.495   6.448  13.615  1.00  0.00    -0.031 C 
HETATM   13  C28 UNL     1      -1.841   5.574  14.716  1.00  0.00     0.016 C 
ENDROOT
BRANCH   2  14
HETATM   14  C9  UNL     1      -6.387   5.696  14.046  1.00  0.00     0.248 C 
HETATM   15  O1  UNL     1      -6.829   4.873  14.837  1.00  0.00    -0.268 OA
HETATM   16  N1  UNL     1      -7.069   6.205  12.971  1.00  0.00    -0.349 N 
HETATM   17  H11 UNL     1      -6.575   6.816  12.334  1.00  0.00     0.163 HD
BRANCH  16  18
HETATM   18  C10 UNL     1      -8.324   5.634  12.516  1.00  0.00     0.114 C 
HETATM   19  C11 UNL     1      -8.353   4.136  12.822  1.00  0.00     0.037 C 
BRANCH  18  20
HETATM   20  C12 UNL     1      -9.475   6.424  13.118  1.00  0.00    -0.036 A 
HETATM   21  C13 UNL     1      -9.507   6.820  14.464  1.00  0.00     0.009 A 
HETATM   22  C14 UNL     1     -10.575   7.572  14.961  1.00  0.00     0.001 A 
HETATM   23  C15 UNL     1     -11.618   7.951  14.118  1.00  0.00     0.000 A 
HETATM   24  C16 UNL     1     -11.594   7.581  12.777  1.00  0.00     0.001 A 
HETATM   25  C17 UNL     1     -10.529   6.828  12.281  1.00  0.00     0.009 A 
ENDBRANCH  18  20
ENDBRANCH  16  18
ENDBRANCH   2  14
BRANCH   1  26
HETATM   26  C6  UNL     1      -3.975   4.304  13.009  1.00  0.00     0.038 C 
BRANCH  26  27
HETATM   27  C5  UNL     1      -2.850   3.745  12.176  1.00  0.00    -0.019 C 
HETATM   28  C3  UNL     1      -2.716   2.508  11.650  1.00  0.00    -0.067 C 
HETATM   29  C4  UNL     1      -3.735   1.408  11.796  1.00  0.00     0.048 C 
BRANCH  28  30
HETATM   30  C2  UNL     1      -1.507   2.214  10.881  1.00  0.00    -0.004 C 
HETATM   31  C1  UNL     1      -0.979   1.004  10.653  1.00  0.00     0.012 C 
ENDBRANCH  28  30
ENDBRANCH  26  27
ENDBRANCH   1  26
TORSDOF 6
ENDMDL
MODEL 4
REMARK minimizedAffinity -8.28696156
REMARK  6 active torsions:
REMARK  status: ('A' for Active; 'I' for Inactive)
REMARK    1  A    between atoms: C2_2  and  C3_3 
REMARK    2  A    between atoms: C5_5  and  C6_6 
REMARK    3  A    between atoms: C6_6  and  C7_7 
REMARK    4  A    between atoms: C8_8  and  C9_9 
REMARK       I    between atoms: C9_9  and  N1_11 
REMARK    5  A    between atoms: N1_11  and  C10_12 
REMARK    6  A    between atoms: C10_12  and  C12_14 
ROOT
HETATM    1  C7  UNL     1      -3.126   6.606  13.151  1.00  0.00     0.036 C 
HETATM    2  C8  UNL     1      -2.845   5.247  12.521  1.00  0.00     0.011 C 
HETATM    3  C18 UNL     1      -3.707   4.216  12.510  1.00  0.00    -0.013 C 
HETATM    4  C19 UNL     1      -5.071   4.284  13.112  1.00  0.00     0.034 C 
HETATM    5  C20 UNL     1      -5.550   5.730  13.369  1.00  0.00     0.005 C 
HETATM    6  C21 UNL     1      -6.993   5.783  14.014  1.00  0.00    -0.043 C 
HETATM    7  C22 UNL     1      -7.319   4.603  14.956  1.00  0.00     0.015 C 
HETATM    8  C23 UNL     1      -8.034   5.717  12.864  1.00  0.00     0.015 C 
HETATM    9  C24 UNL     1      -7.217   7.094  14.801  1.00  0.00     0.009 C 
HETATM   10  C25 UNL     1      -6.464   8.259  14.190  1.00  0.00     0.002 C 
HETATM   11  C26 UNL     1      -4.951   8.062  14.253  1.00  0.00     0.010 C 
HETATM   12  C27 UNL     1      -4.439   6.596  14.074  1.00  0.00    -0.031 C 
HETATM   13  C28 UNL     1      -4.100   6.011  15.469  1.00  0.00     0.016 C 
ENDROOT
BRANCH   2  14
HETATM   14  C9  UNL     1      -1.590   5.080  11.732  1.00  0.00     0.248 C 
HETATM   15  O1  UNL     1      -1.513   4.252  10.835  1.00  0.00    -0.268 OA
HETATM   16  N1  UNL     1      -0.595   5.952  12.091  1.00  0.00    -0.349 N 
HETATM   17  H11 UNL     1      -0.737   6.535  12.904  1.00  0.00     0.163 HD
BRANCH  16  18
HETATM   18  C10 UNL     1       0.761   5.818  11.590  1.00  0.00     0.114 C 
HETATM   19  C11 UNL     1       1.119   4.338  11.450  1.00  0.00     0.037 C 
BRANCH  18  20
HETATM   20  C12 UNL     1       0.896   6.625  10.308  1.00  0.00    -0.036 A 
HETATM   21  C13 UNL     1       0.068   7.716  10.002  1.00  0.00     0.009 A 
HETATM   22  C14 UNL     1       0.254   8.443   8.823  1.00  0.00     0.001 A 
HETATM   23  C15 UNL     1       1.277   8.101   7.941  1.00  0.00     0.000 A 
HETATM   24  C16 UNL     1       2.118   7.033   8.237  1.00  0.00     0.001 A 
HETATM   25  C17 UNL     1       1.932   6.304   9.412  1.00  0.00     0.009 A 
ENDBRANCH  18  20
ENDBRANCH  16  18
ENDBRANCH   2  14
BRANCH   1  26
HETATM   26  C6  UNL     1      -1.834   7.156  13.846  1.00  0.00     0.038 C 
BRANCH  26  27
HETATM   27  C5  UNL     1      -1.624   8.643  13.728  1.00  0.00    -0.019 C 
HETATM   28  C3  UNL     1      -1.687   9.589  14.690  1.00  0.00    -0.067 C 
HETATM   29  C4  UNL     1      -1.978   9.306  16.141  1.00  0.00     0.048 C 
BRANCH  28  30
HETATM   30  C2  UNL     1      -1.450  10.980  14.305  1.00  0.00    -0.004 C 
HETATM   31  C1  UNL     1      -1.536  12.055  15.099  1.00  0.00     0.012 C 
ENDBRANCH  28  30
ENDBRANCH  26  27
ENDBRANCH   1  26
TORSDOF 6
ENDMDL
MODEL 5
REMARK minimizedAffinity -8.25006104
REMARK  6 active torsions:
REMARK  status: ('A' for Active; 'I' for Inactive)
REMARK    1  A    between atoms: C2_2  and  C3_3 
REMARK    2  A    between atoms: C5_5  and  C6_6 
REMARK    3  A    between atoms: C6_6  and  C7_7 
REMARK    4  A    between atoms: C8_8  and  C9_9 
REMARK       I    between atoms: C9_9  and  N1_11 
REMARK    5  A    between atoms: N1_11  and  C10_12 
REMARK    6  A    between atoms: C10_12  and  C12_14 
ROOT
HETATM    1  C7  UNL     1      -3.763   6.565  13.511  1.00  0.00     0.036 C 
HETATM    2  C8  UNL     1      -4.815   6.749  14.598  1.00  0.00     0.011 C 
HETATM    3  C18 UNL     1      -4.743   7.660  15.585  1.00  0.00    -0.013 C 
HETATM    4  C19 UNL     1      -3.613   8.624  15.728  1.00  0.00     0.034 C 
HETATM    5  C20 UNL     1      -2.766   8.762  14.443  1.00  0.00     0.005 C 
HETATM    6  C21 UNL     1      -1.569   9.781  14.614  1.00  0.00    -0.043 C 
HETATM    7  C22 UNL     1      -0.965   9.828  16.036  1.00  0.00     0.015 C 
HETATM    8  C23 UNL     1      -2.109  11.208  14.329  1.00  0.00     0.015 C 
HETATM    9  C24 UNL     1      -0.422   9.485  13.621  1.00  0.00     0.009 C 
HETATM   10  C25 UNL     1      -0.937   8.917  12.313  1.00  0.00     0.002 C 
HETATM   11  C26 UNL     1      -1.605   7.556  12.500  1.00  0.00     0.010 C 
HETATM   12  C27 UNL     1      -2.404   7.358  13.829  1.00  0.00    -0.031 C 
HETATM   13  C28 UNL     1      -1.534   6.541  14.819  1.00  0.00     0.016 C 
ENDROOT
BRANCH   2  14
HETATM   14  C9  UNL     1      -6.085   5.975  14.491  1.00  0.00     0.248 C 
HETATM   15  O1  UNL     1      -6.605   5.474  15.479  1.00  0.00    -0.268 OA
HETATM   16  N1  UNL     1      -6.594   5.928  13.219  1.00  0.00    -0.349 N 
HETATM   17  H11 UNL     1      -6.037   6.303  12.464  1.00  0.00     0.163 HD
BRANCH  16  18
HETATM   18  C10 UNL     1      -7.704   5.060  12.869  1.00  0.00     0.114 C 
HETATM   19  C11 UNL     1      -8.603   5.754  11.845  1.00  0.00     0.037 C 
BRANCH  18  20
HETATM   20  C12 UNL     1      -7.157   3.714  12.421  1.00  0.00    -0.036 A 
HETATM   21  C13 UNL     1      -7.627   2.493  12.928  1.00  0.00     0.009 A 
HETATM   22  C14 UNL     1      -7.111   1.281  12.460  1.00  0.00     0.001 A 
HETATM   23  C15 UNL     1      -6.130   1.271  11.471  1.00  0.00     0.000 A 
HETATM   24  C16 UNL     1      -5.665   2.472  10.945  1.00  0.00     0.001 A 
HETATM   25  C17 UNL     1      -6.177   3.683  11.413  1.00  0.00     0.009 A 
ENDBRANCH  18  20
ENDBRANCH  16  18
ENDBRANCH   2  14
BRANCH   1  26
HETATM   26  C6  UNL     1      -3.580   5.042  13.191  1.00  0.00     0.038 C 
BRANCH  26  27
HETATM   27  C5  UNL     1      -2.175   4.621  12.847  1.00  0.00    -0.019 C 
HETATM   28  C3  UNL     1      -1.712   4.050  11.714  1.00  0.00    -0.067 C 
HETATM   29  C4  UNL     1      -2.566   3.730  10.515  1.00  0.00     0.048 C 
BRANCH  28  30
HETATM   30  C2  UNL     1      -0.288   3.726  11.638  1.00  0.00    -0.004 C 
HETATM   31  C1  UNL     1       0.732   4.595  11.662  1.00  0.00     0.012 C 
ENDBRANCH  28  30
ENDBRANCH  26  27
ENDBRANCH   1  26
TORSDOF 6
ENDMDL
MODEL 6
REMARK minimizedAffinity -8.19782639
REMARK  6 active torsions:
REMARK  status: ('A' for Active; 'I' for Inactive)
REMARK    1  A    between atoms: C2_2  and  C3_3 
REMARK    2  A    between atoms: C5_5  and  C6_6 
REMARK    3  A    between atoms: C6_6  and  C7_7 
REMARK    4  A    between atoms: C8_8  and  C9_9 
REMARK       I    between atoms: C9_9  and  N1_11 
REMARK    5  A    between atoms: N1_11  and  C10_12 
REMARK    6  A    between atoms: C10_12  and  C12_14 
ROOT
HETATM    1  C7  UNL     1      -6.246   6.698  14.415  1.00  0.00     0.036 C 
HETATM    2  C8  UNL     1      -6.682   8.061  14.942  1.00  0.00     0.011 C 
HETATM    3  C18 UNL     1      -5.862   9.112  15.113  1.00  0.00    -0.013 C 
HETATM    4  C19 UNL     1      -4.406   9.075  14.789  1.00  0.00     0.034 C 
HETATM    5  C20 UNL     1      -4.017   7.894  13.873  1.00  0.00     0.005 C 
HETATM    6  C21 UNL     1      -2.470   7.866  13.545  1.00  0.00    -0.043 C 
HETATM    7  C22 UNL     1      -1.564   8.390  14.681  1.00  0.00     0.015 C 
HETATM    8  C23 UNL     1      -2.220   8.799  12.330  1.00  0.00     0.015 C 
HETATM    9  C24 UNL     1      -1.992   6.444  13.175  1.00  0.00     0.009 C 
HETATM   10  C25 UNL     1      -3.073   5.647  12.471  1.00  0.00     0.002 C 
HETATM   11  C26 UNL     1      -4.278   5.392  13.373  1.00  0.00     0.010 C 
HETATM   12  C27 UNL     1      -4.649   6.539  14.368  1.00  0.00    -0.031 C 
HETATM   13  C28 UNL     1      -4.113   6.174  15.776  1.00  0.00     0.016 C 
ENDROOT
BRANCH   2  14
HETATM   14  C9  UNL     1      -8.138   8.305  15.150  1.00  0.00     0.248 C 
HETATM   15  O1  UNL     1      -8.910   7.381  15.368  1.00  0.00    -0.268 OA
HETATM   16  N1  UNL     1      -8.484   9.631  15.106  1.00  0.00    -0.349 N 
HETATM   17  H11 UNL     1      -7.781  10.303  14.832  1.00  0.00     0.163 HD
BRANCH  16  18
HETATM   18  C10 UNL     1      -9.871  10.062  15.081  1.00  0.00     0.114 C 
HETATM   19  C11 UNL     1     -10.732   9.000  14.396  1.00  0.00     0.037 C 
BRANCH  18  20
HETATM   20  C12 UNL     1     -10.306  10.413  16.495  1.00  0.00    -0.036 A 
HETATM   21  C13 UNL     1     -10.243  11.716  17.012  1.00  0.00     0.009 A 
HETATM   22  C14 UNL     1     -10.683  11.991  18.309  1.00  0.00     0.001 A 
HETATM   23  C15 UNL     1     -11.206  10.972  19.104  1.00  0.00     0.000 A 
HETATM   24  C16 UNL     1     -11.290   9.678  18.601  1.00  0.00     0.001 A 
HETATM   25  C17 UNL     1     -10.849   9.401  17.307  1.00  0.00     0.009 A 
ENDBRANCH  18  20
ENDBRANCH  16  18
ENDBRANCH   2  14
BRANCH   1  26
HETATM   26  C6  UNL     1      -7.002   5.558  15.177  1.00  0.00     0.038 C 
BRANCH  26  27
HETATM   27  C5  UNL     1      -7.150   4.265  14.418  1.00  0.00    -0.019 C 
HETATM   28  C3  UNL     1      -7.778   4.035  13.245  1.00  0.00    -0.067 C 
HETATM   29  C4  UNL     1      -8.467   5.098  12.429  1.00  0.00     0.048 C 
BRANCH  28  30
HETATM   30  C2  UNL     1      -7.785   2.669  12.723  1.00  0.00    -0.004 C 
HETATM   31  C1  UNL     1      -6.765   2.034  12.131  1.00  0.00     0.012 C 
ENDBRANCH  28  30
ENDBRANCH  26  27
ENDBRANCH   1  26
TORSDOF 6
ENDMDL
MODEL 7
REMARK minimizedAffinity -8.16624165
REMARK  6 active torsions:
REMARK  status: ('A' for Active; 'I' for Inactive)
REMARK    1  A    between atoms: C2_2  and  C3_3 
REMARK    2  A    between atoms: C5_5  and  C6_6 
REMARK    3  A    between atoms: C6_6  and  C7_7 
REMARK    4  A    between atoms: C8_8  and  C9_9 
REMARK       I    between atoms: C9_9  and  N1_11 
REMARK    5  A    between atoms: N1_11  and  C10_12 
REMARK    6  A    between atoms: C10_12  and  C12_14 
ROOT
HETATM    1  C7  UNL     1       1.041   6.773  13.228  1.00  0.00     0.036 C 
HETATM    2  C8  UNL     1      -0.253   6.190  12.674  1.00  0.00     0.011 C 
HETATM    3  C18 UNL     1      -0.479   5.925  11.376  1.00  0.00    -0.013 C 
HETATM    4  C19 UNL     1       0.534   6.161  10.305  1.00  0.00     0.034 C 
HETATM    5  C20 UNL     1       1.967   6.336  10.853  1.00  0.00     0.005 C 
HETATM    6  C21 UNL     1       3.026   6.593   9.706  1.00  0.00    -0.043 C 
HETATM    7  C22 UNL     1       2.481   7.380   8.494  1.00  0.00     0.015 C 
HETATM    8  C23 UNL     1       3.480   5.214   9.156  1.00  0.00     0.015 C 
HETATM    9  C24 UNL     1       4.270   7.340  10.237  1.00  0.00     0.009 C 
HETATM   10  C25 UNL     1       4.578   6.981  11.677  1.00  0.00     0.002 C 
HETATM   11  C26 UNL     1       3.467   7.421  12.628  1.00  0.00     0.010 C 
HETATM   12  C27 UNL     1       2.008   7.330  12.074  1.00  0.00    -0.031 C 
HETATM   13  C28 UNL     1       1.550   8.744  11.637  1.00  0.00     0.016 C 
ENDROOT
BRANCH   2  14
HETATM   14  C9  UNL     1      -1.297   5.742  13.641  1.00  0.00     0.248 C 
HETATM   15  O1  UNL     1      -0.991   5.225  14.707  1.00  0.00    -0.268 OA
HETATM   16  N1  UNL     1      -2.578   6.001  13.225  1.00  0.00    -0.349 N 
HETATM   17  H11 UNL     1      -2.717   6.352  12.288  1.00  0.00     0.163 HD
BRANCH  16  18
HETATM   18  C10 UNL     1      -3.734   5.464  13.921  1.00  0.00     0.114 C 
HETATM   19  C11 UNL     1      -4.662   6.603  14.342  1.00  0.00     0.037 C 
BRANCH  18  20
HETATM   20  C12 UNL     1      -4.388   4.404  13.048  1.00  0.00    -0.036 A 
HETATM   21  C13 UNL     1      -3.654   3.457  12.319  1.00  0.00     0.009 A 
HETATM   22  C14 UNL     1      -4.305   2.484  11.555  1.00  0.00     0.001 A 
HETATM   23  C15 UNL     1      -5.697   2.435  11.520  1.00  0.00     0.000 A 
HETATM   24  C16 UNL     1      -6.440   3.356  12.251  1.00  0.00     0.001 A 
HETATM   25  C17 UNL     1      -5.792   4.329  13.012  1.00  0.00     0.009 A 
ENDBRANCH  18  20
ENDBRANCH  16  18
ENDBRANCH   2  14
BRANCH   1  26
HETATM   26  C6  UNL     1       0.726   7.792  14.375  1.00  0.00     0.038 C 
BRANCH  26  27
HETATM   27  C5  UNL     1      -0.421   8.731  14.103  1.00  0.00    -0.019 C 
HETATM   28  C3  UNL     1      -1.493   9.009  14.877  1.00  0.00    -0.067 C 
HETATM   29  C4  UNL     1      -1.738   8.408  16.237  1.00  0.00     0.048 C 
BRANCH  28  30
HETATM   30  C2  UNL     1      -2.480   9.961  14.369  1.00  0.00    -0.004 C 
HETATM   31  C1  UNL     1      -3.552  10.427  15.024  1.00  0.00     0.012 C 
ENDBRANCH  28  30
ENDBRANCH  26  27
ENDBRANCH   1  26
TORSDOF 6
ENDMDL
MODEL 8
REMARK minimizedAffinity -8.12955856
REMARK  6 active torsions:
REMARK  status: ('A' for Active; 'I' for Inactive)
REMARK    1  A    between atoms: C2_2  and  C3_3 
REMARK    2  A    between atoms: C5_5  and  C6_6 
REMARK    3  A    between atoms: C6_6  and  C7_7 
REMARK    4  A    between atoms: C8_8  and  C9_9 
REMARK       I    between atoms: C9_9  and  N1_11 
REMARK    5  A    between atoms: N1_11  and  C10_12 
REMARK    6  A    between atoms: C10_12  and  C12_14 
ROOT
HETATM    1  C7  UNL     1      -3.016   5.518  12.850  1.00  0.00     0.036 C 
HETATM    2  C8  UNL     1      -3.907   6.686  13.257  1.00  0.00     0.011 C 
HETATM    3  C18 UNL     1      -3.459   7.909  13.590  1.00  0.00    -0.013 C 
HETATM    4  C19 UNL     1      -2.013   8.279  13.587  1.00  0.00     0.034 C 
HETATM    5  C20 UNL     1      -1.135   7.291  12.789  1.00  0.00     0.005 C 
HETATM    6  C21 UNL     1       0.395   7.694  12.803  1.00  0.00    -0.043 C 
HETATM    7  C22 UNL     1       0.864   8.386  14.102  1.00  0.00     0.015 C 
HETATM    8  C23 UNL     1       0.631   8.718  11.660  1.00  0.00     0.015 C 
HETATM    9  C24 UNL     1       1.308   6.472  12.559  1.00  0.00     0.009 C 
HETATM   10  C25 UNL     1       0.658   5.450  11.648  1.00  0.00     0.002 C 
HETATM   11  C26 UNL     1      -0.595   4.838  12.271  1.00  0.00     0.010 C 
HETATM   12  C27 UNL     1      -1.464   5.794  13.150  1.00  0.00    -0.031 C 
HETATM   13  C28 UNL     1      -1.157   5.517  14.644  1.00  0.00     0.016 C 
ENDROOT
BRANCH   2  14
HETATM   14  C9  UNL     1      -5.385   6.521  13.143  1.00  0.00     0.248 C 
HETATM   15  O1  UNL     1      -6.082   7.394  12.643  1.00  0.00    -0.268 OA
HETATM   16  N1  UNL     1      -5.841   5.315  13.609  1.00  0.00    -0.349 N 
HETATM   17  H11 UNL     1      -5.188   4.705  14.081  1.00  0.00     0.163 HD
BRANCH  16  18
HETATM   18  C10 UNL     1      -7.257   5.042  13.776  1.00  0.00     0.114 C 
HETATM   19  C11 UNL     1      -7.463   3.572  14.141  1.00  0.00     0.037 C 
BRANCH  18  20
HETATM   20  C12 UNL     1      -7.837   6.030  14.776  1.00  0.00    -0.036 A 
HETATM   21  C13 UNL     1      -9.016   6.753  14.538  1.00  0.00     0.009 A 
HETATM   22  C14 UNL     1      -9.523   7.627  15.504  1.00  0.00     0.001 A 
HETATM   23  C15 UNL     1      -8.869   7.781  16.725  1.00  0.00     0.000 A 
HETATM   24  C16 UNL     1      -7.708   7.059  16.983  1.00  0.00     0.001 A 
HETATM   25  C17 UNL     1      -7.199   6.188  16.019  1.00  0.00     0.009 A 
ENDBRANCH  18  20
ENDBRANCH  16  18
ENDBRANCH   2  14
BRANCH   1  26
HETATM   26  C6  UNL     1      -3.577   4.181  13.444  1.00  0.00     0.038 C 
BRANCH  26  27
HETATM   27  C5  UNL     1      -4.458   3.385  12.516  1.00  0.00    -0.019 C 
HETATM   28  C3  UNL     1      -4.299   3.136  11.198  1.00  0.00    -0.067 C 
HETATM   29  C4  UNL     1      -3.133   3.624  10.377  1.00  0.00     0.048 C 
BRANCH  28  30
HETATM   30  C2  UNL     1      -5.317   2.335  10.520  1.00  0.00    -0.004 C 
HETATM   31  C1  UNL     1      -6.086   1.387  11.072  1.00  0.00     0.012 C 
ENDBRANCH  28  30
ENDBRANCH  26  27
ENDBRANCH   1  26
TORSDOF 6
ENDMDL
MODEL 9
REMARK minimizedAffinity -8.0898695
REMARK  6 active torsions:
REMARK  status: ('A' for Active; 'I' for Inactive)
REMARK    1  A    between atoms: C2_2  and  C3_3 
REMARK    2  A    between atoms: C5_5  and  C6_6 
REMARK    3  A    between atoms: C6_6  and  C7_7 
REMARK    4  A    between atoms: C8_8  and  C9_9 
REMARK       I    between atoms: C9_9  and  N1_11 
REMARK    5  A    between atoms: N1_11  and  C10_12 
REMARK    6  A    between atoms: C10_12  and  C12_14 
ROOT
HETATM    1  C7  UNL     1      -5.967   6.808  14.392  1.00  0.00     0.036 C 
HETATM    2  C8  UNL     1      -6.273   8.192  14.952  1.00  0.00     0.011 C 
HETATM    3  C18 UNL     1      -5.365   9.171  15.109  1.00  0.00    -0.013 C 
HETATM    4  C19 UNL     1      -3.928   9.022  14.734  1.00  0.00     0.034 C 
HETATM    5  C20 UNL     1      -3.668   7.827  13.789  1.00  0.00     0.005 C 
HETATM    6  C21 UNL     1      -2.140   7.679  13.409  1.00  0.00    -0.043 C 
HETATM    7  C22 UNL     1      -1.157   8.110  14.520  1.00  0.00     0.015 C 
HETATM    8  C23 UNL     1      -1.855   8.608  12.198  1.00  0.00     0.015 C 
HETATM    9  C24 UNL     1      -1.792   6.229  13.003  1.00  0.00     0.009 C 
HETATM   10  C25 UNL     1      -2.956   5.533  12.327  1.00  0.00     0.002 C 
HETATM   11  C26 UNL     1      -4.148   5.363  13.266  1.00  0.00     0.010 C 
HETATM   12  C27 UNL     1      -4.391   6.520  14.288  1.00  0.00    -0.031 C 
HETATM   13  C28 UNL     1      -3.840   6.090  15.671  1.00  0.00     0.016 C 
ENDROOT
BRANCH   2  14
HETATM   14  C9  UNL     1      -7.697   8.550  15.213  1.00  0.00     0.248 C 
HETATM   15  O1  UNL     1      -8.064   9.717  15.217  1.00  0.00    -0.268 OA
HETATM   16  N1  UNL     1      -8.511   7.463  15.400  1.00  0.00    -0.349 N 
HETATM   17  H11 UNL     1      -8.086   6.549  15.462  1.00  0.00     0.163 HD
BRANCH  16  18
HETATM   18  C10 UNL     1      -9.879   7.601  15.866  1.00  0.00     0.114 C 
HETATM   19  C11 UNL     1      -9.936   8.599  17.023  1.00  0.00     0.037 C 
BRANCH  18  20
HETATM   20  C12 UNL     1     -10.772   7.949  14.685  1.00  0.00    -0.036 A 
HETATM   21  C13 UNL     1     -11.348   6.979  13.851  1.00  0.00     0.009 A 
HETATM   22  C14 UNL     1     -12.186   7.352  12.796  1.00  0.00     0.001 A 
HETATM   23  C15 UNL     1     -12.471   8.696  12.568  1.00  0.00     0.000 A 
HETATM   24  C16 UNL     1     -11.921   9.670  13.395  1.00  0.00     0.001 A 
HETATM   25  C17 UNL     1     -11.083   9.300  14.448  1.00  0.00     0.009 A 
ENDBRANCH  18  20
ENDBRANCH  16  18
ENDBRANCH   2  14
BRANCH   1  26
HETATM   26  C6  UNL     1      -6.788   5.720  15.165  1.00  0.00     0.038 C 
BRANCH  26  27
HETATM   27  C5  UNL     1      -6.989   4.422  14.428  1.00  0.00    -0.019 C 
HETATM   28  C3  UNL     1      -7.702   4.182  13.306  1.00  0.00    -0.067 C 
HETATM   29  C4  UNL     1      -8.453   5.237  12.537  1.00  0.00     0.048 C 
BRANCH  28  30
HETATM   30  C2  UNL     1      -7.745   2.812  12.796  1.00  0.00    -0.004 C 
HETATM   31  C1  UNL     1      -6.762   2.168  12.153  1.00  0.00     0.012 C 
ENDBRANCH  28  30
ENDBRANCH  26  27
ENDBRANCH   1  26
TORSDOF 6
ENDMDL
