MODEL 1
REMARK minimizedAffinity -8.77244282
REMARK  10 active torsions:
REMARK  status: ('A' for Active; 'I' for Inactive)
REMARK    1  A    between atoms: C14_14  and  C15_15 
REMARK    2  A    between atoms: C15_15  and  C17_17 
REMARK    3  A    between atoms: C17_17  and  C18_18 
REMARK    4  A    between atoms: C18_18  and  C19_19 
REMARK    5  A    between atoms: C20_20  and  C22_22 
REMARK    6  A    between atoms: C22_22  and  O2_24 
REMARK    7  A    between atoms: C27_29  and  C28_30 
REMARK    8  A    between atoms: C28_30  and  C29_31 
REMARK    9  A    between atoms: C29_31  and  C30_32 
REMARK   10  A    between atoms: C30_32  and  O4_34 
ROOT
HETATM    1  C1  UNL     1       1.145   6.557   9.746  1.00  0.00     0.043 C 
HETATM    2  C2  UNL     1       0.788   7.213  11.067  1.00  0.00    -0.085 C 
HETATM    3  C3  UNL     1       1.354   8.608  11.139  1.00  0.00     0.043 C 
HETATM    4  C4  UNL     1       0.013   6.599  12.004  1.00  0.00    -0.073 C 
HETATM    5  C5  UNL     1      -0.736   5.330  11.615  1.00  0.00     0.035 C 
HETATM    6  C6  UNL     1      -1.945   5.027  12.501  1.00  0.00     0.010 C 
HETATM    7  C7  UNL     1      -2.773   6.281  12.895  1.00  0.00     0.003 C 
HETATM    8  C8  UNL     1      -1.873   7.497  13.449  1.00  0.00    -0.032 C 
HETATM    9  C9  UNL     1      -2.002   8.746  12.535  1.00  0.00     0.016 C 
HETATM   10  C10 UNL     1      -2.328   7.961  14.868  1.00  0.00     0.011 C 
HETATM   11  C11 UNL     1      -3.844   8.065  15.145  1.00  0.00     0.011 C 
HETATM   12  C12 UNL     1      -4.751   7.168  14.284  1.00  0.00    -0.032 C 
HETATM   13  C13 UNL     1      -5.304   7.988  13.072  1.00  0.00     0.016 C 
HETATM   14  C14 UNL     1      -5.992   6.541  15.014  1.00  0.00    -0.002 C 
HETATM   15  C23 UNL     1      -6.297   5.291  14.130  1.00  0.00     0.006 C 
HETATM   16  C24 UNL     1      -5.073   5.052  13.224  1.00  0.00     0.011 C 
HETATM   17  C25 UNL     1      -3.948   5.891  13.860  1.00  0.00    -0.032 C 
HETATM   18  C26 UNL     1      -3.407   5.031  15.054  1.00  0.00     0.016 C 
HETATM   19  C27 UNL     1      -0.350   7.041  13.440  1.00  0.00     0.024 C 
ENDROOT
BRANCH  14  20
HETATM   20  C15 UNL     1      -7.256   7.418  15.279  1.00  0.00    -0.014 C 
HETATM   21  C16 UNL     1      -7.813   7.174  16.688  1.00  0.00     0.010 C 
BRANCH  20  22
HETATM   22  C17 UNL     1      -8.364   7.129  14.225  1.00  0.00     0.008 C 
BRANCH  22  23
HETATM   23  C18 UNL     1      -9.796   7.189  14.784  1.00  0.00     0.028 C 
BRANCH  23  24
HETATM   24  C19 UNL     1     -10.828   7.658  13.798  1.00  0.00    -0.013 C 
HETATM   25  C20 UNL     1     -11.251   8.920  13.581  1.00  0.00     0.008 C 
HETATM   26  C21 UNL     1     -10.805  10.141  14.325  1.00  0.00     0.055 C 
BRANCH  25  27
HETATM   27  C22 UNL     1     -12.275   9.097  12.517  1.00  0.00     0.171 C 
HETATM   28  O1  UNL     1     -13.460   8.823  12.591  1.00  0.00    -0.646 OA
BRANCH  27  29
HETATM   29  O2  UNL     1     -11.756   9.612  11.390  1.00  0.00    -0.773 OA
HETATM   30  H35 UNL     1     -12.528   9.663  10.788  1.00  0.00     0.167 HD
ENDBRANCH  27  29
ENDBRANCH  25  27
ENDBRANCH  23  24
ENDBRANCH  22  23
ENDBRANCH  20  22
ENDBRANCH  14  20
BRANCH  19  31
HETATM   31  C28 UNL     1       0.661   7.938  14.208  1.00  0.00     0.020 C 
BRANCH  31  32
HETATM   32  C29 UNL     1       0.795   7.567  15.691  1.00  0.00     0.110 C 
BRANCH  32  33
HETATM   33  C30 UNL     1       2.173   7.728  16.261  1.00  0.00     0.139 C 
HETATM   34  O3  UNL     1       2.554   8.636  16.982  1.00  0.00    -0.650 OA
BRANCH  33  35
HETATM   35  O4  UNL     1       3.018   6.755  15.873  1.00  0.00    -0.776 OA
HETATM   36  H48 UNL     1       3.851   6.979  16.338  1.00  0.00     0.167 HD
ENDBRANCH  33  35
ENDBRANCH  32  33
ENDBRANCH  31  32
ENDBRANCH  19  31
TORSDOF 10
ENDMDL
MODEL 2
REMARK minimizedAffinity -8.47451115
REMARK  10 active torsions:
REMARK  status: ('A' for Active; 'I' for Inactive)
REMARK    1  A    between atoms: C14_14  and  C15_15 
REMARK    2  A    between atoms: C15_15  and  C17_17 
REMARK    3  A    between atoms: C17_17  and  C18_18 
REMARK    4  A    between atoms: C18_18  and  C19_19 
REMARK    5  A    between atoms: C20_20  and  C22_22 
REMARK    6  A    between atoms: C22_22  and  O2_24 
REMARK    7  A    between atoms: C27_29  and  C28_30 
REMARK    8  A    between atoms: C28_30  and  C29_31 
REMARK    9  A    between atoms: C29_31  and  C30_32 
REMARK   10  A    between atoms: C30_32  and  O4_34 
ROOT
HETATM    1  C1  UNL     1       5.974   8.861  12.722  1.00  0.00     0.043 C 
HETATM    2  C2  UNL     1       4.988   8.365  11.680  1.00  0.00    -0.085 C 
HETATM    3  C3  UNL     1       5.688   7.527  10.641  1.00  0.00     0.043 C 
HETATM    4  C4  UNL     1       3.653   8.626  11.753  1.00  0.00    -0.073 C 
HETATM    5  C5  UNL     1       3.091   9.205  13.046  1.00  0.00     0.035 C 
HETATM    6  C6  UNL     1       1.592   8.969  13.232  1.00  0.00     0.010 C 
HETATM    7  C7  UNL     1       1.112   7.561  12.784  1.00  0.00     0.003 C 
HETATM    8  C8  UNL     1       1.642   7.136  11.323  1.00  0.00    -0.032 C 
HETATM    9  C9  UNL     1       2.541   5.871  11.404  1.00  0.00     0.016 C 
HETATM   10  C10 UNL     1       0.471   6.763  10.362  1.00  0.00     0.011 C 
HETATM   11  C11 UNL     1      -0.691   5.917  10.929  1.00  0.00     0.011 C 
HETATM   12  C12 UNL     1      -0.923   6.020  12.447  1.00  0.00    -0.032 C 
HETATM   13  C13 UNL     1      -0.210   4.830  13.170  1.00  0.00     0.016 C 
HETATM   14  C14 UNL     1      -2.422   6.006  12.916  1.00  0.00    -0.002 C 
HETATM   15  C23 UNL     1      -2.339   6.718  14.303  1.00  0.00     0.006 C 
HETATM   16  C24 UNL     1      -0.963   7.407  14.391  1.00  0.00     0.011 C 
HETATM   17  C25 UNL     1      -0.445   7.428  12.940  1.00  0.00    -0.032 C 
HETATM   18  C26 UNL     1      -1.164   8.641  12.254  1.00  0.00     0.016 C 
HETATM   19  C27 UNL     1       2.524   8.324  10.742  1.00  0.00     0.024 C 
ENDROOT
BRANCH  14  20
HETATM   20  C15 UNL     1      -3.200   4.653  12.976  1.00  0.00    -0.014 C 
HETATM   21  C16 UNL     1      -2.834   3.754  11.788  1.00  0.00     0.010 C 
BRANCH  20  22
HETATM   22  C17 UNL     1      -4.736   4.896  12.991  1.00  0.00     0.008 C 
BRANCH  22  23
HETATM   23  C18 UNL     1      -5.143   6.340  13.333  1.00  0.00     0.028 C 
BRANCH  23  24
HETATM   24  C19 UNL     1      -6.247   6.452  14.345  1.00  0.00    -0.013 C 
HETATM   25  C20 UNL     1      -7.530   6.058  14.216  1.00  0.00     0.008 C 
HETATM   26  C21 UNL     1      -8.150   5.456  12.992  1.00  0.00     0.055 C 
BRANCH  25  27
HETATM   27  C22 UNL     1      -8.407   6.271  15.398  1.00  0.00     0.171 C 
HETATM   28  O1  UNL     1      -8.973   7.304  15.710  1.00  0.00    -0.646 OA
BRANCH  27  29
HETATM   29  O2  UNL     1      -8.530   5.165  16.149  1.00  0.00    -0.773 OA
HETATM   30  H35 UNL     1      -9.115   5.452  16.881  1.00  0.00     0.167 HD
ENDBRANCH  27  29
ENDBRANCH  25  27
ENDBRANCH  23  24
ENDBRANCH  22  23
ENDBRANCH  20  22
ENDBRANCH  14  20
BRANCH  19  31
HETATM   31  C28 UNL     1       2.890   8.260   9.232  1.00  0.00     0.020 C 
BRANCH  31  32
HETATM   32  C29 UNL     1       1.730   7.788   8.347  1.00  0.00     0.110 C 
BRANCH  32  33
HETATM   33  C30 UNL     1       2.089   6.732   7.343  1.00  0.00     0.139 C 
HETATM   34  O3  UNL     1       2.598   5.650   7.585  1.00  0.00    -0.650 OA
BRANCH  33  35
HETATM   35  O4  UNL     1       1.819   7.100   6.077  1.00  0.00    -0.776 OA
HETATM   36  H48 UNL     1       2.078   6.314   5.552  1.00  0.00     0.167 HD
ENDBRANCH  33  35
ENDBRANCH  32  33
ENDBRANCH  31  32
ENDBRANCH  19  31
TORSDOF 10
ENDMDL
MODEL 3
REMARK minimizedAffinity -8.44883156
REMARK  10 active torsions:
REMARK  status: ('A' for Active; 'I' for Inactive)
REMARK    1  A    between atoms: C14_14  and  C15_15 
REMARK    2  A    between atoms: C15_15  and  C17_17 
REMARK    3  A    between atoms: C17_17  and  C18_18 
REMARK    4  A    between atoms: C18_18  and  C19_19 
REMARK    5  A    between atoms: C20_20  and  C22_22 
REMARK    6  A    between atoms: C22_22  and  O2_24 
REMARK    7  A    between atoms: C27_29  and  C28_30 
REMARK    8  A    between atoms: C28_30  and  C29_31 
REMARK    9  A    between atoms: C29_31  and  C30_32 
REMARK   10  A    between atoms: C30_32  and  O4_34 
ROOT
HETATM    1  C1  UNL     1     -10.282   7.573  15.215  1.00  0.00     0.043 C 
HETATM    2  C2  UNL     1      -9.334   6.666  14.453  1.00  0.00    -0.085 C 
HETATM    3  C3  UNL     1      -9.931   6.262  13.129  1.00  0.00     0.043 C 
HETATM    4  C4  UNL     1      -8.099   6.336  14.925  1.00  0.00    -0.073 C 
HETATM    5  C5  UNL     1      -7.544   7.102  16.119  1.00  0.00     0.035 C 
HETATM    6  C6  UNL     1      -6.020   7.052  16.236  1.00  0.00     0.010 C 
HETATM    7  C7  UNL     1      -5.276   7.164  14.877  1.00  0.00     0.003 C 
HETATM    8  C8  UNL     1      -5.857   6.177  13.743  1.00  0.00    -0.032 C 
HETATM    9  C9  UNL     1      -6.415   6.982  12.537  1.00  0.00     0.016 C 
HETATM   10  C10 UNL     1      -4.749   5.247  13.155  1.00  0.00     0.011 C 
HETATM   11  C11 UNL     1      -3.364   5.864  12.865  1.00  0.00     0.011 C 
HETATM   12  C12 UNL     1      -2.988   7.103  13.698  1.00  0.00    -0.032 C 
HETATM   13  C13 UNL     1      -3.311   8.401  12.886  1.00  0.00     0.016 C 
HETATM   14  C14 UNL     1      -1.484   7.205  14.140  1.00  0.00    -0.002 C 
HETATM   15  C23 UNL     1      -1.572   8.134  15.392  1.00  0.00     0.006 C 
HETATM   16  C24 UNL     1      -3.053   8.204  15.817  1.00  0.00     0.011 C 
HETATM   17  C25 UNL     1      -3.725   7.030  15.079  1.00  0.00    -0.032 C 
HETATM   18  C26 UNL     1      -3.397   5.755  15.930  1.00  0.00     0.016 C 
HETATM   19  C27 UNL     1      -7.055   5.341  14.369  1.00  0.00     0.024 C 
ENDROOT
BRANCH  14  20
HETATM   20  C15 UNL     1      -0.408   7.677  13.112  1.00  0.00    -0.014 C 
HETATM   21  C16 UNL     1      -0.625   9.144  12.720  1.00  0.00     0.010 C 
BRANCH  20  22
HETATM   22  C17 UNL     1      -0.431   6.788  11.836  1.00  0.00     0.008 C 
BRANCH  22  23
HETATM   23  C18 UNL     1       0.288   5.437  11.995  1.00  0.00     0.028 C 
BRANCH  23  24
HETATM   24  C19 UNL     1       1.364   5.183  10.980  1.00  0.00    -0.013 C 
HETATM   25  C20 UNL     1       2.564   5.790  10.877  1.00  0.00     0.008 C 
HETATM   26  C21 UNL     1       3.068   6.903  11.745  1.00  0.00     0.055 C 
BRANCH  25  27
HETATM   27  C22 UNL     1       3.450   5.319   9.780  1.00  0.00     0.171 C 
HETATM   28  O1  UNL     1       3.110   4.991   8.657  1.00  0.00    -0.646 OA
BRANCH  27  29
HETATM   29  O2  UNL     1       4.741   5.272  10.150  1.00  0.00    -0.773 OA
HETATM   30  H35 UNL     1       5.194   4.941   9.346  1.00  0.00     0.167 HD
ENDBRANCH  27  29
ENDBRANCH  25  27
ENDBRANCH  23  24
ENDBRANCH  22  23
ENDBRANCH  20  22
ENDBRANCH  14  20
BRANCH  19  31
HETATM   31  C28 UNL     1      -7.568   4.121  13.553  1.00  0.00     0.020 C 
BRANCH  31  32
HETATM   32  C29 UNL     1      -6.459   3.405  12.772  1.00  0.00     0.110 C 
BRANCH  32  33
HETATM   33  C30 UNL     1      -6.835   2.058  12.229  1.00  0.00     0.139 C 
HETATM   34  O3  UNL     1      -6.147   1.352  11.510  1.00  0.00    -0.650 OA
BRANCH  33  35
HETATM   35  O4  UNL     1      -8.073   1.674  12.592  1.00  0.00    -0.776 OA
HETATM   36  H48 UNL     1      -8.161   0.784  12.192  1.00  0.00     0.167 HD
ENDBRANCH  33  35
ENDBRANCH  32  33
ENDBRANCH  31  32
ENDBRANCH  19  31
TORSDOF 10
ENDMDL
MODEL 4
REMARK minimizedAffinity -8.42779827
REMARK  10 active torsions:
REMARK  status: ('A' for Active; 'I' for Inactive)
REMARK    1  A    between atoms: C14_14  and  C15_15 
REMARK    2  A    between atoms: C15_15  and  C17_17 
REMARK    3  A    between atoms: C17_17  and  C18_18 
REMARK    4  A    between atoms: C18_18  and  C19_19 
REMARK    5  A    between atoms: C20_20  and  C22_22 
REMARK    6  A    between atoms: C22_22  and  O2_24 
REMARK    7  A    between atoms: C27_29  and  C28_30 
REMARK    8  A    between atoms: C28_30  and  C29_31 
REMARK    9  A    between atoms: C29_31  and  C30_32 
REMARK   10  A    between atoms: C30_32  and  O4_34 
ROOT
HETATM    1  C1  UNL     1       3.014   5.881   9.028  1.00  0.00     0.043 C 
HETATM    2  C2  UNL     1       2.780   6.745  10.253  1.00  0.00    -0.085 C 
HETATM    3  C3  UNL     1       3.425   8.097  10.082  1.00  0.00     0.043 C 
HETATM    4  C4  UNL     1       2.035   6.326  11.313  1.00  0.00    -0.073 C 
HETATM    5  C5  UNL     1       1.194   5.064  11.163  1.00  0.00     0.035 C 
HETATM    6  C6  UNL     1       0.030   4.971  12.150  1.00  0.00     0.010 C 
HETATM    7  C7  UNL     1      -0.701   6.320  12.397  1.00  0.00     0.003 C 
HETATM    8  C8  UNL     1       0.298   7.544  12.710  1.00  0.00    -0.032 C 
HETATM    9  C9  UNL     1       0.179   8.651  11.627  1.00  0.00     0.016 C 
HETATM   10  C10 UNL     1      -0.038   8.240  14.066  1.00  0.00     0.011 C 
HETATM   11  C11 UNL     1      -1.525   8.480  14.409  1.00  0.00     0.011 C 
HETATM   12  C12 UNL     1      -2.534   7.526  13.745  1.00  0.00    -0.032 C 
HETATM   13  C13 UNL     1      -3.119   8.192  12.456  1.00  0.00     0.016 C 
HETATM   14  C14 UNL     1      -3.757   7.093  14.629  1.00  0.00    -0.002 C 
HETATM   15  C23 UNL     1      -4.187   5.748  13.961  1.00  0.00     0.006 C 
HETATM   16  C24 UNL     1      -3.038   5.301  13.035  1.00  0.00     0.011 C 
HETATM   17  C25 UNL     1      -1.830   6.151  13.474  1.00  0.00    -0.032 C 
HETATM   18  C26 UNL     1      -1.260   5.444  14.752  1.00  0.00     0.016 C 
HETATM   19  C27 UNL     1       1.790   6.996  12.685  1.00  0.00     0.024 C 
ENDROOT
BRANCH  14  20
HETATM   20  C15 UNL     1      -4.952   8.078  14.829  1.00  0.00    -0.014 C 
HETATM   21  C16 UNL     1      -4.494   9.366  15.526  1.00  0.00     0.010 C 
BRANCH  20  22
HETATM   22  C17 UNL     1      -6.087   7.413  15.660  1.00  0.00     0.008 C 
BRANCH  22  23
HETATM   23  C18 UNL     1      -7.324   7.020  14.834  1.00  0.00     0.028 C 
BRANCH  23  24
HETATM   24  C19 UNL     1      -7.279   5.628  14.272  1.00  0.00    -0.013 C 
HETATM   25  C20 UNL     1      -7.820   5.184  13.119  1.00  0.00     0.008 C 
HETATM   26  C21 UNL     1      -8.638   5.992  12.159  1.00  0.00     0.055 C 
BRANCH  25  27
HETATM   27  C22 UNL     1      -7.598   3.749  12.797  1.00  0.00     0.171 C 
HETATM   28  O1  UNL     1      -6.556   3.237  12.428  1.00  0.00    -0.646 OA
BRANCH  27  29
HETATM   29  O2  UNL     1      -8.712   3.013  12.946  1.00  0.00    -0.773 OA
HETATM   30  H35 UNL     1      -8.422   2.112  12.694  1.00  0.00     0.167 HD
ENDBRANCH  27  29
ENDBRANCH  25  27
ENDBRANCH  23  24
ENDBRANCH  22  23
ENDBRANCH  20  22
ENDBRANCH  14  20
BRANCH  19  31
HETATM   31  C28 UNL     1       2.896   7.930  13.251  1.00  0.00     0.020 C 
BRANCH  31  32
HETATM   32  C29 UNL     1       3.177   7.702  14.742  1.00  0.00     0.110 C 
BRANCH  32  33
HETATM   33  C30 UNL     1       4.592   7.966  15.167  1.00  0.00     0.139 C 
HETATM   34  O3  UNL     1       5.009   8.986  15.690  1.00  0.00    -0.650 OA
BRANCH  33  35
HETATM   35  O4  UNL     1       5.423   6.946  14.886  1.00  0.00    -0.776 OA
HETATM   36  H48 UNL     1       6.284   7.250  15.239  1.00  0.00     0.167 HD
ENDBRANCH  33  35
ENDBRANCH  32  33
ENDBRANCH  31  32
ENDBRANCH  19  31
TORSDOF 10
ENDMDL
MODEL 5
REMARK minimizedAffinity -8.394207
REMARK  10 active torsions:
REMARK  status: ('A' for Active; 'I' for Inactive)
REMARK    1  A    between atoms: C14_14  and  C15_15 
REMARK    2  A    between atoms: C15_15  and  C17_17 
REMARK    3  A    between atoms: C17_17  and  C18_18 
REMARK    4  A    between atoms: C18_18  and  C19_19 
REMARK    5  A    between atoms: C20_20  and  C22_22 
REMARK    6  A    between atoms: C22_22  and  O2_24 
REMARK    7  A    between atoms: C27_29  and  C28_30 
REMARK    8  A    between atoms: C28_30  and  C29_31 
REMARK    9  A    between atoms: C29_31  and  C30_32 
REMARK   10  A    between atoms: C30_32  and  O4_34 
ROOT
HETATM    1  C1  UNL     1       2.155   7.044   8.984  1.00  0.00     0.043 C 
HETATM    2  C2  UNL     1       1.554   6.357  10.196  1.00  0.00    -0.085 C 
HETATM    3  C3  UNL     1       2.405   5.188  10.622  1.00  0.00     0.043 C 
HETATM    4  C4  UNL     1       0.425   6.809  10.809  1.00  0.00    -0.073 C 
HETATM    5  C5  UNL     1      -0.106   8.189  10.439  1.00  0.00     0.035 C 
HETATM    6  C6  UNL     1      -1.006   8.815  11.504  1.00  0.00     0.010 C 
HETATM    7  C7  UNL     1      -0.522   8.578  12.961  1.00  0.00     0.003 C 
HETATM    8  C8  UNL     1      -0.149   7.042  13.273  1.00  0.00    -0.032 C 
HETATM    9  C9  UNL     1       1.351   6.900  13.653  1.00  0.00     0.016 C 
HETATM   10  C10 UNL     1      -0.950   6.481  14.489  1.00  0.00     0.011 C 
HETATM   11  C11 UNL     1      -1.128   7.394  15.722  1.00  0.00     0.011 C 
HETATM   12  C12 UNL     1      -1.062   8.909  15.457  1.00  0.00    -0.032 C 
HETATM   13  C13 UNL     1       0.381   9.433  15.755  1.00  0.00     0.016 C 
HETATM   14  C14 UNL     1      -2.051   9.798  16.293  1.00  0.00    -0.002 C 
HETATM   15  C23 UNL     1      -2.180  11.073  15.401  1.00  0.00     0.006 C 
HETATM   16  C24 UNL     1      -1.612  10.728  14.010  1.00  0.00     0.011 C 
HETATM   17  C25 UNL     1      -1.538   9.189  13.990  1.00  0.00    -0.032 C 
HETATM   18  C26 UNL     1      -2.994   8.703  13.670  1.00  0.00     0.016 C 
HETATM   19  C27 UNL     1      -0.401   6.186  11.957  1.00  0.00     0.024 C 
ENDROOT
BRANCH  14  20
HETATM   20  C15 UNL     1      -1.719  10.132  17.781  1.00  0.00    -0.014 C 
HETATM   21  C16 UNL     1      -3.001  10.331  18.601  1.00  0.00     0.010 C 
BRANCH  20  22
HETATM   22  C17 UNL     1      -0.834  11.407  17.881  1.00  0.00     0.008 C 
BRANCH  22  23
HETATM   23  C18 UNL     1      -0.513  11.840  19.321  1.00  0.00     0.028 C 
BRANCH  23  24
HETATM   24  C19 UNL     1       0.473  10.957  20.031  1.00  0.00    -0.013 C 
HETATM   25  C20 UNL     1       1.524  11.332  20.788  1.00  0.00     0.008 C 
HETATM   26  C21 UNL     1       1.967  12.739  21.049  1.00  0.00     0.055 C 
BRANCH  25  27
HETATM   27  C22 UNL     1       2.325  10.235  21.394  1.00  0.00     0.171 C 
HETATM   28  O1  UNL     1       2.328   9.063  21.059  1.00  0.00    -0.646 OA
BRANCH  27  29
HETATM   29  O2  UNL     1       3.089  10.663  22.412  1.00  0.00    -0.773 OA
HETATM   30  H35 UNL     1       3.543   9.848  22.712  1.00  0.00     0.167 HD
ENDBRANCH  27  29
ENDBRANCH  25  27
ENDBRANCH  23  24
ENDBRANCH  22  23
ENDBRANCH  20  22
ENDBRANCH  14  20
BRANCH  19  31
HETATM   31  C28 UNL     1      -0.394   4.639  12.108  1.00  0.00     0.020 C 
BRANCH  31  32
HETATM   32  C29 UNL     1      -1.392   3.935  11.180  1.00  0.00     0.110 C 
BRANCH  32  33
HETATM   33  C30 UNL     1      -1.223   2.447  11.081  1.00  0.00     0.139 C 
HETATM   34  O3  UNL     1      -0.169   1.836  11.135  1.00  0.00    -0.650 OA
BRANCH  33  35
HETATM   35  O4  UNL     1      -2.387   1.800  10.886  1.00  0.00    -0.776 OA
HETATM   36  H48 UNL     1      -2.122   0.856  10.868  1.00  0.00     0.167 HD
ENDBRANCH  33  35
ENDBRANCH  32  33
ENDBRANCH  31  32
ENDBRANCH  19  31
TORSDOF 10
ENDMDL
MODEL 6
REMARK minimizedAffinity -8.15743256
REMARK  10 active torsions:
REMARK  status: ('A' for Active; 'I' for Inactive)
REMARK    1  A    between atoms: C14_14  and  C15_15 
REMARK    2  A    between atoms: C15_15  and  C17_17 
REMARK    3  A    between atoms: C17_17  and  C18_18 
REMARK    4  A    between atoms: C18_18  and  C19_19 
REMARK    5  A    between atoms: C20_20  and  C22_22 
REMARK    6  A    between atoms: C22_22  and  O2_24 
REMARK    7  A    between atoms: C27_29  and  C28_30 
REMARK    8  A    between atoms: C28_30  and  C29_31 
REMARK    9  A    between atoms: C29_31  and  C30_32 
REMARK   10  A    between atoms: C30_32  and  O4_34 
ROOT
HETATM    1  C1  UNL     1       2.991   5.737   8.438  1.00  0.00     0.043 C 
HETATM    2  C2  UNL     1       2.808   6.754   9.549  1.00  0.00    -0.085 C 
HETATM    3  C3  UNL     1       3.254   8.122   9.098  1.00  0.00     0.043 C 
HETATM    4  C4  UNL     1       2.262   6.431  10.754  1.00  0.00    -0.073 C 
HETATM    5  C5  UNL     1       1.571   5.081  10.906  1.00  0.00     0.035 C 
HETATM    6  C6  UNL     1       0.563   5.025  12.053  1.00  0.00     0.010 C 
HETATM    7  C7  UNL     1      -0.293   6.312  12.210  1.00  0.00     0.003 C 
HETATM    8  C8  UNL     1       0.578   7.667  12.200  1.00  0.00    -0.032 C 
HETATM    9  C9  UNL     1       0.186   8.572  10.999  1.00  0.00     0.016 C 
HETATM   10  C10 UNL     1       0.333   8.529  13.478  1.00  0.00     0.011 C 
HETATM   11  C11 UNL     1      -1.117   8.664  13.994  1.00  0.00     0.011 C 
HETATM   12  C12 UNL     1      -2.075   7.518  13.623  1.00  0.00    -0.032 C 
HETATM   13  C13 UNL     1      -2.897   7.909  12.351  1.00  0.00     0.016 C 
HETATM   14  C14 UNL     1      -3.114   7.105  14.727  1.00  0.00    -0.002 C 
HETATM   15  C23 UNL     1      -3.454   5.635  14.325  1.00  0.00     0.006 C 
HETATM   16  C24 UNL     1      -2.386   5.170  13.315  1.00  0.00     0.011 C 
HETATM   17  C25 UNL     1      -1.247   6.199  13.451  1.00  0.00    -0.032 C 
HETATM   18  C26 UNL     1      -0.437   5.763  14.721  1.00  0.00     0.016 C 
HETATM   19  C27 UNL     1       2.111   7.279  12.038  1.00  0.00     0.024 C 
ENDROOT
BRANCH  14  20
HETATM   20  C15 UNL     1      -4.386   7.980  14.956  1.00  0.00    -0.014 C 
HETATM   21  C16 UNL     1      -4.087   9.155  15.896  1.00  0.00     0.010 C 
BRANCH  20  22
HETATM   22  C17 UNL     1      -5.549   7.128  15.542  1.00  0.00     0.008 C 
BRANCH  22  23
HETATM   23  C18 UNL     1      -6.721   6.910  14.570  1.00  0.00     0.028 C 
BRANCH  23  24
HETATM   24  C19 UNL     1      -6.877   5.495  14.093  1.00  0.00    -0.013 C 
HETATM   25  C20 UNL     1      -7.717   5.029  13.146  1.00  0.00     0.008 C 
HETATM   26  C21 UNL     1      -8.728   5.834  12.389  1.00  0.00     0.055 C 
BRANCH  25  27
HETATM   27  C22 UNL     1      -7.640   3.573  12.855  1.00  0.00     0.171 C 
HETATM   28  O1  UNL     1      -8.569   2.785  12.818  1.00  0.00    -0.646 OA
BRANCH  27  29
HETATM   29  O2  UNL     1      -6.381   3.163  12.628  1.00  0.00    -0.773 OA
HETATM   30  H35 UNL     1      -6.482   2.202  12.464  1.00  0.00     0.167 HD
ENDBRANCH  27  29
ENDBRANCH  25  27
ENDBRANCH  23  24
ENDBRANCH  22  23
ENDBRANCH  20  22
ENDBRANCH  14  20
BRANCH  19  31
HETATM   31  C28 UNL     1       3.156   8.400  12.301  1.00  0.00     0.020 C 
BRANCH  31  32
HETATM   32  C29 UNL     1       4.245   7.990  13.300  1.00  0.00     0.110 C 
BRANCH  32  33
HETATM   33  C30 UNL     1       5.535   7.540  12.680  1.00  0.00     0.139 C 
HETATM   34  O3  UNL     1       6.568   8.187  12.613  1.00  0.00    -0.650 OA
BRANCH  33  35
HETATM   35  O4  UNL     1       5.458   6.308  12.145  1.00  0.00    -0.776 OA
HETATM   36  H48 UNL     1       6.365   6.148  11.810  1.00  0.00     0.167 HD
ENDBRANCH  33  35
ENDBRANCH  32  33
ENDBRANCH  31  32
ENDBRANCH  19  31
TORSDOF 10
ENDMDL
MODEL 7
REMARK minimizedAffinity -8.01810741
REMARK  10 active torsions:
REMARK  status: ('A' for Active; 'I' for Inactive)
REMARK    1  A    between atoms: C14_14  and  C15_15 
REMARK    2  A    between atoms: C15_15  and  C17_17 
REMARK    3  A    between atoms: C17_17  and  C18_18 
REMARK    4  A    between atoms: C18_18  and  C19_19 
REMARK    5  A    between atoms: C20_20  and  C22_22 
REMARK    6  A    between atoms: C22_22  and  O2_24 
REMARK    7  A    between atoms: C27_29  and  C28_30 
REMARK    8  A    between atoms: C28_30  and  C29_31 
REMARK    9  A    between atoms: C29_31  and  C30_32 
REMARK   10  A    between atoms: C30_32  and  O4_34 
ROOT
HETATM    1  C1  UNL     1       5.739   8.761  10.273  1.00  0.00     0.043 C 
HETATM    2  C2  UNL     1       5.076   8.885  11.632  1.00  0.00    -0.085 C 
HETATM    3  C3  UNL     1       5.457  10.185  12.294  1.00  0.00     0.043 C 
HETATM    4  C4  UNL     1       4.219   7.944  12.118  1.00  0.00    -0.073 C 
HETATM    5  C5  UNL     1       3.702   6.868  11.171  1.00  0.00     0.035 C 
HETATM    6  C6  UNL     1       2.395   6.218  11.624  1.00  0.00     0.010 C 
HETATM    7  C7  UNL     1       1.372   7.212  12.240  1.00  0.00     0.003 C 
HETATM    8  C8  UNL     1       2.012   8.186  13.352  1.00  0.00    -0.032 C 
HETATM    9  C9  UNL     1       1.910   9.673  12.914  1.00  0.00     0.016 C 
HETATM   10  C10 UNL     1       1.258   8.092  14.715  1.00  0.00     0.011 C 
HETATM   11  C11 UNL     1      -0.285   8.026  14.686  1.00  0.00     0.011 C 
HETATM   12  C12 UNL     1      -0.913   7.459  13.401  1.00  0.00    -0.032 C 
HETATM   13  C13 UNL     1      -1.327   8.634  12.454  1.00  0.00     0.016 C 
HETATM   14  C14 UNL     1      -2.187   6.561  13.595  1.00  0.00    -0.002 C 
HETATM   15  C23 UNL     1      -2.182   5.698  12.293  1.00  0.00     0.006 C 
HETATM   16  C24 UNL     1      -0.795   5.850  11.638  1.00  0.00     0.011 C 
HETATM   17  C25 UNL     1       0.094   6.453  12.744  1.00  0.00    -0.032 C 
HETATM   18  C26 UNL     1       0.503   5.247  13.658  1.00  0.00     0.016 C 
HETATM   19  C27 UNL     1       3.553   7.828  13.508  1.00  0.00     0.024 C 
ENDROOT
BRANCH  14  20
HETATM   20  C15 UNL     1      -3.569   7.231  13.871  1.00  0.00    -0.014 C 
HETATM   21  C16 UNL     1      -3.902   7.211  15.369  1.00  0.00     0.010 C 
BRANCH  20  22
HETATM   22  C17 UNL     1      -4.701   6.518  13.077  1.00  0.00     0.008 C 
BRANCH  22  23
HETATM   23  C18 UNL     1      -5.618   5.636  13.942  1.00  0.00     0.028 C 
BRANCH  23  24
HETATM   24  C19 UNL     1      -5.896   4.277  13.367  1.00  0.00    -0.013 C 
HETATM   25  C20 UNL     1      -7.038   3.835  12.803  1.00  0.00     0.008 C 
HETATM   26  C21 UNL     1      -8.314   4.608  12.669  1.00  0.00     0.055 C 
BRANCH  25  27
HETATM   27  C22 UNL     1      -7.023   2.438  12.292  1.00  0.00     0.171 C 
HETATM   28  O1  UNL     1      -6.150   1.915  11.622  1.00  0.00    -0.646 OA
BRANCH  27  29
HETATM   29  O2  UNL     1      -8.124   1.754  12.643  1.00  0.00    -0.773 OA
HETATM   30  H35 UNL     1      -7.983   0.873  12.237  1.00  0.00     0.167 HD
ENDBRANCH  27  29
ENDBRANCH  25  27
ENDBRANCH  23  24
ENDBRANCH  22  23
ENDBRANCH  20  22
ENDBRANCH  14  20
BRANCH  19  31
HETATM   31  C28 UNL     1       4.300   8.433  14.730  1.00  0.00     0.020 C 
BRANCH  31  32
HETATM   32  C29 UNL     1       5.580   7.670  15.096  1.00  0.00     0.110 C 
BRANCH  32  33
HETATM   33  C30 UNL     1       6.686   8.520  15.649  1.00  0.00     0.139 C 
HETATM   34  O3  UNL     1       7.047   9.603  15.219  1.00  0.00    -0.650 OA
BRANCH  33  35
HETATM   35  O4  UNL     1       7.308   7.952  16.698  1.00  0.00    -0.776 OA
HETATM   36  H48 UNL     1       7.973   8.623  16.959  1.00  0.00     0.167 HD
ENDBRANCH  33  35
ENDBRANCH  32  33
ENDBRANCH  31  32
ENDBRANCH  19  31
TORSDOF 10
ENDMDL
MODEL 8
REMARK minimizedAffinity -7.96334171
REMARK  10 active torsions:
REMARK  status: ('A' for Active; 'I' for Inactive)
REMARK    1  A    between atoms: C14_14  and  C15_15 
REMARK    2  A    between atoms: C15_15  and  C17_17 
REMARK    3  A    between atoms: C17_17  and  C18_18 
REMARK    4  A    between atoms: C18_18  and  C19_19 
REMARK    5  A    between atoms: C20_20  and  C22_22 
REMARK    6  A    between atoms: C22_22  and  O2_24 
REMARK    7  A    between atoms: C27_29  and  C28_30 
REMARK    8  A    between atoms: C28_30  and  C29_31 
REMARK    9  A    between atoms: C29_31  and  C30_32 
REMARK   10  A    between atoms: C30_32  and  O4_34 
ROOT
HETATM    1  C1  UNL     1       2.102   8.311  12.992  1.00  0.00     0.043 C 
HETATM    2  C2  UNL     1       1.065   7.252  12.668  1.00  0.00    -0.085 C 
HETATM    3  C3  UNL     1       1.686   5.879  12.675  1.00  0.00     0.043 C 
HETATM    4  C4  UNL     1      -0.247   7.552  12.459  1.00  0.00    -0.073 C 
HETATM    5  C5  UNL     1      -0.745   8.946  12.818  1.00  0.00     0.035 C 
HETATM    6  C6  UNL     1      -2.253   9.026  13.058  1.00  0.00     0.010 C 
HETATM    7  C7  UNL     1      -2.836   7.813  13.833  1.00  0.00     0.003 C 
HETATM    8  C8  UNL     1      -2.363   6.388  13.248  1.00  0.00    -0.032 C 
HETATM    9  C9  UNL     1      -1.552   5.593  14.308  1.00  0.00     0.016 C 
HETATM   10  C10 UNL     1      -3.575   5.479  12.872  1.00  0.00     0.011 C 
HETATM   11  C11 UNL     1      -4.781   5.444  13.837  1.00  0.00     0.011 C 
HETATM   12  C12 UNL     1      -4.978   6.690  14.719  1.00  0.00    -0.032 C 
HETATM   13  C13 UNL     1      -4.334   6.448  16.124  1.00  0.00     0.016 C 
HETATM   14  C14 UNL     1      -6.465   7.129  14.969  1.00  0.00    -0.002 C 
HETATM   15  C23 UNL     1      -6.307   8.644  15.312  1.00  0.00     0.006 C 
HETATM   16  C24 UNL     1      -4.886   9.071  14.894  1.00  0.00     0.011 C 
HETATM   17  C25 UNL     1      -4.395   7.938  13.972  1.00  0.00    -0.032 C 
HETATM   18  C26 UNL     1      -5.042   8.225  12.573  1.00  0.00     0.016 C 
HETATM   19  C27 UNL     1      -1.414   6.647  12.000  1.00  0.00     0.024 C 
ENDROOT
BRANCH  14  20
HETATM   20  C15 UNL     1      -7.332   6.359  16.014  1.00  0.00    -0.014 C 
HETATM   21  C16 UNL     1      -7.450   4.874  15.646  1.00  0.00     0.010 C 
BRANCH  20  22
HETATM   22  C17 UNL     1      -8.753   6.982  16.125  1.00  0.00     0.008 C 
BRANCH  22  23
HETATM   23  C18 UNL     1      -9.350   7.432  14.781  1.00  0.00     0.028 C 
BRANCH  23  24
HETATM   24  C19 UNL     1     -10.732   6.910  14.510  1.00  0.00    -0.013 C 
HETATM   25  C20 UNL     1     -11.696   7.475  13.755  1.00  0.00     0.008 C 
HETATM   26  C21 UNL     1     -11.606   8.795  13.051  1.00  0.00     0.055 C 
BRANCH  25  27
HETATM   27  C22 UNL     1     -12.971   6.720  13.640  1.00  0.00     0.171 C 
HETATM   28  O1  UNL     1     -13.924   6.998  12.933  1.00  0.00    -0.646 OA
BRANCH  27  29
HETATM   29  O2  UNL     1     -12.997   5.637  14.435  1.00  0.00    -0.773 OA
HETATM   30  H35 UNL     1     -13.882   5.252  14.264  1.00  0.00     0.167 HD
ENDBRANCH  27  29
ENDBRANCH  25  27
ENDBRANCH  23  24
ENDBRANCH  22  23
ENDBRANCH  20  22
ENDBRANCH  14  20
BRANCH  19  31
HETATM   31  C28 UNL     1      -1.081   5.424  11.099  1.00  0.00     0.020 C 
BRANCH  31  32
HETATM   32  C29 UNL     1      -1.655   4.105  11.632  1.00  0.00     0.110 C 
BRANCH  32  33
HETATM   33  C30 UNL     1      -1.078   2.867  11.010  1.00  0.00     0.139 C 
HETATM   34  O3  UNL     1      -0.053   2.300  11.350  1.00  0.00    -0.650 OA
BRANCH  33  35
HETATM   35  O4  UNL     1      -1.802   2.417   9.969  1.00  0.00    -0.776 OA
HETATM   36  H48 UNL     1      -1.325   1.608   9.693  1.00  0.00     0.167 HD
ENDBRANCH  33  35
ENDBRANCH  32  33
ENDBRANCH  31  32
ENDBRANCH  19  31
TORSDOF 10
ENDMDL
MODEL 9
REMARK minimizedAffinity -7.88232851
REMARK  10 active torsions:
REMARK  status: ('A' for Active; 'I' for Inactive)
REMARK    1  A    between atoms: C14_14  and  C15_15 
REMARK    2  A    between atoms: C15_15  and  C17_17 
REMARK    3  A    between atoms: C17_17  and  C18_18 
REMARK    4  A    between atoms: C18_18  and  C19_19 
REMARK    5  A    between atoms: C20_20  and  C22_22 
REMARK    6  A    between atoms: C22_22  and  O2_24 
REMARK    7  A    between atoms: C27_29  and  C28_30 
REMARK    8  A    between atoms: C28_30  and  C29_31 
REMARK    9  A    between atoms: C29_31  and  C30_32 
REMARK   10  A    between atoms: C30_32  and  O4_34 
ROOT
HETATM    1  C1  UNL     1       3.171   5.478   8.788  1.00  0.00     0.043 C 
HETATM    2  C2  UNL     1       3.071   6.443   9.955  1.00  0.00    -0.085 C 
HETATM    3  C3  UNL     1       3.843   7.706   9.670  1.00  0.00     0.043 C 
HETATM    4  C4  UNL     1       2.326   6.175  11.063  1.00  0.00    -0.073 C 
HETATM    5  C5  UNL     1       1.356   5.001  11.027  1.00  0.00     0.035 C 
HETATM    6  C6  UNL     1       0.226   5.096  12.052  1.00  0.00     0.010 C 
HETATM    7  C7  UNL     1      -0.354   6.527  12.224  1.00  0.00     0.003 C 
HETATM    8  C8  UNL     1       0.774   7.659  12.420  1.00  0.00    -0.032 C 
HETATM    9  C9  UNL     1       0.728   8.697  11.265  1.00  0.00     0.016 C 
HETATM   10  C10 UNL     1       0.560   8.476  13.733  1.00  0.00     0.011 C 
HETATM   11  C11 UNL     1      -0.881   8.891  14.101  1.00  0.00     0.011 C 
HETATM   12  C12 UNL     1      -2.005   8.004  13.536  1.00  0.00    -0.032 C 
HETATM   13  C13 UNL     1      -2.566   8.639  12.221  1.00  0.00     0.016 C 
HETATM   14  C14 UNL     1      -3.233   7.762  14.485  1.00  0.00    -0.002 C 
HETATM   15  C23 UNL     1      -3.821   6.427  13.927  1.00  0.00     0.006 C 
HETATM   16  C24 UNL     1      -2.759   5.802  13.001  1.00  0.00     0.011 C 
HETATM   17  C25 UNL     1      -1.455   6.549  13.343  1.00  0.00    -0.032 C 
HETATM   18  C26 UNL     1      -0.914   5.874  14.650  1.00  0.00     0.016 C 
HETATM   19  C27 UNL     1       2.201   6.958  12.390  1.00  0.00     0.024 C 
ENDROOT
BRANCH  14  20
HETATM   20  C15 UNL     1      -4.313   8.877  14.649  1.00  0.00    -0.014 C 
HETATM   21  C16 UNL     1      -4.333   9.419  16.085  1.00  0.00     0.010 C 
BRANCH  20  22
HETATM   22  C17 UNL     1      -5.726   8.341  14.276  1.00  0.00     0.008 C 
BRANCH  22  23
HETATM   23  C18 UNL     1      -6.614   8.010  15.487  1.00  0.00     0.028 C 
BRANCH  23  24
HETATM   24  C19 UNL     1      -8.075   7.874  15.168  1.00  0.00    -0.013 C 
HETATM   25  C20 UNL     1      -8.678   6.903  14.452  1.00  0.00     0.008 C 
HETATM   26  C21 UNL     1      -7.997   5.756  13.771  1.00  0.00     0.055 C 
BRANCH  25  27
HETATM   27  C22 UNL     1     -10.155   7.007  14.313  1.00  0.00     0.171 C 
HETATM   28  O1  UNL     1     -10.811   6.790  13.309  1.00  0.00    -0.646 OA
BRANCH  27  29
HETATM   29  O2  UNL     1     -10.750   7.393  15.453  1.00  0.00    -0.773 OA
HETATM   30  H35 UNL     1     -11.699   7.427  15.213  1.00  0.00     0.167 HD
ENDBRANCH  27  29
ENDBRANCH  25  27
ENDBRANCH  23  24
ENDBRANCH  22  23
ENDBRANCH  20  22
ENDBRANCH  14  20
BRANCH  19  31
HETATM   31  C28 UNL     1       3.416   7.809  12.856  1.00  0.00     0.020 C 
BRANCH  31  32
HETATM   32  C29 UNL     1       3.094   8.729  14.040  1.00  0.00     0.110 C 
BRANCH  32  33
HETATM   33  C30 UNL     1       3.717   8.324  15.344  1.00  0.00     0.139 C 
HETATM   34  O3  UNL     1       3.711   7.206  15.830  1.00  0.00    -0.650 OA
BRANCH  33  35
HETATM   35  O4  UNL     1       4.292   9.354  15.992  1.00  0.00    -0.776 OA
HETATM   36  H48 UNL     1       4.669   8.936  16.794  1.00  0.00     0.167 HD
ENDBRANCH  33  35
ENDBRANCH  32  33
ENDBRANCH  31  32
ENDBRANCH  19  31
TORSDOF 10
ENDMDL
