MODEL 1
REMARK minimizedAffinity -8.21385956
REMARK CNNscore 0.371483058
REMARK CNNaffinity 7.33958626
REMARK  11 active torsions:
REMARK  status: ('A' for Active; 'I' for Inactive)
REMARK    1  A    between atoms: C19_20  and  O2_21 
REMARK    2  A    between atoms: C19_20  and  C20_22 
REMARK    3  A    between atoms: C20_22  and  C21_24 
REMARK    4  A    between atoms: C21_24  and  O4_25 
REMARK    5  A    between atoms: O4_25  and  C22_26 
REMARK    6  A    between atoms: C22_26  and  C23_28 
REMARK    7  A    between atoms: C23_28  and  C24_29 
REMARK    8  A    between atoms: C24_29  and  C25_30 
REMARK       I    between atoms: C25_30  and  N1_32 
REMARK    9  A    between atoms: N1_32  and  C26_33 
REMARK   10  A    between atoms: C26_33  and  C27_34 
REMARK   11  A    between atoms: C27_34  and  C28_35 
ROOT
HETATM    1  C20 UNL     1      -0.777   7.130  13.081  1.00  0.00     0.185 C 
HETATM    2  O3  UNL     1      -0.338   7.631  12.043  1.00  0.00    -0.292 OA
ENDROOT
BRANCH   1   3
HETATM    3  C19 UNL     1      -1.729   7.865  14.046  1.00  0.00     0.128 C 
HETATM    4  C14 UNL     1      -1.230   9.152  14.793  1.00  0.00    -0.002 C 
HETATM    5  C13 UNL     1      -1.263  10.481  14.007  1.00  0.00     0.013 C 
HETATM    6  C15 UNL     1       0.198   8.976  15.376  1.00  0.00     0.019 C 
HETATM    7  C16 UNL     1      -2.298   9.200  15.917  1.00  0.00     0.002 C 
HETATM    8  C12 UNL     1      -2.141  11.572  14.649  1.00  0.00     0.007 C 
HETATM    9  C11 UNL     1      -1.933  11.720  16.184  1.00  0.00     0.002 C 
HETATM   10  C2  UNL     1      -2.630  13.003  16.850  1.00  0.00    -0.016 C 
HETATM   11  C10 UNL     1      -2.099  10.342  16.925  1.00  0.00    -0.004 C 
HETATM   12  C1  UNL     1      -1.492  13.931  17.358  1.00  0.00     0.020 C 
HETATM   13  C3  UNL     1      -3.487  13.802  15.826  1.00  0.00     0.022 C 
HETATM   14  C7  UNL     1      -3.518  12.687  18.057  1.00  0.00    -0.068 C 
HETATM   15  C4  UNL     1      -4.252  14.982  16.413  1.00  0.00     0.084 C 
HETATM   16  C5  UNL     1      -5.053  14.572  17.618  1.00  0.00     0.149 C 
HETATM   17  O1  UNL     1      -6.029  15.211  18.001  1.00  0.00    -0.293 OA
HETATM   18  C6  UNL     1      -4.618  13.387  18.389  1.00  0.00     0.053 C 
HETATM   19  C8  UNL     1      -3.134  11.501  18.892  1.00  0.00     0.035 C 
HETATM   20  C9  UNL     1      -3.193  10.285  17.996  1.00  0.00     0.010 C 
HETATM   21  C17 UNL     1      -2.330   7.770  16.452  1.00  0.00     0.009 C 
HETATM   22  C18 UNL     1      -2.102   6.899  15.209  1.00  0.00     0.047 C 
BRANCH   3  23
HETATM   23  O2  UNL     1      -2.955   8.138  13.344  1.00  0.00    -0.381 OA
HETATM   24  H27 UNL     1      -2.792   8.826  12.676  1.00  0.00     0.211 HD
ENDBRANCH   3  23
ENDBRANCH   1   3
BRANCH   1  25
HETATM   25  C21 UNL     1      -0.350   5.721  13.519  1.00  0.00     0.260 C 
BRANCH  25  26
HETATM   26  O4  UNL     1      -1.379   4.749  13.348  1.00  0.00    -0.314 OA
BRANCH  26  27
HETATM   27  C22 UNL     1      -2.115   4.918  12.210  1.00  0.00     0.259 C 
HETATM   28  O5  UNL     1      -3.165   5.547  12.144  1.00  0.00    -0.265 OA
BRANCH  27  29
HETATM   29  C23 UNL     1      -1.427   4.258  11.043  1.00  0.00     0.120 C 
BRANCH  29  30
HETATM   30  C24 UNL     1      -1.634   2.745  11.083  1.00  0.00     0.112 C 
BRANCH  30  31
HETATM   31  C25 UNL     1      -3.080   2.353  11.313  1.00  0.00     0.218 C 
HETATM   32  O6  UNL     1      -3.416   1.324  11.884  1.00  0.00    -0.274 OA
HETATM   33  N1  UNL     1      -3.975   3.232  10.731  1.00  0.00    -0.361 N 
HETATM   34  H34 UNL     1      -3.621   4.141  10.465  1.00  0.00     0.162 HD
BRANCH  33  35
HETATM   35  C26 UNL     1      -5.401   3.140  11.006  1.00  0.00     0.127 C 
BRANCH  35  36
HETATM   36  C27 UNL     1      -5.712   3.071  12.508  1.00  0.00     0.060 C 
BRANCH  36  37
HETATM   37  C28 UNL     1      -6.816   3.996  12.919  1.00  0.00    -0.029 A 
HETATM   38  C29 UNL     1      -8.164   3.810  12.678  1.00  0.00     0.096 A 
HETATM   39  N2  UNL     1      -8.854   4.810  13.303  1.00  0.00    -0.365 N 
HETATM   40  C30 UNL     1      -7.985   5.680  13.916  1.00  0.00     0.042 A 
HETATM   41  H40 UNL     1      -9.861   4.882  13.342  1.00  0.00     0.165 HD
HETATM   42  C31 UNL     1      -8.246   6.836  14.661  1.00  0.00     0.030 A 
HETATM   43  C35 UNL     1      -6.693   5.205  13.682  1.00  0.00    -0.002 A 
HETATM   44  C32 UNL     1      -7.153   7.533  15.182  1.00  0.00     0.002 A 
HETATM   45  C33 UNL     1      -5.850   7.089  14.961  1.00  0.00     0.001 A 
HETATM   46  C34 UNL     1      -5.605   5.927  14.218  1.00  0.00     0.014 A 
ENDBRANCH  36  37
ENDBRANCH  35  36
ENDBRANCH  33  35
ENDBRANCH  30  31
ENDBRANCH  29  30
ENDBRANCH  27  29
ENDBRANCH  26  27
ENDBRANCH  25  26
ENDBRANCH   1  25
TORSDOF 11
ENDMDL
MODEL 2
REMARK minimizedAffinity -9.28785896
REMARK CNNscore 0.34730193
REMARK CNNaffinity 6.85090399
REMARK  11 active torsions:
REMARK  status: ('A' for Active; 'I' for Inactive)
REMARK    1  A    between atoms: C19_20  and  O2_21 
REMARK    2  A    between atoms: C19_20  and  C20_22 
REMARK    3  A    between atoms: C20_22  and  C21_24 
REMARK    4  A    between atoms: C21_24  and  O4_25 
REMARK    5  A    between atoms: O4_25  and  C22_26 
REMARK    6  A    between atoms: C22_26  and  C23_28 
REMARK    7  A    between atoms: C23_28  and  C24_29 
REMARK    8  A    between atoms: C24_29  and  C25_30 
REMARK       I    between atoms: C25_30  and  N1_32 
REMARK    9  A    between atoms: N1_32  and  C26_33 
REMARK   10  A    between atoms: C26_33  and  C27_34 
REMARK   11  A    between atoms: C27_34  and  C28_35 
ROOT
HETATM    1  C20 UNL     1      -1.758   8.151  15.269  1.00  0.00     0.185 C 
HETATM    2  O3  UNL     1      -0.886   8.410  16.103  1.00  0.00    -0.292 OA
ENDROOT
BRANCH   1   3
HETATM    3  C19 UNL     1      -1.456   7.809  13.796  1.00  0.00     0.128 C 
HETATM    4  C14 UNL     1      -0.004   8.017  13.238  1.00  0.00    -0.002 C 
HETATM    5  C13 UNL     1       1.032   6.911  13.537  1.00  0.00     0.013 C 
HETATM    6  C15 UNL     1       0.606   9.375  13.677  1.00  0.00     0.019 C 
HETATM    7  C16 UNL     1      -0.333   8.007  11.722  1.00  0.00     0.002 C 
HETATM    8  C12 UNL     1       1.637   6.256  12.282  1.00  0.00     0.007 C 
HETATM    9  C11 UNL     1       2.062   7.277  11.186  1.00  0.00     0.002 C 
HETATM   10  C2  UNL     1       2.925   6.668   9.978  1.00  0.00    -0.016 C 
HETATM   11  C10 UNL     1       0.882   8.249  10.814  1.00  0.00    -0.004 C 
HETATM   12  C1  UNL     1       4.342   7.298  10.062  1.00  0.00     0.020 C 
HETATM   13  C3  UNL     1       3.074   5.123  10.086  1.00  0.00     0.022 C 
HETATM   14  C7  UNL     1       2.377   6.989   8.584  1.00  0.00    -0.068 C 
HETATM   15  C4  UNL     1       3.803   4.466   8.920  1.00  0.00     0.084 C 
HETATM   16  C5  UNL     1       3.216   4.884   7.600  1.00  0.00     0.149 C 
HETATM   17  O1  UNL     1       3.349   4.208   6.583  1.00  0.00    -0.293 OA
HETATM   18  C6  UNL     1       2.497   6.174   7.520  1.00  0.00     0.053 C 
HETATM   19  C8  UNL     1       1.641   8.286   8.424  1.00  0.00     0.035 C 
HETATM   20  C9  UNL     1       0.443   8.237   9.346  1.00  0.00     0.010 C 
HETATM   21  C17 UNL     1      -1.519   8.960  11.600  1.00  0.00     0.009 C 
HETATM   22  C18 UNL     1      -2.324   8.725  12.886  1.00  0.00     0.047 C 
BRANCH   3  23
HETATM   23  O2  UNL     1      -1.899   6.463  13.550  1.00  0.00    -0.381 OA
HETATM   24  H27 UNL     1      -1.310   5.844  14.015  1.00  0.00     0.211 HD
ENDBRANCH   3  23
ENDBRANCH   1   3
BRANCH   1  25
HETATM   25  C21 UNL     1      -3.247   8.206  15.644  1.00  0.00     0.260 C 
BRANCH  25  26
HETATM   26  O4  UNL     1      -3.900   6.946  15.514  1.00  0.00    -0.314 OA
BRANCH  26  27
HETATM   27  C22 UNL     1      -5.052   6.992  14.781  1.00  0.00     0.259 C 
HETATM   28  O5  UNL     1      -5.640   8.022  14.469  1.00  0.00    -0.265 OA
BRANCH  27  29
HETATM   29  C23 UNL     1      -5.468   5.602  14.378  1.00  0.00     0.120 C 
BRANCH  29  30
HETATM   30  C24 UNL     1      -6.757   5.642  13.559  1.00  0.00     0.112 C 
BRANCH  30  31
HETATM   31  C25 UNL     1      -7.982   5.942  14.399  1.00  0.00     0.218 C 
HETATM   32  O6  UNL     1      -8.201   5.417  15.483  1.00  0.00    -0.274 OA
HETATM   33  N1  UNL     1      -8.867   6.800  13.772  1.00  0.00    -0.361 N 
HETATM   34  H34 UNL     1      -8.515   7.333  12.988  1.00  0.00     0.162 HD
BRANCH  33  35
HETATM   35  C26 UNL     1     -10.000   7.363  14.491  1.00  0.00     0.127 C 
BRANCH  35  36
HETATM   36  C27 UNL     1     -11.319   6.641  14.178  1.00  0.00     0.060 C 
BRANCH  36  37
HETATM   37  C28 UNL     1     -12.336   7.533  13.535  1.00  0.00    -0.029 A 
HETATM   38  C29 UNL     1     -12.075   8.722  12.881  1.00  0.00     0.096 A 
HETATM   39  N2  UNL     1     -13.244   9.177  12.339  1.00  0.00    -0.365 N 
HETATM   40  C30 UNL     1     -14.281   8.336  12.661  1.00  0.00     0.042 A 
HETATM   41  H40 UNL     1     -13.331   9.997  11.754  1.00  0.00     0.165 HD
HETATM   42  C31 UNL     1     -15.639   8.412  12.326  1.00  0.00     0.030 A 
HETATM   43  C35 UNL     1     -13.747   7.297  13.426  1.00  0.00    -0.002 A 
HETATM   44  C32 UNL     1     -16.479   7.397  12.790  1.00  0.00     0.002 A 
HETATM   45  C33 UNL     1     -15.978   6.350  13.561  1.00  0.00     0.001 A 
HETATM   46  C34 UNL     1     -14.617   6.284  13.883  1.00  0.00     0.014 A 
ENDBRANCH  36  37
ENDBRANCH  35  36
ENDBRANCH  33  35
ENDBRANCH  30  31
ENDBRANCH  29  30
ENDBRANCH  27  29
ENDBRANCH  26  27
ENDBRANCH  25  26
ENDBRANCH   1  25
TORSDOF 11
ENDMDL
MODEL 3
REMARK minimizedAffinity -8.2926321
REMARK CNNscore 0.331663102
REMARK CNNaffinity 6.54815149
REMARK  11 active torsions:
REMARK  status: ('A' for Active; 'I' for Inactive)
REMARK    1  A    between atoms: C19_20  and  O2_21 
REMARK    2  A    between atoms: C19_20  and  C20_22 
REMARK    3  A    between atoms: C20_22  and  C21_24 
REMARK    4  A    between atoms: C21_24  and  O4_25 
REMARK    5  A    between atoms: O4_25  and  C22_26 
REMARK    6  A    between atoms: C22_26  and  C23_28 
REMARK    7  A    between atoms: C23_28  and  C24_29 
REMARK    8  A    between atoms: C24_29  and  C25_30 
REMARK       I    between atoms: C25_30  and  N1_32 
REMARK    9  A    between atoms: N1_32  and  C26_33 
REMARK   10  A    between atoms: C26_33  and  C27_34 
REMARK   11  A    between atoms: C27_34  and  C28_35 
ROOT
HETATM    1  C20 UNL     1      -3.433   9.469  16.225  1.00  0.00     0.185 C 
HETATM    2  O3  UNL     1      -4.659   9.331  16.186  1.00  0.00    -0.292 OA
ENDROOT
BRANCH   1   3
HETATM    3  C19 UNL     1      -2.443   8.472  15.590  1.00  0.00     0.128 C 
HETATM    4  C14 UNL     1      -2.167   8.534  14.046  1.00  0.00    -0.002 C 
HETATM    5  C13 UNL     1      -1.163   9.597  13.551  1.00  0.00     0.013 C 
HETATM    6  C15 UNL     1      -3.474   8.690  13.222  1.00  0.00     0.019 C 
HETATM    7  C16 UNL     1      -1.547   7.124  13.862  1.00  0.00     0.002 C 
HETATM    8  C12 UNL     1       0.056   9.016  12.810  1.00  0.00     0.007 C 
HETATM    9  C11 UNL     1      -0.309   7.920  11.767  1.00  0.00     0.002 C 
HETATM   10  C2  UNL     1       0.887   7.470  10.796  1.00  0.00    -0.016 C 
HETATM   11  C10 UNL     1      -1.184   6.781  12.410  1.00  0.00    -0.004 C 
HETATM   12  C1  UNL     1       0.501   7.914   9.358  1.00  0.00     0.020 C 
HETATM   13  C3  UNL     1       2.234   8.154  11.170  1.00  0.00     0.022 C 
HETATM   14  C7  UNL     1       1.129   5.959  10.746  1.00  0.00    -0.068 C 
HETATM   15  C4  UNL     1       3.433   7.702  10.346  1.00  0.00     0.084 C 
HETATM   16  C5  UNL     1       3.550   6.203  10.326  1.00  0.00     0.149 C 
HETATM   17  O1  UNL     1       4.614   5.635  10.090  1.00  0.00    -0.293 OA
HETATM   18  C6  UNL     1       2.333   5.393  10.550  1.00  0.00     0.053 C 
HETATM   19  C8  UNL     1      -0.063   5.072  10.958  1.00  0.00     0.035 C 
HETATM   20  C9  UNL     1      -0.599   5.367  12.341  1.00  0.00     0.010 C 
HETATM   21  C17 UNL     1      -2.516   6.200  14.596  1.00  0.00     0.009 C 
HETATM   22  C18 UNL     1      -2.988   7.029  15.799  1.00  0.00     0.047 C 
BRANCH   3  23
HETATM   23  O2  UNL     1      -1.206   8.543  16.323  1.00  0.00    -0.381 OA
HETATM   24  H27 UNL     1      -0.772   9.392  16.131  1.00  0.00     0.211 HD
ENDBRANCH   3  23
ENDBRANCH   1   3
BRANCH   1  25
HETATM   25  C21 UNL     1      -2.796  10.648  16.976  1.00  0.00     0.260 C 
BRANCH  25  26
HETATM   26  O4  UNL     1      -3.757  11.584  17.459  1.00  0.00    -0.314 OA
BRANCH  26  27
HETATM   27  C22 UNL     1      -3.373  12.232  18.598  1.00  0.00     0.259 C 
HETATM   28  O5  UNL     1      -2.210  12.415  18.939  1.00  0.00    -0.265 OA
BRANCH  27  29
HETATM   29  C23 UNL     1      -4.583  12.724  19.349  1.00  0.00     0.120 C 
BRANCH  29  30
HETATM   30  C24 UNL     1      -5.283  13.837  18.570  1.00  0.00     0.112 C 
BRANCH  30  31
HETATM   31  C25 UNL     1      -6.717  14.053  19.008  1.00  0.00     0.218 C 
HETATM   32  O6  UNL     1      -7.533  14.688  18.353  1.00  0.00    -0.274 OA
HETATM   33  N1  UNL     1      -6.980  13.536  20.263  1.00  0.00    -0.361 N 
HETATM   34  H34 UNL     1      -6.321  12.864  20.633  1.00  0.00     0.162 HD
BRANCH  33  35
HETATM   35  C26 UNL     1      -8.340  13.466  20.774  1.00  0.00     0.127 C 
BRANCH  35  36
HETATM   36  C27 UNL     1      -8.439  13.867  22.254  1.00  0.00     0.060 C 
BRANCH  36  37
HETATM   37  C28 UNL     1      -9.197  12.874  23.079  1.00  0.00    -0.029 A 
HETATM   38  C29 UNL     1      -9.259  12.843  24.459  1.00  0.00     0.096 A 
HETATM   39  N2  UNL     1     -10.136  11.862  24.827  1.00  0.00    -0.365 N 
HETATM   40  C30 UNL     1     -10.620  11.212  23.718  1.00  0.00     0.042 A 
HETATM   41  H40 UNL     1     -10.418  11.663  25.777  1.00  0.00     0.165 HD
HETATM   42  C31 UNL     1     -11.529  10.151  23.622  1.00  0.00     0.030 A 
HETATM   43  C35 UNL     1     -10.038  11.814  22.600  1.00  0.00    -0.002 A 
HETATM   44  C32 UNL     1     -11.853   9.688  22.345  1.00  0.00     0.002 A 
HETATM   45  C33 UNL     1     -11.284  10.263  21.209  1.00  0.00     0.001 A 
HETATM   46  C34 UNL     1     -10.381  11.327  21.321  1.00  0.00     0.014 A 
ENDBRANCH  36  37
ENDBRANCH  35  36
ENDBRANCH  33  35
ENDBRANCH  30  31
ENDBRANCH  29  30
ENDBRANCH  27  29
ENDBRANCH  26  27
ENDBRANCH  25  26
ENDBRANCH   1  25
TORSDOF 11
ENDMDL
MODEL 4
REMARK minimizedAffinity -9.21783829
REMARK CNNscore 0.298180878
REMARK CNNaffinity 7.06352186
REMARK  11 active torsions:
REMARK  status: ('A' for Active; 'I' for Inactive)
REMARK    1  A    between atoms: C19_20  and  O2_21 
REMARK    2  A    between atoms: C19_20  and  C20_22 
REMARK    3  A    between atoms: C20_22  and  C21_24 
REMARK    4  A    between atoms: C21_24  and  O4_25 
REMARK    5  A    between atoms: O4_25  and  C22_26 
REMARK    6  A    between atoms: C22_26  and  C23_28 
REMARK    7  A    between atoms: C23_28  and  C24_29 
REMARK    8  A    between atoms: C24_29  and  C25_30 
REMARK       I    between atoms: C25_30  and  N1_32 
REMARK    9  A    between atoms: N1_32  and  C26_33 
REMARK   10  A    between atoms: C26_33  and  C27_34 
REMARK   11  A    between atoms: C27_34  and  C28_35 
ROOT
HETATM    1  C20 UNL     1      -4.945   6.127  14.734  1.00  0.00     0.185 C 
HETATM    2  O3  UNL     1      -4.863   5.882  15.941  1.00  0.00    -0.292 OA
ENDROOT
BRANCH   1   3
HETATM    3  C19 UNL     1      -6.250   6.566  14.040  1.00  0.00     0.128 C 
HETATM    4  C14 UNL     1      -7.512   6.903  14.910  1.00  0.00    -0.002 C 
HETATM    5  C13 UNL     1      -7.573   8.307  15.550  1.00  0.00     0.013 C 
HETATM    6  C15 UNL     1      -7.751   5.855  16.030  1.00  0.00     0.019 C 
HETATM    7  C16 UNL     1      -8.594   6.803  13.802  1.00  0.00     0.002 C 
HETATM    8  C12 UNL     1      -8.790   9.146  15.119  1.00  0.00     0.007 C 
HETATM    9  C11 UNL     1     -10.132   8.356  15.135  1.00  0.00     0.002 C 
HETATM   10  C2  UNL     1     -11.454   9.246  14.943  1.00  0.00    -0.016 C 
HETATM   11  C10 UNL     1     -10.028   7.026  14.302  1.00  0.00    -0.004 C 
HETATM   12  C1  UNL     1     -12.254   9.171  16.272  1.00  0.00     0.020 C 
HETATM   13  C3  UNL     1     -11.119  10.739  14.661  1.00  0.00     0.022 C 
HETATM   14  C7  UNL     1     -12.389   8.758  13.833  1.00  0.00    -0.068 C 
HETATM   15  C4  UNL     1     -12.327  11.624  14.375  1.00  0.00     0.084 C 
HETATM   16  C5  UNL     1     -13.201  11.030  13.305  1.00  0.00     0.149 C 
HETATM   17  O1  UNL     1     -13.970  11.716  12.636  1.00  0.00    -0.293 OA
HETATM   18  C6  UNL     1     -13.162   9.568  13.086  1.00  0.00     0.053 C 
HETATM   19  C8  UNL     1     -12.409   7.283  13.559  1.00  0.00     0.035 C 
HETATM   20  C9  UNL     1     -11.012   6.888  13.136  1.00  0.00     0.010 C 
HETATM   21  C17 UNL     1      -8.276   5.486  13.099  1.00  0.00     0.009 C 
HETATM   22  C18 UNL     1      -6.743   5.404  13.129  1.00  0.00     0.047 C 
BRANCH   3  23
HETATM   23  O2  UNL     1      -5.941   7.662  13.160  1.00  0.00    -0.381 OA
HETATM   24  H27 UNL     1      -5.735   8.449  13.693  1.00  0.00     0.211 HD
ENDBRANCH   3  23
ENDBRANCH   1   3
BRANCH   1  25
HETATM   25  C21 UNL     1      -3.730   5.954  13.810  1.00  0.00     0.260 C 
BRANCH  25  26
HETATM   26  O4  UNL     1      -3.313   4.596  13.687  1.00  0.00    -0.314 OA
BRANCH  26  27
HETATM   27  C22 UNL     1      -3.462   4.084  12.430  1.00  0.00     0.259 C 
HETATM   28  O5  UNL     1      -3.639   4.754  11.419  1.00  0.00    -0.265 OA
BRANCH  27  29
HETATM   29  C23 UNL     1      -3.335   2.583  12.463  1.00  0.00     0.120 C 
BRANCH  29  30
HETATM   30  C24 UNL     1      -2.498   2.088  11.285  1.00  0.00     0.112 C 
BRANCH  30  31
HETATM   31  C25 UNL     1      -1.045   2.509  11.375  1.00  0.00     0.218 C 
HETATM   32  O6  UNL     1      -0.114   1.796  11.024  1.00  0.00    -0.274 OA
HETATM   33  N1  UNL     1      -0.879   3.743  11.977  1.00  0.00    -0.361 N 
HETATM   34  H34 UNL     1      -1.694   4.336  12.046  1.00  0.00     0.162 HD
BRANCH  33  35
HETATM   35  C26 UNL     1       0.416   4.407  11.978  1.00  0.00     0.127 C 
BRANCH  35  36
HETATM   36  C27 UNL     1       0.297   5.938  11.984  1.00  0.00     0.060 C 
BRANCH  36  37
HETATM   37  C28 UNL     1       1.518   6.622  11.452  1.00  0.00    -0.029 A 
HETATM   38  C29 UNL     1       2.726   6.757  12.110  1.00  0.00     0.096 A 
HETATM   39  N2  UNL     1       3.617   7.338  11.254  1.00  0.00    -0.365 N 
HETATM   40  C30 UNL     1       3.011   7.632  10.057  1.00  0.00     0.042 A 
HETATM   41  H40 UNL     1       4.595   7.498  11.456  1.00  0.00     0.165 HD
HETATM   42  C31 UNL     1       3.536   8.229   8.905  1.00  0.00     0.030 A 
HETATM   43  C35 UNL     1       1.684   7.208  10.152  1.00  0.00    -0.002 A 
HETATM   44  C32 UNL     1       2.680   8.401   7.815  1.00  0.00     0.002 A 
HETATM   45  C33 UNL     1       1.348   7.994   7.880  1.00  0.00     0.001 A 
HETATM   46  C34 UNL     1       0.838   7.394   9.038  1.00  0.00     0.014 A 
ENDBRANCH  36  37
ENDBRANCH  35  36
ENDBRANCH  33  35
ENDBRANCH  30  31
ENDBRANCH  29  30
ENDBRANCH  27  29
ENDBRANCH  26  27
ENDBRANCH  25  26
ENDBRANCH   1  25
TORSDOF 11
ENDMDL
MODEL 5
REMARK minimizedAffinity -9.28155708
REMARK CNNscore 0.294733673
REMARK CNNaffinity 7.37141085
REMARK  11 active torsions:
REMARK  status: ('A' for Active; 'I' for Inactive)
REMARK    1  A    between atoms: C19_20  and  O2_21 
REMARK    2  A    between atoms: C19_20  and  C20_22 
REMARK    3  A    between atoms: C20_22  and  C21_24 
REMARK    4  A    between atoms: C21_24  and  O4_25 
REMARK    5  A    between atoms: O4_25  and  C22_26 
REMARK    6  A    between atoms: C22_26  and  C23_28 
REMARK    7  A    between atoms: C23_28  and  C24_29 
REMARK    8  A    between atoms: C24_29  and  C25_30 
REMARK       I    between atoms: C25_30  and  N1_32 
REMARK    9  A    between atoms: N1_32  and  C26_33 
REMARK   10  A    between atoms: C26_33  and  C27_34 
REMARK   11  A    between atoms: C27_34  and  C28_35 
ROOT
HETATM    1  C20 UNL     1      -5.378   4.976  13.984  1.00  0.00     0.185 C 
HETATM    2  O3  UNL     1      -4.262   5.382  14.321  1.00  0.00    -0.292 OA
ENDROOT
BRANCH   1   3
HETATM    3  C19 UNL     1      -6.687   5.409  14.674  1.00  0.00     0.128 C 
HETATM    4  C14 UNL     1      -7.570   6.531  14.022  1.00  0.00    -0.002 C 
HETATM    5  C13 UNL     1      -8.509   6.109  12.870  1.00  0.00     0.013 C 
HETATM    6  C15 UNL     1      -6.723   7.736  13.532  1.00  0.00     0.019 C 
HETATM    7  C16 UNL     1      -8.425   6.907  15.261  1.00  0.00     0.002 C 
HETATM    8  C12 UNL     1     -10.001   6.379  13.140  1.00  0.00     0.007 C 
HETATM    9  C11 UNL     1     -10.284   7.788  13.738  1.00  0.00     0.002 C 
HETATM   10  C2  UNL     1     -11.831   8.210  13.797  1.00  0.00    -0.016 C 
HETATM   11  C10 UNL     1      -9.411   8.058  15.019  1.00  0.00    -0.004 C 
HETATM   12  C1  UNL     1     -12.018   9.404  12.822  1.00  0.00     0.020 C 
HETATM   13  C3  UNL     1     -12.770   7.057  13.339  1.00  0.00     0.022 C 
HETATM   14  C7  UNL     1     -12.307   8.682  15.175  1.00  0.00    -0.068 C 
HETATM   15  C4  UNL     1     -14.260   7.358  13.459  1.00  0.00     0.084 C 
HETATM   16  C5  UNL     1     -14.610   7.857  14.834  1.00  0.00     0.149 C 
HETATM   17  O1  UNL     1     -15.749   7.776  15.286  1.00  0.00    -0.293 OA
HETATM   18  C6  UNL     1     -13.555   8.505  15.644  1.00  0.00     0.053 C 
HETATM   19  C8  UNL     1     -11.292   9.357  16.050  1.00  0.00     0.035 C 
HETATM   20  C9  UNL     1     -10.186   8.357  16.306  1.00  0.00     0.010 C 
HETATM   21  C17 UNL     1      -7.397   7.067  16.378  1.00  0.00     0.009 C 
HETATM   22  C18 UNL     1      -6.340   5.996  16.074  1.00  0.00     0.047 C 
BRANCH   3  23
HETATM   23  O2  UNL     1      -7.475   4.230  14.918  1.00  0.00    -0.381 OA
HETATM   24  H27 UNL     1      -7.809   3.891  14.070  1.00  0.00     0.211 HD
ENDBRANCH   3  23
ENDBRANCH   1   3
BRANCH   1  25
HETATM   25  C21 UNL     1      -5.534   3.944  12.857  1.00  0.00     0.260 C 
BRANCH  25  26
HETATM   26  O4  UNL     1      -4.285   3.472  12.358  1.00  0.00    -0.314 OA
BRANCH  26  27
HETATM   27  C22 UNL     1      -4.218   3.420  10.995  1.00  0.00     0.259 C 
HETATM   28  O5  UNL     1      -5.174   3.210  10.256  1.00  0.00    -0.265 OA
BRANCH  27  29
HETATM   29  C23 UNL     1      -2.812   3.700  10.533  1.00  0.00     0.120 C 
BRANCH  29  30
HETATM   30  C24 UNL     1      -1.797   3.154  11.536  1.00  0.00     0.112 C 
BRANCH  30  31
HETATM   31  C25 UNL     1      -0.954   4.240  12.174  1.00  0.00     0.218 C 
HETATM   32  O6  UNL     1       0.245   4.123  12.389  1.00  0.00    -0.274 OA
HETATM   33  N1  UNL     1      -1.698   5.336  12.569  1.00  0.00    -0.361 N 
HETATM   34  H34 UNL     1      -2.624   5.431  12.175  1.00  0.00     0.162 HD
BRANCH  33  35
HETATM   35  C26 UNL     1      -1.049   6.559  13.017  1.00  0.00     0.127 C 
BRANCH  35  36
HETATM   36  C27 UNL     1       0.325   6.775  12.366  1.00  0.00     0.060 C 
BRANCH  36  37
HETATM   37  C28 UNL     1       0.235   7.392  11.004  1.00  0.00    -0.029 A 
HETATM   38  C29 UNL     1      -0.604   8.426  10.634  1.00  0.00     0.096 A 
HETATM   39  N2  UNL     1      -0.309   8.777   9.347  1.00  0.00    -0.365 N 
HETATM   40  C30 UNL     1       0.678   7.965   8.843  1.00  0.00     0.042 A 
HETATM   41  H40 UNL     1      -0.730   9.548   8.846  1.00  0.00     0.165 HD
HETATM   42  C31 UNL     1       1.283   7.963   7.580  1.00  0.00     0.030 A 
HETATM   43  C35 UNL     1       1.034   7.072   9.855  1.00  0.00    -0.002 A 
HETATM   44  C32 UNL     1       2.281   7.015   7.341  1.00  0.00     0.002 A 
HETATM   45  C33 UNL     1       2.655   6.105   8.329  1.00  0.00     0.001 A 
HETATM   46  C34 UNL     1       2.044   6.124   9.589  1.00  0.00     0.014 A 
ENDBRANCH  36  37
ENDBRANCH  35  36
ENDBRANCH  33  35
ENDBRANCH  30  31
ENDBRANCH  29  30
ENDBRANCH  27  29
ENDBRANCH  26  27
ENDBRANCH  25  26
ENDBRANCH   1  25
TORSDOF 11
ENDMDL
MODEL 6
REMARK minimizedAffinity -8.56062603
REMARK CNNscore 0.29168722
REMARK CNNaffinity 6.56049299
REMARK  11 active torsions:
REMARK  status: ('A' for Active; 'I' for Inactive)
REMARK    1  A    between atoms: C19_20  and  O2_21 
REMARK    2  A    between atoms: C19_20  and  C20_22 
REMARK    3  A    between atoms: C20_22  and  C21_24 
REMARK    4  A    between atoms: C21_24  and  O4_25 
REMARK    5  A    between atoms: O4_25  and  C22_26 
REMARK    6  A    between atoms: C22_26  and  C23_28 
REMARK    7  A    between atoms: C23_28  and  C24_29 
REMARK    8  A    between atoms: C24_29  and  C25_30 
REMARK       I    between atoms: C25_30  and  N1_32 
REMARK    9  A    between atoms: N1_32  and  C26_33 
REMARK   10  A    between atoms: C26_33  and  C27_34 
REMARK   11  A    between atoms: C27_34  and  C28_35 
ROOT
HETATM    1  C20 UNL     1       3.986   8.166  10.131  1.00  0.00     0.185 C 
HETATM    2  O3  UNL     1       4.203   8.837   9.118  1.00  0.00    -0.292 OA
ENDROOT
BRANCH   1   3
HETATM    3  C19 UNL     1       4.582   8.493  11.515  1.00  0.00     0.128 C 
HETATM    4  C14 UNL     1       6.137   8.432  11.720  1.00  0.00    -0.002 C 
HETATM    5  C13 UNL     1       6.957   9.656  11.258  1.00  0.00     0.013 C 
HETATM    6  C15 UNL     1       6.766   7.166  11.079  1.00  0.00     0.019 C 
HETATM    7  C16 UNL     1       6.166   8.356  13.269  1.00  0.00     0.002 C 
HETATM    8  C12 UNL     1       7.764  10.335  12.380  1.00  0.00     0.007 C 
HETATM    9  C11 UNL     1       8.532   9.334  13.293  1.00  0.00     0.002 C 
HETATM   10  C2  UNL     1       9.582   9.998  14.309  1.00  0.00    -0.016 C 
HETATM   11  C10 UNL     1       7.575   8.225  13.866  1.00  0.00    -0.004 C 
HETATM   12  C1  UNL     1      10.999   9.534  13.872  1.00  0.00     0.020 C 
HETATM   13  C3  UNL     1       9.543  11.553  14.258  1.00  0.00     0.022 C 
HETATM   14  C7  UNL     1       9.406   9.574  15.769  1.00  0.00    -0.068 C 
HETATM   15  C4  UNL     1      10.450  12.250  15.265  1.00  0.00     0.084 C 
HETATM   16  C5  UNL     1      10.228  11.727  16.657  1.00  0.00     0.149 C 
HETATM   17  O1  UNL     1      10.521  12.382  17.654  1.00  0.00    -0.293 OA
HETATM   18  C6  UNL     1       9.682  10.362  16.824  1.00  0.00     0.053 C 
HETATM   19  C8  UNL     1       8.863   8.197  16.016  1.00  0.00     0.035 C 
HETATM   20  C9  UNL     1       7.486   8.140  15.393  1.00  0.00     0.010 C 
HETATM   21  C17 UNL     1       5.144   7.273  13.601  1.00  0.00     0.009 C 
HETATM   22  C18 UNL     1       4.045   7.455  12.544  1.00  0.00     0.047 C 
BRANCH   3  23
HETATM   23  O2  UNL     1       4.071   9.772  11.930  1.00  0.00    -0.381 OA
HETATM   24  H27 UNL     1       4.472  10.467  11.381  1.00  0.00     0.211 HD
ENDBRANCH   3  23
ENDBRANCH   1   3
BRANCH   1  25
HETATM   25  C21 UNL     1       3.126   6.894  10.064  1.00  0.00     0.260 C 
BRANCH  25  26
HETATM   26  O4  UNL     1       1.880   7.099   9.402  1.00  0.00    -0.314 OA
BRANCH  26  27
HETATM   27  C22 UNL     1       0.868   7.484  10.234  1.00  0.00     0.259 C 
HETATM   28  O5  UNL     1       0.640   8.641  10.567  1.00  0.00    -0.265 OA
BRANCH  27  29
HETATM   29  C23 UNL     1       0.051   6.287  10.646  1.00  0.00     0.120 C 
BRANCH  29  30
HETATM   30  C24 UNL     1      -0.484   6.464  12.066  1.00  0.00     0.112 C 
BRANCH  30  31
HETATM   31  C25 UNL     1      -1.384   5.327  12.505  1.00  0.00     0.218 C 
HETATM   32  O6  UNL     1      -1.894   5.261  13.615  1.00  0.00    -0.274 OA
HETATM   33  N1  UNL     1      -1.493   4.330  11.553  1.00  0.00    -0.361 N 
HETATM   34  H34 UNL     1      -1.211   4.560  10.609  1.00  0.00     0.162 HD
BRANCH  33  35
HETATM   35  C26 UNL     1      -2.462   3.255  11.702  1.00  0.00     0.127 C 
BRANCH  35  36
HETATM   36  C27 UNL     1      -3.639   3.376  10.723  1.00  0.00     0.060 C 
BRANCH  36  37
HETATM   37  C28 UNL     1      -4.955   3.022  11.344  1.00  0.00    -0.029 A 
HETATM   38  C29 UNL     1      -5.705   1.895  11.070  1.00  0.00     0.096 A 
HETATM   39  N2  UNL     1      -6.777   1.878  11.917  1.00  0.00    -0.365 N 
HETATM   40  C30 UNL     1      -6.776   2.997  12.714  1.00  0.00     0.042 A 
HETATM   41  H40 UNL     1      -7.458   1.132  11.975  1.00  0.00     0.165 HD
HETATM   42  C31 UNL     1      -7.676   3.391  13.712  1.00  0.00     0.030 A 
HETATM   43  C35 UNL     1      -5.649   3.746  12.370  1.00  0.00    -0.002 A 
HETATM   44  C32 UNL     1      -7.419   4.592  14.379  1.00  0.00     0.002 A 
HETATM   45  C33 UNL     1      -6.307   5.367  14.054  1.00  0.00     0.001 A 
HETATM   46  C34 UNL     1      -5.413   4.956  13.057  1.00  0.00     0.014 A 
ENDBRANCH  36  37
ENDBRANCH  35  36
ENDBRANCH  33  35
ENDBRANCH  30  31
ENDBRANCH  29  30
ENDBRANCH  27  29
ENDBRANCH  26  27
ENDBRANCH  25  26
ENDBRANCH   1  25
TORSDOF 11
ENDMDL
MODEL 7
REMARK minimizedAffinity -8.03234386
REMARK CNNscore 0.280143082
REMARK CNNaffinity 5.79005194
REMARK  11 active torsions:
REMARK  status: ('A' for Active; 'I' for Inactive)
REMARK    1  A    between atoms: C19_20  and  O2_21 
REMARK    2  A    between atoms: C19_20  and  C20_22 
REMARK    3  A    between atoms: C20_22  and  C21_24 
REMARK    4  A    between atoms: C21_24  and  O4_25 
REMARK    5  A    between atoms: O4_25  and  C22_26 
REMARK    6  A    between atoms: C22_26  and  C23_28 
REMARK    7  A    between atoms: C23_28  and  C24_29 
REMARK    8  A    between atoms: C24_29  and  C25_30 
REMARK       I    between atoms: C25_30  and  N1_32 
REMARK    9  A    between atoms: N1_32  and  C26_33 
REMARK   10  A    between atoms: C26_33  and  C27_34 
REMARK   11  A    between atoms: C27_34  and  C28_35 
ROOT
HETATM    1  C20 UNL     1       1.266  11.297  17.347  1.00  0.00     0.185 C 
HETATM    2  O3  UNL     1       1.734  10.308  16.775  1.00  0.00    -0.292 OA
ENDROOT
BRANCH   1   3
HETATM    3  C19 UNL     1       2.123  12.321  18.119  1.00  0.00     0.128 C 
HETATM    4  C14 UNL     1       2.941  11.854  19.374  1.00  0.00    -0.002 C 
HETATM    5  C13 UNL     1       4.296  11.160  19.114  1.00  0.00     0.013 C 
HETATM    6  C15 UNL     1       2.108  10.939  20.312  1.00  0.00     0.019 C 
HETATM    7  C16 UNL     1       3.196  13.242  20.018  1.00  0.00     0.002 C 
HETATM    8  C12 UNL     1       5.504  11.879  19.745  1.00  0.00     0.007 C 
HETATM    9  C11 UNL     1       5.267  12.329  21.215  1.00  0.00     0.002 C 
HETATM   10  C2  UNL     1       6.571  12.849  21.993  1.00  0.00    -0.016 C 
HETATM   11  C10 UNL     1       3.955  13.187  21.351  1.00  0.00    -0.004 C 
HETATM   12  C1  UNL     1       6.859  11.835  23.134  1.00  0.00     0.020 C 
HETATM   13  C3  UNL     1       7.821  12.905  21.068  1.00  0.00     0.022 C 
HETATM   14  C7  UNL     1       6.412  14.224  22.649  1.00  0.00    -0.068 C 
HETATM   15  C4  UNL     1       9.074  13.479  21.718  1.00  0.00     0.084 C 
HETATM   16  C5  UNL     1       8.796  14.805  22.370  1.00  0.00     0.149 C 
HETATM   17  O1  UNL     1       9.686  15.623  22.589  1.00  0.00    -0.293 OA
HETATM   18  C6  UNL     1       7.415  15.108  22.801  1.00  0.00     0.053 C 
HETATM   19  C8  UNL     1       5.037  14.598  23.119  1.00  0.00     0.035 C 
HETATM   20  C9  UNL     1       4.135  14.604  21.905  1.00  0.00     0.010 C 
HETATM   21  C17 UNL     1       1.824  13.910  20.001  1.00  0.00     0.009 C 
HETATM   22  C18 UNL     1       1.183  13.421  18.694  1.00  0.00     0.047 C 
BRANCH   3  23
HETATM   23  O2  UNL     1       2.985  12.982  17.176  1.00  0.00    -0.381 OA
HETATM   24  H27 UNL     1       3.664  12.355  16.873  1.00  0.00     0.211 HD
ENDBRANCH   3  23
ENDBRANCH   1   3
BRANCH   1  25
HETATM   25  C21 UNL     1      -0.249  11.548  17.373  1.00  0.00     0.260 C 
BRANCH  25  26
HETATM   26  O4  UNL     1      -0.951  10.637  18.215  1.00  0.00    -0.314 OA
BRANCH  26  27
HETATM   27  C22 UNL     1      -2.307  10.671  18.058  1.00  0.00     0.259 C 
HETATM   28  O5  UNL     1      -3.091  11.164  18.861  1.00  0.00    -0.265 OA
BRANCH  27  29
HETATM   29  C23 UNL     1      -2.692  10.054  16.738  1.00  0.00     0.120 C 
BRANCH  29  30
HETATM   30  C24 UNL     1      -2.223   8.602  16.666  1.00  0.00     0.112 C 
BRANCH  30  31
HETATM   31  C25 UNL     1      -2.615   7.918  15.372  1.00  0.00     0.218 C 
HETATM   32  O6  UNL     1      -2.360   8.373  14.265  1.00  0.00    -0.274 OA
HETATM   33  N1  UNL     1      -3.367   6.775  15.574  1.00  0.00    -0.361 N 
HETATM   34  H34 UNL     1      -3.353   6.372  16.501  1.00  0.00     0.162 HD
BRANCH  33  35
HETATM   35  C26 UNL     1      -3.670   5.873  14.473  1.00  0.00     0.127 C 
BRANCH  35  36
HETATM   36  C27 UNL     1      -4.955   6.259  13.726  1.00  0.00     0.060 C 
BRANCH  36  37
HETATM   37  C28 UNL     1      -5.966   5.155  13.694  1.00  0.00    -0.029 A 
HETATM   38  C29 UNL     1      -7.165   5.132  14.381  1.00  0.00     0.096 A 
HETATM   39  N2  UNL     1      -7.852   4.012  14.005  1.00  0.00    -0.365 N 
HETATM   40  C30 UNL     1      -7.110   3.270  13.118  1.00  0.00     0.042 A 
HETATM   41  H40 UNL     1      -8.788   3.777  14.307  1.00  0.00     0.165 HD
HETATM   42  C31 UNL     1      -7.415   2.061  12.481  1.00  0.00     0.030 A 
HETATM   43  C35 UNL     1      -5.911   3.954  12.911  1.00  0.00    -0.002 A 
HETATM   44  C32 UNL     1      -6.462   1.530  11.608  1.00  0.00     0.002 A 
HETATM   45  C33 UNL     1      -5.252   2.184  11.385  1.00  0.00     0.001 A 
HETATM   46  C34 UNL     1      -4.965   3.396  12.025  1.00  0.00     0.014 A 
ENDBRANCH  36  37
ENDBRANCH  35  36
ENDBRANCH  33  35
ENDBRANCH  30  31
ENDBRANCH  29  30
ENDBRANCH  27  29
ENDBRANCH  26  27
ENDBRANCH  25  26
ENDBRANCH   1  25
TORSDOF 11
ENDMDL
MODEL 8
REMARK minimizedAffinity -9.38820267
REMARK CNNscore 0.257631749
REMARK CNNaffinity 6.98562002
REMARK  11 active torsions:
REMARK  status: ('A' for Active; 'I' for Inactive)
REMARK    1  A    between atoms: C19_20  and  O2_21 
REMARK    2  A    between atoms: C19_20  and  C20_22 
REMARK    3  A    between atoms: C20_22  and  C21_24 
REMARK    4  A    between atoms: C21_24  and  O4_25 
REMARK    5  A    between atoms: O4_25  and  C22_26 
REMARK    6  A    between atoms: C22_26  and  C23_28 
REMARK    7  A    between atoms: C23_28  and  C24_29 
REMARK    8  A    between atoms: C24_29  and  C25_30 
REMARK       I    between atoms: C25_30  and  N1_32 
REMARK    9  A    between atoms: N1_32  and  C26_33 
REMARK   10  A    between atoms: C26_33  and  C27_34 
REMARK   11  A    between atoms: C27_34  and  C28_35 
ROOT
HETATM    1  C20 UNL     1       0.540   7.321  13.007  1.00  0.00     0.185 C 
HETATM    2  O3  UNL     1       1.100   6.948  14.041  1.00  0.00    -0.292 OA
ENDROOT
BRANCH   1   3
HETATM    3  C19 UNL     1      -0.898   6.919  12.623  1.00  0.00     0.128 C 
HETATM    4  C14 UNL     1      -1.903   6.479  13.746  1.00  0.00    -0.002 C 
HETATM    5  C13 UNL     1      -2.604   7.600  14.544  1.00  0.00     0.013 C 
HETATM    6  C15 UNL     1      -1.256   5.500  14.763  1.00  0.00     0.019 C 
HETATM    7  C16 UNL     1      -2.949   5.760  12.855  1.00  0.00     0.002 C 
HETATM    8  C12 UNL     1      -4.140   7.578  14.447  1.00  0.00     0.007 C 
HETATM    9  C11 UNL     1      -4.759   6.160  14.621  1.00  0.00     0.002 C 
HETATM   10  C2  UNL     1      -6.355   6.123  14.782  1.00  0.00    -0.016 C 
HETATM   11  C10 UNL     1      -4.108   5.121  13.635  1.00  0.00    -0.004 C 
HETATM   12  C1  UNL     1      -6.660   5.620  16.219  1.00  0.00     0.020 C 
HETATM   13  C3  UNL     1      -6.994   7.533  14.616  1.00  0.00     0.022 C 
HETATM   14  C7  UNL     1      -7.067   5.171  13.817  1.00  0.00    -0.068 C 
HETATM   15  C4  UNL     1      -8.517   7.556  14.665  1.00  0.00     0.084 C 
HETATM   16  C5  UNL     1      -9.111   6.554  13.714  1.00  0.00     0.149 C 
HETATM   17  O1  UNL     1     -10.257   6.662  13.285  1.00  0.00    -0.293 OA
HETATM   18  C6  UNL     1      -8.303   5.378  13.326  1.00  0.00     0.053 C 
HETATM   19  C8  UNL     1      -6.310   3.950  13.384  1.00  0.00     0.035 C 
HETATM   20  C9  UNL     1      -5.067   4.427  12.665  1.00  0.00     0.010 C 
HETATM   21  C17 UNL     1      -2.107   4.857  11.958  1.00  0.00     0.009 C 
HETATM   22  C18 UNL     1      -0.833   5.672  11.692  1.00  0.00     0.047 C 
BRANCH   3  23
HETATM   23  O2  UNL     1      -1.463   7.980  11.833  1.00  0.00    -0.381 OA
HETATM   24  H27 UNL     1      -1.627   8.749  12.405  1.00  0.00     0.211 HD
ENDBRANCH   3  23
ENDBRANCH   1   3
BRANCH   1  25
HETATM   25  C21 UNL     1       1.280   8.191  11.980  1.00  0.00     0.260 C 
BRANCH  25  26
HETATM   26  O4  UNL     1       1.290   7.623  10.673  1.00  0.00    -0.314 OA
BRANCH  26  27
HETATM   27  C22 UNL     1       2.514   7.650  10.067  1.00  0.00     0.259 C 
HETATM   28  O5  UNL     1       2.716   8.020   8.917  1.00  0.00    -0.265 OA
BRANCH  27  29
HETATM   29  C23 UNL     1       3.580   7.199  11.032  1.00  0.00     0.120 C 
BRANCH  29  30
HETATM   30  C24 UNL     1       4.970   7.535  10.493  1.00  0.00     0.112 C 
BRANCH  30  31
HETATM   31  C25 UNL     1       6.065   7.345  11.523  1.00  0.00     0.218 C 
HETATM   32  O6  UNL     1       7.258   7.376  11.251  1.00  0.00    -0.274 OA
HETATM   33  N1  UNL     1       5.575   7.045  12.780  1.00  0.00    -0.361 N 
HETATM   34  H34 UNL     1       4.598   7.239  12.953  1.00  0.00     0.162 HD
BRANCH  33  35
HETATM   35  C26 UNL     1       6.452   7.022  13.940  1.00  0.00     0.127 C 
BRANCH  35  36
HETATM   36  C27 UNL     1       6.516   8.376  14.663  1.00  0.00     0.060 C 
BRANCH  36  37
HETATM   37  C28 UNL     1       7.755   8.541  15.488  1.00  0.00    -0.029 A 
HETATM   38  C29 UNL     1       8.945   7.862  15.311  1.00  0.00     0.096 A 
HETATM   39  N2  UNL     1       9.862   8.370  16.187  1.00  0.00    -0.365 N 
HETATM   40  C30 UNL     1       9.289   9.342  16.971  1.00  0.00     0.042 A 
HETATM   41  H40 UNL     1      10.835   8.097  16.230  1.00  0.00     0.165 HD
HETATM   42  C31 UNL     1       9.849  10.120  17.992  1.00  0.00     0.030 A 
HETATM   43  C35 UNL     1       7.958   9.465  16.567  1.00  0.00    -0.002 A 
HETATM   44  C32 UNL     1       9.022  11.052  18.623  1.00  0.00     0.002 A 
HETATM   45  C33 UNL     1       7.687  11.195  18.248  1.00  0.00     0.001 A 
HETATM   46  C34 UNL     1       7.144  10.413  17.222  1.00  0.00     0.014 A 
ENDBRANCH  36  37
ENDBRANCH  35  36
ENDBRANCH  33  35
ENDBRANCH  30  31
ENDBRANCH  29  30
ENDBRANCH  27  29
ENDBRANCH  26  27
ENDBRANCH  25  26
ENDBRANCH   1  25
TORSDOF 11
ENDMDL
MODEL 9
REMARK minimizedAffinity -9.87188435
REMARK CNNscore 0.246839583
REMARK CNNaffinity 7.07709455
REMARK  11 active torsions:
REMARK  status: ('A' for Active; 'I' for Inactive)
REMARK    1  A    between atoms: C19_20  and  O2_21 
REMARK    2  A    between atoms: C19_20  and  C20_22 
REMARK    3  A    between atoms: C20_22  and  C21_24 
REMARK    4  A    between atoms: C21_24  and  O4_25 
REMARK    5  A    between atoms: O4_25  and  C22_26 
REMARK    6  A    between atoms: C22_26  and  C23_28 
REMARK    7  A    between atoms: C23_28  and  C24_29 
REMARK    8  A    between atoms: C24_29  and  C25_30 
REMARK       I    between atoms: C25_30  and  N1_32 
REMARK    9  A    between atoms: N1_32  and  C26_33 
REMARK   10  A    between atoms: C26_33  and  C27_34 
REMARK   11  A    between atoms: C27_34  and  C28_35 
ROOT
HETATM    1  C20 UNL     1      -1.604   8.026  15.354  1.00  0.00     0.185 C 
HETATM    2  O3  UNL     1      -1.863   7.159  16.194  1.00  0.00    -0.292 OA
ENDROOT
BRANCH   1   3
HETATM    3  C19 UNL     1      -1.327   7.719  13.868  1.00  0.00     0.128 C 
HETATM    4  C14 UNL     1       0.127   7.884  13.303  1.00  0.00    -0.002 C 
HETATM    5  C13 UNL     1       1.119   6.729  13.558  1.00  0.00     0.013 C 
HETATM    6  C15 UNL     1       0.796   9.203  13.778  1.00  0.00     0.019 C 
HETATM    7  C16 UNL     1      -0.214   7.936  11.790  1.00  0.00     0.002 C 
HETATM    8  C12 UNL     1       1.687   6.090  12.277  1.00  0.00     0.007 C 
HETATM    9  C11 UNL     1       2.145   7.126  11.210  1.00  0.00     0.002 C 
HETATM   10  C2  UNL     1       2.972   6.520   9.975  1.00  0.00    -0.016 C 
HETATM   11  C10 UNL     1       1.002   8.156  10.879  1.00  0.00    -0.004 C 
HETATM   12  C1  UNL     1       4.414   7.090  10.066  1.00  0.00     0.020 C 
HETATM   13  C3  UNL     1       3.058   4.968  10.034  1.00  0.00     0.022 C 
HETATM   14  C7  UNL     1       2.427   6.907   8.597  1.00  0.00    -0.068 C 
HETATM   15  C4  UNL     1       3.751   4.319   8.841  1.00  0.00     0.084 C 
HETATM   16  C5  UNL     1       3.171   4.802   7.540  1.00  0.00     0.149 C 
HETATM   17  O1  UNL     1       3.268   4.153   6.502  1.00  0.00    -0.293 OA
HETATM   18  C6  UNL     1       2.504   6.122   7.507  1.00  0.00     0.053 C 
HETATM   19  C8  UNL     1       1.744   8.238   8.485  1.00  0.00     0.035 C 
HETATM   20  C9  UNL     1       0.551   8.209   9.416  1.00  0.00     0.010 C 
HETATM   21  C17 UNL     1      -1.361   8.940  11.709  1.00  0.00     0.009 C 
HETATM   22  C18 UNL     1      -2.165   8.698  12.994  1.00  0.00     0.047 C 
BRANCH   3  23
HETATM   23  O2  UNL     1      -1.828   6.400  13.584  1.00  0.00    -0.381 OA
HETATM   24  H27 UNL     1      -1.261   5.744  14.023  1.00  0.00     0.211 HD
ENDBRANCH   3  23
ENDBRANCH   1   3
BRANCH   1  25
HETATM   25  C21 UNL     1      -1.486   9.504  15.757  1.00  0.00     0.260 C 
BRANCH  25  26
HETATM   26  O4  UNL     1      -2.499   9.914  16.672  1.00  0.00    -0.314 OA
BRANCH  26  27
HETATM   27  C22 UNL     1      -3.678  10.258  16.073  1.00  0.00     0.259 C 
HETATM   28  O5  UNL     1      -3.866  11.294  15.445  1.00  0.00    -0.265 OA
BRANCH  27  29
HETATM   29  C23 UNL     1      -4.694   9.162  16.260  1.00  0.00     0.120 C 
BRANCH  29  30
HETATM   30  C24 UNL     1      -5.782   9.250  15.190  1.00  0.00     0.112 C 
BRANCH  30  31
HETATM   31  C25 UNL     1      -6.825   8.157  15.316  1.00  0.00     0.218 C 
HETATM   32  O6  UNL     1      -8.019   8.339  15.122  1.00  0.00    -0.274 OA
HETATM   33  N1  UNL     1      -6.296   6.959  15.762  1.00  0.00    -0.361 N 
HETATM   34  H34 UNL     1      -5.293   6.846  15.700  1.00  0.00     0.162 HD
BRANCH  33  35
HETATM   35  C26 UNL     1      -7.093   5.742  15.758  1.00  0.00     0.127 C 
BRANCH  35  36
HETATM   36  C27 UNL     1      -7.486   5.295  14.342  1.00  0.00     0.060 C 
BRANCH  36  37
HETATM   37  C28 UNL     1      -6.315   4.843  13.525  1.00  0.00    -0.029 A 
HETATM   38  C29 UNL     1      -5.117   5.517  13.382  1.00  0.00     0.096 A 
HETATM   39  N2  UNL     1      -4.269   4.731  12.654  1.00  0.00    -0.365 N 
HETATM   40  C30 UNL     1      -4.898   3.570  12.274  1.00  0.00     0.042 A 
HETATM   41  H40 UNL     1      -3.304   4.953  12.451  1.00  0.00     0.165 HD
HETATM   42  C31 UNL     1      -4.417   2.490  11.524  1.00  0.00     0.030 A 
HETATM   43  C35 UNL     1      -6.193   3.614  12.794  1.00  0.00    -0.002 A 
HETATM   44  C32 UNL     1      -5.287   1.421  11.294  1.00  0.00     0.002 A 
HETATM   45  C33 UNL     1      -6.588   1.438  11.794  1.00  0.00     0.001 A 
HETATM   46  C34 UNL     1      -7.052   2.523  12.548  1.00  0.00     0.014 A 
ENDBRANCH  36  37
ENDBRANCH  35  36
ENDBRANCH  33  35
ENDBRANCH  30  31
ENDBRANCH  29  30
ENDBRANCH  27  29
ENDBRANCH  26  27
ENDBRANCH  25  26
ENDBRANCH   1  25
TORSDOF 11
ENDMDL
