MODEL 1
REMARK minimizedAffinity -8.50323391
REMARK CNNscore 0.83639431
REMARK CNNaffinity 7.18873787
REMARK  13 active torsions:
REMARK  status: ('A' for Active; 'I' for Inactive)
REMARK    1  A    between atoms: C14_15  and  O2_16 
REMARK    2  A    between atoms: C14_15  and  C15_17 
REMARK    3  A    between atoms: C15_17  and  C16_19 
REMARK    4  A    between atoms: C16_19  and  O4_20 
REMARK    5  A    between atoms: O4_20  and  C17_21 
REMARK    6  A    between atoms: C17_21  and  C18_23 
REMARK    7  A    between atoms: C18_23  and  C19_24 
REMARK    8  A    between atoms: C19_24  and  C20_25 
REMARK       I    between atoms: C20_25  and  N1_27 
REMARK    9  A    between atoms: N1_27  and  C21_28 
REMARK   10  A    between atoms: C21_28  and  C22_29 
REMARK   11  A    between atoms: C22_29  and  C23_30 
REMARK   12  A    between atoms: C26_33  and  O7_34 
REMARK   13  A    between atoms: C27_35  and  O8_36 
ROOT
HETATM    1  C15 UNL     1      -2.218  51.805 -10.240  1.00  0.00     0.185 C 
HETATM    2  O3  UNL     1      -2.694  51.583  -9.122  1.00  0.00    -0.292 OA
ENDROOT
BRANCH   1   3
HETATM    3  C14 UNL     1      -0.835  52.475 -10.411  1.00  0.00     0.128 C 
HETATM    4  C13 UNL     1      -0.462  52.611 -11.894  1.00  0.00     0.047 C 
HETATM    5  C12 UNL     1       0.707  53.585 -11.864  1.00  0.00     0.009 C 
HETATM    6  C11 UNL     1       0.333  54.625 -10.793  1.00  0.00     0.002 C 
HETATM    7  C10 UNL     1       1.526  55.208  -9.999  1.00  0.00     0.003 C 
HETATM    8  C29 UNL     1      -0.761  53.954  -9.893  1.00  0.00     0.005 C 
HETATM    9  C9  UNL     1       2.582  55.810 -10.949  1.00  0.00     0.010 C 
HETATM   10  C33 UNL     1       2.123  54.188  -8.976  1.00  0.00     0.072 C 
HETATM   11  C8  UNL     1       3.783  56.380 -10.198  1.00  0.00     0.035 C 
HETATM   12  C7  UNL     1       4.336  55.289  -9.320  1.00  0.00    -0.067 C 
HETATM   13  C2  UNL     1       3.383  54.765  -8.230  1.00  0.00    -0.009 C 
HETATM   14  C6  UNL     1       5.535  54.753  -9.608  1.00  0.00     0.053 C 
HETATM   15  C1  UNL     1       2.986  55.921  -7.274  1.00  0.00     0.021 C 
HETATM   16  C3  UNL     1       4.144  53.729  -7.347  1.00  0.00     0.022 C 
HETATM   17  C4  UNL     1       4.997  52.744  -8.129  1.00  0.00     0.084 C 
HETATM   18  C5  UNL     1       5.995  53.501  -8.964  1.00  0.00     0.149 C 
HETATM   19  O1  UNL     1       7.121  53.074  -9.202  1.00  0.00    -0.293 OA
HETATM   20  C32 UNL     1       1.001  53.738  -8.028  1.00  0.00     0.133 C 
HETATM   21  C31 UNL     1      -0.428  54.083  -8.397  1.00  0.00     0.091 C 
HETATM   22  O9  UNL     1       1.214  53.152  -6.968  1.00  0.00    -0.297 OA
HETATM   23  C30 UNL     1      -2.095  54.709 -10.127  1.00  0.00     0.019 C 
BRANCH   3  24
HETATM   24  O2  UNL     1       0.187  51.698  -9.786  1.00  0.00    -0.381 OA
HETATM   25  H19 UNL     1       0.297  50.871 -10.295  1.00  0.00     0.211 HD
ENDBRANCH   3  24
ENDBRANCH   1   3
BRANCH   1  26
HETATM   26  C16 UNL     1      -2.941  51.370 -11.518  1.00  0.00     0.260 C 
BRANCH  26  27
HETATM   27  O4  UNL     1      -2.974  49.951 -11.684  1.00  0.00    -0.314 OA
BRANCH  27  28
HETATM   28  C17 UNL     1      -3.061  49.546 -12.984  1.00  0.00     0.259 C 
HETATM   29  O5  UNL     1      -3.553  48.487 -13.351  1.00  0.00    -0.265 OA
BRANCH  28  30
HETATM   30  C18 UNL     1      -2.455  50.599 -13.881  1.00  0.00     0.120 C 
BRANCH  30  31
HETATM   31  C19 UNL     1      -1.513  49.981 -14.905  1.00  0.00     0.112 C 
BRANCH  31  32
HETATM   32  C20 UNL     1      -1.791  50.467 -16.315  1.00  0.00     0.218 C 
HETATM   33  O6  UNL     1      -2.822  51.043 -16.647  1.00  0.00    -0.274 OA
HETATM   34  N1  UNL     1      -0.737  50.233 -17.173  1.00  0.00    -0.361 N 
HETATM   35  H26 UNL     1       0.152  49.941 -16.783  1.00  0.00     0.162 HD
BRANCH  34  36
HETATM   36  C21 UNL     1      -0.741  50.703 -18.546  1.00  0.00     0.127 C 
BRANCH  36  37
HETATM   37  C22 UNL     1      -0.331  52.174 -18.684  1.00  0.00     0.058 C 
BRANCH  37  38
HETATM   38  C23 UNL     1       0.040  52.567 -20.100  1.00  0.00    -0.054 A 
HETATM   39  C24 UNL     1      -0.571  51.928 -21.193  1.00  0.00     0.010 A 
HETATM   40  C25 UNL     1      -0.261  52.298 -22.505  1.00  0.00     0.040 A 
HETATM   41  C26 UNL     1       0.658  53.315 -22.721  1.00  0.00     0.098 A 
HETATM   42  C27 UNL     1       1.270  53.951 -21.644  1.00  0.00     0.099 A 
HETATM   43  C28 UNL     1       0.975  53.584 -20.339  1.00  0.00     0.046 A 
BRANCH  41  44
HETATM   44  O7  UNL     1       0.988  53.736 -23.978  1.00  0.00    -0.358 OA
HETATM   45  H33 UNL     1       0.490  53.200 -24.618  1.00  0.00     0.217 HD
ENDBRANCH  41  44
BRANCH  42  46
HETATM   46  O8  UNL     1       2.160  54.962 -21.868  1.00  0.00    -0.358 OA
HETATM   47  H34 UNL     1       2.229  55.009 -22.843  1.00  0.00     0.217 HD
ENDBRANCH  42  46
ENDBRANCH  37  38
ENDBRANCH  36  37
ENDBRANCH  34  36
ENDBRANCH  31  32
ENDBRANCH  30  31
ENDBRANCH  28  30
ENDBRANCH  27  28
ENDBRANCH  26  27
ENDBRANCH   1  26
TORSDOF 13
ENDMDL
MODEL 2
REMARK minimizedAffinity -8.19046783
REMARK CNNscore 0.781021476
REMARK CNNaffinity 6.677176
REMARK  13 active torsions:
REMARK  status: ('A' for Active; 'I' for Inactive)
REMARK    1  A    between atoms: C14_15  and  O2_16 
REMARK    2  A    between atoms: C14_15  and  C15_17 
REMARK    3  A    between atoms: C15_17  and  C16_19 
REMARK    4  A    between atoms: C16_19  and  O4_20 
REMARK    5  A    between atoms: O4_20  and  C17_21 
REMARK    6  A    between atoms: C17_21  and  C18_23 
REMARK    7  A    between atoms: C18_23  and  C19_24 
REMARK    8  A    between atoms: C19_24  and  C20_25 
REMARK       I    between atoms: C20_25  and  N1_27 
REMARK    9  A    between atoms: N1_27  and  C21_28 
REMARK   10  A    between atoms: C21_28  and  C22_29 
REMARK   11  A    between atoms: C22_29  and  C23_30 
REMARK   12  A    between atoms: C26_33  and  O7_34 
REMARK   13  A    between atoms: C27_35  and  O8_36 
ROOT
HETATM    1  C15 UNL     1       0.980  51.311 -10.721  1.00  0.00     0.185 C 
HETATM    2  O3  UNL     1       0.025  50.887 -10.064  1.00  0.00    -0.292 OA
ENDROOT
BRANCH   1   3
HETATM    3  C14 UNL     1       1.880  52.454 -10.195  1.00  0.00     0.128 C 
HETATM    4  C13 UNL     1       3.049  52.727 -11.150  1.00  0.00     0.047 C 
HETATM    5  C12 UNL     1       3.579  54.070 -10.667  1.00  0.00     0.009 C 
HETATM    6  C11 UNL     1       2.325  54.887 -10.308  1.00  0.00     0.002 C 
HETATM    7  C10 UNL     1       2.500  55.874  -9.130  1.00  0.00     0.003 C 
HETATM    8  C29 UNL     1       1.169  53.849 -10.102  1.00  0.00     0.005 C 
HETATM    9  C9  UNL     1       3.681  56.833  -9.381  1.00  0.00     0.010 C 
HETATM   10  C33 UNL     1       2.573  55.150  -7.746  1.00  0.00     0.072 C 
HETATM   11  C8  UNL     1       3.892  57.811  -8.227  1.00  0.00     0.035 C 
HETATM   12  C7  UNL     1       4.047  57.006  -6.964  1.00  0.00    -0.067 C 
HETATM   13  C2  UNL     1       2.828  56.156  -6.563  1.00  0.00    -0.009 C 
HETATM   14  C6  UNL     1       5.243  56.963  -6.351  1.00  0.00     0.053 C 
HETATM   15  C1  UNL     1       1.596  57.073  -6.334  1.00  0.00     0.021 C 
HETATM   16  C3  UNL     1       3.112  55.480  -5.187  1.00  0.00     0.022 C 
HETATM   17  C4  UNL     1       4.507  54.892  -5.053  1.00  0.00     0.084 C 
HETATM   18  C5  UNL     1       5.528  55.973  -5.286  1.00  0.00     0.149 C 
HETATM   19  O1  UNL     1       6.608  56.004  -4.703  1.00  0.00    -0.293 OA
HETATM   20  C32 UNL     1       1.301  54.306  -7.571  1.00  0.00     0.133 C 
HETATM   21  C31 UNL     1       0.416  54.088  -8.782  1.00  0.00     0.091 C 
HETATM   22  O9  UNL     1       0.950  53.839  -6.489  1.00  0.00    -0.297 OA
HETATM   23  C30 UNL     1       0.145  54.046 -11.250  1.00  0.00     0.019 C 
BRANCH   3  24
HETATM   24  O2  UNL     1       2.439  52.117  -8.925  1.00  0.00    -0.381 OA
HETATM   25  H19 UNL     1       3.084  51.395  -9.056  1.00  0.00     0.211 HD
ENDBRANCH   3  24
ENDBRANCH   1   3
BRANCH   1  26
HETATM   26  C16 UNL     1       1.370  50.685 -12.063  1.00  0.00     0.260 C 
BRANCH  26  27
HETATM   27  O4  UNL     1       0.448  50.995 -13.110  1.00  0.00    -0.314 OA
BRANCH  27  28
HETATM   28  C17 UNL     1       0.767  50.435 -14.314  1.00  0.00     0.259 C 
HETATM   29  O5  UNL     1       1.530  49.489 -14.459  1.00  0.00    -0.265 OA
BRANCH  28  30
HETATM   30  C18 UNL     1       0.039  51.165 -15.418  1.00  0.00     0.120 C 
BRANCH  30  31
HETATM   31  C19 UNL     1       1.004  51.951 -16.294  1.00  0.00     0.112 C 
BRANCH  31  32
HETATM   32  C20 UNL     1       0.598  51.941 -17.755  1.00  0.00     0.218 C 
HETATM   33  O6  UNL     1      -0.133  51.092 -18.255  1.00  0.00    -0.274 OA
HETATM   34  N1  UNL     1       1.103  53.019 -18.452  1.00  0.00    -0.361 N 
HETATM   35  H26 UNL     1       1.524  53.780 -17.932  1.00  0.00     0.162 HD
BRANCH  34  36
HETATM   36  C21 UNL     1       0.762  53.268 -19.841  1.00  0.00     0.127 C 
BRANCH  36  37
HETATM   37  C22 UNL     1       0.256  52.019 -20.574  1.00  0.00     0.058 C 
BRANCH  37  38
HETATM   38  C23 UNL     1      -0.220  52.298 -21.984  1.00  0.00    -0.054 A 
HETATM   39  C24 UNL     1      -1.533  51.968 -22.365  1.00  0.00     0.010 A 
HETATM   40  C25 UNL     1      -1.997  52.245 -23.655  1.00  0.00     0.040 A 
HETATM   41  C26 UNL     1      -1.146  52.860 -24.561  1.00  0.00     0.098 A 
HETATM   42  C27 UNL     1       0.156  53.188 -24.193  1.00  0.00     0.099 A 
HETATM   43  C28 UNL     1       0.628  52.909 -22.919  1.00  0.00     0.046 A 
BRANCH  41  44
HETATM   44  O7  UNL     1      -1.546  53.176 -25.829  1.00  0.00    -0.358 OA
HETATM   45  H33 UNL     1      -2.467  52.883 -25.938  1.00  0.00     0.217 HD
ENDBRANCH  41  44
BRANCH  42  46
HETATM   46  O8  UNL     1       0.979  53.809 -25.088  1.00  0.00    -0.358 OA
HETATM   47  H34 UNL     1       0.447  53.862 -25.907  1.00  0.00     0.217 HD
ENDBRANCH  42  46
ENDBRANCH  37  38
ENDBRANCH  36  37
ENDBRANCH  34  36
ENDBRANCH  31  32
ENDBRANCH  30  31
ENDBRANCH  28  30
ENDBRANCH  27  28
ENDBRANCH  26  27
ENDBRANCH   1  26
TORSDOF 13
ENDMDL
MODEL 3
REMARK minimizedAffinity -9.43162537
REMARK CNNscore 0.721115828
REMARK CNNaffinity 7.59316397
REMARK  13 active torsions:
REMARK  status: ('A' for Active; 'I' for Inactive)
REMARK    1  A    between atoms: C14_15  and  O2_16 
REMARK    2  A    between atoms: C14_15  and  C15_17 
REMARK    3  A    between atoms: C15_17  and  C16_19 
REMARK    4  A    between atoms: C16_19  and  O4_20 
REMARK    5  A    between atoms: O4_20  and  C17_21 
REMARK    6  A    between atoms: C17_21  and  C18_23 
REMARK    7  A    between atoms: C18_23  and  C19_24 
REMARK    8  A    between atoms: C19_24  and  C20_25 
REMARK       I    between atoms: C20_25  and  N1_27 
REMARK    9  A    between atoms: N1_27  and  C21_28 
REMARK   10  A    between atoms: C21_28  and  C22_29 
REMARK   11  A    between atoms: C22_29  and  C23_30 
REMARK   12  A    between atoms: C26_33  and  O7_34 
REMARK   13  A    between atoms: C27_35  and  O8_36 
ROOT
HETATM    1  C15 UNL     1      -1.968  48.427 -18.203  1.00  0.00     0.185 C 
HETATM    2  O3  UNL     1      -2.320  47.898 -17.144  1.00  0.00    -0.292 OA
ENDROOT
BRANCH   1   3
HETATM    3  C14 UNL     1      -2.672  48.103 -19.541  1.00  0.00     0.128 C 
HETATM    4  C13 UNL     1      -2.904  46.594 -19.698  1.00  0.00     0.047 C 
HETATM    5  C12 UNL     1      -3.895  46.518 -20.850  1.00  0.00     0.009 C 
HETATM    6  C11 UNL     1      -4.862  47.694 -20.622  1.00  0.00     0.002 C 
HETATM    7  C10 UNL     1      -5.418  48.344 -21.911  1.00  0.00     0.003 C 
HETATM    8  C29 UNL     1      -4.119  48.696 -19.674  1.00  0.00     0.005 C 
HETATM    9  C9  UNL     1      -6.095  47.294 -22.815  1.00  0.00     0.010 C 
HETATM   10  C33 UNL     1      -4.350  49.208 -22.657  1.00  0.00     0.072 C 
HETATM   11  C8  UNL     1      -6.641  47.901 -24.105  1.00  0.00     0.035 C 
HETATM   12  C7  UNL     1      -5.510  48.623 -24.788  1.00  0.00    -0.067 C 
HETATM   13  C2  UNL     1      -4.903  49.802 -24.005  1.00  0.00    -0.009 C 
HETATM   14  C6  UNL     1      -5.014  48.135 -25.939  1.00  0.00     0.053 C 
HETATM   15  C1  UNL     1      -5.993  50.875 -23.737  1.00  0.00     0.021 C 
HETATM   16  C3  UNL     1      -3.831  50.502 -24.894  1.00  0.00     0.022 C 
HETATM   17  C4  UNL     1      -2.910  49.548 -25.636  1.00  0.00     0.084 C 
HETATM   18  C5  UNL     1      -3.733  48.629 -26.497  1.00  0.00     0.149 C 
HETATM   19  O1  UNL     1      -3.342  48.208 -27.583  1.00  0.00    -0.293 OA
HETATM   20  C32 UNL     1      -3.824  50.276 -21.686  1.00  0.00     0.133 C 
HETATM   21  C31 UNL     1      -4.164  50.134 -20.216  1.00  0.00     0.091 C 
HETATM   22  O9  UNL     1      -3.179  51.257 -22.053  1.00  0.00    -0.297 OA
HETATM   23  C30 UNL     1      -4.862  48.700 -18.313  1.00  0.00     0.019 C 
BRANCH   3  24
HETATM   24  O2  UNL     1      -1.878  48.527 -20.649  1.00  0.00    -0.381 OA
HETATM   25  H19 UNL     1      -1.085  47.958 -20.693  1.00  0.00     0.211 HD
ENDBRANCH   3  24
ENDBRANCH   1   3
BRANCH   1  26
HETATM   26  C16 UNL     1      -0.859  49.482 -18.241  1.00  0.00     0.260 C 
BRANCH  26  27
HETATM   27  O4  UNL     1      -0.640  50.106 -16.974  1.00  0.00    -0.314 OA
BRANCH  27  28
HETATM   28  C17 UNL     1       0.072  51.268 -17.044  1.00  0.00     0.259 C 
HETATM   29  O5  UNL     1       0.644  51.790 -16.097  1.00  0.00    -0.265 OA
BRANCH  28  30
HETATM   30  C18 UNL     1       0.035  51.797 -18.458  1.00  0.00     0.120 C 
BRANCH  30  31
HETATM   31  C19 UNL     1       1.122  52.837 -18.691  1.00  0.00     0.112 C 
BRANCH  31  32
HETATM   32  C20 UNL     1       1.140  53.346 -20.120  1.00  0.00     0.218 C 
HETATM   33  O6  UNL     1       1.359  54.513 -20.425  1.00  0.00    -0.274 OA
HETATM   34  N1  UNL     1       0.928  52.342 -21.042  1.00  0.00    -0.361 N 
HETATM   35  H26 UNL     1       0.959  51.379 -20.728  1.00  0.00     0.162 HD
BRANCH  34  36
HETATM   36  C21 UNL     1       1.001  52.581 -22.472  1.00  0.00     0.127 C 
BRANCH  36  37
HETATM   37  C22 UNL     1      -0.135  51.913 -23.256  1.00  0.00     0.058 C 
BRANCH  37  38
HETATM   38  C23 UNL     1      -0.063  52.158 -24.749  1.00  0.00    -0.054 A 
HETATM   39  C24 UNL     1       1.103  51.831 -25.462  1.00  0.00     0.010 A 
HETATM   40  C25 UNL     1       1.176  52.024 -26.846  1.00  0.00     0.040 A 
HETATM   41  C26 UNL     1       0.076  52.540 -27.515  1.00  0.00     0.098 A 
HETATM   42  C27 UNL     1      -1.082  52.869 -26.816  1.00  0.00     0.099 A 
HETATM   43  C28 UNL     1      -1.161  52.689 -25.442  1.00  0.00     0.046 A 
BRANCH  41  44
HETATM   44  O7  UNL     1       0.077  52.733 -28.868  1.00  0.00    -0.358 OA
HETATM   45  H33 UNL     1       0.946  52.466 -29.211  1.00  0.00     0.217 HD
ENDBRANCH  41  44
BRANCH  42  46
HETATM   46  O8  UNL     1      -2.166  53.359 -27.487  1.00  0.00    -0.358 OA
HETATM   47  H34 UNL     1      -1.861  53.430 -28.413  1.00  0.00     0.217 HD
ENDBRANCH  42  46
ENDBRANCH  37  38
ENDBRANCH  36  37
ENDBRANCH  34  36
ENDBRANCH  31  32
ENDBRANCH  30  31
ENDBRANCH  28  30
ENDBRANCH  27  28
ENDBRANCH  26  27
ENDBRANCH   1  26
TORSDOF 13
ENDMDL
MODEL 4
REMARK minimizedAffinity -9.05604935
REMARK CNNscore 0.594117105
REMARK CNNaffinity 6.68702364
REMARK  13 active torsions:
REMARK  status: ('A' for Active; 'I' for Inactive)
REMARK    1  A    between atoms: C14_15  and  O2_16 
REMARK    2  A    between atoms: C14_15  and  C15_17 
REMARK    3  A    between atoms: C15_17  and  C16_19 
REMARK    4  A    between atoms: C16_19  and  O4_20 
REMARK    5  A    between atoms: O4_20  and  C17_21 
REMARK    6  A    between atoms: C17_21  and  C18_23 
REMARK    7  A    between atoms: C18_23  and  C19_24 
REMARK    8  A    between atoms: C19_24  and  C20_25 
REMARK       I    between atoms: C20_25  and  N1_27 
REMARK    9  A    between atoms: N1_27  and  C21_28 
REMARK   10  A    between atoms: C21_28  and  C22_29 
REMARK   11  A    between atoms: C22_29  and  C23_30 
REMARK   12  A    between atoms: C26_33  and  O7_34 
REMARK   13  A    between atoms: C27_35  and  O8_36 
ROOT
HETATM    1  C15 UNL     1      -6.152  49.349 -23.946  1.00  0.00     0.185 C 
HETATM    2  O3  UNL     1      -7.126  49.577 -23.223  1.00  0.00    -0.292 OA
ENDROOT
BRANCH   1   3
HETATM    3  C14 UNL     1      -4.911  50.272 -23.945  1.00  0.00     0.128 C 
HETATM    4  C13 UNL     1      -4.945  51.249 -22.761  1.00  0.00     0.047 C 
HETATM    5  C12 UNL     1      -3.523  51.791 -22.725  1.00  0.00     0.009 C 
HETATM    6  C11 UNL     1      -2.626  50.581 -23.041  1.00  0.00     0.002 C 
HETATM    7  C10 UNL     1      -1.334  50.909 -23.825  1.00  0.00     0.003 C 
HETATM    8  C29 UNL     1      -3.546  49.525 -23.744  1.00  0.00     0.005 C 
HETATM    9  C9  UNL     1      -0.502  51.986 -23.098  1.00  0.00     0.010 C 
HETATM   10  C33 UNL     1      -1.612  51.249 -25.326  1.00  0.00     0.072 C 
HETATM   11  C8  UNL     1       0.774  52.346 -23.855  1.00  0.00     0.035 C 
HETATM   12  C7  UNL     1       0.382  52.750 -25.252  1.00  0.00    -0.067 C 
HETATM   13  C2  UNL     1      -0.300  51.656 -26.095  1.00  0.00    -0.009 C 
HETATM   14  C6  UNL     1       0.514  54.033 -25.630  1.00  0.00     0.053 C 
HETATM   15  C1  UNL     1       0.653  50.441 -26.255  1.00  0.00     0.021 C 
HETATM   16  C3  UNL     1      -0.537  52.201 -27.536  1.00  0.00     0.022 C 
HETATM   17  C4  UNL     1      -1.068  53.623 -27.591  1.00  0.00     0.084 C 
HETATM   18  C5  UNL     1      -0.114  54.540 -26.872  1.00  0.00     0.149 C 
HETATM   19  O1  UNL     1       0.081  55.701 -27.222  1.00  0.00    -0.293 OA
HETATM   20  C32 UNL     1      -2.355  50.065 -25.963  1.00  0.00     0.133 C 
HETATM   21  C31 UNL     1      -2.918  48.998 -25.045  1.00  0.00     0.091 C 
HETATM   22  O9  UNL     1      -2.474  49.925 -27.178  1.00  0.00    -0.297 OA
HETATM   23  C30 UNL     1      -3.693  48.313 -22.788  1.00  0.00     0.019 C 
BRANCH   3  24
HETATM   24  O2  UNL     1      -4.857  51.054 -25.138  1.00  0.00    -0.381 OA
HETATM   25  H19 UNL     1      -5.591  51.699 -25.115  1.00  0.00     0.211 HD
ENDBRANCH   3  24
ENDBRANCH   1   3
BRANCH   1  26
HETATM   26  C16 UNL     1      -6.089  48.105 -24.837  1.00  0.00     0.260 C 
BRANCH  26  27
HETATM   27  O4  UNL     1      -7.381  47.609 -25.193  1.00  0.00    -0.314 OA
BRANCH  27  28
HETATM   28  C17 UNL     1      -7.923  46.761 -24.271  1.00  0.00     0.259 C 
HETATM   29  O5  UNL     1      -7.274  46.055 -23.511  1.00  0.00    -0.265 OA
BRANCH  28  30
HETATM   30  C18 UNL     1      -9.430  46.832 -24.346  1.00  0.00     0.120 C 
BRANCH  30  31
HETATM   31  C19 UNL     1     -10.051  45.442 -24.364  1.00  0.00     0.112 C 
BRANCH  31  32
HETATM   32  C20 UNL     1     -11.424  45.430 -25.008  1.00  0.00     0.218 C 
HETATM   33  O6  UNL     1     -11.981  44.414 -25.409  1.00  0.00    -0.274 OA
HETATM   34  N1  UNL     1     -11.999  46.683 -25.050  1.00  0.00    -0.361 N 
HETATM   35  H26 UNL     1     -11.571  47.433 -24.520  1.00  0.00     0.162 HD
BRANCH  34  36
HETATM   36  C21 UNL     1     -13.352  46.895 -25.533  1.00  0.00     0.127 C 
BRANCH  36  37
HETATM   37  C22 UNL     1     -14.418  46.708 -24.446  1.00  0.00     0.058 C 
BRANCH  37  38
HETATM   38  C23 UNL     1     -15.782  46.341 -24.995  1.00  0.00    -0.054 A 
HETATM   39  C24 UNL     1     -15.910  45.292 -25.922  1.00  0.00     0.010 A 
HETATM   40  C25 UNL     1     -17.164  44.921 -26.417  1.00  0.00     0.040 A 
HETATM   41  C26 UNL     1     -18.292  45.599 -25.977  1.00  0.00     0.098 A 
HETATM   42  C27 UNL     1     -18.173  46.641 -25.061  1.00  0.00     0.099 A 
HETATM   43  C28 UNL     1     -16.932  47.022 -24.571  1.00  0.00     0.046 A 
BRANCH  41  44
HETATM   44  O7  UNL     1     -19.547  45.272 -26.407  1.00  0.00    -0.358 OA
HETATM   45  H33 UNL     1     -19.468  44.538 -27.040  1.00  0.00     0.217 HD
ENDBRANCH  41  44
BRANCH  42  46
HETATM   46  O8  UNL     1     -19.291  47.290 -24.621  1.00  0.00    -0.358 OA
HETATM   47  H34 UNL     1     -20.021  46.879 -25.126  1.00  0.00     0.217 HD
ENDBRANCH  42  46
ENDBRANCH  37  38
ENDBRANCH  36  37
ENDBRANCH  34  36
ENDBRANCH  31  32
ENDBRANCH  30  31
ENDBRANCH  28  30
ENDBRANCH  27  28
ENDBRANCH  26  27
ENDBRANCH   1  26
TORSDOF 13
ENDMDL
MODEL 5
REMARK minimizedAffinity -8.20616817
REMARK CNNscore 0.476384521
REMARK CNNaffinity 7.05681372
REMARK  13 active torsions:
REMARK  status: ('A' for Active; 'I' for Inactive)
REMARK    1  A    between atoms: C14_15  and  O2_16 
REMARK    2  A    between atoms: C14_15  and  C15_17 
REMARK    3  A    between atoms: C15_17  and  C16_19 
REMARK    4  A    between atoms: C16_19  and  O4_20 
REMARK    5  A    between atoms: O4_20  and  C17_21 
REMARK    6  A    between atoms: C17_21  and  C18_23 
REMARK    7  A    between atoms: C18_23  and  C19_24 
REMARK    8  A    between atoms: C19_24  and  C20_25 
REMARK       I    between atoms: C20_25  and  N1_27 
REMARK    9  A    between atoms: N1_27  and  C21_28 
REMARK   10  A    between atoms: C21_28  and  C22_29 
REMARK   11  A    between atoms: C22_29  and  C23_30 
REMARK   12  A    between atoms: C26_33  and  O7_34 
REMARK   13  A    between atoms: C27_35  and  O8_36 
ROOT
HETATM    1  C15 UNL     1      -3.110  51.186 -13.116  1.00  0.00     0.185 C 
HETATM    2  O3  UNL     1      -3.774  50.206 -12.765  1.00  0.00    -0.292 OA
ENDROOT
BRANCH   1   3
HETATM    3  C14 UNL     1      -2.398  52.092 -12.084  1.00  0.00     0.128 C 
HETATM    4  C13 UNL     1      -3.312  53.234 -11.619  1.00  0.00     0.047 C 
HETATM    5  C12 UNL     1      -2.595  53.766 -10.388  1.00  0.00     0.009 C 
HETATM    6  C11 UNL     1      -2.054  52.517  -9.669  1.00  0.00     0.002 C 
HETATM    7  C10 UNL     1      -0.713  52.717  -8.924  1.00  0.00     0.003 C 
HETATM    8  C29 UNL     1      -2.022  51.374 -10.741  1.00  0.00     0.005 C 
HETATM    9  C9  UNL     1      -0.806  53.885  -7.920  1.00  0.00     0.010 C 
HETATM   10  C33 UNL     1       0.504  52.832  -9.898  1.00  0.00     0.072 C 
HETATM   11  C8  UNL     1       0.508  54.120  -7.178  1.00  0.00     0.035 C 
HETATM   12  C7  UNL     1       1.589  54.315  -8.209  1.00  0.00    -0.067 C 
HETATM   13  C2  UNL     1       1.851  53.112  -9.134  1.00  0.00    -0.009 C 
HETATM   14  C6  UNL     1       2.153  55.527  -8.354  1.00  0.00     0.053 C 
HETATM   15  C1  UNL     1       2.282  51.881  -8.292  1.00  0.00     0.021 C 
HETATM   16  C3  UNL     1       3.064  53.438 -10.057  1.00  0.00     0.022 C 
HETATM   17  C4  UNL     1       3.048  54.840 -10.643  1.00  0.00     0.084 C 
HETATM   18  C5  UNL     1       3.000  55.847  -9.526  1.00  0.00     0.149 C 
HETATM   19  O1  UNL     1       3.552  56.942  -9.595  1.00  0.00    -0.293 OA
HETATM   20  C32 UNL     1       0.546  51.572 -10.775  1.00  0.00     0.133 C 
HETATM   21  C31 UNL     1      -0.662  50.656 -10.767  1.00  0.00     0.091 C 
HETATM   22  O9  UNL     1       1.527  51.253 -11.444  1.00  0.00    -0.297 OA
HETATM   23  C30 UNL     1      -3.084  50.318 -10.340  1.00  0.00     0.019 C 
BRANCH   3  24
HETATM   24  O2  UNL     1      -1.230  52.687 -12.651  1.00  0.00    -0.381 OA
HETATM   25  H19 UNL     1      -1.514  53.333 -13.327  1.00  0.00     0.211 HD
ENDBRANCH   3  24
ENDBRANCH   1   3
BRANCH   1  26
HETATM   26  C16 UNL     1      -2.901  51.523 -14.595  1.00  0.00     0.260 C 
BRANCH  26  27
HETATM   27  O4  UNL     1      -2.257  50.473 -15.320  1.00  0.00    -0.314 OA
BRANCH  27  28
HETATM   28  C17 UNL     1      -0.965  50.747 -15.663  1.00  0.00     0.259 C 
HETATM   29  O5  UNL     1      -0.094  51.088 -14.874  1.00  0.00    -0.265 OA
BRANCH  28  30
HETATM   30  C18 UNL     1      -0.791  50.569 -17.153  1.00  0.00     0.120 C 
BRANCH  30  31
HETATM   31  C19 UNL     1       0.288  51.493 -17.701  1.00  0.00     0.112 C 
BRANCH  31  32
HETATM   32  C20 UNL     1      -0.178  52.270 -18.916  1.00  0.00     0.218 C 
HETATM   33  O6  UNL     1      -0.231  53.495 -18.964  1.00  0.00    -0.274 OA
HETATM   34  N1  UNL     1      -0.493  51.451 -19.980  1.00  0.00    -0.361 N 
HETATM   35  H26 UNL     1      -0.232  50.472 -19.934  1.00  0.00     0.162 HD
BRANCH  34  36
HETATM   36  C21 UNL     1      -0.867  51.982 -21.278  1.00  0.00     0.127 C 
BRANCH  36  37
HETATM   37  C22 UNL     1       0.334  52.235 -22.198  1.00  0.00     0.058 C 
BRANCH  37  38
HETATM   38  C23 UNL     1      -0.033  52.296 -23.666  1.00  0.00    -0.054 A 
HETATM   39  C24 UNL     1      -0.732  51.233 -24.264  1.00  0.00     0.010 A 
HETATM   40  C25 UNL     1      -1.104  51.287 -25.612  1.00  0.00     0.040 A 
HETATM   41  C26 UNL     1      -0.779  52.410 -26.358  1.00  0.00     0.098 A 
HETATM   42  C27 UNL     1      -0.085  53.466 -25.774  1.00  0.00     0.099 A 
HETATM   43  C28 UNL     1       0.296  53.418 -24.441  1.00  0.00     0.046 A 
BRANCH  41  44
HETATM   44  O7  UNL     1      -1.131  52.532 -27.673  1.00  0.00    -0.358 OA
HETATM   45  H33 UNL     1      -1.600  51.722 -27.937  1.00  0.00     0.217 HD
ENDBRANCH  41  44
BRANCH  42  46
HETATM   46  O8  UNL     1       0.214  54.574 -26.514  1.00  0.00    -0.358 OA
HETATM   47  H34 UNL     1      -0.114  54.361 -27.409  1.00  0.00     0.217 HD
ENDBRANCH  42  46
ENDBRANCH  37  38
ENDBRANCH  36  37
ENDBRANCH  34  36
ENDBRANCH  31  32
ENDBRANCH  30  31
ENDBRANCH  28  30
ENDBRANCH  27  28
ENDBRANCH  26  27
ENDBRANCH   1  26
TORSDOF 13
ENDMDL
MODEL 6
REMARK minimizedAffinity -9.16972351
REMARK CNNscore 0.456649691
REMARK CNNaffinity 6.76705599
REMARK  13 active torsions:
REMARK  status: ('A' for Active; 'I' for Inactive)
REMARK    1  A    between atoms: C14_15  and  O2_16 
REMARK    2  A    between atoms: C14_15  and  C15_17 
REMARK    3  A    between atoms: C15_17  and  C16_19 
REMARK    4  A    between atoms: C16_19  and  O4_20 
REMARK    5  A    between atoms: O4_20  and  C17_21 
REMARK    6  A    between atoms: C17_21  and  C18_23 
REMARK    7  A    between atoms: C18_23  and  C19_24 
REMARK    8  A    between atoms: C19_24  and  C20_25 
REMARK       I    between atoms: C20_25  and  N1_27 
REMARK    9  A    between atoms: N1_27  and  C21_28 
REMARK   10  A    between atoms: C21_28  and  C22_29 
REMARK   11  A    between atoms: C22_29  and  C23_30 
REMARK   12  A    between atoms: C26_33  and  O7_34 
REMARK   13  A    between atoms: C27_35  and  O8_36 
ROOT
HETATM    1  C15 UNL     1      -6.005  48.969 -23.585  1.00  0.00     0.185 C 
HETATM    2  O3  UNL     1      -6.218  48.330 -22.550  1.00  0.00    -0.292 OA
ENDROOT
BRANCH   1   3
HETATM    3  C14 UNL     1      -4.822  49.958 -23.696  1.00  0.00     0.128 C 
HETATM    4  C13 UNL     1      -4.845  50.984 -22.555  1.00  0.00     0.047 C 
HETATM    5  C12 UNL     1      -3.458  51.606 -22.626  1.00  0.00     0.009 C 
HETATM    6  C11 UNL     1      -2.512  50.435 -22.943  1.00  0.00     0.002 C 
HETATM    7  C10 UNL     1      -1.287  50.799 -23.816  1.00  0.00     0.003 C 
HETATM    8  C29 UNL     1      -3.407  49.298 -23.546  1.00  0.00     0.005 C 
HETATM    9  C9  UNL     1      -0.480  51.952 -23.185  1.00  0.00     0.010 C 
HETATM   10  C33 UNL     1      -1.669  51.054 -25.311  1.00  0.00     0.072 C 
HETATM   11  C8  UNL     1       0.728  52.348 -24.032  1.00  0.00     0.035 C 
HETATM   12  C7  UNL     1       0.234  52.665 -25.418  1.00  0.00    -0.067 C 
HETATM   13  C2  UNL     1      -0.430  51.498 -26.172  1.00  0.00    -0.009 C 
HETATM   14  C6  UNL     1       0.270  53.936 -25.858  1.00  0.00     0.053 C 
HETATM   15  C1  UNL     1       0.582  50.332 -26.337  1.00  0.00     0.021 C 
HETATM   16  C3  UNL     1      -0.779  51.963 -27.619  1.00  0.00     0.022 C 
HETATM   17  C4  UNL     1      -1.395  53.349 -27.702  1.00  0.00     0.084 C 
HETATM   18  C5  UNL     1      -0.457  54.349 -27.080  1.00  0.00     0.149 C 
HETATM   19  O1  UNL     1      -0.350  55.503 -27.489  1.00  0.00    -0.293 OA
HETATM   20  C32 UNL     1      -2.377  49.803 -25.852  1.00  0.00     0.133 C 
HETATM   21  C31 UNL     1      -2.824  48.749 -24.859  1.00  0.00     0.091 C 
HETATM   22  O9  UNL     1      -2.557  49.601 -27.051  1.00  0.00    -0.297 OA
HETATM   23  C30 UNL     1      -3.428  48.125 -22.533  1.00  0.00     0.019 C 
BRANCH   3  24
HETATM   24  O2  UNL     1      -4.882  50.687 -24.923  1.00  0.00    -0.381 OA
HETATM   25  H19 UNL     1      -5.649  51.291 -24.883  1.00  0.00     0.211 HD
ENDBRANCH   3  24
ENDBRANCH   1   3
BRANCH   1  26
HETATM   26  C16 UNL     1      -6.860  48.768 -24.839  1.00  0.00     0.260 C 
BRANCH  26  27
HETATM   27  O4  UNL     1      -8.256  48.962 -24.599  1.00  0.00    -0.314 OA
BRANCH  27  28
HETATM   28  C17 UNL     1      -9.045  48.720 -25.686  1.00  0.00     0.259 C 
HETATM   29  O5  UNL     1     -10.217  49.058 -25.783  1.00  0.00    -0.265 OA
BRANCH  28  30
HETATM   30  C18 UNL     1      -8.249  47.974 -26.731  1.00  0.00     0.120 C 
BRANCH  30  31
HETATM   31  C19 UNL     1      -8.568  48.472 -28.133  1.00  0.00     0.112 C 
BRANCH  31  32
HETATM   32  C20 UNL     1      -9.590  47.600 -28.838  1.00  0.00     0.218 C 
HETATM   33  O6  UNL     1      -9.301  46.606 -29.495  1.00  0.00    -0.274 OA
HETATM   34  N1  UNL     1     -10.885  48.023 -28.621  1.00  0.00    -0.361 N 
HETATM   35  H26 UNL     1     -11.056  48.723 -27.908  1.00  0.00     0.162 HD
BRANCH  34  36
HETATM   36  C21 UNL     1     -12.031  47.282 -29.117  1.00  0.00     0.127 C 
BRANCH  36  37
HETATM   37  C22 UNL     1     -12.228  45.932 -28.416  1.00  0.00     0.058 C 
BRANCH  37  38
HETATM   38  C23 UNL     1     -13.641  45.711 -27.917  1.00  0.00    -0.054 A 
HETATM   39  C24 UNL     1     -14.017  46.163 -26.640  1.00  0.00     0.010 A 
HETATM   40  C25 UNL     1     -15.325  45.993 -26.175  1.00  0.00     0.040 A 
HETATM   41  C26 UNL     1     -16.258  45.376 -26.994  1.00  0.00     0.098 A 
HETATM   42  C27 UNL     1     -15.894  44.924 -28.260  1.00  0.00     0.099 A 
HETATM   43  C28 UNL     1     -14.596  45.080 -28.726  1.00  0.00     0.046 A 
BRANCH  41  44
HETATM   44  O7  UNL     1     -17.557  45.199 -26.607  1.00  0.00    -0.358 OA
HETATM   45  H33 UNL     1     -17.656  45.557 -25.708  1.00  0.00     0.217 HD
ENDBRANCH  41  44
BRANCH  42  46
HETATM   46  O8  UNL     1     -16.825  44.333 -29.065  1.00  0.00    -0.358 OA
HETATM   47  H34 UNL     1     -17.633  44.303 -28.515  1.00  0.00     0.217 HD
ENDBRANCH  42  46
ENDBRANCH  37  38
ENDBRANCH  36  37
ENDBRANCH  34  36
ENDBRANCH  31  32
ENDBRANCH  30  31
ENDBRANCH  28  30
ENDBRANCH  27  28
ENDBRANCH  26  27
ENDBRANCH   1  26
TORSDOF 13
ENDMDL
MODEL 7
REMARK minimizedAffinity -9.83602428
REMARK CNNscore 0.392408401
REMARK CNNaffinity 7.092556
REMARK  13 active torsions:
REMARK  status: ('A' for Active; 'I' for Inactive)
REMARK    1  A    between atoms: C14_15  and  O2_16 
REMARK    2  A    between atoms: C14_15  and  C15_17 
REMARK    3  A    between atoms: C15_17  and  C16_19 
REMARK    4  A    between atoms: C16_19  and  O4_20 
REMARK    5  A    between atoms: O4_20  and  C17_21 
REMARK    6  A    between atoms: C17_21  and  C18_23 
REMARK    7  A    between atoms: C18_23  and  C19_24 
REMARK    8  A    between atoms: C19_24  and  C20_25 
REMARK       I    between atoms: C20_25  and  N1_27 
REMARK    9  A    between atoms: N1_27  and  C21_28 
REMARK   10  A    between atoms: C21_28  and  C22_29 
REMARK   11  A    between atoms: C22_29  and  C23_30 
REMARK   12  A    between atoms: C26_33  and  O7_34 
REMARK   13  A    between atoms: C27_35  and  O8_36 
ROOT
HETATM    1  C15 UNL     1      -5.996  49.149 -23.764  1.00  0.00     0.185 C 
HETATM    2  O3  UNL     1      -6.219  48.327 -24.659  1.00  0.00    -0.292 OA
ENDROOT
BRANCH   1   3
HETATM    3  C14 UNL     1      -4.795  50.121 -23.841  1.00  0.00     0.128 C 
HETATM    4  C13 UNL     1      -4.820  51.128 -22.683  1.00  0.00     0.047 C 
HETATM    5  C12 UNL     1      -3.422  51.728 -22.722  1.00  0.00     0.009 C 
HETATM    6  C11 UNL     1      -2.489  50.547 -23.045  1.00  0.00     0.002 C 
HETATM    7  C10 UNL     1      -1.246  50.905 -23.894  1.00  0.00     0.003 C 
HETATM    8  C29 UNL     1      -3.393  49.435 -23.681  1.00  0.00     0.005 C 
HETATM    9  C9  UNL     1      -0.430  52.034 -23.231  1.00  0.00     0.010 C 
HETATM   10  C33 UNL     1      -1.601  51.192 -25.389  1.00  0.00     0.072 C 
HETATM   11  C8  UNL     1       0.797  52.425 -24.053  1.00  0.00     0.035 C 
HETATM   12  C7  UNL     1       0.329  52.774 -25.441  1.00  0.00    -0.067 C 
HETATM   13  C2  UNL     1      -0.342  51.631 -26.225  1.00  0.00    -0.009 C 
HETATM   14  C6  UNL     1       0.392  54.051 -25.858  1.00  0.00     0.053 C 
HETATM   15  C1  UNL     1       0.654  50.452 -26.395  1.00  0.00     0.021 C 
HETATM   16  C3  UNL     1      -0.662  52.125 -27.668  1.00  0.00     0.022 C 
HETATM   17  C4  UNL     1      -1.254  53.523 -27.736  1.00  0.00     0.084 C 
HETATM   18  C5  UNL     1      -0.310  54.497 -27.084  1.00  0.00     0.149 C 
HETATM   19  O1  UNL     1      -0.178  55.655 -27.471  1.00  0.00    -0.293 OA
HETATM   20  C32 UNL     1      -2.321  49.962 -25.962  1.00  0.00     0.133 C 
HETATM   21  C31 UNL     1      -2.799  48.898 -24.994  1.00  0.00     0.091 C 
HETATM   22  O9  UNL     1      -2.486  49.783 -27.168  1.00  0.00    -0.297 OA
HETATM   23  C30 UNL     1      -3.449  48.245 -22.688  1.00  0.00     0.019 C 
BRANCH   3  24
HETATM   24  O2  UNL     1      -4.825  50.871 -25.055  1.00  0.00    -0.381 OA
HETATM   25  H19 UNL     1      -5.583  51.486 -25.017  1.00  0.00     0.211 HD
ENDBRANCH   3  24
ENDBRANCH   1   3
BRANCH   1  26
HETATM   26  C16 UNL     1      -6.932  49.297 -22.562  1.00  0.00     0.260 C 
BRANCH  26  27
HETATM   27  O4  UNL     1      -6.570  48.453 -21.467  1.00  0.00    -0.314 OA
BRANCH  27  28
HETATM   28  C17 UNL     1      -6.811  49.002 -20.240  1.00  0.00     0.259 C 
HETATM   29  O5  UNL     1      -7.926  49.229 -19.788  1.00  0.00    -0.265 OA
BRANCH  28  30
HETATM   30  C18 UNL     1      -5.500  49.282 -19.547  1.00  0.00     0.120 C 
BRANCH  30  31
HETATM   31  C19 UNL     1      -5.268  48.323 -18.387  1.00  0.00     0.112 C 
BRANCH  31  32
HETATM   32  C20 UNL     1      -3.811  48.263 -17.969  1.00  0.00     0.218 C 
HETATM   33  O6  UNL     1      -2.994  47.486 -18.452  1.00  0.00    -0.274 OA
HETATM   34  N1  UNL     1      -3.494  49.209 -17.017  1.00  0.00    -0.361 N 
HETATM   35  H26 UNL     1      -4.165  49.943 -16.818  1.00  0.00     0.162 HD
BRANCH  34  36
HETATM   36  C21 UNL     1      -2.136  49.400 -16.542  1.00  0.00     0.127 C 
BRANCH  36  37
HETATM   37  C22 UNL     1      -1.077  49.173 -17.627  1.00  0.00     0.058 C 
BRANCH  37  38
HETATM   38  C23 UNL     1      -0.430  50.452 -18.116  1.00  0.00    -0.054 A 
HETATM   39  C24 UNL     1      -0.577  50.851 -19.456  1.00  0.00     0.010 A 
HETATM   40  C25 UNL     1      -0.010  52.044 -19.917  1.00  0.00     0.040 A 
HETATM   41  C26 UNL     1       0.700  52.840 -19.031  1.00  0.00     0.098 A 
HETATM   42  C27 UNL     1       0.853  52.452 -17.702  1.00  0.00     0.099 A 
HETATM   43  C28 UNL     1       0.302  51.266 -17.239  1.00  0.00     0.046 A 
BRANCH  41  44
HETATM   44  O7  UNL     1       1.260  54.026 -19.413  1.00  0.00    -0.358 OA
HETATM   45  H33 UNL     1       1.075  54.157 -20.359  1.00  0.00     0.217 HD
ENDBRANCH  41  44
BRANCH  42  46
HETATM   46  O8  UNL     1       1.539  53.252 -16.835  1.00  0.00    -0.358 OA
HETATM   47  H34 UNL     1       1.856  53.992 -17.390  1.00  0.00     0.217 HD
ENDBRANCH  42  46
ENDBRANCH  37  38
ENDBRANCH  36  37
ENDBRANCH  34  36
ENDBRANCH  31  32
ENDBRANCH  30  31
ENDBRANCH  28  30
ENDBRANCH  27  28
ENDBRANCH  26  27
ENDBRANCH   1  26
TORSDOF 13
ENDMDL
MODEL 8
REMARK minimizedAffinity -9.47132111
REMARK CNNscore 0.38637501
REMARK CNNaffinity 6.25326157
REMARK  13 active torsions:
REMARK  status: ('A' for Active; 'I' for Inactive)
REMARK    1  A    between atoms: C14_15  and  O2_16 
REMARK    2  A    between atoms: C14_15  and  C15_17 
REMARK    3  A    between atoms: C15_17  and  C16_19 
REMARK    4  A    between atoms: C16_19  and  O4_20 
REMARK    5  A    between atoms: O4_20  and  C17_21 
REMARK    6  A    between atoms: C17_21  and  C18_23 
REMARK    7  A    between atoms: C18_23  and  C19_24 
REMARK    8  A    between atoms: C19_24  and  C20_25 
REMARK       I    between atoms: C20_25  and  N1_27 
REMARK    9  A    between atoms: N1_27  and  C21_28 
REMARK   10  A    between atoms: C21_28  and  C22_29 
REMARK   11  A    between atoms: C22_29  and  C23_30 
REMARK   12  A    between atoms: C26_33  and  O7_34 
REMARK   13  A    between atoms: C27_35  and  O8_36 
ROOT
HETATM    1  C15 UNL     1      -5.616  48.370 -31.076  1.00  0.00     0.185 C 
HETATM    2  O3  UNL     1      -5.114  48.159 -32.184  1.00  0.00    -0.292 OA
ENDROOT
BRANCH   1   3
HETATM    3  C14 UNL     1      -7.065  47.940 -30.750  1.00  0.00     0.128 C 
HETATM    4  C13 UNL     1      -8.037  48.374 -31.856  1.00  0.00     0.047 C 
HETATM    5  C12 UNL     1      -9.291  47.570 -31.545  1.00  0.00     0.009 C 
HETATM    6  C11 UNL     1      -8.778  46.187 -31.104  1.00  0.00     0.002 C 
HETATM    7  C10 UNL     1      -9.641  45.477 -30.034  1.00  0.00     0.003 C 
HETATM    8  C29 UNL     1      -7.282  46.388 -30.683  1.00  0.00     0.005 C 
HETATM    9  C9  UNL     1     -11.108  45.355 -30.497  1.00  0.00     0.010 C 
HETATM   10  C33 UNL     1      -9.490  46.120 -28.617  1.00  0.00     0.072 C 
HETATM   11  C8  UNL     1     -11.992  44.673 -29.455  1.00  0.00     0.035 C 
HETATM   12  C7  UNL     1     -11.845  45.429 -28.162  1.00  0.00    -0.067 C 
HETATM   13  C2  UNL     1     -10.431  45.440 -27.554  1.00  0.00    -0.009 C 
HETATM   14  C6  UNL     1     -12.883  46.144 -27.693  1.00  0.00     0.053 C 
HETATM   15  C1  UNL     1      -9.974  43.987 -27.252  1.00  0.00     0.021 C 
HETATM   16  C3  UNL     1     -10.478  46.163 -26.173  1.00  0.00     0.022 C 
HETATM   17  C4  UNL     1     -11.304  47.438 -26.160  1.00  0.00     0.084 C 
HETATM   18  C5  UNL     1     -12.710  47.125 -26.596  1.00  0.00     0.149 C 
HETATM   19  O1  UNL     1     -13.691  47.714 -26.149  1.00  0.00    -0.293 OA
HETATM   20  C32 UNL     1      -8.005  46.095 -28.228  1.00  0.00     0.133 C 
HETATM   21  C31 UNL     1      -6.989  45.769 -29.305  1.00  0.00     0.091 C 
HETATM   22  O9  UNL     1      -7.609  46.285 -27.079  1.00  0.00    -0.297 OA
HETATM   23  C30 UNL     1      -6.395  45.641 -31.712  1.00  0.00     0.019 C 
BRANCH   3  24
HETATM   24  O2  UNL     1      -7.511  48.539 -29.534  1.00  0.00    -0.381 OA
HETATM   25  H19 UNL     1      -7.613  49.499 -29.684  1.00  0.00     0.211 HD
ENDBRANCH   3  24
ENDBRANCH   1   3
BRANCH   1  26
HETATM   26  C16 UNL     1      -4.811  49.010 -29.942  1.00  0.00     0.260 C 
BRANCH  26  27
HETATM   27  O4  UNL     1      -4.580  48.116 -28.850  1.00  0.00    -0.314 OA
BRANCH  27  28
HETATM   28  C17 UNL     1      -3.990  48.703 -27.769  1.00  0.00     0.259 C 
HETATM   29  O5  UNL     1      -3.003  49.425 -27.822  1.00  0.00    -0.265 OA
BRANCH  28  30
HETATM   30  C18 UNL     1      -4.739  48.317 -26.515  1.00  0.00     0.120 C 
BRANCH  30  31
HETATM   31  C19 UNL     1      -3.860  48.447 -25.280  1.00  0.00     0.112 C 
BRANCH  31  32
HETATM   32  C20 UNL     1      -3.661  49.891 -24.860  1.00  0.00     0.218 C 
HETATM   33  O6  UNL     1      -4.544  50.587 -24.370  1.00  0.00    -0.274 OA
HETATM   34  N1  UNL     1      -2.364  50.323 -25.047  1.00  0.00    -0.361 N 
HETATM   35  H26 UNL     1      -1.649  49.637 -25.262  1.00  0.00     0.162 HD
BRANCH  34  36
HETATM   36  C21 UNL     1      -1.921  51.638 -24.623  1.00  0.00     0.127 C 
BRANCH  36  37
HETATM   37  C22 UNL     1      -0.397  51.750 -24.489  1.00  0.00     0.058 C 
BRANCH  37  38
HETATM   38  C23 UNL     1       0.049  52.393 -23.192  1.00  0.00    -0.054 A 
HETATM   39  C24 UNL     1      -0.362  51.856 -21.960  1.00  0.00     0.010 A 
HETATM   40  C25 UNL     1       0.064  52.421 -20.753  1.00  0.00     0.040 A 
HETATM   41  C26 UNL     1       0.909  53.521 -20.783  1.00  0.00     0.098 A 
HETATM   42  C27 UNL     1       1.318  54.060 -21.999  1.00  0.00     0.099 A 
HETATM   43  C28 UNL     1       0.893  53.513 -23.201  1.00  0.00     0.046 A 
BRANCH  41  44
HETATM   44  O7  UNL     1       1.376  54.106 -19.640  1.00  0.00    -0.358 OA
HETATM   45  H33 UNL     1       1.002  53.627 -18.880  1.00  0.00     0.217 HD
ENDBRANCH  41  44
BRANCH  42  46
HETATM   46  O8  UNL     1       2.163  55.133 -22.017  1.00  0.00    -0.358 OA
HETATM   47  H34 UNL     1       2.287  55.356 -21.073  1.00  0.00     0.217 HD
ENDBRANCH  42  46
ENDBRANCH  37  38
ENDBRANCH  36  37
ENDBRANCH  34  36
ENDBRANCH  31  32
ENDBRANCH  30  31
ENDBRANCH  28  30
ENDBRANCH  27  28
ENDBRANCH  26  27
ENDBRANCH   1  26
TORSDOF 13
ENDMDL
MODEL 9
REMARK minimizedAffinity -8.77534962
REMARK CNNscore 0.348113865
REMARK CNNaffinity 6.522789
REMARK  13 active torsions:
REMARK  status: ('A' for Active; 'I' for Inactive)
REMARK    1  A    between atoms: C14_15  and  O2_16 
REMARK    2  A    between atoms: C14_15  and  C15_17 
REMARK    3  A    between atoms: C15_17  and  C16_19 
REMARK    4  A    between atoms: C16_19  and  O4_20 
REMARK    5  A    between atoms: O4_20  and  C17_21 
REMARK    6  A    between atoms: C17_21  and  C18_23 
REMARK    7  A    between atoms: C18_23  and  C19_24 
REMARK    8  A    between atoms: C19_24  and  C20_25 
REMARK       I    between atoms: C20_25  and  N1_27 
REMARK    9  A    between atoms: N1_27  and  C21_28 
REMARK   10  A    between atoms: C21_28  and  C22_29 
REMARK   11  A    between atoms: C22_29  and  C23_30 
REMARK   12  A    between atoms: C26_33  and  O7_34 
REMARK   13  A    between atoms: C27_35  and  O8_36 
ROOT
HETATM    1  C15 UNL     1      -2.805  48.988 -18.857  1.00  0.00     0.185 C 
HETATM    2  O3  UNL     1      -3.965  49.138 -18.459  1.00  0.00    -0.292 OA
ENDROOT
BRANCH   1   3
HETATM    3  C14 UNL     1      -2.466  48.949 -20.365  1.00  0.00     0.128 C 
HETATM    4  C13 UNL     1      -2.000  47.551 -20.796  1.00  0.00     0.047 C 
HETATM    5  C12 UNL     1      -2.070  47.620 -22.314  1.00  0.00     0.009 C 
HETATM    6  C11 UNL     1      -3.347  48.424 -22.619  1.00  0.00     0.002 C 
HETATM    7  C10 UNL     1      -3.282  49.303 -23.890  1.00  0.00     0.003 C 
HETATM    8  C29 UNL     1      -3.687  49.219 -21.312  1.00  0.00     0.005 C 
HETATM    9  C9  UNL     1      -2.899  48.463 -25.126  1.00  0.00     0.010 C 
HETATM   10  C33 UNL     1      -2.385  50.570 -23.699  1.00  0.00     0.072 C 
HETATM   11  C8  UNL     1      -2.809  49.306 -26.397  1.00  0.00     0.035 C 
HETATM   12  C7  UNL     1      -1.848  50.435 -26.133  1.00  0.00    -0.067 C 
HETATM   13  C2  UNL     1      -2.263  51.416 -25.020  1.00  0.00    -0.009 C 
HETATM   14  C6  UNL     1      -0.659  50.452 -26.760  1.00  0.00     0.053 C 
HETATM   15  C1  UNL     1      -3.618  52.083 -25.382  1.00  0.00     0.021 C 
HETATM   16  C3  UNL     1      -1.224  52.576 -24.954  1.00  0.00     0.022 C 
HETATM   17  C4  UNL     1       0.224  52.128 -25.050  1.00  0.00     0.084 C 
HETATM   18  C5  UNL     1       0.426  51.364 -26.331  1.00  0.00     0.149 C 
HETATM   19  O1  UNL     1       1.476  51.399 -26.967  1.00  0.00    -0.293 OA
HETATM   20  C32 UNL     1      -2.924  51.371 -22.504  1.00  0.00     0.133 C 
HETATM   21  C31 UNL     1      -3.945  50.708 -21.601  1.00  0.00     0.091 C 
HETATM   22  O9  UNL     1      -2.597  52.534 -22.275  1.00  0.00    -0.297 OA
HETATM   23  C30 UNL     1      -5.002  48.636 -20.731  1.00  0.00     0.019 C 
BRANCH   3  24
HETATM   24  O2  UNL     1      -1.412  49.861 -20.673  1.00  0.00    -0.381 OA
HETATM   25  H19 UNL     1      -0.588  49.523 -20.270  1.00  0.00     0.211 HD
ENDBRANCH   3  24
ENDBRANCH   1   3
BRANCH   1  26
HETATM   26  C16 UNL     1      -1.630  48.898 -17.880  1.00  0.00     0.260 C 
BRANCH  26  27
HETATM   27  O4  UNL     1      -0.803  50.063 -17.894  1.00  0.00    -0.314 OA
BRANCH  27  28
HETATM   28  C17 UNL     1       0.099  50.116 -16.871  1.00  0.00     0.259 C 
HETATM   29  O5  UNL     1       0.563  49.137 -16.303  1.00  0.00    -0.265 OA
BRANCH  28  30
HETATM   30  C18 UNL     1       0.421  51.558 -16.557  1.00  0.00     0.120 C 
BRANCH  30  31
HETATM   31  C19 UNL     1       1.214  51.682 -15.264  1.00  0.00     0.112 C 
BRANCH  31  32
HETATM   32  C20 UNL     1       0.320  51.848 -14.050  1.00  0.00     0.218 C 
HETATM   33  O6  UNL     1      -0.882  51.603 -14.050  1.00  0.00    -0.274 OA
HETATM   34  N1  UNL     1       1.016  52.260 -12.933  1.00  0.00    -0.361 N 
HETATM   35  H26 UNL     1       2.029  52.243 -12.957  1.00  0.00     0.162 HD
BRANCH  34  36
HETATM   36  C21 UNL     1       0.382  52.388 -11.633  1.00  0.00     0.127 C 
BRANCH  36  37
HETATM   37  C22 UNL     1      -0.245  53.768 -11.399  1.00  0.00     0.058 C 
BRANCH  37  38
HETATM   38  C23 UNL     1       0.443  54.566 -10.310  1.00  0.00    -0.054 A 
HETATM   39  C24 UNL     1       1.837  54.744 -10.338  1.00  0.00     0.010 A 
HETATM   40  C25 UNL     1       2.484  55.501  -9.357  1.00  0.00     0.040 A 
HETATM   41  C26 UNL     1       1.731  56.086  -8.349  1.00  0.00     0.098 A 
HETATM   42  C27 UNL     1       0.350  55.912  -8.312  1.00  0.00     0.099 A 
HETATM   43  C28 UNL     1      -0.299  55.155  -9.276  1.00  0.00     0.046 A 
BRANCH  41  44
HETATM   44  O7  UNL     1       2.301  56.853  -7.373  1.00  0.00    -0.358 OA
HETATM   45  H33 UNL     1       3.261  56.877  -7.527  1.00  0.00     0.217 HD
ENDBRANCH  41  44
BRANCH  42  46
HETATM   46  O8  UNL     1      -0.383  56.507  -7.325  1.00  0.00    -0.358 OA
HETATM   47  H34 UNL     1       0.285  56.942  -6.759  1.00  0.00     0.217 HD
ENDBRANCH  42  46
ENDBRANCH  37  38
ENDBRANCH  36  37
ENDBRANCH  34  36
ENDBRANCH  31  32
ENDBRANCH  30  31
ENDBRANCH  28  30
ENDBRANCH  27  28
ENDBRANCH  26  27
ENDBRANCH   1  26
TORSDOF 13
ENDMDL
