MODEL 1
REMARK minimizedAffinity -6.86891317
REMARK CNNscore 0.414771885
REMARK CNNaffinity 6.28139877
REMARK  10 active torsions:
REMARK  status: ('A' for Active; 'I' for Inactive)
REMARK    1  A    between atoms: C12_14  and  C13_15 
REMARK    2  A    between atoms: C13_15  and  C15_17 
REMARK    3  A    between atoms: C15_17  and  C16_18 
REMARK    4  A    between atoms: C16_18  and  C17_19 
REMARK    5  A    between atoms: C18_20  and  C20_22 
REMARK    6  A    between atoms: C20_22  and  O3_23 
REMARK    7  A    between atoms: C26_29  and  C27_30 
REMARK    8  A    between atoms: C27_30  and  C28_31 
REMARK    9  A    between atoms: C28_31  and  C29_32 
REMARK   10  A    between atoms: C29_32  and  O5_34 
ROOT
HETATM    1  C1  UNL     1       7.889  58.598  -5.071  1.00  0.00     0.025 C 
HETATM    2  C2  UNL     1       7.677  57.295  -5.292  1.00  0.00     0.015 C 
HETATM    3  C3  UNL     1       8.812  56.377  -5.549  1.00  0.00     0.289 C 
HETATM    4  O1  UNL     1       9.994  56.618  -5.392  1.00  0.00    -0.260 OA
HETATM    5  O2  UNL     1       8.296  55.197  -5.988  1.00  0.00    -0.311 OA
HETATM    6  C4  UNL     1       6.886  55.339  -6.243  1.00  0.00     0.142 C 
HETATM    7  C5  UNL     1       6.690  55.549  -7.740  1.00  0.00     0.039 C 
HETATM    8  C6  UNL     1       5.255  55.871  -8.185  1.00  0.00     0.006 C 
HETATM    9  C7  UNL     1       4.524  56.878  -7.258  1.00  0.00    -0.027 A 
HETATM   10  C8  UNL     1       3.059  57.149  -7.669  1.00  0.00     0.011 C 
HETATM   11  C9  UNL     1       2.241  55.912  -8.065  1.00  0.00     0.011 C 
HETATM   12  C10 UNL     1       2.982  55.069  -9.115  1.00  0.00    -0.032 C 
HETATM   13  C11 UNL     1       3.152  55.929 -10.400  1.00  0.00     0.016 C 
HETATM   14  C12 UNL     1       2.356  53.690  -9.503  1.00  0.00    -0.002 C 
HETATM   15  C21 UNL     1       3.596  52.852  -9.944  1.00  0.00     0.006 C 
HETATM   16  C22 UNL     1       4.855  53.622  -9.499  1.00  0.00     0.011 C 
HETATM   17  C23 UNL     1       4.348  54.621  -8.448  1.00  0.00    -0.032 C 
HETATM   18  C24 UNL     1       4.168  53.821  -7.117  1.00  0.00     0.016 C 
HETATM   19  C25 UNL     1       5.211  58.179  -6.918  1.00  0.00     0.022 A 
HETATM   20  C26 UNL     1       5.102  57.141  -5.821  1.00  0.00    -0.021 A 
HETATM   21  C30 UNL     1       6.417  56.490  -5.370  1.00  0.00     0.063 C 
ENDROOT
BRANCH  14  22
HETATM   22  C13 UNL     1       1.133  53.526 -10.459  1.00  0.00    -0.014 C 
HETATM   23  C14 UNL     1       1.393  52.867 -11.823  1.00  0.00     0.010 C 
BRANCH  22  24
HETATM   24  C15 UNL     1       0.323  54.823 -10.694  1.00  0.00     0.008 C 
BRANCH  24  25
HETATM   25  C16 UNL     1      -0.907  55.031  -9.800  1.00  0.00     0.028 C 
BRANCH  25  26
HETATM   26  C17 UNL     1      -2.195  54.597 -10.444  1.00  0.00    -0.022 C 
HETATM   27  C18 UNL     1      -2.826  53.411 -10.314  1.00  0.00    -0.064 C 
HETATM   28  C19 UNL     1      -2.336  52.292  -9.434  1.00  0.00     0.045 C 
BRANCH  27  29
HETATM   29  C20 UNL     1      -4.108  53.068 -11.047  1.00  0.00     0.197 C 
BRANCH  29  30
HETATM   30  O3  UNL     1      -4.169  53.669 -12.332  1.00  0.00    -0.397 OA
HETATM   31  H29 UNL     1      -4.141  54.629 -12.184  1.00  0.00     0.209 HD
ENDBRANCH  29  30
ENDBRANCH  27  29
ENDBRANCH  25  26
ENDBRANCH  24  25
ENDBRANCH  22  24
ENDBRANCH  14  22
BRANCH  20  32
HETATM   32  C27 UNL     1       4.096  57.308  -4.673  1.00  0.00     0.021 C 
BRANCH  32  33
HETATM   33  C28 UNL     1       4.505  58.317  -3.601  1.00  0.00     0.111 C 
BRANCH  33  34
HETATM   34  C29 UNL     1       3.550  59.460  -3.391  1.00  0.00     0.139 C 
HETATM   35  O4  UNL     1       2.526  59.410  -2.729  1.00  0.00    -0.650 OA
BRANCH  34  36
HETATM   36  O5  UNL     1       3.953  60.624  -3.929  1.00  0.00    -0.776 OA
HETATM   37  H43 UNL     1       3.259  61.262  -3.656  1.00  0.00     0.167 HD
ENDBRANCH  34  36
ENDBRANCH  33  34
ENDBRANCH  32  33
ENDBRANCH  20  32
TORSDOF 10
ENDMDL
MODEL 2
REMARK minimizedAffinity -6.90649891
REMARK CNNscore 0.343623698
REMARK CNNaffinity 6.73579216
REMARK  10 active torsions:
REMARK  status: ('A' for Active; 'I' for Inactive)
REMARK    1  A    between atoms: C12_14  and  C13_15 
REMARK    2  A    between atoms: C13_15  and  C15_17 
REMARK    3  A    between atoms: C15_17  and  C16_18 
REMARK    4  A    between atoms: C16_18  and  C17_19 
REMARK    5  A    between atoms: C18_20  and  C20_22 
REMARK    6  A    between atoms: C20_22  and  O3_23 
REMARK    7  A    between atoms: C26_29  and  C27_30 
REMARK    8  A    between atoms: C27_30  and  C28_31 
REMARK    9  A    between atoms: C28_31  and  C29_32 
REMARK   10  A    between atoms: C29_32  and  O5_34 
ROOT
HETATM    1  C1  UNL     1      -1.815  50.495 -11.771  1.00  0.00     0.025 C 
HETATM    2  C2  UNL     1      -0.828  51.320 -12.138  1.00  0.00     0.015 C 
HETATM    3  C3  UNL     1       0.241  50.861 -13.057  1.00  0.00     0.289 C 
HETATM    4  O1  UNL     1       0.244  49.837 -13.715  1.00  0.00    -0.260 OA
HETATM    5  O2  UNL     1       1.225  51.799 -13.047  1.00  0.00    -0.311 OA
HETATM    6  C4  UNL     1       0.976  52.765 -12.009  1.00  0.00     0.142 C 
HETATM    7  C5  UNL     1       1.830  52.399 -10.801  1.00  0.00     0.039 C 
HETATM    8  C6  UNL     1       1.586  53.234  -9.535  1.00  0.00     0.006 C 
HETATM    9  C7  UNL     1       0.086  53.507  -9.245  1.00  0.00    -0.027 A 
HETATM   10  C8  UNL     1      -0.156  54.403  -8.009  1.00  0.00     0.011 C 
HETATM   11  C9  UNL     1       0.767  55.623  -7.884  1.00  0.00     0.011 C 
HETATM   12  C10 UNL     1       2.244  55.218  -8.017  1.00  0.00    -0.032 C 
HETATM   13  C11 UNL     1       2.597  54.263  -6.841  1.00  0.00     0.016 C 
HETATM   14  C12 UNL     1       3.303  56.367  -8.075  1.00  0.00    -0.002 C 
HETATM   15  C21 UNL     1       4.469  55.732  -8.893  1.00  0.00     0.006 C 
HETATM   16  C22 UNL     1       3.932  54.433  -9.528  1.00  0.00     0.011 C 
HETATM   17  C23 UNL     1       2.403  54.567  -9.454  1.00  0.00    -0.032 C 
HETATM   18  C24 UNL     1       1.977  55.511 -10.624  1.00  0.00     0.016 C 
HETATM   19  C25 UNL     1      -0.872  52.340  -9.229  1.00  0.00     0.022 A 
HETATM   20  C26 UNL     1      -0.958  53.294 -10.400  1.00  0.00    -0.021 A 
HETATM   21  C30 UNL     1      -0.523  52.737 -11.763  1.00  0.00     0.063 C 
ENDROOT
BRANCH  14  22
HETATM   22  C13 UNL     1       3.793  57.164  -6.825  1.00  0.00    -0.014 C 
HETATM   23  C14 UNL     1       3.115  58.514  -6.545  1.00  0.00     0.010 C 
BRANCH  22  24
HETATM   24  C15 UNL     1       5.325  57.366  -6.753  1.00  0.00     0.008 C 
BRANCH  24  25
HETATM   25  C16 UNL     1       5.934  57.471  -5.348  1.00  0.00     0.028 C 
BRANCH  25  26
HETATM   26  C17 UNL     1       6.945  58.577  -5.217  1.00  0.00    -0.022 C 
HETATM   27  C18 UNL     1       8.288  58.464  -5.132  1.00  0.00    -0.064 C 
HETATM   28  C19 UNL     1       9.025  57.151  -5.194  1.00  0.00     0.045 C 
BRANCH  27  29
HETATM   29  C20 UNL     1       9.212  59.652  -4.962  1.00  0.00     0.197 C 
BRANCH  29  30
HETATM   30  O3  UNL     1      10.567  59.322  -5.228  1.00  0.00    -0.397 OA
HETATM   31  H29 UNL     1      10.812  58.641  -4.581  1.00  0.00     0.209 HD
ENDBRANCH  29  30
ENDBRANCH  27  29
ENDBRANCH  25  26
ENDBRANCH  24  25
ENDBRANCH  22  24
ENDBRANCH  14  22
BRANCH  20  32
HETATM   32  C27 UNL     1      -2.107  54.307 -10.512  1.00  0.00     0.021 C 
BRANCH  32  33
HETATM   33  C28 UNL     1      -3.482  53.766 -10.122  1.00  0.00     0.111 C 
BRANCH  33  34
HETATM   34  C29 UNL     1      -4.217  53.028 -11.207  1.00  0.00     0.139 C 
HETATM   35  O4  UNL     1      -4.232  53.341 -12.386  1.00  0.00    -0.650 OA
BRANCH  34  36
HETATM   36  O5  UNL     1      -4.817  51.897 -10.799  1.00  0.00    -0.776 OA
HETATM   37  H43 UNL     1      -5.193  51.519 -11.622  1.00  0.00     0.167 HD
ENDBRANCH  34  36
ENDBRANCH  33  34
ENDBRANCH  32  33
ENDBRANCH  20  32
TORSDOF 10
ENDMDL
MODEL 3
REMARK minimizedAffinity -8.66194534
REMARK CNNscore 0.338543206
REMARK CNNaffinity 6.70612383
REMARK  10 active torsions:
REMARK  status: ('A' for Active; 'I' for Inactive)
REMARK    1  A    between atoms: C12_14  and  C13_15 
REMARK    2  A    between atoms: C13_15  and  C15_17 
REMARK    3  A    between atoms: C15_17  and  C16_18 
REMARK    4  A    between atoms: C16_18  and  C17_19 
REMARK    5  A    between atoms: C18_20  and  C20_22 
REMARK    6  A    between atoms: C20_22  and  O3_23 
REMARK    7  A    between atoms: C26_29  and  C27_30 
REMARK    8  A    between atoms: C27_30  and  C28_31 
REMARK    9  A    between atoms: C28_31  and  C29_32 
REMARK   10  A    between atoms: C29_32  and  O5_34 
ROOT
HETATM    1  C1  UNL     1      -4.107  48.297 -27.285  1.00  0.00     0.025 C 
HETATM    2  C2  UNL     1      -3.848  49.515 -26.795  1.00  0.00     0.015 C 
HETATM    3  C3  UNL     1      -3.218  50.554 -27.645  1.00  0.00     0.289 C 
HETATM    4  O1  UNL     1      -3.067  50.514 -28.851  1.00  0.00    -0.260 OA
HETATM    5  O2  UNL     1      -2.843  51.578 -26.833  1.00  0.00    -0.311 OA
HETATM    6  C4  UNL     1      -2.993  51.196 -25.453  1.00  0.00     0.142 C 
HETATM    7  C5  UNL     1      -1.629  50.773 -24.922  1.00  0.00     0.039 C 
HETATM    8  C6  UNL     1      -1.618  50.186 -23.503  1.00  0.00     0.006 C 
HETATM    9  C7  UNL     1      -2.787  49.204 -23.223  1.00  0.00    -0.027 A 
HETATM   10  C8  UNL     1      -2.814  48.666 -21.775  1.00  0.00     0.011 C 
HETATM   11  C9  UNL     1      -2.557  49.707 -20.676  1.00  0.00     0.011 C 
HETATM   12  C10 UNL     1      -1.281  50.514 -20.963  1.00  0.00    -0.032 C 
HETATM   13  C11 UNL     1      -0.071  49.536 -20.949  1.00  0.00     0.016 C 
HETATM   14  C12 UNL     1      -0.968  51.723 -20.022  1.00  0.00    -0.002 C 
HETATM   15  C21 UNL     1      -0.140  52.677 -20.939  1.00  0.00     0.006 C 
HETATM   16  C22 UNL     1      -0.286  52.167 -22.386  1.00  0.00     0.011 C 
HETATM   17  C23 UNL     1      -1.513  51.242 -22.351  1.00  0.00    -0.032 C 
HETATM   18  C24 UNL     1      -2.773  52.166 -22.376  1.00  0.00     0.016 C 
HETATM   19  C25 UNL     1      -3.031  48.074 -24.195  1.00  0.00     0.022 A 
HETATM   20  C26 UNL     1      -4.029  49.212 -24.186  1.00  0.00    -0.021 A 
HETATM   21  C30 UNL     1      -4.051  50.105 -25.435  1.00  0.00     0.063 C 
ENDROOT
BRANCH  14  22
HETATM   22  C13 UNL     1      -0.371  51.581 -18.587  1.00  0.00    -0.014 C 
HETATM   23  C14 UNL     1      -1.318  51.095 -17.480  1.00  0.00     0.010 C 
BRANCH  22  24
HETATM   24  C15 UNL     1       0.374  52.835 -18.074  1.00  0.00     0.008 C 
BRANCH  24  25
HETATM   25  C16 UNL     1       1.831  52.634 -17.636  1.00  0.00     0.028 C 
BRANCH  25  26
HETATM   26  C17 UNL     1       1.971  52.208 -16.201  1.00  0.00    -0.022 C 
HETATM   27  C18 UNL     1       3.109  52.046 -15.494  1.00  0.00    -0.064 C 
HETATM   28  C19 UNL     1       4.485  52.311 -16.046  1.00  0.00     0.045 C 
BRANCH  27  29
HETATM   29  C20 UNL     1       3.132  51.572 -14.055  1.00  0.00     0.197 C 
BRANCH  29  30
HETATM   30  O3  UNL     1       1.830  51.298 -13.558  1.00  0.00    -0.397 OA
HETATM   31  H29 UNL     1       1.341  52.135 -13.604  1.00  0.00     0.209 HD
ENDBRANCH  29  30
ENDBRANCH  27  29
ENDBRANCH  25  26
ENDBRANCH  24  25
ENDBRANCH  22  24
ENDBRANCH  14  22
BRANCH  20  32
HETATM   32  C27 UNL     1      -5.417  49.041 -23.553  1.00  0.00     0.021 C 
BRANCH  32  33
HETATM   33  C28 UNL     1      -6.540  48.722 -24.539  1.00  0.00     0.111 C 
BRANCH  33  34
HETATM   34  C29 UNL     1      -7.925  49.089 -24.082  1.00  0.00     0.139 C 
HETATM   35  O4  UNL     1      -8.338  48.993 -22.938  1.00  0.00    -0.650 OA
BRANCH  34  36
HETATM   36  O5  UNL     1      -8.695  49.638 -25.036  1.00  0.00    -0.776 OA
HETATM   37  H43 UNL     1      -9.526  49.866 -24.566  1.00  0.00     0.167 HD
ENDBRANCH  34  36
ENDBRANCH  33  34
ENDBRANCH  32  33
ENDBRANCH  20  32
TORSDOF 10
ENDMDL
MODEL 4
REMARK minimizedAffinity -7.08852339
REMARK CNNscore 0.259322405
REMARK CNNaffinity 5.52890205
REMARK  10 active torsions:
REMARK  status: ('A' for Active; 'I' for Inactive)
REMARK    1  A    between atoms: C12_14  and  C13_15 
REMARK    2  A    between atoms: C13_15  and  C15_17 
REMARK    3  A    between atoms: C15_17  and  C16_18 
REMARK    4  A    between atoms: C16_18  and  C17_19 
REMARK    5  A    between atoms: C18_20  and  C20_22 
REMARK    6  A    between atoms: C20_22  and  O3_23 
REMARK    7  A    between atoms: C26_29  and  C27_30 
REMARK    8  A    between atoms: C27_30  and  C28_31 
REMARK    9  A    between atoms: C28_31  and  C29_32 
REMARK   10  A    between atoms: C29_32  and  O5_34 
ROOT
HETATM    1  C1  UNL     1      -4.941  45.101 -32.078  1.00  0.00     0.025 C 
HETATM    2  C2  UNL     1      -5.933  45.998 -32.125  1.00  0.00     0.015 C 
HETATM    3  C3  UNL     1      -5.642  47.451 -32.068  1.00  0.00     0.289 C 
HETATM    4  O1  UNL     1      -4.553  47.980 -32.183  1.00  0.00    -0.260 OA
HETATM    5  O2  UNL     1      -6.821  48.100 -31.874  1.00  0.00    -0.311 OA
HETATM    6  C4  UNL     1      -7.865  47.152 -31.584  1.00  0.00     0.142 C 
HETATM    7  C5  UNL     1      -8.071  47.114 -30.074  1.00  0.00     0.039 C 
HETATM    8  C6  UNL     1      -9.046  46.044 -29.561  1.00  0.00     0.006 C 
HETATM    9  C7  UNL     1      -8.887  44.666 -30.258  1.00  0.00    -0.027 A 
HETATM   10  C8  UNL     1      -9.913  43.610 -29.789  1.00  0.00     0.011 C 
HETATM   11  C9  UNL     1     -11.358  44.107 -29.647  1.00  0.00     0.011 C 
HETATM   12  C10 UNL     1     -11.424  45.386 -28.796  1.00  0.00    -0.032 C 
HETATM   13  C11 UNL     1     -10.920  45.046 -27.364  1.00  0.00     0.016 C 
HETATM   14  C12 UNL     1     -12.806  46.109 -28.690  1.00  0.00    -0.002 C 
HETATM   15  C21 UNL     1     -12.407  47.597 -28.439  1.00  0.00     0.006 C 
HETATM   16  C22 UNL     1     -10.898  47.724 -28.728  1.00  0.00     0.011 C 
HETATM   17  C23 UNL     1     -10.552  46.473 -29.551  1.00  0.00    -0.032 C 
HETATM   18  C24 UNL     1     -11.024  46.753 -31.015  1.00  0.00     0.016 C 
HETATM   19  C25 UNL     1      -7.512  44.048 -30.333  1.00  0.00     0.022 A 
HETATM   20  C26 UNL     1      -8.100  44.592 -31.616  1.00  0.00    -0.021 A 
HETATM   21  C30 UNL     1      -7.419  45.838 -32.201  1.00  0.00     0.063 C 
ENDROOT
BRANCH  14  22
HETATM   22  C13 UNL     1     -13.976  45.626 -27.778  1.00  0.00    -0.014 C 
HETATM   23  C14 UNL     1     -15.256  45.143 -28.477  1.00  0.00     0.010 C 
BRANCH  22  24
HETATM   24  C15 UNL     1     -14.377  46.623 -26.666  1.00  0.00     0.008 C 
BRANCH  24  25
HETATM   25  C16 UNL     1     -14.881  46.013 -25.350  1.00  0.00     0.028 C 
BRANCH  25  26
HETATM   26  C17 UNL     1     -16.114  46.684 -24.813  1.00  0.00    -0.022 C 
HETATM   27  C18 UNL     1     -17.402  46.395 -25.095  1.00  0.00    -0.064 C 
HETATM   28  C19 UNL     1     -17.830  45.277 -26.010  1.00  0.00     0.045 C 
BRANCH  27  29
HETATM   29  C20 UNL     1     -18.572  47.169 -24.521  1.00  0.00     0.197 C 
BRANCH  29  30
HETATM   30  O3  UNL     1     -19.812  46.762 -25.080  1.00  0.00    -0.397 OA
HETATM   31  H29 UNL     1     -19.753  46.944 -26.032  1.00  0.00     0.209 HD
ENDBRANCH  29  30
ENDBRANCH  27  29
ENDBRANCH  25  26
ENDBRANCH  24  25
ENDBRANCH  22  24
ENDBRANCH  14  22
BRANCH  20  32
HETATM   32  C27 UNL     1      -8.644  43.648 -32.699  1.00  0.00     0.021 C 
BRANCH  32  33
HETATM   33  C28 UNL     1      -7.778  42.419 -32.975  1.00  0.00     0.111 C 
BRANCH  33  34
HETATM   34  C29 UNL     1      -7.271  42.289 -34.384  1.00  0.00     0.139 C 
HETATM   35  O4  UNL     1      -7.971  42.198 -35.380  1.00  0.00    -0.650 OA
BRANCH  34  36
HETATM   36  O5  UNL     1      -5.935  42.371 -34.502  1.00  0.00    -0.776 OA
HETATM   37  H43 UNL     1      -5.779  42.326 -35.469  1.00  0.00     0.167 HD
ENDBRANCH  34  36
ENDBRANCH  33  34
ENDBRANCH  32  33
ENDBRANCH  20  32
TORSDOF 10
ENDMDL
MODEL 5
REMARK minimizedAffinity -7.79075289
REMARK CNNscore 0.201467544
REMARK CNNaffinity 6.2267518
REMARK  10 active torsions:
REMARK  status: ('A' for Active; 'I' for Inactive)
REMARK    1  A    between atoms: C12_14  and  C13_15 
REMARK    2  A    between atoms: C13_15  and  C15_17 
REMARK    3  A    between atoms: C15_17  and  C16_18 
REMARK    4  A    between atoms: C16_18  and  C17_19 
REMARK    5  A    between atoms: C18_20  and  C20_22 
REMARK    6  A    between atoms: C20_22  and  O3_23 
REMARK    7  A    between atoms: C26_29  and  C27_30 
REMARK    8  A    between atoms: C27_30  and  C28_31 
REMARK    9  A    between atoms: C28_31  and  C29_32 
REMARK   10  A    between atoms: C29_32  and  O5_34 
ROOT
HETATM    1  C1  UNL     1       0.688  53.603 -19.588  1.00  0.00     0.025 C 
HETATM    2  C2  UNL     1       0.547  52.886 -20.709  1.00  0.00     0.015 C 
HETATM    3  C3  UNL     1       0.912  53.460 -22.026  1.00  0.00     0.289 C 
HETATM    4  O1  UNL     1       1.537  54.484 -22.225  1.00  0.00    -0.260 OA
HETATM    5  O2  UNL     1       0.431  52.626 -22.986  1.00  0.00    -0.311 OA
HETATM    6  C4  UNL     1      -0.423  51.630 -22.394  1.00  0.00     0.142 C 
HETATM    7  C5  UNL     1      -1.871  52.069 -22.581  1.00  0.00     0.039 C 
HETATM    8  C6  UNL     1      -2.926  51.202 -21.878  1.00  0.00     0.006 C 
HETATM    9  C7  UNL     1      -2.529  50.776 -20.440  1.00  0.00    -0.027 A 
HETATM   10  C8  UNL     1      -3.561  49.849 -19.759  1.00  0.00     0.011 C 
HETATM   11  C9  UNL     1      -4.128  48.727 -20.640  1.00  0.00     0.011 C 
HETATM   12  C10 UNL     1      -4.650  49.280 -21.976  1.00  0.00    -0.032 C 
HETATM   13  C11 UNL     1      -5.824  50.255 -21.675  1.00  0.00     0.016 C 
HETATM   14  C12 UNL     1      -5.111  48.245 -23.052  1.00  0.00    -0.002 C 
HETATM   15  C21 UNL     1      -4.873  49.003 -24.395  1.00  0.00     0.006 C 
HETATM   16  C22 UNL     1      -4.019  50.246 -24.078  1.00  0.00     0.011 C 
HETATM   17  C23 UNL     1      -3.411  49.957 -22.696  1.00  0.00    -0.032 C 
HETATM   18  C24 UNL     1      -2.208  48.986 -22.928  1.00  0.00     0.016 C 
HETATM   19  C25 UNL     1      -2.075  51.839 -19.469  1.00  0.00     0.022 A 
HETATM   20  C26 UNL     1      -1.023  50.893 -20.005  1.00  0.00    -0.021 A 
HETATM   21  C30 UNL     1       0.024  51.504 -20.947  1.00  0.00     0.063 C 
ENDROOT
BRANCH  14  22
HETATM   22  C13 UNL     1      -6.477  47.490 -23.008  1.00  0.00    -0.014 C 
HETATM   23  C14 UNL     1      -6.568  46.261 -22.090  1.00  0.00     0.010 C 
BRANCH  22  24
HETATM   24  C15 UNL     1      -7.043  47.104 -24.394  1.00  0.00     0.008 C 
BRANCH  24  25
HETATM   25  C16 UNL     1      -8.480  46.566 -24.420  1.00  0.00     0.028 C 
BRANCH  25  26
HETATM   26  C17 UNL     1      -8.557  45.070 -24.548  1.00  0.00    -0.022 C 
HETATM   27  C18 UNL     1      -8.482  44.332 -25.676  1.00  0.00    -0.064 C 
HETATM   28  C19 UNL     1      -8.265  44.915 -27.047  1.00  0.00     0.045 C 
BRANCH  27  29
HETATM   29  C20 UNL     1      -8.612  42.822 -25.690  1.00  0.00     0.197 C 
BRANCH  29  30
HETATM   30  O3  UNL     1      -7.547  42.185 -25.001  1.00  0.00    -0.397 OA
HETATM   31  H29 UNL     1      -6.734  42.433 -25.471  1.00  0.00     0.209 HD
ENDBRANCH  29  30
ENDBRANCH  27  29
ENDBRANCH  25  26
ENDBRANCH  24  25
ENDBRANCH  22  24
ENDBRANCH  14  22
BRANCH  20  32
HETATM   32  C27 UNL     1      -0.450  49.770 -19.128  1.00  0.00     0.021 C 
BRANCH  32  33
HETATM   33  C28 UNL     1      -0.089  50.187 -17.703  1.00  0.00     0.111 C 
BRANCH  33  34
HETATM   34  C29 UNL     1      -0.439  49.192 -16.630  1.00  0.00     0.139 C 
HETATM   35  O4  UNL     1      -1.524  48.651 -16.498  1.00  0.00    -0.650 OA
BRANCH  34  36
HETATM   36  O5  UNL     1       0.590  48.850 -15.836  1.00  0.00    -0.776 OA
HETATM   37  H43 UNL     1       0.212  48.166 -15.242  1.00  0.00     0.167 HD
ENDBRANCH  34  36
ENDBRANCH  33  34
ENDBRANCH  32  33
ENDBRANCH  20  32
TORSDOF 10
ENDMDL
MODEL 6
REMARK minimizedAffinity -8.50823402
REMARK CNNscore 0.199542448
REMARK CNNaffinity 6.17233849
REMARK  10 active torsions:
REMARK  status: ('A' for Active; 'I' for Inactive)
REMARK    1  A    between atoms: C12_14  and  C13_15 
REMARK    2  A    between atoms: C13_15  and  C15_17 
REMARK    3  A    between atoms: C15_17  and  C16_18 
REMARK    4  A    between atoms: C16_18  and  C17_19 
REMARK    5  A    between atoms: C18_20  and  C20_22 
REMARK    6  A    between atoms: C20_22  and  O3_23 
REMARK    7  A    between atoms: C26_29  and  C27_30 
REMARK    8  A    between atoms: C27_30  and  C28_31 
REMARK    9  A    between atoms: C28_31  and  C29_32 
REMARK   10  A    between atoms: C29_32  and  O5_34 
ROOT
HETATM    1  C1  UNL     1      -4.160  48.333 -27.124  1.00  0.00     0.025 C 
HETATM    2  C2  UNL     1      -3.853  49.558 -26.680  1.00  0.00     0.015 C 
HETATM    3  C3  UNL     1      -3.171  50.534 -27.563  1.00  0.00     0.289 C 
HETATM    4  O1  UNL     1      -3.009  50.439 -28.765  1.00  0.00    -0.260 OA
HETATM    5  O2  UNL     1      -2.760  51.573 -26.788  1.00  0.00    -0.311 OA
HETATM    6  C4  UNL     1      -2.941  51.254 -25.396  1.00  0.00     0.142 C 
HETATM    7  C5  UNL     1      -1.601  50.795 -24.833  1.00  0.00     0.039 C 
HETATM    8  C6  UNL     1      -1.630  50.267 -23.391  1.00  0.00     0.006 C 
HETATM    9  C7  UNL     1      -2.843  49.347 -23.086  1.00  0.00    -0.027 A 
HETATM   10  C8  UNL     1      -2.908  48.871 -21.617  1.00  0.00     0.011 C 
HETATM   11  C9  UNL     1      -2.618  49.944 -20.558  1.00  0.00     0.011 C 
HETATM   12  C10 UNL     1      -1.305  50.683 -20.862  1.00  0.00    -0.032 C 
HETATM   13  C11 UNL     1      -0.139  49.656 -20.795  1.00  0.00     0.016 C 
HETATM   14  C12 UNL     1      -0.950  51.915 -19.968  1.00  0.00    -0.002 C 
HETATM   15  C21 UNL     1      -0.072  52.795 -20.912  1.00  0.00     0.006 C 
HETATM   16  C22 UNL     1      -0.225  52.233 -22.339  1.00  0.00     0.011 C 
HETATM   17  C23 UNL     1      -1.491  51.363 -22.281  1.00  0.00    -0.032 C 
HETATM   18  C24 UNL     1      -2.710  52.339 -22.358  1.00  0.00     0.016 C 
HETATM   19  C25 UNL     1      -3.126  48.191 -24.014  1.00  0.00     0.022 A 
HETATM   20  C26 UNL     1      -4.073  49.370 -24.063  1.00  0.00    -0.021 A 
HETATM   21  C30 UNL     1      -4.045  50.211 -25.347  1.00  0.00     0.063 C 
ENDROOT
BRANCH  14  22
HETATM   22  C13 UNL     1      -0.374  51.806 -18.521  1.00  0.00    -0.014 C 
HETATM   23  C14 UNL     1       0.922  52.576 -18.222  1.00  0.00     0.010 C 
BRANCH  22  24
HETATM   24  C15 UNL     1      -0.208  50.358 -18.004  1.00  0.00     0.008 C 
BRANCH  24  25
HETATM   25  C16 UNL     1       0.477  50.193 -16.640  1.00  0.00     0.028 C 
BRANCH  25  26
HETATM   26  C17 UNL     1       0.236  48.850 -16.008  1.00  0.00    -0.022 C 
HETATM   27  C18 UNL     1      -0.782  48.488 -15.199  1.00  0.00    -0.064 C 
HETATM   28  C19 UNL     1      -1.911  49.406 -14.808  1.00  0.00     0.045 C 
BRANCH  27  29
HETATM   29  C20 UNL     1      -0.903  47.108 -14.584  1.00  0.00     0.197 C 
BRANCH  29  30
HETATM   30  O3  UNL     1      -1.468  46.167 -15.484  1.00  0.00    -0.397 OA
HETATM   31  H29 UNL     1      -2.357  46.494 -15.695  1.00  0.00     0.209 HD
ENDBRANCH  29  30
ENDBRANCH  27  29
ENDBRANCH  25  26
ENDBRANCH  24  25
ENDBRANCH  22  24
ENDBRANCH  14  22
BRANCH  20  32
HETATM   32  C27 UNL     1      -5.474  49.284 -23.440  1.00  0.00     0.021 C 
BRANCH  32  33
HETATM   33  C28 UNL     1      -6.534  48.629 -24.325  1.00  0.00     0.111 C 
BRANCH  33  34
HETATM   34  C29 UNL     1      -7.960  48.866 -23.910  1.00  0.00     0.139 C 
HETATM   35  O4  UNL     1      -8.487  48.410 -22.909  1.00  0.00    -0.650 OA
BRANCH  34  36
HETATM   36  O5  UNL     1      -8.630  49.724 -24.698  1.00  0.00    -0.776 OA
HETATM   37  H43 UNL     1      -9.505  49.809 -24.263  1.00  0.00     0.167 HD
ENDBRANCH  34  36
ENDBRANCH  33  34
ENDBRANCH  32  33
ENDBRANCH  20  32
TORSDOF 10
ENDMDL
MODEL 7
REMARK minimizedAffinity -7.0382123
REMARK CNNscore 0.198898599
REMARK CNNaffinity 5.91337585
REMARK  10 active torsions:
REMARK  status: ('A' for Active; 'I' for Inactive)
REMARK    1  A    between atoms: C12_14  and  C13_15 
REMARK    2  A    between atoms: C13_15  and  C15_17 
REMARK    3  A    between atoms: C15_17  and  C16_18 
REMARK    4  A    between atoms: C16_18  and  C17_19 
REMARK    5  A    between atoms: C18_20  and  C20_22 
REMARK    6  A    between atoms: C20_22  and  O3_23 
REMARK    7  A    between atoms: C26_29  and  C27_30 
REMARK    8  A    between atoms: C27_30  and  C28_31 
REMARK    9  A    between atoms: C28_31  and  C29_32 
REMARK   10  A    between atoms: C29_32  and  O5_34 
ROOT
HETATM    1  C1  UNL     1      -3.299  51.221  -9.587  1.00  0.00     0.025 C 
HETATM    2  C2  UNL     1      -2.883  52.490  -9.664  1.00  0.00     0.015 C 
HETATM    3  C3  UNL     1      -3.417  53.399 -10.706  1.00  0.00     0.289 C 
HETATM    4  O1  UNL     1      -4.378  53.197 -11.426  1.00  0.00    -0.260 OA
HETATM    5  O2  UNL     1      -2.645  54.519 -10.712  1.00  0.00    -0.311 OA
HETATM    6  C4  UNL     1      -1.489  54.326  -9.876  1.00  0.00     0.142 C 
HETATM    7  C5  UNL     1      -0.308  53.962 -10.769  1.00  0.00     0.039 C 
HETATM    8  C6  UNL     1       0.984  53.571 -10.039  1.00  0.00     0.006 C 
HETATM    9  C7  UNL     1       0.755  52.648  -8.812  1.00  0.00    -0.027 A 
HETATM   10  C8  UNL     1       2.048  52.309  -8.038  1.00  0.00     0.011 C 
HETATM   11  C9  UNL     1       3.007  53.485  -7.801  1.00  0.00     0.011 C 
HETATM   12  C10 UNL     1       3.304  54.232  -9.112  1.00  0.00    -0.032 C 
HETATM   13  C11 UNL     1       4.023  53.250 -10.081  1.00  0.00     0.016 C 
HETATM   14  C12 UNL     1       4.135  55.552  -9.015  1.00  0.00    -0.002 C 
HETATM   15  C21 UNL     1       3.650  56.366 -10.255  1.00  0.00     0.006 C 
HETATM   16  C22 UNL     1       2.387  55.668 -10.799  1.00  0.00     0.011 C 
HETATM   17  C23 UNL     1       1.912  54.770  -9.646  1.00  0.00    -0.032 C 
HETATM   18  C24 UNL     1       1.164  55.697  -8.634  1.00  0.00     0.016 C 
HETATM   19  C25 UNL     1      -0.078  51.402  -8.990  1.00  0.00     0.022 A 
HETATM   20  C26 UNL     1      -0.692  52.542  -8.206  1.00  0.00    -0.021 A 
HETATM   21  C30 UNL     1      -1.877  53.260  -8.866  1.00  0.00     0.063 C 
ENDROOT
BRANCH  14  22
HETATM   22  C13 UNL     1       5.683  55.596  -8.819  1.00  0.00    -0.014 C 
HETATM   23  C14 UNL     1       6.491  54.404  -9.356  1.00  0.00     0.010 C 
BRANCH  22  24
HETATM   24  C15 UNL     1       6.139  55.879  -7.369  1.00  0.00     0.008 C 
BRANCH  24  25
HETATM   25  C16 UNL     1       5.597  57.160  -6.720  1.00  0.00     0.028 C 
BRANCH  25  26
HETATM   26  C17 UNL     1       4.433  56.917  -5.800  1.00  0.00    -0.022 C 
HETATM   27  C18 UNL     1       3.199  57.461  -5.866  1.00  0.00    -0.064 C 
HETATM   28  C19 UNL     1       2.761  58.417  -6.945  1.00  0.00     0.045 C 
BRANCH  27  29
HETATM   29  C20 UNL     1       2.108  57.172  -4.855  1.00  0.00     0.197 C 
BRANCH  29  30
HETATM   30  O3  UNL     1       1.741  58.327  -4.116  1.00  0.00    -0.397 OA
HETATM   31  H29 UNL     1       2.539  58.610  -3.641  1.00  0.00     0.209 HD
ENDBRANCH  29  30
ENDBRANCH  27  29
ENDBRANCH  25  26
ENDBRANCH  24  25
ENDBRANCH  22  24
ENDBRANCH  14  22
BRANCH  20  32
HETATM   32  C27 UNL     1      -0.815  52.472  -6.676  1.00  0.00     0.021 C 
BRANCH  32  33
HETATM   33  C28 UNL     1      -1.143  53.801  -5.997  1.00  0.00     0.111 C 
BRANCH  33  34
HETATM   34  C29 UNL     1      -1.720  53.693  -4.612  1.00  0.00     0.139 C 
HETATM   35  O4  UNL     1      -1.434  52.833  -3.794  1.00  0.00    -0.650 OA
BRANCH  34  36
HETATM   36  O5  UNL     1      -2.545  54.699  -4.276  1.00  0.00    -0.776 OA
HETATM   37  H43 UNL     1      -2.781  54.509  -3.343  1.00  0.00     0.167 HD
ENDBRANCH  34  36
ENDBRANCH  33  34
ENDBRANCH  32  33
ENDBRANCH  20  32
TORSDOF 10
ENDMDL
MODEL 8
REMARK minimizedAffinity -8.48381233
REMARK CNNscore 0.190631375
REMARK CNNaffinity 5.80583906
REMARK  10 active torsions:
REMARK  status: ('A' for Active; 'I' for Inactive)
REMARK    1  A    between atoms: C12_14  and  C13_15 
REMARK    2  A    between atoms: C13_15  and  C15_17 
REMARK    3  A    between atoms: C15_17  and  C16_18 
REMARK    4  A    between atoms: C16_18  and  C17_19 
REMARK    5  A    between atoms: C18_20  and  C20_22 
REMARK    6  A    between atoms: C20_22  and  O3_23 
REMARK    7  A    between atoms: C26_29  and  C27_30 
REMARK    8  A    between atoms: C27_30  and  C28_31 
REMARK    9  A    between atoms: C28_31  and  C29_32 
REMARK   10  A    between atoms: C29_32  and  O5_34 
ROOT
HETATM    1  C1  UNL     1       0.369  52.990 -19.169  1.00  0.00     0.025 C 
HETATM    2  C2  UNL     1       0.257  52.323 -20.323  1.00  0.00     0.015 C 
HETATM    3  C3  UNL     1       0.729  52.923 -21.594  1.00  0.00     0.289 C 
HETATM    4  O1  UNL     1       1.417  53.918 -21.717  1.00  0.00    -0.260 OA
HETATM    5  O2  UNL     1       0.262  52.152 -22.612  1.00  0.00    -0.311 OA
HETATM    6  C4  UNL     1      -0.677  51.184 -22.109  1.00  0.00     0.142 C 
HETATM    7  C5  UNL     1      -2.086  51.707 -22.361  1.00  0.00     0.039 C 
HETATM    8  C6  UNL     1      -3.225  50.875 -21.754  1.00  0.00     0.006 C 
HETATM    9  C7  UNL     1      -2.936  50.376 -20.313  1.00  0.00    -0.027 A 
HETATM   10  C8  UNL     1      -4.054  49.482 -19.729  1.00  0.00     0.011 C 
HETATM   11  C9  UNL     1      -4.626  48.426 -20.685  1.00  0.00     0.011 C 
HETATM   12  C10 UNL     1      -5.038  49.055 -22.026  1.00  0.00    -0.032 C 
HETATM   13  C11 UNL     1      -6.175  50.081 -21.754  1.00  0.00     0.016 C 
HETATM   14  C12 UNL     1      -5.489  48.086 -23.167  1.00  0.00    -0.002 C 
HETATM   15  C21 UNL     1      -5.133  48.878 -24.463  1.00  0.00     0.006 C 
HETATM   16  C22 UNL     1      -4.234  50.060 -24.048  1.00  0.00     0.011 C 
HETATM   17  C23 UNL     1      -3.725  49.689 -22.646  1.00  0.00    -0.032 C 
HETATM   18  C24 UNL     1      -2.564  48.663 -22.848  1.00  0.00     0.016 C 
HETATM   19  C25 UNL     1      -2.485  51.377 -19.277  1.00  0.00     0.022 A 
HETATM   20  C26 UNL     1      -1.455  50.394 -19.790  1.00  0.00    -0.021 A 
HETATM   21  C30 UNL     1      -0.323  50.981 -20.646  1.00  0.00     0.063 C 
ENDROOT
BRANCH  14  22
HETATM   22  C13 UNL     1      -6.893  47.406 -23.229  1.00  0.00    -0.014 C 
HETATM   23  C14 UNL     1      -6.949  45.891 -22.978  1.00  0.00     0.010 C 
BRANCH  22  24
HETATM   24  C15 UNL     1      -7.699  47.715 -24.512  1.00  0.00     0.008 C 
BRANCH  24  25
HETATM   25  C16 UNL     1      -7.716  46.622 -25.589  1.00  0.00     0.028 C 
BRANCH  25  26
HETATM   26  C17 UNL     1      -8.196  47.110 -26.928  1.00  0.00    -0.022 C 
HETATM   27  C18 UNL     1      -7.456  47.612 -27.939  1.00  0.00    -0.064 C 
HETATM   28  C19 UNL     1      -5.955  47.738 -27.899  1.00  0.00     0.045 C 
BRANCH  27  29
HETATM   29  C20 UNL     1      -8.055  48.112 -29.238  1.00  0.00     0.197 C 
BRANCH  29  30
HETATM   30  O3  UNL     1      -8.597  49.418 -29.112  1.00  0.00    -0.397 OA
HETATM   31  H29 UNL     1      -9.302  49.356 -28.446  1.00  0.00     0.209 HD
ENDBRANCH  29  30
ENDBRANCH  27  29
ENDBRANCH  25  26
ENDBRANCH  24  25
ENDBRANCH  22  24
ENDBRANCH  14  22
BRANCH  20  32
HETATM   32  C27 UNL     1      -0.994  49.211 -18.926  1.00  0.00     0.021 C 
BRANCH  32  33
HETATM   33  C28 UNL     1      -1.116  49.428 -17.418  1.00  0.00     0.111 C 
BRANCH  33  34
HETATM   34  C29 UNL     1       0.186  49.533 -16.673  1.00  0.00     0.139 C 
HETATM   35  O4  UNL     1       0.844  50.552 -16.543  1.00  0.00    -0.650 OA
BRANCH  34  36
HETATM   36  O5  UNL     1       0.561  48.401 -16.052  1.00  0.00    -0.776 OA
HETATM   37  H43 UNL     1       1.382  48.654 -15.578  1.00  0.00     0.167 HD
ENDBRANCH  34  36
ENDBRANCH  33  34
ENDBRANCH  32  33
ENDBRANCH  20  32
TORSDOF 10
ENDMDL
MODEL 9
REMARK minimizedAffinity -8.22986507
REMARK CNNscore 0.190580472
REMARK CNNaffinity 6.61184835
REMARK  10 active torsions:
REMARK  status: ('A' for Active; 'I' for Inactive)
REMARK    1  A    between atoms: C12_14  and  C13_15 
REMARK    2  A    between atoms: C13_15  and  C15_17 
REMARK    3  A    between atoms: C15_17  and  C16_18 
REMARK    4  A    between atoms: C16_18  and  C17_19 
REMARK    5  A    between atoms: C18_20  and  C20_22 
REMARK    6  A    between atoms: C20_22  and  O3_23 
REMARK    7  A    between atoms: C26_29  and  C27_30 
REMARK    8  A    between atoms: C27_30  and  C28_31 
REMARK    9  A    between atoms: C28_31  and  C29_32 
REMARK   10  A    between atoms: C29_32  and  O5_34 
ROOT
HETATM    1  C1  UNL     1      -6.428  46.163 -18.752  1.00  0.00     0.025 C 
HETATM    2  C2  UNL     1      -6.553  47.441 -19.129  1.00  0.00     0.015 C 
HETATM    3  C3  UNL     1      -7.892  48.037 -19.354  1.00  0.00     0.289 C 
HETATM    4  O1  UNL     1      -8.965  47.554 -19.044  1.00  0.00    -0.260 OA
HETATM    5  O2  UNL     1      -7.711  49.238 -19.966  1.00  0.00    -0.311 OA
HETATM    6  C4  UNL     1      -6.334  49.390 -20.358  1.00  0.00     0.142 C 
HETATM    7  C5  UNL     1      -6.217  49.043 -21.838  1.00  0.00     0.039 C 
HETATM    8  C6  UNL     1      -4.789  49.004 -22.402  1.00  0.00     0.006 C 
HETATM    9  C7  UNL     1      -3.764  48.314 -21.462  1.00  0.00    -0.027 A 
HETATM   10  C8  UNL     1      -2.315  48.335 -22.000  1.00  0.00     0.011 C 
HETATM   11  C9  UNL     1      -1.852  49.666 -22.609  1.00  0.00     0.011 C 
HETATM   12  C10 UNL     1      -2.858  50.178 -23.653  1.00  0.00    -0.032 C 
HETATM   13  C11 UNL     1      -2.922  49.147 -24.816  1.00  0.00     0.016 C 
HETATM   14  C12 UNL     1      -2.613  51.603 -24.248  1.00  0.00    -0.002 C 
HETATM   15  C21 UNL     1      -4.050  52.075 -24.634  1.00  0.00     0.006 C 
HETATM   16  C22 UNL     1      -5.047  51.100 -23.977  1.00  0.00     0.011 C 
HETATM   17  C23 UNL     1      -4.232  50.383 -22.890  1.00  0.00    -0.032 C 
HETATM   18  C24 UNL     1      -4.139  51.365 -21.677  1.00  0.00     0.016 C 
HETATM   19  C25 UNL     1      -4.089  46.945 -20.915  1.00  0.00     0.022 A 
HETATM   20  C26 UNL     1      -4.143  48.110 -19.950  1.00  0.00    -0.021 A 
HETATM   21  C30 UNL     1      -5.534  48.496 -19.427  1.00  0.00     0.063 C 
ENDROOT
BRANCH  14  22
HETATM   22  C13 UNL     1      -1.548  51.920 -25.344  1.00  0.00    -0.014 C 
HETATM   23  C14 UNL     1      -0.809  50.726 -25.968  1.00  0.00     0.010 C 
BRANCH  22  24
HETATM   24  C15 UNL     1      -0.499  52.979 -24.933  1.00  0.00     0.008 C 
BRANCH  24  25
HETATM   25  C16 UNL     1       0.655  52.490 -24.047  1.00  0.00     0.028 C 
BRANCH  25  26
HETATM   26  C17 UNL     1       0.314  52.464 -22.583  1.00  0.00    -0.022 C 
HETATM   27  C18 UNL     1       0.747  53.302 -21.617  1.00  0.00    -0.064 C 
HETATM   28  C19 UNL     1       1.658  54.475 -21.872  1.00  0.00     0.045 C 
BRANCH  27  29
HETATM   29  C20 UNL     1       0.366  53.156 -20.158  1.00  0.00     0.197 C 
BRANCH  29  30
HETATM   30  O3  UNL     1       1.341  53.715 -19.290  1.00  0.00    -0.397 OA
HETATM   31  H29 UNL     1       2.161  53.221 -19.449  1.00  0.00     0.209 HD
ENDBRANCH  29  30
ENDBRANCH  27  29
ENDBRANCH  25  26
ENDBRANCH  24  25
ENDBRANCH  22  24
ENDBRANCH  14  22
BRANCH  20  32
HETATM   32  C27 UNL     1      -3.035  48.323 -18.908  1.00  0.00     0.021 C 
BRANCH  32  33
HETATM   33  C28 UNL     1      -3.231  49.536 -17.999  1.00  0.00     0.111 C 
BRANCH  33  34
HETATM   34  C29 UNL     1      -2.368  50.726 -18.314  1.00  0.00     0.139 C 
HETATM   35  O4  UNL     1      -2.768  51.870 -18.451  1.00  0.00    -0.650 OA
BRANCH  34  36
HETATM   36  O5  UNL     1      -1.051  50.460 -18.353  1.00  0.00    -0.776 OA
HETATM   37  H43 UNL     1      -0.638  51.336 -18.509  1.00  0.00     0.167 HD
ENDBRANCH  34  36
ENDBRANCH  33  34
ENDBRANCH  32  33
ENDBRANCH  20  32
TORSDOF 10
ENDMDL
