MODEL 1
REMARK minimizedAffinity -7.43005753
REMARK CNNscore 0.819893181
REMARK CNNaffinity 7.41867876
REMARK  16 active torsions:
REMARK  status: ('A' for Active; 'I' for Inactive)
REMARK    1  A    between atoms: C2_2  and  C3_3 
REMARK    2  A    between atoms: C2_2  and  C29_35 
REMARK    3  A    between atoms: C3_3  and  C4_4 
REMARK    4  A    between atoms: C4_4  and  O1_5 
REMARK    5  A    between atoms: C4_4  and  C5_6 
REMARK    6  A    between atoms: C5_6  and  C7_8 
REMARK    7  A    between atoms: C9_10  and  C10_11 
REMARK    8  A    between atoms: C10_11  and  C11_12 
REMARK    9  A    between atoms: C11_12  and  C12_13 
REMARK   10  A    between atoms: C12_13  and  O2_14 
REMARK   11  A    between atoms: C13_15  and  O3_16 
REMARK   12  A    between atoms: C19_23  and  O5_24 
REMARK   13  A    between atoms: C20_25  and  O6_26 
REMARK   14  A    between atoms: C29_35  and  C32_38 
REMARK   15  A    between atoms: C32_38  and  C33_39 
REMARK   16  A    between atoms: C33_39  and  N1_40 
ROOT
HETATM    1  C7  UNL     1       2.119  54.713 -10.757  1.00  0.00     0.003 C 
HETATM    2  C8  UNL     1       3.114  53.558 -11.028  1.00  0.00     0.014 C 
HETATM    3  C9  UNL     1       2.274  52.244 -11.136  1.00  0.00     0.026 C 
HETATM    4  C13 UNL     1       0.810  52.754 -11.227  1.00  0.00     0.093 C 
HETATM    5  C14 UNL     1      -0.401  51.931 -10.845  1.00  0.00    -0.036 C 
HETATM    6  C15 UNL     1      -0.327  50.760 -10.192  1.00  0.00     0.057 C 
HETATM    7  C16 UNL     1      -1.529  50.105  -9.636  1.00  0.00     0.154 C 
HETATM    8  O4  UNL     1      -1.402  49.000  -9.113  1.00  0.00    -0.293 OA
HETATM    9  C17 UNL     1      -2.860  50.855  -9.683  1.00  0.00     0.071 C 
HETATM   10  C18 UNL     1      -4.038  49.872  -9.519  1.00  0.00     0.047 C 
HETATM   11  C19 UNL     1      -4.381  49.098 -10.795  1.00  0.00     0.147 C 
HETATM   12  C20 UNL     1      -3.384  49.306 -11.941  1.00  0.00     0.147 C 
HETATM   13  C21 UNL     1      -3.100  50.786 -12.233  1.00  0.00     0.044 C 
HETATM   14  C22 UNL     1      -2.979  51.710 -10.970  1.00  0.00    -0.023 C 
HETATM   15  C23 UNL     1      -4.264  52.575 -10.908  1.00  0.00     0.016 C 
HETATM   16  C24 UNL     1      -1.724  52.648 -11.125  1.00  0.00     0.027 C 
HETATM   17  C25 UNL     1      -1.753  53.965 -10.299  1.00  0.00     0.011 C 
HETATM   18  C26 UNL     1      -0.476  54.829 -10.451  1.00  0.00     0.013 C 
HETATM   19  C27 UNL     1       0.823  54.003 -10.268  1.00  0.00    -0.004 C 
HETATM   20  C28 UNL     1       0.909  53.610  -8.768  1.00  0.00     0.019 C 
ENDROOT
BRANCH   1  21
HETATM   21  C5  UNL     1       2.650  55.966  -9.986  1.00  0.00     0.015 C 
HETATM   22  C6  UNL     1       3.685  56.657 -10.901  1.00  0.00     0.013 C 
BRANCH  21  23
HETATM   23  C4  UNL     1       3.284  55.761  -8.573  1.00  0.00     0.126 C 
BRANCH  23  24
HETATM   24  C3  UNL     1       4.590  56.570  -8.334  1.00  0.00     0.066 C 
BRANCH  24  25
HETATM   25  C2  UNL     1       5.801  55.854  -7.751  1.00  0.00    -0.079 C 
HETATM   26  C1  UNL     1       6.630  55.232  -8.614  1.00  0.00     0.015 C 
BRANCH  25  27
HETATM   27  C29 UNL     1       6.140  56.009  -6.238  1.00  0.00    -0.023 C 
HETATM   28  C30 UNL     1       6.029  54.681  -5.455  1.00  0.00     0.019 C 
HETATM   29  C31 UNL     1       5.106  56.989  -5.640  1.00  0.00     0.019 C 
BRANCH  27  30
HETATM   30  C32 UNL     1       7.586  56.580  -6.052  1.00  0.00     0.033 C 
BRANCH  30  31
HETATM   31  C33 UNL     1       8.600  55.639  -5.389  1.00  0.00     0.130 C 
BRANCH  31  32
HETATM   32  N1  UNL     1       9.865  56.305  -5.138  1.00  0.00    -0.352 N 
HETATM   33  C34 UNL     1      10.038  57.622  -4.822  1.00  0.00     0.108 A 
HETATM   34  C35 UNL     1      11.397  57.769  -4.660  1.00  0.00     0.106 A 
HETATM   35  N2  UNL     1      12.044  56.579  -4.866  1.00  0.00    -0.361 N 
HETATM   36  C36 UNL     1      11.096  55.714  -5.150  1.00  0.00     0.182 A 
ATOM     37  H2  UNL     1      13.047  56.403  -4.811  1.00  0.00     0.166 HD
ENDBRANCH  31  32
ENDBRANCH  30  31
ENDBRANCH  27  30
ENDBRANCH  25  27
ENDBRANCH  24  25
ENDBRANCH  23  24
BRANCH  23  38
HETATM   38  O1  UNL     1       2.382  56.166  -7.545  1.00  0.00    -0.395 OA
HETATM   39  H6  UNL     1       2.752  55.878  -6.692  1.00  0.00     0.210 HD
ENDBRANCH  23  38
ENDBRANCH  21  23
ENDBRANCH   1  21
BRANCH   3  40
HETATM   40  C10 UNL     1       2.810  51.391 -12.305  1.00  0.00     0.010 C 
BRANCH  40  41
HETATM   41  C11 UNL     1       3.290  49.997 -11.914  1.00  0.00     0.027 C 
BRANCH  41  42
HETATM   42  C12 UNL     1       4.319  50.055 -10.792  1.00  0.00     0.164 C 
BRANCH  42  43
HETATM   43  O2  UNL     1       4.887  48.764 -10.622  1.00  0.00    -0.401 OA
HETATM   44  H21 UNL     1       5.557  48.837  -9.922  1.00  0.00     0.209 HD
ENDBRANCH  42  43
ENDBRANCH  41  42
ENDBRANCH  40  41
ENDBRANCH   3  40
BRANCH   4  45
HETATM   45  O3  UNL     1       0.627  53.091 -12.612  1.00  0.00    -0.384 OA
HETATM   46  H22 UNL     1       0.281  53.992 -12.693  1.00  0.00     0.211 HD
ENDBRANCH   4  45
BRANCH  12  47
HETATM   47  O6  UNL     1      -3.920  48.709 -13.130  1.00  0.00    -0.393 OA
HETATM   48  H30 UNL     1      -3.783  47.748 -13.048  1.00  0.00     0.210 HD
ENDBRANCH  12  47
BRANCH  11  49
HETATM   49  O5  UNL     1      -5.686  49.498 -11.238  1.00  0.00    -0.393 OA
HETATM   50  H28 UNL     1      -5.722  49.254 -12.185  1.00  0.00     0.210 HD
ENDBRANCH  11  49
TORSDOF 16
ENDMDL
MODEL 2
REMARK minimizedAffinity -8.47260571
REMARK CNNscore 0.715048969
REMARK CNNaffinity 7.59038687
REMARK  16 active torsions:
REMARK  status: ('A' for Active; 'I' for Inactive)
REMARK    1  A    between atoms: C2_2  and  C3_3 
REMARK    2  A    between atoms: C2_2  and  C29_35 
REMARK    3  A    between atoms: C3_3  and  C4_4 
REMARK    4  A    between atoms: C4_4  and  O1_5 
REMARK    5  A    between atoms: C4_4  and  C5_6 
REMARK    6  A    between atoms: C5_6  and  C7_8 
REMARK    7  A    between atoms: C9_10  and  C10_11 
REMARK    8  A    between atoms: C10_11  and  C11_12 
REMARK    9  A    between atoms: C11_12  and  C12_13 
REMARK   10  A    between atoms: C12_13  and  O2_14 
REMARK   11  A    between atoms: C13_15  and  O3_16 
REMARK   12  A    between atoms: C19_23  and  O5_24 
REMARK   13  A    between atoms: C20_25  and  O6_26 
REMARK   14  A    between atoms: C29_35  and  C32_38 
REMARK   15  A    between atoms: C32_38  and  C33_39 
REMARK   16  A    between atoms: C33_39  and  N1_40 
ROOT
HETATM    1  C7  UNL     1      -1.115  50.710 -16.803  1.00  0.00     0.003 C 
HETATM    2  C8  UNL     1      -0.025  51.571 -17.485  1.00  0.00     0.014 C 
HETATM    3  C9  UNL     1      -0.400  51.673 -19.000  1.00  0.00     0.026 C 
HETATM    4  C13 UNL     1      -1.851  51.122 -19.053  1.00  0.00     0.093 C 
HETATM    5  C14 UNL     1      -2.491  50.536 -20.293  1.00  0.00    -0.036 C 
HETATM    6  C15 UNL     1      -1.809  50.238 -21.410  1.00  0.00     0.057 C 
HETATM    7  C16 UNL     1      -2.420  49.458 -22.506  1.00  0.00     0.154 C 
HETATM    8  O4  UNL     1      -1.766  49.282 -23.532  1.00  0.00    -0.293 OA
HETATM    9  C17 UNL     1      -3.810  48.859 -22.294  1.00  0.00     0.071 C 
HETATM   10  C18 UNL     1      -4.463  48.519 -23.649  1.00  0.00     0.047 C 
HETATM   11  C19 UNL     1      -5.052  49.732 -24.374  1.00  0.00     0.147 C 
HETATM   12  C20 UNL     1      -4.727  51.077 -23.713  1.00  0.00     0.147 C 
HETATM   13  C21 UNL     1      -5.044  51.103 -22.212  1.00  0.00     0.044 C 
HETATM   14  C22 UNL     1      -4.697  49.789 -21.427  1.00  0.00    -0.023 C 
HETATM   15  C23 UNL     1      -6.037  49.080 -21.100  1.00  0.00     0.016 C 
HETATM   16  C24 UNL     1      -3.959  50.158 -20.085  1.00  0.00     0.027 C 
HETATM   17  C25 UNL     1      -4.038  49.097 -18.951  1.00  0.00     0.011 C 
HETATM   18  C26 UNL     1      -3.259  49.489 -17.671  1.00  0.00     0.013 C 
HETATM   19  C27 UNL     1      -1.818  49.971 -17.978  1.00  0.00    -0.004 C 
HETATM   20  C28 UNL     1      -1.010  48.730 -18.449  1.00  0.00     0.019 C 
ENDROOT
BRANCH   1  21
HETATM   21  C5  UNL     1      -0.715  49.911 -15.520  1.00  0.00     0.015 C 
HETATM   22  C6  UNL     1      -1.845  48.894 -15.247  1.00  0.00     0.013 C 
BRANCH  21  23
HETATM   23  C4  UNL     1      -0.422  50.704 -14.206  1.00  0.00     0.126 C 
BRANCH  23  24
HETATM   24  C3  UNL     1      -1.494  50.520 -13.095  1.00  0.00     0.066 C 
BRANCH  24  25
HETATM   25  C2  UNL     1      -2.522  51.622 -12.878  1.00  0.00    -0.079 C 
HETATM   26  C1  UNL     1      -3.174  52.086 -13.964  1.00  0.00     0.015 C 
BRANCH  25  27
HETATM   27  C29 UNL     1      -2.916  52.043 -11.431  1.00  0.00    -0.023 C 
HETATM   28  C30 UNL     1      -3.991  53.153 -11.396  1.00  0.00     0.019 C 
HETATM   29  C31 UNL     1      -1.643  52.609 -10.762  1.00  0.00     0.019 C 
BRANCH  27  30
HETATM   30  C32 UNL     1      -3.441  50.811 -10.620  1.00  0.00     0.033 C 
BRANCH  30  31
HETATM   31  C33 UNL     1      -4.562  50.000 -11.281  1.00  0.00     0.130 C 
BRANCH  31  32
HETATM   32  N1  UNL     1      -5.475  49.445 -10.297  1.00  0.00    -0.352 N 
HETATM   33  C34 UNL     1      -6.820  49.668 -10.226  1.00  0.00     0.108 A 
HETATM   34  C35 UNL     1      -7.244  48.917  -9.153  1.00  0.00     0.106 A 
HETATM   35  N2  UNL     1      -6.193  48.248  -8.581  1.00  0.00    -0.361 N 
HETATM   36  C36 UNL     1      -5.140  48.583  -9.293  1.00  0.00     0.182 A 
ATOM     37  H2  UNL     1      -6.222  47.623  -7.776  1.00  0.00     0.166 HD
ENDBRANCH  31  32
ENDBRANCH  30  31
ENDBRANCH  27  30
ENDBRANCH  25  27
ENDBRANCH  24  25
ENDBRANCH  23  24
BRANCH  23  38
HETATM   38  O1  UNL     1       0.814  50.292 -13.625  1.00  0.00    -0.395 OA
HETATM   39  H6  UNL     1       1.029  50.913 -12.906  1.00  0.00     0.210 HD
ENDBRANCH  23  38
ENDBRANCH  21  23
ENDBRANCH   1  21
BRANCH   3  40
HETATM   40  C10 UNL     1      -0.164  53.119 -19.487  1.00  0.00     0.010 C 
BRANCH  40  41
HETATM   41  C11 UNL     1       1.238  53.394 -20.019  1.00  0.00     0.027 C 
BRANCH  41  42
HETATM   42  C12 UNL     1       1.220  53.698 -21.512  1.00  0.00     0.164 C 
BRANCH  42  43
HETATM   43  O2  UNL     1       1.969  54.882 -21.750  1.00  0.00    -0.401 OA
HETATM   44  H21 UNL     1       1.963  55.035 -22.710  1.00  0.00     0.209 HD
ENDBRANCH  42  43
ENDBRANCH  41  42
ENDBRANCH  40  41
ENDBRANCH   3  40
BRANCH   4  45
HETATM   45  O3  UNL     1      -2.678  52.236 -18.680  1.00  0.00    -0.384 OA
HETATM   46  H22 UNL     1      -3.279  51.981 -17.965  1.00  0.00     0.211 HD
ENDBRANCH   4  45
BRANCH  12  47
HETATM   47  O6  UNL     1      -5.499  52.102 -24.353  1.00  0.00    -0.393 OA
HETATM   48  H30 UNL     1      -5.060  52.297 -25.201  1.00  0.00     0.210 HD
ENDBRANCH  12  47
BRANCH  11  49
HETATM   49  O5  UNL     1      -6.478  49.582 -24.439  1.00  0.00    -0.393 OA
HETATM   50  H28 UNL     1      -6.826  50.484 -24.592  1.00  0.00     0.210 HD
ENDBRANCH  11  49
TORSDOF 16
ENDMDL
MODEL 3
REMARK minimizedAffinity -8.29123116
REMARK CNNscore 0.64032191
REMARK CNNaffinity 8.14238167
REMARK  16 active torsions:
REMARK  status: ('A' for Active; 'I' for Inactive)
REMARK    1  A    between atoms: C2_2  and  C3_3 
REMARK    2  A    between atoms: C2_2  and  C29_35 
REMARK    3  A    between atoms: C3_3  and  C4_4 
REMARK    4  A    between atoms: C4_4  and  O1_5 
REMARK    5  A    between atoms: C4_4  and  C5_6 
REMARK    6  A    between atoms: C5_6  and  C7_8 
REMARK    7  A    between atoms: C9_10  and  C10_11 
REMARK    8  A    between atoms: C10_11  and  C11_12 
REMARK    9  A    between atoms: C11_12  and  C12_13 
REMARK   10  A    between atoms: C12_13  and  O2_14 
REMARK   11  A    between atoms: C13_15  and  O3_16 
REMARK   12  A    between atoms: C19_23  and  O5_24 
REMARK   13  A    between atoms: C20_25  and  O6_26 
REMARK   14  A    between atoms: C29_35  and  C32_38 
REMARK   15  A    between atoms: C32_38  and  C33_39 
REMARK   16  A    between atoms: C33_39  and  N1_40 
ROOT
HETATM    1  C7  UNL     1      -2.387  48.630 -19.698  1.00  0.00     0.003 C 
HETATM    2  C8  UNL     1      -1.774  50.025 -19.970  1.00  0.00     0.014 C 
HETATM    3  C9  UNL     1      -1.483  50.679 -18.580  1.00  0.00     0.026 C 
HETATM    4  C13 UNL     1      -1.658  49.502 -17.581  1.00  0.00     0.093 C 
HETATM    5  C14 UNL     1      -1.986  49.676 -16.114  1.00  0.00    -0.036 C 
HETATM    6  C15 UNL     1      -2.366  50.844 -15.572  1.00  0.00     0.057 C 
HETATM    7  C16 UNL     1      -2.897  50.923 -14.196  1.00  0.00     0.154 C 
HETATM    8  O4  UNL     1      -3.159  52.032 -13.734  1.00  0.00    -0.293 OA
HETATM    9  C17 UNL     1      -3.152  49.624 -13.432  1.00  0.00     0.071 C 
HETATM   10  C18 UNL     1      -3.231  49.896 -11.916  1.00  0.00     0.047 C 
HETATM   11  C19 UNL     1      -1.865  50.069 -11.246  1.00  0.00     0.147 C 
HETATM   12  C20 UNL     1      -0.688  50.122 -12.228  1.00  0.00     0.147 C 
HETATM   13  C21 UNL     1      -0.686  48.960 -13.230  1.00  0.00     0.044 C 
HETATM   14  C22 UNL     1      -2.095  48.547 -13.785  1.00  0.00    -0.023 C 
HETATM   15  C23 UNL     1      -2.475  47.199 -13.119  1.00  0.00     0.016 C 
HETATM   16  C24 UNL     1      -2.007  48.353 -15.346  1.00  0.00     0.027 C 
HETATM   17  C25 UNL     1      -3.090  47.434 -15.979  1.00  0.00     0.011 C 
HETATM   18  C26 UNL     1      -2.988  47.314 -17.520  1.00  0.00     0.013 C 
HETATM   19  C27 UNL     1      -2.852  48.693 -18.215  1.00  0.00    -0.004 C 
HETATM   20  C28 UNL     1      -4.218  49.418 -18.065  1.00  0.00     0.019 C 
ENDROOT
BRANCH   1  21
HETATM   21  C5  UNL     1      -3.344  48.032 -20.781  1.00  0.00     0.015 C 
HETATM   22  C6  UNL     1      -2.790  46.639 -21.156  1.00  0.00     0.013 C 
BRANCH  21  23
HETATM   23  C4  UNL     1      -3.592  48.845 -22.091  1.00  0.00     0.126 C 
BRANCH  23  24
HETATM   24  C3  UNL     1      -2.835  48.301 -23.336  1.00  0.00     0.066 C 
BRANCH  24  25
HETATM   25  C2  UNL     1      -2.934  49.068 -24.648  1.00  0.00    -0.079 C 
HETATM   26  C1  UNL     1      -3.738  48.561 -25.604  1.00  0.00     0.015 C 
BRANCH  25  27
HETATM   27  C29 UNL     1      -2.268  50.470 -24.780  1.00  0.00    -0.023 C 
HETATM   28  C30 UNL     1      -1.258  50.768 -23.648  1.00  0.00     0.019 C 
HETATM   29  C31 UNL     1      -3.398  51.519 -24.683  1.00  0.00     0.019 C 
BRANCH  27  30
HETATM   30  C32 UNL     1      -1.532  50.605 -26.155  1.00  0.00     0.033 C 
BRANCH  30  31
HETATM   31  C33 UNL     1      -0.939  51.984 -26.468  1.00  0.00     0.130 C 
BRANCH  31  32
HETATM   32  N1  UNL     1       0.472  51.899 -26.800  1.00  0.00    -0.352 N 
HETATM   33  C34 UNL     1       1.004  51.806 -28.054  1.00  0.00     0.108 A 
HETATM   34  C35 UNL     1       2.366  51.774 -27.856  1.00  0.00     0.106 A 
HETATM   35  N2  UNL     1       2.666  51.849 -26.521  1.00  0.00    -0.361 N 
HETATM   36  C36 UNL     1       1.506  51.926 -25.909  1.00  0.00     0.182 A 
ATOM     37  H2  UNL     1       3.592  51.846 -26.094  1.00  0.00     0.166 HD
ENDBRANCH  31  32
ENDBRANCH  30  31
ENDBRANCH  27  30
ENDBRANCH  25  27
ENDBRANCH  24  25
ENDBRANCH  23  24
BRANCH  23  38
HETATM   38  O1  UNL     1      -4.975  48.837 -22.444  1.00  0.00    -0.395 OA
HETATM   39  H6  UNL     1      -5.103  49.476 -23.167  1.00  0.00     0.210 HD
ENDBRANCH  23  38
ENDBRANCH  21  23
ENDBRANCH   1  21
BRANCH   3  40
HETATM   40  C10 UNL     1      -0.109  51.381 -18.625  1.00  0.00     0.010 C 
BRANCH  40  41
HETATM   41  C11 UNL     1      -0.145  52.826 -19.112  1.00  0.00     0.027 C 
BRANCH  41  42
HETATM   42  C12 UNL     1       0.836  53.055 -20.255  1.00  0.00     0.164 C 
BRANCH  42  43
HETATM   43  O2  UNL     1       1.465  54.316 -20.076  1.00  0.00    -0.401 OA
HETATM   44  H21 UNL     1       2.103  54.423 -20.802  1.00  0.00     0.209 HD
ENDBRANCH  42  43
ENDBRANCH  41  42
ENDBRANCH  40  41
ENDBRANCH   3  40
BRANCH   4  45
HETATM   45  O3  UNL     1      -0.404  48.803 -17.617  1.00  0.00    -0.384 OA
HETATM   46  H22 UNL     1      -0.552  47.860 -17.779  1.00  0.00     0.211 HD
ENDBRANCH   4  45
BRANCH  12  47
HETATM   47  O6  UNL     1       0.535  50.073 -11.481  1.00  0.00    -0.393 OA
HETATM   48  H30 UNL     1       0.673  50.963 -11.108  1.00  0.00     0.210 HD
ENDBRANCH  12  47
BRANCH  11  49
HETATM   49  O5  UNL     1      -1.658  48.981 -10.335  1.00  0.00    -0.393 OA
HETATM   50  H28 UNL     1      -0.691  48.943 -10.193  1.00  0.00     0.210 HD
ENDBRANCH  11  49
TORSDOF 16
ENDMDL
MODEL 4
REMARK minimizedAffinity -8.78602028
REMARK CNNscore 0.632324159
REMARK CNNaffinity 7.44603872
REMARK  16 active torsions:
REMARK  status: ('A' for Active; 'I' for Inactive)
REMARK    1  A    between atoms: C2_2  and  C3_3 
REMARK    2  A    between atoms: C2_2  and  C29_35 
REMARK    3  A    between atoms: C3_3  and  C4_4 
REMARK    4  A    between atoms: C4_4  and  O1_5 
REMARK    5  A    between atoms: C4_4  and  C5_6 
REMARK    6  A    between atoms: C5_6  and  C7_8 
REMARK    7  A    between atoms: C9_10  and  C10_11 
REMARK    8  A    between atoms: C10_11  and  C11_12 
REMARK    9  A    between atoms: C11_12  and  C12_13 
REMARK   10  A    between atoms: C12_13  and  O2_14 
REMARK   11  A    between atoms: C13_15  and  O3_16 
REMARK   12  A    between atoms: C19_23  and  O5_24 
REMARK   13  A    between atoms: C20_25  and  O6_26 
REMARK   14  A    between atoms: C29_35  and  C32_38 
REMARK   15  A    between atoms: C32_38  and  C33_39 
REMARK   16  A    between atoms: C33_39  and  N1_40 
ROOT
HETATM    1  C7  UNL     1      -1.380  50.640 -16.727  1.00  0.00     0.003 C 
HETATM    2  C8  UNL     1      -0.162  51.256 -17.458  1.00  0.00     0.014 C 
HETATM    3  C9  UNL     1      -0.503  51.278 -18.984  1.00  0.00     0.026 C 
HETATM    4  C13 UNL     1      -2.023  50.957 -19.021  1.00  0.00     0.093 C 
HETATM    5  C14 UNL     1      -2.736  50.368 -20.219  1.00  0.00    -0.036 C 
HETATM    6  C15 UNL     1      -2.100  49.868 -21.290  1.00  0.00     0.057 C 
HETATM    7  C16 UNL     1      -2.817  49.097 -22.327  1.00  0.00     0.154 C 
HETATM    8  O4  UNL     1      -2.189  48.730 -23.318  1.00  0.00    -0.293 OA
HETATM    9  C17 UNL     1      -4.285  48.744 -22.094  1.00  0.00     0.071 C 
HETATM   10  C18 UNL     1      -4.972  48.389 -23.428  1.00  0.00     0.047 C 
HETATM   11  C19 UNL     1      -5.357  49.608 -24.271  1.00  0.00     0.147 C 
HETATM   12  C20 UNL     1      -4.830  50.940 -23.723  1.00  0.00     0.147 C 
HETATM   13  C21 UNL     1      -5.152  51.151 -22.237  1.00  0.00     0.044 C 
HETATM   14  C22 UNL     1      -5.022  49.875 -21.332  1.00  0.00    -0.023 C 
HETATM   15  C23 UNL     1      -6.460  49.416 -20.975  1.00  0.00     0.016 C 
HETATM   16  C24 UNL     1      -4.248  50.244 -20.012  1.00  0.00     0.027 C 
HETATM   17  C25 UNL     1      -4.502  49.315 -18.791  1.00  0.00     0.011 C 
HETATM   18  C26 UNL     1      -3.682  49.695 -17.533  1.00  0.00     0.013 C 
HETATM   19  C27 UNL     1      -2.181  49.917 -17.849  1.00  0.00    -0.004 C 
HETATM   20  C28 UNL     1      -1.574  48.528 -18.190  1.00  0.00     0.019 C 
ENDROOT
BRANCH   1  21
HETATM   21  C5  UNL     1      -1.121  49.908 -15.370  1.00  0.00     0.015 C 
HETATM   22  C6  UNL     1      -1.037  48.397 -15.678  1.00  0.00     0.013 C 
BRANCH  21  23
HETATM   23  C4  UNL     1      -2.130  50.128 -14.198  1.00  0.00     0.126 C 
BRANCH  23  24
HETATM   24  C3  UNL     1      -1.778  51.324 -13.267  1.00  0.00     0.066 C 
BRANCH  24  25
HETATM   25  C2  UNL     1      -2.054  51.197 -11.775  1.00  0.00    -0.079 C 
HETATM   26  C1  UNL     1      -1.208  50.438 -11.049  1.00  0.00     0.015 C 
BRANCH  25  27
HETATM   27  C29 UNL     1      -3.164  52.068 -11.113  1.00  0.00    -0.023 C 
HETATM   28  C30 UNL     1      -4.318  51.229 -10.522  1.00  0.00     0.019 C 
HETATM   29  C31 UNL     1      -3.760  52.962 -12.224  1.00  0.00     0.019 C 
BRANCH  27  30
HETATM   30  C32 UNL     1      -2.561  52.961  -9.977  1.00  0.00     0.033 C 
BRANCH  30  31
HETATM   31  C33 UNL     1      -2.161  54.385 -10.382  1.00  0.00     0.130 C 
BRANCH  31  32
HETATM   32  N1  UNL     1      -0.721  54.569 -10.348  1.00  0.00    -0.352 N 
HETATM   33  C34 UNL     1      -0.011  55.218  -9.380  1.00  0.00     0.108 A 
HETATM   34  C35 UNL     1       1.303  55.109  -9.776  1.00  0.00     0.106 A 
HETATM   35  N2  UNL     1       1.401  54.410 -10.951  1.00  0.00    -0.361 N 
HETATM   36  C36 UNL     1       0.166  54.095 -11.271  1.00  0.00     0.182 A 
ATOM     37  H2  UNL     1       2.251  54.183 -11.467  1.00  0.00     0.166 HD
ENDBRANCH  31  32
ENDBRANCH  30  31
ENDBRANCH  27  30
ENDBRANCH  25  27
ENDBRANCH  24  25
ENDBRANCH  23  24
BRANCH  23  38
HETATM   38  O1  UNL     1      -3.441  50.394 -14.694  1.00  0.00    -0.395 OA
HETATM   39  H6  UNL     1      -4.057  50.369 -13.940  1.00  0.00     0.210 HD
ENDBRANCH  23  38
ENDBRANCH  21  23
ENDBRANCH   1  21
BRANCH   3  40
HETATM   40  C10 UNL     1      -0.039  52.619 -19.590  1.00  0.00     0.010 C 
BRANCH  40  41
HETATM   41  C11 UNL     1       0.370  52.550 -21.058  1.00  0.00     0.027 C 
BRANCH  41  42
HETATM   42  C12 UNL     1       1.272  53.717 -21.442  1.00  0.00     0.164 C 
BRANCH  42  43
HETATM   43  O2  UNL     1       1.573  54.468 -20.274  1.00  0.00    -0.401 OA
HETATM   44  H21 UNL     1       2.170  55.187 -20.543  1.00  0.00     0.209 HD
ENDBRANCH  42  43
ENDBRANCH  41  42
ENDBRANCH  40  41
ENDBRANCH   3  40
BRANCH   4  45
HETATM   45  O3  UNL     1      -2.668  52.215 -18.766  1.00  0.00    -0.384 OA
HETATM   46  H22 UNL     1      -3.307  52.123 -18.045  1.00  0.00     0.211 HD
ENDBRANCH   4  45
BRANCH  12  47
HETATM   47  O6  UNL     1      -5.426  52.011 -24.467  1.00  0.00    -0.393 OA
HETATM   48  H30 UNL     1      -4.954  52.057 -25.319  1.00  0.00     0.210 HD
ENDBRANCH  12  47
BRANCH  11  49
HETATM   49  O5  UNL     1      -6.788  49.677 -24.354  1.00  0.00    -0.393 OA
HETATM   50  H28 UNL     1      -6.988  50.604 -24.593  1.00  0.00     0.210 HD
ENDBRANCH  11  49
TORSDOF 16
ENDMDL
MODEL 5
REMARK minimizedAffinity -7.52010727
REMARK CNNscore 0.617545247
REMARK CNNaffinity 7.01436996
REMARK  16 active torsions:
REMARK  status: ('A' for Active; 'I' for Inactive)
REMARK    1  A    between atoms: C2_2  and  C3_3 
REMARK    2  A    between atoms: C2_2  and  C29_35 
REMARK    3  A    between atoms: C3_3  and  C4_4 
REMARK    4  A    between atoms: C4_4  and  O1_5 
REMARK    5  A    between atoms: C4_4  and  C5_6 
REMARK    6  A    between atoms: C5_6  and  C7_8 
REMARK    7  A    between atoms: C9_10  and  C10_11 
REMARK    8  A    between atoms: C10_11  and  C11_12 
REMARK    9  A    between atoms: C11_12  and  C12_13 
REMARK   10  A    between atoms: C12_13  and  O2_14 
REMARK   11  A    between atoms: C13_15  and  O3_16 
REMARK   12  A    between atoms: C19_23  and  O5_24 
REMARK   13  A    between atoms: C20_25  and  O6_26 
REMARK   14  A    between atoms: C29_35  and  C32_38 
REMARK   15  A    between atoms: C32_38  and  C33_39 
REMARK   16  A    between atoms: C33_39  and  N1_40 
ROOT
HETATM    1  C7  UNL     1      -7.464  47.541 -30.162  1.00  0.00     0.003 C 
HETATM    2  C8  UNL     1      -6.083  46.952 -30.537  1.00  0.00     0.014 C 
HETATM    3  C9  UNL     1      -6.293  46.052 -31.797  1.00  0.00     0.026 C 
HETATM    4  C13 UNL     1      -7.729  46.413 -32.267  1.00  0.00     0.093 C 
HETATM    5  C14 UNL     1      -8.602  45.503 -33.103  1.00  0.00    -0.036 C 
HETATM    6  C15 UNL     1      -8.314  44.215 -33.347  1.00  0.00     0.057 C 
HETATM    7  C16 UNL     1      -9.297  43.304 -33.968  1.00  0.00     0.154 C 
HETATM    8  O4  UNL     1      -8.944  42.156 -34.230  1.00  0.00    -0.293 OA
HETATM    9  C17 UNL     1     -10.720  43.811 -34.201  1.00  0.00     0.071 C 
HETATM   10  C18 UNL     1     -11.435  42.942 -35.256  1.00  0.00     0.047 C 
HETATM   11  C19 UNL     1     -11.038  43.267 -36.699  1.00  0.00     0.147 C 
HETATM   12  C20 UNL     1      -9.878  44.262 -36.821  1.00  0.00     0.147 C 
HETATM   13  C21 UNL     1     -10.086  45.535 -35.988  1.00  0.00     0.044 C 
HETATM   14  C22 UNL     1     -10.727  45.315 -34.572  1.00  0.00    -0.023 C 
HETATM   15  C23 UNL     1     -12.188  45.831 -34.645  1.00  0.00     0.016 C 
HETATM   16  C24 UNL     1      -9.931  46.150 -33.500  1.00  0.00     0.027 C 
HETATM   17  C25 UNL     1     -10.709  46.510 -32.203  1.00  0.00     0.011 C 
HETATM   18  C26 UNL     1      -9.867  47.291 -31.163  1.00  0.00     0.013 C 
HETATM   19  C27 UNL     1      -8.488  46.634 -30.904  1.00  0.00    -0.004 C 
HETATM   20  C28 UNL     1      -8.748  45.307 -30.138  1.00  0.00     0.019 C 
ENDROOT
BRANCH   1  21
HETATM   21  C5  UNL     1      -7.713  47.919 -28.664  1.00  0.00     0.015 C 
HETATM   22  C6  UNL     1      -7.079  46.803 -27.804  1.00  0.00     0.013 C 
BRANCH  21  23
HETATM   23  C4  UNL     1      -9.181  48.153 -28.186  1.00  0.00     0.126 C 
BRANCH  23  24
HETATM   24  C3  UNL     1      -9.780  46.978 -27.363  1.00  0.00     0.066 C 
BRANCH  24  25
HETATM   25  C2  UNL     1     -11.227  47.073 -26.895  1.00  0.00    -0.079 C 
HETATM   26  C1  UNL     1     -11.443  47.468 -25.624  1.00  0.00     0.015 C 
BRANCH  25  27
HETATM   27  C29 UNL     1     -12.388  46.895 -27.919  1.00  0.00    -0.023 C 
HETATM   28  C30 UNL     1     -12.205  45.661 -28.830  1.00  0.00     0.019 C 
HETATM   29  C31 UNL     1     -12.388  48.147 -28.825  1.00  0.00     0.019 C 
BRANCH  27  30
HETATM   30  C32 UNL     1     -13.762  46.772 -27.179  1.00  0.00     0.033 C 
BRANCH  30  31
HETATM   31  C33 UNL     1     -14.160  45.362 -26.728  1.00  0.00     0.130 C 
BRANCH  31  32
HETATM   32  N1  UNL     1     -15.468  44.986 -27.232  1.00  0.00    -0.352 N 
HETATM   33  C34 UNL     1     -16.631  44.951 -26.517  1.00  0.00     0.108 A 
HETATM   34  C35 UNL     1     -17.589  44.560 -27.425  1.00  0.00     0.106 A 
HETATM   35  N2  UNL     1     -17.036  44.364 -28.663  1.00  0.00    -0.361 N 
HETATM   36  C36 UNL     1     -15.757  44.630 -28.518  1.00  0.00     0.182 A 
ATOM     37  H2  UNL     1     -17.515  44.073 -29.515  1.00  0.00     0.166 HD
ENDBRANCH  31  32
ENDBRANCH  30  31
ENDBRANCH  27  30
ENDBRANCH  25  27
ENDBRANCH  24  25
ENDBRANCH  23  24
BRANCH  23  38
HETATM   38  O1  UNL     1      -9.267  49.301 -27.343  1.00  0.00    -0.395 OA
HETATM   39  H6  UNL     1     -10.209  49.496 -27.199  1.00  0.00     0.210 HD
ENDBRANCH  23  38
ENDBRANCH  21  23
ENDBRANCH   1  21
BRANCH   3  40
HETATM   40  C10 UNL     1      -5.135  46.286 -32.790  1.00  0.00     0.010 C 
BRANCH  40  41
HETATM   41  C11 UNL     1      -4.481  47.661 -32.698  1.00  0.00     0.027 C 
BRANCH  41  42
HETATM   42  C12 UNL     1      -3.676  47.982 -33.951  1.00  0.00     0.164 C 
BRANCH  42  43
HETATM   43  O2  UNL     1      -2.312  48.151 -33.590  1.00  0.00    -0.401 OA
HETATM   44  H21 UNL     1      -1.819  48.326 -34.409  1.00  0.00     0.209 HD
ENDBRANCH  42  43
ENDBRANCH  41  42
ENDBRANCH  40  41
ENDBRANCH   3  40
BRANCH   4  45
HETATM   45  O3  UNL     1      -7.569  47.614 -33.039  1.00  0.00    -0.384 OA
HETATM   46  H22 UNL     1      -8.178  48.297 -32.724  1.00  0.00     0.211 HD
ENDBRANCH   4  45
BRANCH  12  47
HETATM   47  O6  UNL     1      -9.743  44.644 -38.197  1.00  0.00    -0.393 OA
HETATM   48  H30 UNL     1      -9.294  43.907 -38.650  1.00  0.00     0.210 HD
ENDBRANCH  12  47
BRANCH  11  49
HETATM   49  O5  UNL     1     -12.181  43.803 -37.380  1.00  0.00    -0.393 OA
HETATM   50  H28 UNL     1     -11.819  44.290 -38.148  1.00  0.00     0.210 HD
ENDBRANCH  11  49
TORSDOF 16
ENDMDL
MODEL 6
REMARK minimizedAffinity -8.68084717
REMARK CNNscore 0.487263143
REMARK CNNaffinity 7.25944662
REMARK  16 active torsions:
REMARK  status: ('A' for Active; 'I' for Inactive)
REMARK    1  A    between atoms: C2_2  and  C3_3 
REMARK    2  A    between atoms: C2_2  and  C29_35 
REMARK    3  A    between atoms: C3_3  and  C4_4 
REMARK    4  A    between atoms: C4_4  and  O1_5 
REMARK    5  A    between atoms: C4_4  and  C5_6 
REMARK    6  A    between atoms: C5_6  and  C7_8 
REMARK    7  A    between atoms: C9_10  and  C10_11 
REMARK    8  A    between atoms: C10_11  and  C11_12 
REMARK    9  A    between atoms: C11_12  and  C12_13 
REMARK   10  A    between atoms: C12_13  and  O2_14 
REMARK   11  A    between atoms: C13_15  and  O3_16 
REMARK   12  A    between atoms: C19_23  and  O5_24 
REMARK   13  A    between atoms: C20_25  and  O6_26 
REMARK   14  A    between atoms: C29_35  and  C32_38 
REMARK   15  A    between atoms: C32_38  and  C33_39 
REMARK   16  A    between atoms: C33_39  and  N1_40 
ROOT
HETATM    1  C7  UNL     1      -1.231  50.173 -16.896  1.00  0.00     0.003 C 
HETATM    2  C8  UNL     1      -0.051  50.856 -17.628  1.00  0.00     0.014 C 
HETATM    3  C9  UNL     1      -0.468  51.015 -19.126  1.00  0.00     0.026 C 
HETATM    4  C13 UNL     1      -1.988  50.694 -19.116  1.00  0.00     0.093 C 
HETATM    5  C14 UNL     1      -2.762  50.214 -20.324  1.00  0.00    -0.036 C 
HETATM    6  C15 UNL     1      -2.182  49.814 -21.467  1.00  0.00     0.057 C 
HETATM    7  C16 UNL     1      -2.951  49.139 -22.532  1.00  0.00     0.154 C 
HETATM    8  O4  UNL     1      -2.375  48.864 -23.583  1.00  0.00    -0.293 OA
HETATM    9  C17 UNL     1      -4.407  48.761 -22.258  1.00  0.00     0.071 C 
HETATM   10  C18 UNL     1      -5.161  48.527 -23.583  1.00  0.00     0.047 C 
HETATM   11  C19 UNL     1      -5.586  49.816 -24.291  1.00  0.00     0.147 C 
HETATM   12  C20 UNL     1      -5.029  51.094 -23.652  1.00  0.00     0.147 C 
HETATM   13  C21 UNL     1      -5.276  51.169 -22.139  1.00  0.00     0.044 C 
HETATM   14  C22 UNL     1      -5.102  49.816 -21.361  1.00  0.00    -0.023 C 
HETATM   15  C23 UNL     1      -6.521  49.323 -20.974  1.00  0.00     0.016 C 
HETATM   16  C24 UNL     1      -4.261  50.067 -20.053  1.00  0.00     0.027 C 
HETATM   17  C25 UNL     1      -4.455  49.031 -18.911  1.00  0.00     0.011 C 
HETATM   18  C26 UNL     1      -3.572  49.297 -17.666  1.00  0.00     0.013 C 
HETATM   19  C27 UNL     1      -2.088  49.551 -18.036  1.00  0.00    -0.004 C 
HETATM   20  C28 UNL     1      -1.501  48.201 -18.532  1.00  0.00     0.019 C 
ENDROOT
BRANCH   1  21
HETATM   21  C5  UNL     1      -0.905  49.321 -15.625  1.00  0.00     0.015 C 
HETATM   22  C6  UNL     1      -1.590  50.015 -14.426  1.00  0.00     0.013 C 
BRANCH  21  23
HETATM   23  C4  UNL     1       0.592  49.056 -15.266  1.00  0.00     0.126 C 
BRANCH  23  24
HETATM   24  C3  UNL     1       0.995  49.501 -13.832  1.00  0.00     0.066 C 
BRANCH  24  25
HETATM   25  C2  UNL     1       1.612  50.880 -13.638  1.00  0.00    -0.079 C 
HETATM   26  C1  UNL     1       2.236  51.435 -14.696  1.00  0.00     0.015 C 
BRANCH  25  27
HETATM   27  C29 UNL     1       1.355  51.667 -12.318  1.00  0.00    -0.023 C 
HETATM   28  C30 UNL     1       2.620  52.374 -11.781  1.00  0.00     0.019 C 
HETATM   29  C31 UNL     1       0.910  50.637 -11.256  1.00  0.00     0.019 C 
BRANCH  27  30
HETATM   30  C32 UNL     1       0.232  52.739 -12.524  1.00  0.00     0.033 C 
BRANCH  30  31
HETATM   31  C33 UNL     1      -0.254  53.455 -11.258  1.00  0.00     0.130 C 
BRANCH  31  32
HETATM   32  N1  UNL     1      -1.700  53.409 -11.137  1.00  0.00    -0.352 N 
HETATM   33  C34 UNL     1      -2.478  54.255 -10.400  1.00  0.00     0.108 A 
HETATM   34  C35 UNL     1      -3.767  53.827 -10.618  1.00  0.00     0.106 A 
HETATM   35  N2  UNL     1      -3.786  52.751 -11.467  1.00  0.00    -0.361 N 
HETATM   36  C36 UNL     1      -2.526  52.523 -11.766  1.00  0.00     0.182 A 
ATOM     37  H2  UNL     1      -4.603  52.237 -11.797  1.00  0.00     0.166 HD
ENDBRANCH  31  32
ENDBRANCH  30  31
ENDBRANCH  27  30
ENDBRANCH  25  27
ENDBRANCH  24  25
ENDBRANCH  23  24
BRANCH  23  38
HETATM   38  O1  UNL     1       0.896  47.664 -15.341  1.00  0.00    -0.395 OA
HETATM   39  H6  UNL     1       1.861  47.564 -15.264  1.00  0.00     0.210 HD
ENDBRANCH  23  38
ENDBRANCH  21  23
ENDBRANCH   1  21
BRANCH   3  40
HETATM   40  C10 UNL     1      -0.033  52.406 -19.631  1.00  0.00     0.010 C 
BRANCH  40  41
HETATM   41  C11 UNL     1       0.421  52.446 -21.087  1.00  0.00     0.027 C 
BRANCH  41  42
HETATM   42  C12 UNL     1       1.469  53.527 -21.316  1.00  0.00     0.164 C 
BRANCH  42  43
HETATM   43  O2  UNL     1       1.516  54.371 -20.174  1.00  0.00    -0.401 OA
HETATM   44  H21 UNL     1       2.211  55.032 -20.336  1.00  0.00     0.209 HD
ENDBRANCH  42  43
ENDBRANCH  41  42
ENDBRANCH  40  41
ENDBRANCH   3  40
BRANCH   4  45
HETATM   45  O3  UNL     1      -2.618  51.922 -18.716  1.00  0.00    -0.384 OA
HETATM   46  H22 UNL     1      -3.219  51.763 -17.974  1.00  0.00     0.211 HD
ENDBRANCH   4  45
BRANCH  12  47
HETATM   47  O6  UNL     1      -5.660  52.226 -24.265  1.00  0.00    -0.393 OA
HETATM   48  H30 UNL     1      -5.232  52.351 -25.132  1.00  0.00     0.210 HD
ENDBRANCH  12  47
BRANCH  11  49
HETATM   49  O5  UNL     1      -7.018  49.888 -24.296  1.00  0.00    -0.393 OA
HETATM   50  H28 UNL     1      -7.229  50.832 -24.439  1.00  0.00     0.210 HD
ENDBRANCH  11  49
TORSDOF 16
ENDMDL
MODEL 7
REMARK minimizedAffinity -8.47381115
REMARK CNNscore 0.449822485
REMARK CNNaffinity 7.67177963
REMARK  16 active torsions:
REMARK  status: ('A' for Active; 'I' for Inactive)
REMARK    1  A    between atoms: C2_2  and  C3_3 
REMARK    2  A    between atoms: C2_2  and  C29_35 
REMARK    3  A    between atoms: C3_3  and  C4_4 
REMARK    4  A    between atoms: C4_4  and  O1_5 
REMARK    5  A    between atoms: C4_4  and  C5_6 
REMARK    6  A    between atoms: C5_6  and  C7_8 
REMARK    7  A    between atoms: C9_10  and  C10_11 
REMARK    8  A    between atoms: C10_11  and  C11_12 
REMARK    9  A    between atoms: C11_12  and  C12_13 
REMARK   10  A    between atoms: C12_13  and  O2_14 
REMARK   11  A    between atoms: C13_15  and  O3_16 
REMARK   12  A    between atoms: C19_23  and  O5_24 
REMARK   13  A    between atoms: C20_25  and  O6_26 
REMARK   14  A    between atoms: C29_35  and  C32_38 
REMARK   15  A    between atoms: C32_38  and  C33_39 
REMARK   16  A    between atoms: C33_39  and  N1_40 
ROOT
HETATM    1  C7  UNL     1      -1.535  50.670 -21.724  1.00  0.00     0.003 C 
HETATM    2  C8  UNL     1      -1.538  51.632 -20.511  1.00  0.00     0.014 C 
HETATM    3  C9  UNL     1      -2.241  50.883 -19.332  1.00  0.00     0.026 C 
HETATM    4  C13 UNL     1      -2.333  49.417 -19.835  1.00  0.00     0.093 C 
HETATM    5  C14 UNL     1      -3.343  48.409 -19.332  1.00  0.00    -0.036 C 
HETATM    6  C15 UNL     1      -4.393  48.732 -18.561  1.00  0.00     0.057 C 
HETATM    7  C16 UNL     1      -5.478  47.768 -18.284  1.00  0.00     0.154 C 
HETATM    8  O4  UNL     1      -6.373  48.102 -17.511  1.00  0.00    -0.293 OA
HETATM    9  C17 UNL     1      -5.469  46.425 -19.014  1.00  0.00     0.071 C 
HETATM   10  C18 UNL     1      -6.351  45.402 -18.271  1.00  0.00     0.047 C 
HETATM   11  C19 UNL     1      -5.682  44.784 -17.040  1.00  0.00     0.147 C 
HETATM   12  C20 UNL     1      -4.339  45.425 -16.669  1.00  0.00     0.147 C 
HETATM   13  C21 UNL     1      -3.369  45.521 -17.855  1.00  0.00     0.044 C 
HETATM   14  C22 UNL     1      -4.022  45.911 -19.228  1.00  0.00    -0.023 C 
HETATM   15  C23 UNL     1      -4.043  44.634 -20.107  1.00  0.00     0.016 C 
HETATM   16  C24 UNL     1      -3.145  47.015 -19.931  1.00  0.00     0.027 C 
HETATM   17  C25 UNL     1      -3.291  47.118 -21.476  1.00  0.00     0.011 C 
HETATM   18  C26 UNL     1      -2.444  48.248 -22.111  1.00  0.00     0.013 C 
HETATM   19  C27 UNL     1      -2.611  49.601 -21.374  1.00  0.00    -0.004 C 
HETATM   20  C28 UNL     1      -4.050  50.109 -21.670  1.00  0.00     0.019 C 
ENDROOT
BRANCH   1  21
HETATM   21  C5  UNL     1      -1.513  51.302 -23.154  1.00  0.00     0.015 C 
HETATM   22  C6  UNL     1      -0.117  51.933 -23.349  1.00  0.00     0.013 C 
BRANCH  21  23
HETATM   23  C4  UNL     1      -2.601  52.361 -23.521  1.00  0.00     0.126 C 
BRANCH  23  24
HETATM   24  C3  UNL     1      -3.319  52.097 -24.875  1.00  0.00     0.066 C 
BRANCH  24  25
HETATM   25  C2  UNL     1      -3.599  50.658 -25.288  1.00  0.00    -0.079 C 
HETATM   26  C1  UNL     1      -4.637  50.033 -24.697  1.00  0.00     0.015 C 
BRANCH  25  27
HETATM   27  C29 UNL     1      -2.817  50.026 -26.479  1.00  0.00    -0.023 C 
HETATM   28  C30 UNL     1      -3.322  50.510 -27.857  1.00  0.00     0.019 C 
HETATM   29  C31 UNL     1      -3.044  48.500 -26.410  1.00  0.00     0.019 C 
BRANCH  27  30
HETATM   30  C32 UNL     1      -1.288  50.344 -26.367  1.00  0.00     0.033 C 
BRANCH  30  31
HETATM   31  C33 UNL     1      -0.772  51.487 -27.248  1.00  0.00     0.130 C 
BRANCH  31  32
HETATM   32  N1  UNL     1       0.678  51.557 -27.242  1.00  0.00    -0.352 N 
HETATM   33  C34 UNL     1       1.492  51.388 -26.159  1.00  0.00     0.108 A 
HETATM   34  C35 UNL     1       2.769  51.523 -26.654  1.00  0.00     0.106 A 
HETATM   35  N2  UNL     1       2.745  51.764 -28.004  1.00  0.00    -0.361 N 
HETATM   36  C36 UNL     1       1.472  51.776 -28.331  1.00  0.00     0.182 A 
ATOM     37  H2  UNL     1       3.544  51.903 -28.621  1.00  0.00     0.166 HD
ENDBRANCH  31  32
ENDBRANCH  30  31
ENDBRANCH  27  30
ENDBRANCH  25  27
ENDBRANCH  24  25
ENDBRANCH  23  24
BRANCH  23  38
HETATM   38  O1  UNL     1      -3.632  52.398 -22.535  1.00  0.00    -0.395 OA
HETATM   39  H6  UNL     1      -4.196  53.169 -22.721  1.00  0.00     0.210 HD
ENDBRANCH  23  38
ENDBRANCH  21  23
ENDBRANCH   1  21
BRANCH   3  40
HETATM   40  C10 UNL     1      -1.462  51.145 -18.025  1.00  0.00     0.010 C 
BRANCH  40  41
HETATM   41  C11 UNL     1      -0.143  51.890 -18.205  1.00  0.00     0.027 C 
BRANCH  41  42
HETATM   42  C12 UNL     1       0.678  51.891 -16.921  1.00  0.00     0.164 C 
BRANCH  42  43
HETATM   43  O2  UNL     1       1.289  53.164 -16.767  1.00  0.00    -0.401 OA
HETATM   44  H21 UNL     1       1.781  53.145 -15.929  1.00  0.00     0.209 HD
ENDBRANCH  42  43
ENDBRANCH  41  42
ENDBRANCH  40  41
ENDBRANCH   3  40
BRANCH   4  45
HETATM   45  O3  UNL     1      -1.044  48.850 -19.546  1.00  0.00    -0.384 OA
HETATM   46  H22 UNL     1      -0.676  48.436 -20.339  1.00  0.00     0.211 HD
ENDBRANCH   4  45
BRANCH  12  47
HETATM   47  O6  UNL     1      -3.719  44.633 -15.647  1.00  0.00    -0.393 OA
HETATM   48  H30 UNL     1      -4.170  44.851 -14.811  1.00  0.00     0.210 HD
ENDBRANCH  12  47
BRANCH  11  49
HETATM   49  O5  UNL     1      -5.476  43.385 -17.281  1.00  0.00    -0.393 OA
HETATM   50  H28 UNL     1      -4.777  43.114 -16.652  1.00  0.00     0.210 HD
ENDBRANCH  11  49
TORSDOF 16
ENDMDL
MODEL 8
REMARK minimizedAffinity -8.58420753
REMARK CNNscore 0.424136966
REMARK CNNaffinity 7.3512516
REMARK  16 active torsions:
REMARK  status: ('A' for Active; 'I' for Inactive)
REMARK    1  A    between atoms: C2_2  and  C3_3 
REMARK    2  A    between atoms: C2_2  and  C29_35 
REMARK    3  A    between atoms: C3_3  and  C4_4 
REMARK    4  A    between atoms: C4_4  and  O1_5 
REMARK    5  A    between atoms: C4_4  and  C5_6 
REMARK    6  A    between atoms: C5_6  and  C7_8 
REMARK    7  A    between atoms: C9_10  and  C10_11 
REMARK    8  A    between atoms: C10_11  and  C11_12 
REMARK    9  A    between atoms: C11_12  and  C12_13 
REMARK   10  A    between atoms: C12_13  and  O2_14 
REMARK   11  A    between atoms: C13_15  and  O3_16 
REMARK   12  A    between atoms: C19_23  and  O5_24 
REMARK   13  A    between atoms: C20_25  and  O6_26 
REMARK   14  A    between atoms: C29_35  and  C32_38 
REMARK   15  A    between atoms: C32_38  and  C33_39 
REMARK   16  A    between atoms: C33_39  and  N1_40 
ROOT
HETATM    1  C7  UNL     1      -2.732  50.273 -20.605  1.00  0.00     0.003 C 
HETATM    2  C8  UNL     1      -3.667  49.172 -20.048  1.00  0.00     0.014 C 
HETATM    3  C9  UNL     1      -3.221  48.890 -18.577  1.00  0.00     0.026 C 
HETATM    4  C13 UNL     1      -2.249  50.060 -18.260  1.00  0.00     0.093 C 
HETATM    5  C14 UNL     1      -1.171  50.004 -17.200  1.00  0.00    -0.036 C 
HETATM    6  C15 UNL     1      -0.804  48.876 -16.572  1.00  0.00     0.057 C 
HETATM    7  C16 UNL     1       0.400  48.820 -15.718  1.00  0.00     0.154 C 
HETATM    8  O4  UNL     1       0.639  47.776 -15.114  1.00  0.00    -0.293 OA
HETATM    9  C17 UNL     1       1.322  50.038 -15.671  1.00  0.00     0.071 C 
HETATM   10  C18 UNL     1       2.213  49.991 -14.413  1.00  0.00     0.047 C 
HETATM   11  C19 UNL     1       1.499  50.430 -13.131  1.00  0.00     0.147 C 
HETATM   12  C20 UNL     1      -0.008  50.659 -13.301  1.00  0.00     0.147 C 
HETATM   13  C21 UNL     1      -0.349  51.576 -14.484  1.00  0.00     0.044 C 
HETATM   14  C22 UNL     1       0.517  51.358 -15.775  1.00  0.00    -0.023 C 
HETATM   15  C23 UNL     1       1.490  52.560 -15.884  1.00  0.00     0.016 C 
HETATM   16  C24 UNL     1      -0.423  51.330 -17.038  1.00  0.00     0.027 C 
HETATM   17  C25 UNL     1       0.249  51.684 -18.395  1.00  0.00     0.011 C 
HETATM   18  C26 UNL     1      -0.707  51.597 -19.610  1.00  0.00     0.013 C 
HETATM   19  C27 UNL     1      -1.513  50.273 -19.637  1.00  0.00    -0.004 C 
HETATM   20  C28 UNL     1      -0.511  49.133 -19.967  1.00  0.00     0.019 C 
ENDROOT
BRANCH   1  21
HETATM   21  C5  UNL     1      -2.490  50.310 -22.149  1.00  0.00     0.015 C 
HETATM   22  C6  UNL     1      -2.479  51.796 -22.572  1.00  0.00     0.013 C 
BRANCH  21  23
HETATM   23  C4  UNL     1      -3.471  49.529 -23.079  1.00  0.00     0.126 C 
BRANCH  23  24
HETATM   24  C3  UNL     1      -2.797  48.881 -24.322  1.00  0.00     0.066 C 
BRANCH  24  25
HETATM   25  C2  UNL     1      -3.380  49.158 -25.701  1.00  0.00    -0.079 C 
HETATM   26  C1  UNL     1      -4.515  48.511 -26.037  1.00  0.00     0.015 C 
BRANCH  25  27
HETATM   27  C29 UNL     1      -2.772  50.284 -26.590  1.00  0.00    -0.023 C 
HETATM   28  C30 UNL     1      -3.139  51.703 -26.101  1.00  0.00     0.019 C 
HETATM   29  C31 UNL     1      -3.365  50.112 -28.006  1.00  0.00     0.019 C 
BRANCH  27  30
HETATM   30  C32 UNL     1      -1.213  50.162 -26.646  1.00  0.00     0.033 C 
BRANCH  30  31
HETATM   31  C33 UNL     1      -0.424  51.305 -25.996  1.00  0.00     0.130 C 
BRANCH  31  32
HETATM   32  N1  UNL     1       0.833  51.547 -26.680  1.00  0.00    -0.352 N 
HETATM   33  C34 UNL     1       0.995  51.789 -28.014  1.00  0.00     0.108 A 
HETATM   34  C35 UNL     1       2.349  51.975 -28.176  1.00  0.00     0.106 A 
HETATM   35  N2  UNL     1       3.003  51.856 -26.977  1.00  0.00    -0.361 N 
HETATM   36  C36 UNL     1       2.064  51.601 -26.094  1.00  0.00     0.182 A 
ATOM     37  H2  UNL     1       4.005  51.946 -26.808  1.00  0.00     0.166 HD
ENDBRANCH  31  32
ENDBRANCH  30  31
ENDBRANCH  27  30
ENDBRANCH  25  27
ENDBRANCH  24  25
ENDBRANCH  23  24
BRANCH  23  38
HETATM   38  O1  UNL     1      -4.099  48.458 -22.376  1.00  0.00    -0.395 OA
HETATM   39  H6  UNL     1      -4.808  48.103 -22.941  1.00  0.00     0.210 HD
ENDBRANCH  23  38
ENDBRANCH  21  23
ENDBRANCH   1  21
BRANCH   3  40
HETATM   40  C10 UNL     1      -4.471  48.737 -17.685  1.00  0.00     0.010 C 
BRANCH  40  41
HETATM   41  C11 UNL     1      -4.864  47.296 -17.375  1.00  0.00     0.027 C 
BRANCH  41  42
HETATM   42  C12 UNL     1      -3.752  46.561 -16.637  1.00  0.00     0.164 C 
BRANCH  42  43
HETATM   43  O2  UNL     1      -2.807  46.086 -17.585  1.00  0.00    -0.401 OA
HETATM   44  H21 UNL     1      -2.098  45.647 -17.086  1.00  0.00     0.209 HD
ENDBRANCH  42  43
ENDBRANCH  41  42
ENDBRANCH  40  41
ENDBRANCH   3  40
BRANCH   4  45
HETATM   45  O3  UNL     1      -3.103  51.153 -17.888  1.00  0.00    -0.384 OA
HETATM   46  H22 UNL     1      -2.882  51.941 -18.405  1.00  0.00     0.211 HD
ENDBRANCH   4  45
BRANCH  12  47
HETATM   47  O6  UNL     1      -0.517  51.264 -12.104  1.00  0.00    -0.393 OA
HETATM   48  H30 UNL     1      -0.596  50.553 -11.442  1.00  0.00     0.210 HD
ENDBRANCH  12  47
BRANCH  11  49
HETATM   49  O5  UNL     1       2.102  51.644 -12.662  1.00  0.00    -0.393 OA
HETATM   50  H28 UNL     1       1.435  52.053 -12.073  1.00  0.00     0.210 HD
ENDBRANCH  11  49
TORSDOF 16
ENDMDL
MODEL 9
REMARK minimizedAffinity -7.41599655
REMARK CNNscore 0.42229265
REMARK CNNaffinity 6.7580514
REMARK  16 active torsions:
REMARK  status: ('A' for Active; 'I' for Inactive)
REMARK    1  A    between atoms: C2_2  and  C3_3 
REMARK    2  A    between atoms: C2_2  and  C29_35 
REMARK    3  A    between atoms: C3_3  and  C4_4 
REMARK    4  A    between atoms: C4_4  and  O1_5 
REMARK    5  A    between atoms: C4_4  and  C5_6 
REMARK    6  A    between atoms: C5_6  and  C7_8 
REMARK    7  A    between atoms: C9_10  and  C10_11 
REMARK    8  A    between atoms: C10_11  and  C11_12 
REMARK    9  A    between atoms: C11_12  and  C12_13 
REMARK   10  A    between atoms: C12_13  and  O2_14 
REMARK   11  A    between atoms: C13_15  and  O3_16 
REMARK   12  A    between atoms: C19_23  and  O5_24 
REMARK   13  A    between atoms: C20_25  and  O6_26 
REMARK   14  A    between atoms: C29_35  and  C32_38 
REMARK   15  A    between atoms: C32_38  and  C33_39 
REMARK   16  A    between atoms: C33_39  and  N1_40 
ROOT
HETATM    1  C7  UNL     1      -2.321  48.963 -22.259  1.00  0.00     0.003 C 
HETATM    2  C8  UNL     1      -1.842  50.426 -22.418  1.00  0.00     0.014 C 
HETATM    3  C9  UNL     1      -1.521  50.963 -20.985  1.00  0.00     0.026 C 
HETATM    4  C13 UNL     1      -1.538  49.684 -20.104  1.00  0.00     0.093 C 
HETATM    5  C14 UNL     1      -1.790  49.684 -18.612  1.00  0.00    -0.036 C 
HETATM    6  C15 UNL     1      -2.230  50.756 -17.933  1.00  0.00     0.057 C 
HETATM    7  C16 UNL     1      -2.681  50.653 -16.531  1.00  0.00     0.154 C 
HETATM    8  O4  UNL     1      -3.003  51.684 -15.944  1.00  0.00    -0.293 OA
HETATM    9  C17 UNL     1      -2.782  49.268 -15.892  1.00  0.00     0.071 C 
HETATM   10  C18 UNL     1      -2.790  49.382 -14.354  1.00  0.00     0.047 C 
HETATM   11  C19 UNL     1      -1.404  49.608 -13.743  1.00  0.00     0.147 C 
HETATM   12  C20 UNL     1      -0.298  49.860 -14.774  1.00  0.00     0.147 C 
HETATM   13  C21 UNL     1      -0.261  48.806 -15.889  1.00  0.00     0.044 C 
HETATM   14  C22 UNL     1      -1.663  48.328 -16.409  1.00  0.00    -0.023 C 
HETATM   15  C23 UNL     1      -1.890  46.893 -15.866  1.00  0.00     0.016 C 
HETATM   16  C24 UNL     1      -1.656  48.295 -17.984  1.00  0.00     0.027 C 
HETATM   17  C25 UNL     1      -2.696  47.352 -18.650  1.00  0.00     0.011 C 
HETATM   18  C26 UNL     1      -2.678  47.392 -20.198  1.00  0.00     0.013 C 
HETATM   19  C27 UNL     1      -2.698  48.839 -20.754  1.00  0.00    -0.004 C 
HETATM   20  C28 UNL     1      -4.107  49.423 -20.460  1.00  0.00     0.019 C 
ENDROOT
BRANCH   1  21
HETATM   21  C5  UNL     1      -3.290  48.392 -23.346  1.00  0.00     0.015 C 
HETATM   22  C6  UNL     1      -3.005  49.160 -24.656  1.00  0.00     0.013 C 
BRANCH  21  23
HETATM   23  C4  UNL     1      -4.826  48.420 -23.068  1.00  0.00     0.126 C 
BRANCH  23  24
HETATM   24  C3  UNL     1      -5.697  48.728 -24.319  1.00  0.00     0.066 C 
BRANCH  24  25
HETATM   25  C2  UNL     1      -7.208  48.560 -24.220  1.00  0.00    -0.079 C 
HETATM   26  C1  UNL     1      -7.872  49.394 -23.395  1.00  0.00     0.015 C 
BRANCH  25  27
HETATM   27  C29 UNL     1      -7.945  47.581 -25.182  1.00  0.00    -0.023 C 
HETATM   28  C30 UNL     1      -9.377  48.044 -25.533  1.00  0.00     0.019 C 
HETATM   29  C31 UNL     1      -8.061  46.226 -24.449  1.00  0.00     0.019 C 
BRANCH  27  30
HETATM   30  C32 UNL     1      -7.138  47.400 -26.511  1.00  0.00     0.033 C 
BRANCH  30  31
HETATM   31  C33 UNL     1      -7.950  47.487 -27.809  1.00  0.00     0.130 C 
BRANCH  31  32
HETATM   32  N1  UNL     1      -7.137  47.941 -28.922  1.00  0.00    -0.352 N 
HETATM   33  C34 UNL     1      -5.774  47.892 -29.002  1.00  0.00     0.108 A 
HETATM   34  C35 UNL     1      -5.476  48.412 -30.241  1.00  0.00     0.106 A 
HETATM   35  N2  UNL     1      -6.619  48.766 -30.908  1.00  0.00    -0.361 N 
HETATM   36  C36 UNL     1      -7.604  48.469 -30.091  1.00  0.00     0.182 A 
ATOM     37  H2  UNL     1      -6.690  49.174 -31.841  1.00  0.00     0.166 HD
ENDBRANCH  31  32
ENDBRANCH  30  31
ENDBRANCH  27  30
ENDBRANCH  25  27
ENDBRANCH  24  25
ENDBRANCH  23  24
BRANCH  23  38
HETATM   38  O1  UNL     1      -5.281  47.159 -22.579  1.00  0.00    -0.395 OA
HETATM   39  H6  UNL     1      -6.199  47.269 -22.275  1.00  0.00     0.210 HD
ENDBRANCH  23  38
ENDBRANCH  21  23
ENDBRANCH   1  21
BRANCH   3  40
HETATM   40  C10 UNL     1      -0.215  51.784 -21.030  1.00  0.00     0.010 C 
BRANCH  40  41
HETATM   41  C11 UNL     1      -0.098  52.861 -19.955  1.00  0.00     0.027 C 
BRANCH  41  42
HETATM   42  C12 UNL     1       1.176  53.680 -20.121  1.00  0.00     0.164 C 
BRANCH  42  43
HETATM   43  O2  UNL     1       1.310  54.050 -21.486  1.00  0.00    -0.401 OA
HETATM   44  H21 UNL     1       2.113  54.593 -21.557  1.00  0.00     0.209 HD
ENDBRANCH  42  43
ENDBRANCH  41  42
ENDBRANCH  40  41
ENDBRANCH   3  40
BRANCH   4  45
HETATM   45  O3  UNL     1      -0.235  49.104 -20.278  1.00  0.00    -0.384 OA
HETATM   46  H22 UNL     1      -0.315  48.172 -20.528  1.00  0.00     0.211 HD
ENDBRANCH   4  45
BRANCH  12  47
HETATM   47  O6  UNL     1       0.969  49.845 -14.101  1.00  0.00    -0.393 OA
HETATM   48  H30 UNL     1       1.056  50.703 -13.647  1.00  0.00     0.210 HD
ENDBRANCH  12  47
BRANCH  11  49
HETATM   49  O5  UNL     1      -1.054  48.459 -12.959  1.00  0.00    -0.393 OA
HETATM   50  H28 UNL     1      -0.080  48.492 -12.874  1.00  0.00     0.210 HD
ENDBRANCH  11  49
TORSDOF 16
ENDMDL
