MODEL 1
REMARK minimizedAffinity -10.7192583
REMARK  4 active torsions:
REMARK  status: ('A' for Active; 'I' for Inactive)
REMARK    1  A    between atoms: C14_16  and  C15_17 
REMARK    2  A    between atoms: C15_17  and  C17_19 
REMARK    3  A    between atoms: C17_19  and  C18_20 
REMARK    4  A    between atoms: C18_20  and  C19_22 
ROOT
HETATM    1  C1  UNL     1      -2.736  49.034 -27.018  1.00  0.00     0.017 C 
HETATM    2  C2  UNL     1      -2.819  50.237 -26.415  1.00  0.00    -0.060 C 
HETATM    3  C3  UNL     1      -3.126  51.472 -27.232  1.00  0.00     0.212 C 
HETATM    4  O1  UNL     1      -2.396  52.663 -26.887  1.00  0.00    -0.317 OA
HETATM    5  C4  UNL     1      -1.050  52.767 -26.979  1.00  0.00     0.259 C 
HETATM    6  O2  UNL     1      -0.510  53.852 -27.176  1.00  0.00    -0.265 OA
HETATM    7  C5  UNL     1      -0.239  51.525 -26.730  1.00  0.00     0.112 C 
HETATM    8  C6  UNL     1      -0.174  51.150 -25.246  1.00  0.00     0.020 C 
HETATM    9  C7  UNL     1      -1.478  51.292 -24.454  1.00  0.00    -0.024 A 
HETATM   10  C8  UNL     1      -1.806  52.672 -23.925  1.00  0.00     0.022 A 
HETATM   11  C9  UNL     1      -1.432  51.596 -22.927  1.00  0.00    -0.027 A 
HETATM   12  C10 UNL     1      -0.126  51.965 -22.181  1.00  0.00     0.011 C 
HETATM   13  C11 UNL     1       0.272  51.079 -20.991  1.00  0.00     0.011 C 
HETATM   14  C12 UNL     1      -0.920  50.807 -20.065  1.00  0.00    -0.032 C 
HETATM   15  C13 UNL     1      -1.376  52.156 -19.445  1.00  0.00     0.016 C 
HETATM   16  C14 UNL     1      -0.698  49.757 -18.931  1.00  0.00    -0.002 C 
HETATM   17  C23 UNL     1      -2.126  49.187 -18.682  1.00  0.00     0.006 C 
HETATM   18  C24 UNL     1      -3.009  49.636 -19.860  1.00  0.00     0.011 C 
HETATM   19  C25 UNL     1      -2.022  50.095 -20.946  1.00  0.00    -0.032 C 
HETATM   20  C26 UNL     1      -1.509  48.804 -21.679  1.00  0.00     0.016 C 
HETATM   21  C27 UNL     1      -2.590  51.085 -22.015  1.00  0.00     0.004 C 
HETATM   22  C28 UNL     1      -3.844  50.509 -22.722  1.00  0.00     0.007 C 
HETATM   23  C29 UNL     1      -3.940  50.678 -24.230  1.00  0.00     0.010 C 
HETATM   24  C30 UNL     1      -2.607  50.354 -24.913  1.00  0.00     0.025 C 
ENDROOT
BRANCH  16  25
HETATM   25  C15 UNL     1       0.084  50.063 -17.618  1.00  0.00    -0.007 C 
HETATM   26  C16 UNL     1       0.022  49.017 -16.496  1.00  0.00     0.011 C 
BRANCH  25  27
HETATM   27  C17 UNL     1      -0.262  51.457 -17.059  1.00  0.00     0.087 C 
BRANCH  27  28
HETATM   28  C18 UNL     1       0.674  51.875 -15.936  1.00  0.00     0.149 C 
HETATM   29  O3  UNL     1       0.351  51.811 -14.752  1.00  0.00    -0.293 OA
BRANCH  28  30
HETATM   30  C19 UNL     1       2.034  52.334 -16.345  1.00  0.00     0.052 C 
HETATM   31  C20 UNL     1       3.177  52.020 -15.705  1.00  0.00    -0.084 C 
HETATM   32  C21 UNL     1       3.273  51.189 -14.451  1.00  0.00     0.043 C 
HETATM   33  C22 UNL     1       4.502  52.520 -16.220  1.00  0.00     0.043 C 
ENDBRANCH  28  30
ENDBRANCH  27  28
ENDBRANCH  25  27
ENDBRANCH  16  25
TORSDOF 4
ENDMDL
MODEL 2
REMARK minimizedAffinity -10.1932125
REMARK  4 active torsions:
REMARK  status: ('A' for Active; 'I' for Inactive)
REMARK    1  A    between atoms: C14_16  and  C15_17 
REMARK    2  A    between atoms: C15_17  and  C17_19 
REMARK    3  A    between atoms: C17_19  and  C18_20 
REMARK    4  A    between atoms: C18_20  and  C19_22 
ROOT
HETATM    1  C1  UNL     1      -2.585  48.860 -26.470  1.00  0.00     0.017 C 
HETATM    2  C2  UNL     1      -2.505  50.177 -26.191  1.00  0.00    -0.060 C 
HETATM    3  C3  UNL     1      -2.685  51.194 -27.295  1.00  0.00     0.212 C 
HETATM    4  O1  UNL     1      -1.807  52.333 -27.263  1.00  0.00    -0.317 OA
HETATM    5  C4  UNL     1      -0.461  52.243 -27.376  1.00  0.00     0.259 C 
HETATM    6  O2  UNL     1       0.199  53.168 -27.841  1.00  0.00    -0.265 OA
HETATM    7  C5  UNL     1       0.201  51.013 -26.820  1.00  0.00     0.112 C 
HETATM    8  C6  UNL     1       0.265  51.018 -25.289  1.00  0.00     0.020 C 
HETATM    9  C7  UNL     1      -0.988  51.516 -24.560  1.00  0.00    -0.024 A 
HETATM   10  C8  UNL     1      -1.130  53.014 -24.399  1.00  0.00     0.022 A 
HETATM   11  C9  UNL     1      -0.859  52.186 -23.160  1.00  0.00    -0.027 A 
HETATM   12  C10 UNL     1       0.504  52.566 -22.530  1.00  0.00     0.011 C 
HETATM   13  C11 UNL     1       0.829  51.966 -21.154  1.00  0.00     0.011 C 
HETATM   14  C12 UNL     1      -0.359  52.086 -20.191  1.00  0.00    -0.032 C 
HETATM   15  C13 UNL     1      -0.630  53.594 -19.934  1.00  0.00     0.016 C 
HETATM   16  C14 UNL     1      -0.231  51.337 -18.828  1.00  0.00    -0.002 C 
HETATM   17  C23 UNL     1      -1.709  51.030 -18.444  1.00  0.00     0.006 C 
HETATM   18  C24 UNL     1      -2.567  51.274 -19.698  1.00  0.00     0.011 C 
HETATM   19  C25 UNL     1      -1.565  51.318 -20.864  1.00  0.00    -0.032 C 
HETATM   20  C26 UNL     1      -1.234  49.831 -21.245  1.00  0.00     0.016 C 
HETATM   21  C27 UNL     1      -2.041  52.070 -22.149  1.00  0.00     0.004 C 
HETATM   22  C28 UNL     1      -3.377  51.495 -22.690  1.00  0.00     0.007 C 
HETATM   23  C29 UNL     1      -3.498  51.289 -24.191  1.00  0.00     0.010 C 
HETATM   24  C30 UNL     1      -2.234  50.640 -24.767  1.00  0.00     0.025 C 
ENDROOT
BRANCH  16  25
HETATM   25  C15 UNL     1       0.622  51.864 -17.635  1.00  0.00    -0.007 C 
HETATM   26  C16 UNL     1       1.982  52.497 -17.960  1.00  0.00     0.011 C 
BRANCH  25  27
HETATM   27  C17 UNL     1       0.788  50.796 -16.535  1.00  0.00     0.087 C 
BRANCH  27  28
HETATM   28  C18 UNL     1       1.117  51.408 -15.183  1.00  0.00     0.149 C 
HETATM   29  O3  UNL     1       0.590  52.443 -14.783  1.00  0.00    -0.293 OA
BRANCH  28  30
HETATM   30  C19 UNL     1       2.094  50.659 -14.338  1.00  0.00     0.052 C 
HETATM   31  C20 UNL     1       3.429  50.828 -14.374  1.00  0.00    -0.084 C 
HETATM   32  C21 UNL     1       4.164  51.768 -15.295  1.00  0.00     0.043 C 
HETATM   33  C22 UNL     1       4.323  50.033 -13.459  1.00  0.00     0.043 C 
ENDBRANCH  28  30
ENDBRANCH  27  28
ENDBRANCH  25  27
ENDBRANCH  16  25
TORSDOF 4
ENDMDL
MODEL 3
REMARK minimizedAffinity -9.58166122
REMARK  4 active torsions:
REMARK  status: ('A' for Active; 'I' for Inactive)
REMARK    1  A    between atoms: C14_16  and  C15_17 
REMARK    2  A    between atoms: C15_17  and  C17_19 
REMARK    3  A    between atoms: C17_19  and  C18_20 
REMARK    4  A    between atoms: C18_20  and  C19_22 
ROOT
HETATM    1  C1  UNL     1      -6.893  44.789 -22.545  1.00  0.00     0.017 C 
HETATM    2  C2  UNL     1      -7.259  46.080 -22.413  1.00  0.00    -0.060 C 
HETATM    3  C3  UNL     1      -8.725  46.447 -22.357  1.00  0.00     0.212 C 
HETATM    4  O1  UNL     1      -9.114  47.634 -23.072  1.00  0.00    -0.317 OA
HETATM    5  C4  UNL     1      -8.986  47.774 -24.412  1.00  0.00     0.259 C 
HETATM    6  O2  UNL     1      -9.737  48.511 -25.046  1.00  0.00    -0.265 OA
HETATM    7  C5  UNL     1      -7.832  47.077 -25.077  1.00  0.00     0.112 C 
HETATM    8  C6  UNL     1      -6.491  47.770 -24.811  1.00  0.00     0.020 C 
HETATM    9  C7  UNL     1      -6.261  48.276 -23.383  1.00  0.00    -0.024 A 
HETATM   10  C8  UNL     1      -6.846  49.629 -23.038  1.00  0.00     0.022 A 
HETATM   11  C9  UNL     1      -5.339  49.506 -23.131  1.00  0.00    -0.027 A 
HETATM   12  C10 UNL     1      -4.783  50.389 -24.275  1.00  0.00     0.011 C 
HETATM   13  C11 UNL     1      -3.257  50.537 -24.364  1.00  0.00     0.011 C 
HETATM   14  C12 UNL     1      -2.637  50.829 -22.993  1.00  0.00    -0.032 C 
HETATM   15  C13 UNL     1      -3.160  52.206 -22.502  1.00  0.00     0.016 C 
HETATM   16  C14 UNL     1      -1.078  50.800 -22.911  1.00  0.00    -0.002 C 
HETATM   17  C23 UNL     1      -0.801  50.405 -21.430  1.00  0.00     0.006 C 
HETATM   18  C24 UNL     1      -2.126  49.893 -20.838  1.00  0.00     0.011 C 
HETATM   19  C25 UNL     1      -3.026  49.618 -22.055  1.00  0.00    -0.032 C 
HETATM   20  C26 UNL     1      -2.612  48.216 -22.627  1.00  0.00     0.016 C 
HETATM   21  C27 UNL     1      -4.565  49.612 -21.781  1.00  0.00     0.004 C 
HETATM   22  C28 UNL     1      -4.948  48.604 -20.667  1.00  0.00     0.007 C 
HETATM   23  C29 UNL     1      -6.176  47.736 -20.894  1.00  0.00     0.010 C 
HETATM   24  C30 UNL     1      -6.200  47.168 -22.318  1.00  0.00     0.025 C 
ENDROOT
BRANCH  16  25
HETATM   25  C15 UNL     1      -0.170  51.959 -23.423  1.00  0.00    -0.007 C 
HETATM   26  C16 UNL     1       0.565  52.802 -22.370  1.00  0.00     0.011 C 
BRANCH  25  27
HETATM   27  C17 UNL     1      -0.919  52.880 -24.406  1.00  0.00     0.087 C 
BRANCH  27  28
HETATM   28  C18 UNL     1       0.030  53.628 -25.330  1.00  0.00     0.149 C 
HETATM   29  O3  UNL     1       0.670  54.609 -24.960  1.00  0.00    -0.293 OA
BRANCH  28  30
HETATM   30  C19 UNL     1       0.176  53.081 -26.711  1.00  0.00     0.052 C 
HETATM   31  C20 UNL     1       1.058  52.131 -27.072  1.00  0.00    -0.084 C 
HETATM   32  C21 UNL     1       2.070  51.489 -26.158  1.00  0.00     0.043 C 
HETATM   33  C22 UNL     1       1.105  51.634 -28.494  1.00  0.00     0.043 C 
ENDBRANCH  28  30
ENDBRANCH  27  28
ENDBRANCH  25  27
ENDBRANCH  16  25
TORSDOF 4
ENDMDL
MODEL 4
REMARK minimizedAffinity -9.53874779
REMARK  4 active torsions:
REMARK  status: ('A' for Active; 'I' for Inactive)
REMARK    1  A    between atoms: C14_16  and  C15_17 
REMARK    2  A    between atoms: C15_17  and  C17_19 
REMARK    3  A    between atoms: C17_19  and  C18_20 
REMARK    4  A    between atoms: C18_20  and  C19_22 
ROOT
HETATM    1  C1  UNL     1       2.057  50.897 -26.307  1.00  0.00     0.017 C 
HETATM    2  C2  UNL     1       0.863  51.364 -26.723  1.00  0.00    -0.060 C 
HETATM    3  C3  UNL     1       0.785  52.267 -27.933  1.00  0.00     0.212 C 
HETATM    4  O1  UNL     1      -0.136  53.370 -27.850  1.00  0.00    -0.317 OA
HETATM    5  C4  UNL     1      -0.029  54.366 -26.939  1.00  0.00     0.259 C 
HETATM    6  O2  UNL     1      -0.462  55.490 -27.177  1.00  0.00    -0.265 OA
HETATM    7  C5  UNL     1       0.548  54.019 -25.595  1.00  0.00     0.112 C 
HETATM    8  C6  UNL     1      -0.432  53.234 -24.717  1.00  0.00     0.020 C 
HETATM    9  C7  UNL     1      -1.248  52.143 -25.420  1.00  0.00    -0.024 A 
HETATM   10  C8  UNL     1      -2.501  52.590 -26.141  1.00  0.00     0.022 A 
HETATM   11  C9  UNL     1      -2.659  51.759 -24.885  1.00  0.00    -0.027 A 
HETATM   12  C10 UNL     1      -3.388  52.563 -23.779  1.00  0.00     0.011 C 
HETATM   13  C11 UNL     1      -3.810  51.793 -22.519  1.00  0.00     0.011 C 
HETATM   14  C12 UNL     1      -4.484  50.462 -22.870  1.00  0.00    -0.032 C 
HETATM   15  C13 UNL     1      -5.803  50.767 -23.632  1.00  0.00     0.016 C 
HETATM   16  C14 UNL     1      -4.778  49.492 -21.682  1.00  0.00    -0.002 C 
HETATM   17  C23 UNL     1      -4.748  48.085 -22.347  1.00  0.00     0.006 C 
HETATM   18  C24 UNL     1      -4.115  48.251 -23.741  1.00  0.00     0.011 C 
HETATM   19  C25 UNL     1      -3.433  49.629 -23.706  1.00  0.00    -0.032 C 
HETATM   20  C26 UNL     1      -2.053  49.443 -22.981  1.00  0.00     0.016 C 
HETATM   21  C27 UNL     1      -3.181  50.304 -25.094  1.00  0.00     0.004 C 
HETATM   22  C28 UNL     1      -2.360  49.389 -26.038  1.00  0.00     0.007 C 
HETATM   23  C29 UNL     1      -1.242  50.031 -26.844  1.00  0.00     0.010 C 
HETATM   24  C30 UNL     1      -0.408  50.982 -25.979  1.00  0.00     0.025 C 
ENDROOT
BRANCH  16  25
HETATM   25  C15 UNL     1      -5.966  49.684 -20.692  1.00  0.00    -0.007 C 
HETATM   26  C16 UNL     1      -5.783  49.169 -19.256  1.00  0.00     0.011 C 
BRANCH  25  27
HETATM   27  C17 UNL     1      -7.289  49.152 -21.277  1.00  0.00     0.087 C 
BRANCH  27  28
HETATM   28  C18 UNL     1      -7.758  47.884 -20.580  1.00  0.00     0.149 C 
HETATM   29  O3  UNL     1      -6.979  47.009 -20.212  1.00  0.00    -0.293 OA
BRANCH  28  30
HETATM   30  C19 UNL     1      -9.225  47.774 -20.326  1.00  0.00     0.052 C 
HETATM   31  C20 UNL     1      -9.857  48.261 -19.241  1.00  0.00    -0.084 C 
HETATM   32  C21 UNL     1      -9.188  48.961 -18.085  1.00  0.00     0.043 C 
HETATM   33  C22 UNL     1     -11.349  48.113 -19.096  1.00  0.00     0.043 C 
ENDBRANCH  28  30
ENDBRANCH  27  28
ENDBRANCH  25  27
ENDBRANCH  16  25
TORSDOF 4
ENDMDL
MODEL 5
REMARK minimizedAffinity -9.48954964
REMARK  4 active torsions:
REMARK  status: ('A' for Active; 'I' for Inactive)
REMARK    1  A    between atoms: C14_16  and  C15_17 
REMARK    2  A    between atoms: C15_17  and  C17_19 
REMARK    3  A    between atoms: C17_19  and  C18_20 
REMARK    4  A    between atoms: C18_20  and  C19_22 
ROOT
HETATM    1  C1  UNL     1       1.644  50.675 -26.375  1.00  0.00     0.017 C 
HETATM    2  C2  UNL     1       0.517  51.412 -26.455  1.00  0.00    -0.060 C 
HETATM    3  C3  UNL     1       0.496  52.670 -27.293  1.00  0.00     0.212 C 
HETATM    4  O1  UNL     1      -0.211  53.794 -26.738  1.00  0.00    -0.317 OA
HETATM    5  C4  UNL     1       0.142  54.402 -25.581  1.00  0.00     0.259 C 
HETATM    6  O2  UNL     1      -0.110  55.588 -25.387  1.00  0.00    -0.265 OA
HETATM    7  C5  UNL     1       0.760  53.549 -24.509  1.00  0.00     0.112 C 
HETATM    8  C6  UNL     1      -0.264  52.655 -23.802  1.00  0.00     0.020 C 
HETATM    9  C7  UNL     1      -1.311  51.985 -24.699  1.00  0.00    -0.024 A 
HETATM   10  C8  UNL     1      -2.525  52.813 -25.063  1.00  0.00     0.022 A 
HETATM   11  C9  UNL     1      -2.718  51.638 -24.127  1.00  0.00    -0.027 A 
HETATM   12  C10 UNL     1      -3.203  52.114 -22.736  1.00  0.00     0.011 C 
HETATM   13  C11 UNL     1      -3.645  51.030 -21.742  1.00  0.00     0.011 C 
HETATM   14  C12 UNL     1      -4.566  49.999 -22.404  1.00  0.00    -0.032 C 
HETATM   15  C13 UNL     1      -5.871  50.718 -22.842  1.00  0.00     0.016 C 
HETATM   16  C14 UNL     1      -4.922  48.736 -21.558  1.00  0.00    -0.002 C 
HETATM   17  C23 UNL     1      -5.191  47.643 -22.634  1.00  0.00     0.006 C 
HETATM   18  C24 UNL     1      -4.657  48.181 -23.974  1.00  0.00     0.011 C 
HETATM   19  C25 UNL     1      -3.747  49.361 -23.595  1.00  0.00    -0.032 C 
HETATM   20  C26 UNL     1      -2.364  48.757 -23.161  1.00  0.00     0.016 C 
HETATM   21  C27 UNL     1      -3.499  50.423 -24.716  1.00  0.00     0.004 C 
HETATM   22  C28 UNL     1      -2.930  49.776 -26.005  1.00  0.00     0.007 C 
HETATM   23  C29 UNL     1      -1.789  50.494 -26.708  1.00  0.00     0.010 C 
HETATM   24  C30 UNL     1      -0.734  50.977 -25.707  1.00  0.00     0.025 C 
ENDROOT
BRANCH  16  25
HETATM   25  C15 UNL     1      -5.973  48.742 -20.406  1.00  0.00    -0.007 C 
HETATM   26  C16 UNL     1      -6.975  49.905 -20.366  1.00  0.00     0.011 C 
BRANCH  25  27
HETATM   27  C17 UNL     1      -5.308  48.572 -19.026  1.00  0.00     0.087 C 
BRANCH  27  28
HETATM   28  C18 UNL     1      -3.877  48.068 -19.134  1.00  0.00     0.149 C 
HETATM   29  O3  UNL     1      -3.608  46.921 -19.481  1.00  0.00    -0.293 OA
BRANCH  28  30
HETATM   30  C19 UNL     1      -2.803  49.060 -18.834  1.00  0.00     0.052 C 
HETATM   31  C20 UNL     1      -1.578  49.060 -19.394  1.00  0.00    -0.084 C 
HETATM   32  C21 UNL     1      -1.073  48.042 -20.385  1.00  0.00     0.043 C 
HETATM   33  C22 UNL     1      -0.575  50.125 -19.035  1.00  0.00     0.043 C 
ENDBRANCH  28  30
ENDBRANCH  27  28
ENDBRANCH  25  27
ENDBRANCH  16  25
TORSDOF 4
ENDMDL
MODEL 6
REMARK minimizedAffinity -9.38864994
REMARK  4 active torsions:
REMARK  status: ('A' for Active; 'I' for Inactive)
REMARK    1  A    between atoms: C14_16  and  C15_17 
REMARK    2  A    between atoms: C15_17  and  C17_19 
REMARK    3  A    between atoms: C17_19  and  C18_20 
REMARK    4  A    between atoms: C18_20  and  C19_22 
ROOT
HETATM    1  C1  UNL     1      -7.705  48.658 -21.498  1.00  0.00     0.017 C 
HETATM    2  C2  UNL     1      -6.607  47.963 -21.858  1.00  0.00    -0.060 C 
HETATM    3  C3  UNL     1      -6.398  46.559 -21.336  1.00  0.00     0.212 C 
HETATM    4  O1  UNL     1      -5.054  46.213 -20.957  1.00  0.00    -0.317 OA
HETATM    5  C4  UNL     1      -4.374  46.833 -19.964  1.00  0.00     0.259 C 
HETATM    6  O2  UNL     1      -3.498  46.247 -19.333  1.00  0.00    -0.265 OA
HETATM    7  C5  UNL     1      -4.660  48.291 -19.732  1.00  0.00     0.112 C 
HETATM    8  C6  UNL     1      -4.042  49.192 -20.807  1.00  0.00     0.020 C 
HETATM    9  C7  UNL     1      -4.143  48.691 -22.251  1.00  0.00    -0.024 A 
HETATM   10  C8  UNL     1      -3.090  47.702 -22.703  1.00  0.00     0.022 A 
HETATM   11  C9  UNL     1      -3.059  49.096 -23.294  1.00  0.00    -0.027 A 
HETATM   12  C10 UNL     1      -1.752  49.831 -22.907  1.00  0.00     0.011 C 
HETATM   13  C11 UNL     1      -1.475  51.174 -23.598  1.00  0.00     0.011 C 
HETATM   14  C12 UNL     1      -1.720  51.092 -25.110  1.00  0.00    -0.032 C 
HETATM   15  C13 UNL     1      -0.699  50.092 -25.718  1.00  0.00     0.016 C 
HETATM   16  C14 UNL     1      -1.671  52.438 -25.899  1.00  0.00    -0.002 C 
HETATM   17  C23 UNL     1      -2.611  52.180 -27.113  1.00  0.00     0.006 C 
HETATM   18  C24 UNL     1      -3.410  50.900 -26.809  1.00  0.00     0.011 C 
HETATM   19  C25 UNL     1      -3.231  50.669 -25.299  1.00  0.00    -0.032 C 
HETATM   20  C26 UNL     1      -4.249  51.612 -24.564  1.00  0.00     0.016 C 
HETATM   21  C27 UNL     1      -3.454  49.205 -24.799  1.00  0.00     0.004 C 
HETATM   22  C28 UNL     1      -4.852  48.666 -25.202  1.00  0.00     0.007 C 
HETATM   23  C29 UNL     1      -5.636  47.892 -24.154  1.00  0.00     0.010 C 
HETATM   24  C30 UNL     1      -5.580  48.587 -22.790  1.00  0.00     0.025 C 
ENDROOT
BRANCH  16  25
HETATM   25  C15 UNL     1      -0.344  53.158 -26.286  1.00  0.00    -0.007 C 
HETATM   26  C16 UNL     1       0.118  53.058 -27.747  1.00  0.00     0.011 C 
BRANCH  25  27
HETATM   27  C17 UNL     1       0.811  52.774 -25.341  1.00  0.00     0.087 C 
BRANCH  27  28
HETATM   28  C18 UNL     1       0.862  53.658 -24.104  1.00  0.00     0.149 C 
HETATM   29  O3  UNL     1       1.079  54.865 -24.167  1.00  0.00    -0.293 OA
BRANCH  28  30
HETATM   30  C19 UNL     1       0.592  52.985 -22.799  1.00  0.00     0.052 C 
HETATM   31  C20 UNL     1       1.056  53.405 -21.607  1.00  0.00    -0.084 C 
HETATM   32  C21 UNL     1       1.956  54.596 -21.393  1.00  0.00     0.043 C 
HETATM   33  C22 UNL     1       0.702  52.662 -20.345  1.00  0.00     0.043 C 
ENDBRANCH  28  30
ENDBRANCH  27  28
ENDBRANCH  25  27
ENDBRANCH  16  25
TORSDOF 4
ENDMDL
MODEL 7
REMARK minimizedAffinity -9.34241104
REMARK  4 active torsions:
REMARK  status: ('A' for Active; 'I' for Inactive)
REMARK    1  A    between atoms: C14_16  and  C15_17 
REMARK    2  A    between atoms: C15_17  and  C17_19 
REMARK    3  A    between atoms: C17_19  and  C18_20 
REMARK    4  A    between atoms: C18_20  and  C19_22 
ROOT
HETATM    1  C1  UNL     1       2.241  51.062 -26.316  1.00  0.00     0.017 C 
HETATM    2  C2  UNL     1       1.012  51.426 -26.735  1.00  0.00    -0.060 C 
HETATM    3  C3  UNL     1       0.856  52.229 -28.007  1.00  0.00     0.212 C 
HETATM    4  O1  UNL     1      -0.128  53.279 -27.982  1.00  0.00    -0.317 OA
HETATM    5  C4  UNL     1      -0.062  54.345 -27.150  1.00  0.00     0.259 C 
HETATM    6  O2  UNL     1      -0.568  55.421 -27.458  1.00  0.00    -0.265 OA
HETATM    7  C5  UNL     1       0.562  54.135 -25.799  1.00  0.00     0.112 C 
HETATM    8  C6  UNL     1      -0.350  53.362 -24.841  1.00  0.00     0.020 C 
HETATM    9  C7  UNL     1      -1.113  52.175 -25.440  1.00  0.00    -0.024 A 
HETATM   10  C8  UNL     1      -2.406  52.492 -26.161  1.00  0.00     0.022 A 
HETATM   11  C9  UNL     1      -2.487  51.751 -24.842  1.00  0.00    -0.027 A 
HETATM   12  C10 UNL     1      -3.240  52.591 -23.781  1.00  0.00     0.011 C 
HETATM   13  C11 UNL     1      -3.588  51.895 -22.457  1.00  0.00     0.011 C 
HETATM   14  C12 UNL     1      -4.189  50.504 -22.692  1.00  0.00    -0.032 C 
HETATM   15  C13 UNL     1      -5.539  50.673 -23.441  1.00  0.00     0.016 C 
HETATM   16  C14 UNL     1      -4.399  49.612 -21.428  1.00  0.00    -0.002 C 
HETATM   17  C23 UNL     1      -4.297  48.162 -21.988  1.00  0.00     0.006 C 
HETATM   18  C24 UNL     1      -3.705  48.260 -23.406  1.00  0.00     0.011 C 
HETATM   19  C25 UNL     1      -3.107  49.674 -23.490  1.00  0.00    -0.032 C 
HETATM   20  C26 UNL     1      -1.703  49.624 -22.788  1.00  0.00     0.016 C 
HETATM   21  C27 UNL     1      -2.925  50.256 -24.930  1.00  0.00     0.004 C 
HETATM   22  C28 UNL     1      -2.070  49.322 -25.825  1.00  0.00     0.007 C 
HETATM   23  C29 UNL     1      -1.010  49.966 -26.704  1.00  0.00     0.010 C 
HETATM   24  C30 UNL     1      -0.217  51.027 -25.933  1.00  0.00     0.025 C 
ENDROOT
BRANCH  16  25
HETATM   25  C15 UNL     1      -5.575  49.807 -20.425  1.00  0.00    -0.007 C 
HETATM   26  C16 UNL     1      -5.741  48.760 -19.314  1.00  0.00     0.011 C 
BRANCH  25  27
HETATM   27  C17 UNL     1      -6.917  50.020 -21.152  1.00  0.00     0.087 C 
BRANCH  27  28
HETATM   28  C18 UNL     1      -7.820  48.799 -21.065  1.00  0.00     0.149 C 
HETATM   29  O3  UNL     1      -8.481  48.541 -20.063  1.00  0.00    -0.293 OA
BRANCH  28  30
HETATM   30  C19 UNL     1      -7.893  47.943 -22.286  1.00  0.00     0.052 C 
HETATM   31  C20 UNL     1      -7.539  46.645 -22.337  1.00  0.00    -0.084 C 
HETATM   32  C21 UNL     1      -6.975  45.850 -21.187  1.00  0.00     0.043 C 
HETATM   33  C22 UNL     1      -7.676  45.867 -23.620  1.00  0.00     0.043 C 
ENDBRANCH  28  30
ENDBRANCH  27  28
ENDBRANCH  25  27
ENDBRANCH  16  25
TORSDOF 4
ENDMDL
MODEL 8
REMARK minimizedAffinity -8.98333454
REMARK  4 active torsions:
REMARK  status: ('A' for Active; 'I' for Inactive)
REMARK    1  A    between atoms: C14_16  and  C15_17 
REMARK    2  A    between atoms: C15_17  and  C17_19 
REMARK    3  A    between atoms: C17_19  and  C18_20 
REMARK    4  A    between atoms: C18_20  and  C19_22 
ROOT
HETATM    1  C1  UNL     1       1.461  50.597 -26.617  1.00  0.00     0.017 C 
HETATM    2  C2  UNL     1       0.371  51.388 -26.679  1.00  0.00    -0.060 C 
HETATM    3  C3  UNL     1       0.428  52.694 -27.440  1.00  0.00     0.212 C 
HETATM    4  O1  UNL     1      -0.242  53.814 -26.837  1.00  0.00    -0.317 OA
HETATM    5  C4  UNL     1       0.106  54.337 -25.637  1.00  0.00     0.259 C 
HETATM    6  O2  UNL     1      -0.097  55.520 -25.379  1.00  0.00    -0.265 OA
HETATM    7  C5  UNL     1       0.658  53.395 -24.603  1.00  0.00     0.112 C 
HETATM    8  C6  UNL     1      -0.423  52.509 -23.976  1.00  0.00     0.020 C 
HETATM    9  C7  UNL     1      -1.475  51.941 -24.935  1.00  0.00    -0.024 A 
HETATM   10  C8  UNL     1      -2.641  52.844 -25.278  1.00  0.00     0.022 A 
HETATM   11  C9  UNL     1      -2.911  51.626 -24.419  1.00  0.00    -0.027 A 
HETATM   12  C10 UNL     1      -3.410  52.042 -23.013  1.00  0.00     0.011 C 
HETATM   13  C11 UNL     1      -3.925  50.923 -22.096  1.00  0.00     0.011 C 
HETATM   14  C12 UNL     1      -4.874  49.975 -22.840  1.00  0.00    -0.032 C 
HETATM   15  C13 UNL     1      -6.134  50.778 -23.265  1.00  0.00     0.016 C 
HETATM   16  C14 UNL     1      -5.308  48.683 -22.079  1.00  0.00    -0.002 C 
HETATM   17  C23 UNL     1      -5.596  47.669 -23.225  1.00  0.00     0.006 C 
HETATM   18  C24 UNL     1      -5.005  48.259 -24.518  1.00  0.00     0.011 C 
HETATM   19  C25 UNL     1      -4.053  49.372 -24.048  1.00  0.00    -0.032 C 
HETATM   20  C26 UNL     1      -2.711  48.681 -23.618  1.00  0.00     0.016 C 
HETATM   21  C27 UNL     1      -3.729  50.485 -25.097  1.00  0.00     0.004 C 
HETATM   22  C28 UNL     1      -3.155  49.889 -26.409  1.00  0.00     0.007 C 
HETATM   23  C29 UNL     1      -1.966  50.594 -27.041  1.00  0.00     0.010 C 
HETATM   24  C30 UNL     1      -0.917  50.968 -25.987  1.00  0.00     0.025 C 
ENDROOT
BRANCH  16  25
HETATM   25  C15 UNL     1      -6.387  48.670 -20.955  1.00  0.00    -0.007 C 
HETATM   26  C16 UNL     1      -6.725  50.007 -20.279  1.00  0.00     0.011 C 
BRANCH  25  27
HETATM   27  C17 UNL     1      -6.084  47.602 -19.885  1.00  0.00     0.087 C 
BRANCH  27  28
HETATM   28  C18 UNL     1      -6.134  48.169 -18.475  1.00  0.00     0.149 C 
HETATM   29  O3  UNL     1      -5.176  48.741 -17.962  1.00  0.00    -0.293 OA
BRANCH  28  30
HETATM   30  C19 UNL     1      -7.433  48.030 -17.752  1.00  0.00     0.052 C 
HETATM   31  C20 UNL     1      -7.762  46.996 -16.955  1.00  0.00    -0.084 C 
HETATM   32  C21 UNL     1      -6.896  45.790 -16.690  1.00  0.00     0.043 C 
HETATM   33  C22 UNL     1      -9.095  46.967 -16.253  1.00  0.00     0.043 C 
ENDBRANCH  28  30
ENDBRANCH  27  28
ENDBRANCH  25  27
ENDBRANCH  16  25
TORSDOF 4
ENDMDL
MODEL 9
REMARK minimizedAffinity -8.96301842
REMARK  4 active torsions:
REMARK  status: ('A' for Active; 'I' for Inactive)
REMARK    1  A    between atoms: C14_16  and  C15_17 
REMARK    2  A    between atoms: C15_17  and  C17_19 
REMARK    3  A    between atoms: C17_19  and  C18_20 
REMARK    4  A    between atoms: C18_20  and  C19_22 
ROOT
HETATM    1  C1  UNL     1      -2.756  49.624 -27.034  1.00  0.00     0.017 C 
HETATM    2  C2  UNL     1      -2.598  50.831 -26.453  1.00  0.00    -0.060 C 
HETATM    3  C3  UNL     1      -2.522  52.075 -27.308  1.00  0.00     0.212 C 
HETATM    4  O1  UNL     1      -1.558  53.066 -26.910  1.00  0.00    -0.317 OA
HETATM    5  C4  UNL     1      -0.224  52.840 -26.874  1.00  0.00     0.259 C 
HETATM    6  O2  UNL     1       0.578  53.756 -27.031  1.00  0.00    -0.265 OA
HETATM    7  C5  UNL     1       0.236  51.448 -26.538  1.00  0.00     0.112 C 
HETATM    8  C6  UNL     1       0.075  51.118 -25.050  1.00  0.00     0.020 C 
HETATM    9  C7  UNL     1      -1.221  51.596 -24.386  1.00  0.00    -0.024 A 
HETATM   10  C8  UNL     1      -1.249  53.031 -23.905  1.00  0.00     0.022 A 
HETATM   11  C9  UNL     1      -1.239  51.930 -22.864  1.00  0.00    -0.027 A 
HETATM   12  C10 UNL     1       0.046  51.998 -22.002  1.00  0.00     0.011 C 
HETATM   13  C11 UNL     1       0.110  51.083 -20.771  1.00  0.00     0.011 C 
HETATM   14  C12 UNL     1      -1.190  51.137 -19.959  1.00  0.00    -0.032 C 
HETATM   15  C13 UNL     1      -1.358  52.576 -19.399  1.00  0.00     0.016 C 
HETATM   16  C14 UNL     1      -1.332  50.103 -18.798  1.00  0.00    -0.002 C 
HETATM   17  C23 UNL     1      -2.871  49.902 -18.679  1.00  0.00     0.006 C 
HETATM   18  C24 UNL     1      -3.511  50.511 -19.940  1.00  0.00     0.011 C 
HETATM   19  C25 UNL     1      -2.349  50.682 -20.932  1.00  0.00    -0.032 C 
HETATM   20  C26 UNL     1      -2.102  49.283 -21.600  1.00  0.00     0.016 C 
HETATM   21  C27 UNL     1      -2.562  51.744 -22.060  1.00  0.00     0.004 C 
HETATM   22  C28 UNL     1      -3.850  51.464 -22.877  1.00  0.00     0.007 C 
HETATM   23  C29 UNL     1      -3.768  51.601 -24.389  1.00  0.00     0.010 C 
HETATM   24  C30 UNL     1      -2.498  50.942 -24.939  1.00  0.00     0.025 C 
ENDROOT
BRANCH  16  25
HETATM   25  C15 UNL     1      -0.619  50.255 -17.421  1.00  0.00    -0.007 C 
HETATM   26  C16 UNL     1       0.081  49.016 -16.844  1.00  0.00     0.011 C 
BRANCH  25  27
HETATM   27  C17 UNL     1      -1.550  50.875 -16.361  1.00  0.00     0.087 C 
BRANCH  27  28
HETATM   28  C18 UNL     1      -0.928  50.868 -14.973  1.00  0.00     0.149 C 
HETATM   29  O3  UNL     1       0.075  51.522 -14.699  1.00  0.00    -0.293 OA
BRANCH  28  30
HETATM   30  C19 UNL     1      -1.628  50.050 -13.939  1.00  0.00     0.052 C 
HETATM   31  C20 UNL     1      -2.589  50.511 -13.115  1.00  0.00    -0.084 C 
HETATM   32  C21 UNL     1      -3.090  51.932 -13.070  1.00  0.00     0.043 C 
HETATM   33  C22 UNL     1      -3.247  49.590 -12.120  1.00  0.00     0.043 C 
ENDBRANCH  28  30
ENDBRANCH  27  28
ENDBRANCH  25  27
ENDBRANCH  16  25
TORSDOF 4
ENDMDL
