MODEL 1
REMARK minimizedAffinity -9.56924438
REMARK  7 active torsions:
REMARK  status: ('A' for Active; 'I' for Inactive)
REMARK    1  A    between atoms: C2_2  and  C3_3 
REMARK    2  A    between atoms: C2_2  and  C9_11 
REMARK    3  A    between atoms: C3_3  and  C4_4 
REMARK    4  A    between atoms: C5_5  and  C6_6 
REMARK    5  A    between atoms: C6_6  and  O1_9 
REMARK    6  A    between atoms: O1_9  and  O2_10 
REMARK    7  A    between atoms: C10_12  and  O3_13 
ROOT
HETATM    1  C9  UNL     1      -0.603  51.793 -20.503  1.00  0.00     0.028 C 
HETATM    2  C10 UNL     1      -0.182  50.851 -19.338  1.00  0.00     0.124 C 
HETATM    3  C11 UNL     1      -1.357  49.871 -19.099  1.00  0.00     0.046 C 
HETATM    4  C12 UNL     1      -2.512  50.391 -19.989  1.00  0.00    -0.010 C 
HETATM    5  C13 UNL     1      -3.280  51.456 -19.143  1.00  0.00     0.021 C 
HETATM    6  C14 UNL     1      -3.579  49.405 -20.454  1.00  0.00    -0.070 C 
HETATM    7  C15 UNL     1      -3.982  48.375 -19.679  1.00  0.00    -0.022 C 
HETATM    8  C16 UNL     1      -5.110  47.441 -20.019  1.00  0.00     0.034 C 
HETATM    9  C17 UNL     1      -5.607  47.624 -21.462  1.00  0.00     0.013 C 
HETATM   10  C18 UNL     1      -6.791  46.704 -21.900  1.00  0.00     0.018 C 
HETATM   11  C19 UNL     1      -6.434  45.223 -21.657  1.00  0.00     0.023 C 
HETATM   12  C20 UNL     1      -8.127  46.995 -21.207  1.00  0.00     0.023 C 
HETATM   13  C21 UNL     1      -6.997  46.882 -23.416  1.00  0.00     0.135 C 
HETATM   14  O4  UNL     1      -7.694  46.107 -24.074  1.00  0.00    -0.297 OA
HETATM   15  C22 UNL     1      -6.295  48.042 -24.090  1.00  0.00     0.080 C 
HETATM   16  C23 UNL     1      -6.424  49.289 -23.227  1.00  0.00     0.017 C 
HETATM   17  C24 UNL     1      -5.748  49.154 -21.830  1.00  0.00    -0.031 C 
HETATM   18  C25 UNL     1      -6.608  49.967 -20.824  1.00  0.00     0.016 C 
HETATM   19  C26 UNL     1      -4.261  49.709 -21.808  1.00  0.00     0.024 C 
HETATM   20  C27 UNL     1      -4.088  51.184 -22.253  1.00  0.00     0.010 C 
HETATM   21  C28 UNL     1      -2.666  51.778 -22.108  1.00  0.00     0.011 C 
HETATM   22  C29 UNL     1      -1.719  50.956 -21.216  1.00  0.00    -0.026 C 
HETATM   23  C30 UNL     1      -1.045  49.849 -22.087  1.00  0.00     0.016 C 
ENDROOT
BRANCH   1  24
HETATM   24  C2  UNL     1       0.526  52.364 -21.421  1.00  0.00    -0.008 C 
HETATM   25  C1  UNL     1       1.440  53.418 -20.784  1.00  0.00     0.011 C 
BRANCH  24  26
HETATM   26  C3  UNL     1      -0.022  52.887 -22.777  1.00  0.00     0.031 C 
BRANCH  26  27
HETATM   27  C4  UNL     1       0.479  52.167 -23.998  1.00  0.00    -0.027 C 
HETATM   28  C5  UNL     1       0.714  52.770 -25.176  1.00  0.00     0.009 C 
BRANCH  28  29
HETATM   29  C6  UNL     1       1.224  52.140 -26.464  1.00  0.00     0.106 C 
HETATM   30  C7  UNL     1       0.678  52.800 -27.742  1.00  0.00     0.053 C 
HETATM   31  C8  UNL     1       0.864  50.647 -26.503  1.00  0.00     0.053 C 
BRANCH  29  32
HETATM   32  O1  UNL     1       2.659  52.304 -26.545  1.00  0.00    -0.229 OA
BRANCH  32  33
HETATM   33  O2  UNL     1       3.148  51.541 -27.693  1.00  0.00    -0.249 OA
HETATM   34  H15 UNL     1       3.651  50.891 -27.172  1.00  0.00     0.253 HD
ENDBRANCH  32  33
ENDBRANCH  29  32
ENDBRANCH  28  29
ENDBRANCH  26  27
ENDBRANCH  24  26
ENDBRANCH   1  24
BRANCH   2  35
HETATM   35  O3  UNL     1       0.100  51.588 -18.156  1.00  0.00    -0.395 OA
HETATM   36  H18 UNL     1      -0.720  52.009 -17.850  1.00  0.00     0.210 HD
ENDBRANCH   2  35
TORSDOF 7
ENDMDL
MODEL 2
REMARK minimizedAffinity -9.1273222
REMARK  7 active torsions:
REMARK  status: ('A' for Active; 'I' for Inactive)
REMARK    1  A    between atoms: C2_2  and  C3_3 
REMARK    2  A    between atoms: C2_2  and  C9_11 
REMARK    3  A    between atoms: C3_3  and  C4_4 
REMARK    4  A    between atoms: C5_5  and  C6_6 
REMARK    5  A    between atoms: C6_6  and  O1_9 
REMARK    6  A    between atoms: O1_9  and  O2_10 
REMARK    7  A    between atoms: C10_12  and  O3_13 
ROOT
HETATM    1  C9  UNL     1      -2.074  49.493 -21.530  1.00  0.00     0.028 C 
HETATM    2  C10 UNL     1      -1.619  48.106 -20.989  1.00  0.00     0.124 C 
HETATM    3  C11 UNL     1      -2.851  47.169 -21.049  1.00  0.00     0.046 C 
HETATM    4  C12 UNL     1      -4.041  48.082 -21.432  1.00  0.00    -0.010 C 
HETATM    5  C13 UNL     1      -4.601  48.666 -20.095  1.00  0.00     0.021 C 
HETATM    6  C14 UNL     1      -5.246  47.458 -22.130  1.00  0.00    -0.070 C 
HETATM    7  C15 UNL     1      -5.658  46.203 -21.853  1.00  0.00    -0.022 C 
HETATM    8  C16 UNL     1      -6.903  45.570 -22.409  1.00  0.00     0.034 C 
HETATM    9  C17 UNL     1      -7.540  46.413 -23.527  1.00  0.00     0.013 C 
HETATM   10  C18 UNL     1      -8.849  45.841 -24.156  1.00  0.00     0.018 C 
HETATM   11  C19 UNL     1      -8.615  44.401 -24.659  1.00  0.00     0.023 C 
HETATM   12  C20 UNL     1     -10.064  45.829 -23.220  1.00  0.00     0.023 C 
HETATM   13  C21 UNL     1      -9.207  46.702 -25.381  1.00  0.00     0.135 C 
HETATM   14  O4  UNL     1     -10.046  46.342 -26.209  1.00  0.00    -0.297 OA
HETATM   15  C22 UNL     1      -8.474  48.016 -25.554  1.00  0.00     0.080 C 
HETATM   16  C23 UNL     1      -8.382  48.731 -24.214  1.00  0.00     0.017 C 
HETATM   17  C24 UNL     1      -7.570  47.946 -23.142  1.00  0.00    -0.031 C 
HETATM   18  C25 UNL     1      -8.227  48.236 -21.765  1.00  0.00     0.016 C 
HETATM   19  C26 UNL     1      -6.043  48.374 -23.088  1.00  0.00     0.024 C 
HETATM   20  C27 UNL     1      -5.776  49.882 -22.841  1.00  0.00     0.010 C 
HETATM   21  C28 UNL     1      -4.296  50.291 -22.652  1.00  0.00     0.011 C 
HETATM   22  C29 UNL     1      -3.340  49.117 -22.374  1.00  0.00    -0.026 C 
HETATM   23  C30 UNL     1      -2.880  48.511 -23.737  1.00  0.00     0.016 C 
ENDROOT
BRANCH   1  24
HETATM   24  C2  UNL     1      -1.005  50.381 -22.245  1.00  0.00    -0.008 C 
HETATM   25  C1  UNL     1      -0.585  51.655 -21.501  1.00  0.00     0.011 C 
BRANCH  24  26
HETATM   26  C3  UNL     1      -1.403  50.727 -23.706  1.00  0.00     0.031 C 
BRANCH  26  27
HETATM   27  C4  UNL     1      -0.397  51.534 -24.477  1.00  0.00    -0.027 C 
HETATM   28  C5  UNL     1       0.045  51.202 -25.703  1.00  0.00     0.009 C 
BRANCH  28  29
HETATM   29  C6  UNL     1       1.050  51.948 -26.569  1.00  0.00     0.106 C 
HETATM   30  C7  UNL     1       0.664  52.017 -28.056  1.00  0.00     0.053 C 
HETATM   31  C8  UNL     1       2.434  51.288 -26.462  1.00  0.00     0.053 C 
BRANCH  29  32
HETATM   32  O1  UNL     1       1.127  53.327 -26.140  1.00  0.00    -0.229 OA
BRANCH  32  33
HETATM   33  O2  UNL     1       0.230  54.123 -26.977  1.00  0.00    -0.249 OA
HETATM   34  H15 UNL     1       0.932  54.636 -27.414  1.00  0.00     0.253 HD
ENDBRANCH  32  33
ENDBRANCH  29  32
ENDBRANCH  28  29
ENDBRANCH  26  27
ENDBRANCH  24  26
ENDBRANCH   1  24
BRANCH   2  35
HETATM   35  O3  UNL     1      -1.135  48.208 -19.657  1.00  0.00    -0.395 OA
HETATM   36  H18 UNL     1      -1.870  48.470 -19.078  1.00  0.00     0.210 HD
ENDBRANCH   2  35
TORSDOF 7
ENDMDL
MODEL 3
REMARK minimizedAffinity -8.96723461
REMARK  7 active torsions:
REMARK  status: ('A' for Active; 'I' for Inactive)
REMARK    1  A    between atoms: C2_2  and  C3_3 
REMARK    2  A    between atoms: C2_2  and  C9_11 
REMARK    3  A    between atoms: C3_3  and  C4_4 
REMARK    4  A    between atoms: C5_5  and  C6_6 
REMARK    5  A    between atoms: C6_6  and  O1_9 
REMARK    6  A    between atoms: O1_9  and  O2_10 
REMARK    7  A    between atoms: C10_12  and  O3_13 
ROOT
HETATM    1  C9  UNL     1      -1.676  51.490 -23.187  1.00  0.00     0.028 C 
HETATM    2  C10 UNL     1      -2.612  52.716 -23.397  1.00  0.00     0.124 C 
HETATM    3  C11 UNL     1      -4.068  52.204 -23.270  1.00  0.00     0.046 C 
HETATM    4  C12 UNL     1      -3.953  50.662 -23.191  1.00  0.00    -0.010 C 
HETATM    5  C13 UNL     1      -3.941  50.141 -24.664  1.00  0.00     0.021 C 
HETATM    6  C14 UNL     1      -5.067  49.880 -22.502  1.00  0.00    -0.070 C 
HETATM    7  C15 UNL     1      -6.357  50.275 -22.563  1.00  0.00    -0.022 C 
HETATM    8  C16 UNL     1      -7.517  49.492 -22.014  1.00  0.00     0.034 C 
HETATM    9  C17 UNL     1      -7.065  48.302 -21.151  1.00  0.00     0.013 C 
HETATM   10  C18 UNL     1      -8.204  47.420 -20.550  1.00  0.00     0.018 C 
HETATM   11  C19 UNL     1      -9.192  48.296 -19.751  1.00  0.00     0.023 C 
HETATM   12  C20 UNL     1      -9.005  46.609 -21.576  1.00  0.00     0.023 C 
HETATM   13  C21 UNL     1      -7.567  46.428 -19.559  1.00  0.00     0.135 C 
HETATM   14  O4  UNL     1      -8.245  45.779 -18.761  1.00  0.00    -0.297 OA
HETATM   15  C22 UNL     1      -6.060  46.283 -19.580  1.00  0.00     0.080 C 
HETATM   16  C23 UNL     1      -5.572  46.226 -21.021  1.00  0.00     0.017 C 
HETATM   17  C24 UNL     1      -5.872  47.521 -21.833  1.00  0.00    -0.031 C 
HETATM   18  C25 UNL     1      -6.159  47.087 -23.297  1.00  0.00     0.016 C 
HETATM   19  C26 UNL     1      -4.664  48.549 -21.825  1.00  0.00     0.024 C 
HETATM   20  C27 UNL     1      -3.309  47.998 -22.339  1.00  0.00     0.010 C 
HETATM   21  C28 UNL     1      -2.157  49.025 -22.463  1.00  0.00     0.011 C 
HETATM   22  C29 UNL     1      -2.606  50.496 -22.411  1.00  0.00    -0.026 C 
HETATM   23  C30 UNL     1      -2.691  50.942 -20.916  1.00  0.00     0.016 C 
ENDROOT
BRANCH   1  24
HETATM   24  C2  UNL     1      -0.267  51.748 -22.563  1.00  0.00    -0.008 C 
HETATM   25  C1  UNL     1      -0.236  52.656 -21.327  1.00  0.00     0.011 C 
BRANCH  24  26
HETATM   26  C3  UNL     1       0.764  52.246 -23.613  1.00  0.00     0.031 C 
BRANCH  26  27
HETATM   27  C4  UNL     1       0.488  51.841 -25.033  1.00  0.00    -0.027 C 
HETATM   28  C5  UNL     1       0.557  52.685 -26.078  1.00  0.00     0.009 C 
BRANCH  28  29
HETATM   29  C6  UNL     1       0.305  52.378 -27.547  1.00  0.00     0.106 C 
HETATM   30  C7  UNL     1      -0.870  51.417 -27.792  1.00  0.00     0.053 C 
HETATM   31  C8  UNL     1       1.564  51.770 -28.185  1.00  0.00     0.053 C 
BRANCH  29  32
HETATM   32  O1  UNL     1      -0.059  53.596 -28.238  1.00  0.00    -0.229 OA
BRANCH  32  33
HETATM   33  O2  UNL     1      -0.310  54.636 -27.242  1.00  0.00    -0.249 OA
HETATM   34  H15 UNL     1      -1.262  54.719 -27.424  1.00  0.00     0.253 HD
ENDBRANCH  32  33
ENDBRANCH  29  32
ENDBRANCH  28  29
ENDBRANCH  26  27
ENDBRANCH  24  26
ENDBRANCH   1  24
BRANCH   2  35
HETATM   35  O3  UNL     1      -2.402  53.311 -24.670  1.00  0.00    -0.395 OA
HETATM   36  H18 UNL     1      -2.667  52.677 -25.357  1.00  0.00     0.210 HD
ENDBRANCH   2  35
TORSDOF 7
ENDMDL
MODEL 4
REMARK minimizedAffinity -8.96718979
REMARK  7 active torsions:
REMARK  status: ('A' for Active; 'I' for Inactive)
REMARK    1  A    between atoms: C2_2  and  C3_3 
REMARK    2  A    between atoms: C2_2  and  C9_11 
REMARK    3  A    between atoms: C3_3  and  C4_4 
REMARK    4  A    between atoms: C5_5  and  C6_6 
REMARK    5  A    between atoms: C6_6  and  O1_9 
REMARK    6  A    between atoms: O1_9  and  O2_10 
REMARK    7  A    between atoms: C10_12  and  O3_13 
ROOT
HETATM    1  C9  UNL     1      -2.804  48.370 -19.340  1.00  0.00     0.028 C 
HETATM    2  C10 UNL     1      -2.901  47.013 -20.095  1.00  0.00     0.124 C 
HETATM    3  C11 UNL     1      -2.910  47.336 -21.610  1.00  0.00     0.046 C 
HETATM    4  C12 UNL     1      -3.023  48.877 -21.699  1.00  0.00    -0.010 C 
HETATM    5  C13 UNL     1      -4.548  49.214 -21.658  1.00  0.00     0.021 C 
HETATM    6  C14 UNL     1      -2.492  49.578 -22.945  1.00  0.00    -0.070 C 
HETATM    7  C15 UNL     1      -2.564  49.008 -24.167  1.00  0.00    -0.022 C 
HETATM    8  C16 UNL     1      -2.175  49.688 -25.451  1.00  0.00     0.034 C 
HETATM    9  C17 UNL     1      -1.451  51.023 -25.211  1.00  0.00     0.013 C 
HETATM   10  C18 UNL     1      -1.021  51.809 -26.490  1.00  0.00     0.018 C 
HETATM   11  C19 UNL     1      -0.165  50.910 -27.407  1.00  0.00     0.023 C 
HETATM   12  C20 UNL     1      -2.179  52.375 -27.320  1.00  0.00     0.023 C 
HETATM   13  C21 UNL     1      -0.136  52.989 -26.050  1.00  0.00     0.135 C 
HETATM   14  O4  UNL     1       0.541  53.632 -26.855  1.00  0.00    -0.297 OA
HETATM   15  C22 UNL     1      -0.103  53.332 -24.575  1.00  0.00     0.080 C 
HETATM   16  C23 UNL     1      -1.514  53.282 -24.007  1.00  0.00     0.017 C 
HETATM   17  C24 UNL     1      -2.169  51.871 -24.087  1.00  0.00    -0.031 C 
HETATM   18  C25 UNL     1      -3.688  52.083 -24.332  1.00  0.00     0.016 C 
HETATM   19  C26 UNL     1      -1.971  51.023 -22.760  1.00  0.00     0.024 C 
HETATM   20  C27 UNL     1      -2.486  51.686 -21.456  1.00  0.00     0.010 C 
HETATM   21  C28 UNL     1      -2.424  50.817 -20.177  1.00  0.00     0.011 C 
HETATM   22  C29 UNL     1      -2.206  49.315 -20.437  1.00  0.00    -0.026 C 
HETATM   23  C30 UNL     1      -0.673  49.044 -20.560  1.00  0.00     0.016 C 
ENDROOT
BRANCH   1  24
HETATM   24  C2  UNL     1      -2.086  48.381 -17.951  1.00  0.00    -0.008 C 
HETATM   25  C1  UNL     1      -2.908  48.922 -16.775  1.00  0.00     0.011 C 
BRANCH  24  26
HETATM   26  C3  UNL     1      -0.705  49.090 -18.004  1.00  0.00     0.031 C 
BRANCH  26  27
HETATM   27  C4  UNL     1      -0.492  50.168 -16.979  1.00  0.00    -0.027 C 
HETATM   28  C5  UNL     1       0.714  50.502 -16.486  1.00  0.00     0.009 C 
BRANCH  28  29
HETATM   29  C6  UNL     1       1.039  51.575 -15.458  1.00  0.00     0.106 C 
HETATM   30  C7  UNL     1       2.451  51.458 -14.858  1.00  0.00     0.053 C 
HETATM   31  C8  UNL     1       0.024  51.532 -14.306  1.00  0.00     0.053 C 
BRANCH  29  32
HETATM   32  O1  UNL     1       1.011  52.875 -16.092  1.00  0.00    -0.229 OA
BRANCH  32  33
HETATM   33  O2  UNL     1       2.235  53.035 -16.875  1.00  0.00    -0.249 OA
HETATM   34  H15 UNL     1       2.608  53.750 -16.330  1.00  0.00     0.253 HD
ENDBRANCH  32  33
ENDBRANCH  29  32
ENDBRANCH  28  29
ENDBRANCH  26  27
ENDBRANCH  24  26
ENDBRANCH   1  24
BRANCH   2  35
HETATM   35  O3  UNL     1      -4.077  46.303 -19.730  1.00  0.00    -0.395 OA
HETATM   36  H18 UNL     1      -4.851  46.809 -20.029  1.00  0.00     0.210 HD
ENDBRANCH   2  35
TORSDOF 7
ENDMDL
MODEL 5
REMARK minimizedAffinity -8.95520592
REMARK  7 active torsions:
REMARK  status: ('A' for Active; 'I' for Inactive)
REMARK    1  A    between atoms: C2_2  and  C3_3 
REMARK    2  A    between atoms: C2_2  and  C9_11 
REMARK    3  A    between atoms: C3_3  and  C4_4 
REMARK    4  A    between atoms: C5_5  and  C6_6 
REMARK    5  A    between atoms: C6_6  and  O1_9 
REMARK    6  A    between atoms: O1_9  and  O2_10 
REMARK    7  A    between atoms: C10_12  and  O3_13 
ROOT
HETATM    1  C9  UNL     1      -1.985  49.703 -17.990  1.00  0.00     0.028 C 
HETATM    2  C10 UNL     1      -3.095  48.625 -18.153  1.00  0.00     0.124 C 
HETATM    3  C11 UNL     1      -3.615  48.725 -19.609  1.00  0.00     0.046 C 
HETATM    4  C12 UNL     1      -2.941  49.988 -20.198  1.00  0.00    -0.010 C 
HETATM    5  C13 UNL     1      -3.861  51.195 -19.829  1.00  0.00     0.021 C 
HETATM    6  C14 UNL     1      -2.751  50.079 -21.709  1.00  0.00    -0.070 C 
HETATM    7  C15 UNL     1      -3.646  49.551 -22.571  1.00  0.00    -0.022 C 
HETATM    8  C16 UNL     1      -3.588  49.708 -24.066  1.00  0.00     0.034 C 
HETATM    9  C17 UNL     1      -2.262  50.329 -24.538  1.00  0.00     0.013 C 
HETATM   10  C18 UNL     1      -2.117  50.545 -26.078  1.00  0.00     0.018 C 
HETATM   11  C19 UNL     1      -2.368  49.220 -26.828  1.00  0.00     0.023 C 
HETATM   12  C20 UNL     1      -3.042  51.614 -26.671  1.00  0.00     0.023 C 
HETATM   13  C21 UNL     1      -0.664  50.966 -26.366  1.00  0.00     0.135 C 
HETATM   14  O4  UNL     1      -0.200  50.968 -27.508  1.00  0.00    -0.297 OA
HETATM   15  C22 UNL     1       0.198  51.368 -25.187  1.00  0.00     0.080 C 
HETATM   16  C23 UNL     1      -0.603  52.257 -24.247  1.00  0.00     0.017 C 
HETATM   17  C24 UNL     1      -1.844  51.550 -23.626  1.00  0.00    -0.031 C 
HETATM   18  C25 UNL     1      -2.953  52.627 -23.468  1.00  0.00     0.016 C 
HETATM   19  C26 UNL     1      -1.543  50.905 -22.208  1.00  0.00     0.024 C 
HETATM   20  C27 UNL     1      -0.991  51.876 -21.132  1.00  0.00     0.010 C 
HETATM   21  C28 UNL     1      -0.820  51.292 -19.709  1.00  0.00     0.011 C 
HETATM   22  C29 UNL     1      -1.553  49.958 -19.474  1.00  0.00    -0.026 C 
HETATM   23  C30 UNL     1      -0.629  48.790 -19.942  1.00  0.00     0.016 C 
ENDROOT
BRANCH   1  24
HETATM   24  C2  UNL     1      -0.832  49.414 -16.975  1.00  0.00    -0.008 C 
HETATM   25  C1  UNL     1      -1.093  48.287 -15.967  1.00  0.00     0.011 C 
BRANCH  24  26
HETATM   26  C3  UNL     1      -0.363  50.694 -16.230  1.00  0.00     0.031 C 
BRANCH  26  27
HETATM   27  C4  UNL     1       1.082  50.708 -15.817  1.00  0.00    -0.027 C 
HETATM   28  C5  UNL     1       1.495  50.913 -14.554  1.00  0.00     0.009 C 
BRANCH  28  29
HETATM   29  C6  UNL     1       2.924  50.941 -14.029  1.00  0.00     0.106 C 
HETATM   30  C7  UNL     1       3.066  51.583 -12.639  1.00  0.00     0.053 C 
HETATM   31  C8  UNL     1       3.832  51.703 -15.006  1.00  0.00     0.053 C 
BRANCH  29  32
HETATM   32  O1  UNL     1       3.403  49.586 -13.865  1.00  0.00    -0.229 OA
BRANCH  32  33
HETATM   33  O2  UNL     1       4.865  49.609 -13.871  1.00  0.00    -0.249 OA
HETATM   34  H15 UNL     1       4.968  49.120 -14.706  1.00  0.00     0.253 HD
ENDBRANCH  32  33
ENDBRANCH  29  32
ENDBRANCH  28  29
ENDBRANCH  26  27
ENDBRANCH  24  26
ENDBRANCH   1  24
BRANCH   2  35
HETATM   35  O3  UNL     1      -4.155  48.833 -17.230  1.00  0.00    -0.395 OA
HETATM   36  H18 UNL     1      -4.593  49.674 -17.445  1.00  0.00     0.210 HD
ENDBRANCH   2  35
TORSDOF 7
ENDMDL
MODEL 6
REMARK minimizedAffinity -8.87460041
REMARK  7 active torsions:
REMARK  status: ('A' for Active; 'I' for Inactive)
REMARK    1  A    between atoms: C2_2  and  C3_3 
REMARK    2  A    between atoms: C2_2  and  C9_11 
REMARK    3  A    between atoms: C3_3  and  C4_4 
REMARK    4  A    between atoms: C5_5  and  C6_6 
REMARK    5  A    between atoms: C6_6  and  O1_9 
REMARK    6  A    between atoms: O1_9  and  O2_10 
REMARK    7  A    between atoms: C10_12  and  O3_13 
ROOT
HETATM    1  C9  UNL     1       6.609  63.528 -34.265  1.00  0.00     0.028 C 
HETATM    2  C10 UNL     1       5.304  62.846 -33.761  1.00  0.00     0.124 C 
HETATM    3  C11 UNL     1       4.118  63.699 -34.274  1.00  0.00     0.046 C 
HETATM    4  C12 UNL     1       4.761  64.965 -34.890  1.00  0.00    -0.010 C 
HETATM    5  C13 UNL     1       4.939  65.987 -33.722  1.00  0.00     0.021 C 
HETATM    6  C14 UNL     1       3.995  65.723 -35.970  1.00  0.00    -0.070 C 
HETATM    7  C15 UNL     1       2.648  65.813 -35.956  1.00  0.00    -0.022 C 
HETATM    8  C16 UNL     1       1.837  66.642 -36.914  1.00  0.00     0.034 C 
HETATM    9  C17 UNL     1       2.683  67.191 -38.075  1.00  0.00     0.013 C 
HETATM   10  C18 UNL     1       1.927  68.079 -39.113  1.00  0.00     0.018 C 
HETATM   11  C19 UNL     1       0.705  67.321 -39.673  1.00  0.00     0.023 C 
HETATM   12  C20 UNL     1       1.448  69.433 -38.579  1.00  0.00     0.023 C 
HETATM   13  C21 UNL     1       2.879  68.348 -40.294  1.00  0.00     0.135 C 
HETATM   14  O4  UNL     1       2.477  68.811 -41.363  1.00  0.00    -0.297 OA
HETATM   15  C22 UNL     1       4.343  68.005 -40.109  1.00  0.00     0.080 C 
HETATM   16  C23 UNL     1       4.805  68.463 -38.733  1.00  0.00     0.017 C 
HETATM   17  C24 UNL     1       4.066  67.756 -37.559  1.00  0.00    -0.031 C 
HETATM   18  C25 UNL     1       3.934  68.794 -36.410  1.00  0.00     0.016 C 
HETATM   19  C26 UNL     1       4.842  66.482 -37.019  1.00  0.00     0.024 C 
HETATM   20  C27 UNL     1       6.300  66.731 -36.550  1.00  0.00     0.010 C 
HETATM   21  C28 UNL     1       7.021  65.528 -35.896  1.00  0.00     0.011 C 
HETATM   22  C29 UNL     1       6.090  64.378 -35.475  1.00  0.00    -0.026 C 
HETATM   23  C30 UNL     1       5.870  63.435 -36.700  1.00  0.00     0.016 C 
ENDROOT
BRANCH   1  24
HETATM   24  C2  UNL     1       7.847  62.615 -34.542  1.00  0.00    -0.008 C 
HETATM   25  C1  UNL     1       7.578  61.106 -34.558  1.00  0.00     0.011 C 
BRANCH  24  26
HETATM   26  C3  UNL     1       9.040  62.932 -33.598  1.00  0.00     0.031 C 
BRANCH  26  27
HETATM   27  C4  UNL     1      10.406  62.722 -34.189  1.00  0.00    -0.027 C 
HETATM   28  C5  UNL     1      10.926  63.493 -35.159  1.00  0.00     0.009 C 
BRANCH  28  29
HETATM   29  C6  UNL     1      12.292  63.373 -35.819  1.00  0.00     0.106 C 
HETATM   30  C7  UNL     1      12.760  64.656 -36.526  1.00  0.00     0.053 C 
HETATM   31  C8  UNL     1      12.285  62.232 -36.848  1.00  0.00     0.053 C 
BRANCH  29  32
HETATM   32  O1  UNL     1      13.295  63.118 -34.808  1.00  0.00    -0.229 OA
BRANCH  32  33
HETATM   33  O2  UNL     1      14.578  63.627 -35.291  1.00  0.00    -0.249 OA
HETATM   34  H15 UNL     1      15.007  62.756 -35.367  1.00  0.00     0.253 HD
ENDBRANCH  32  33
ENDBRANCH  29  32
ENDBRANCH  28  29
ENDBRANCH  26  27
ENDBRANCH  24  26
ENDBRANCH   1  24
BRANCH   2  35
HETATM   35  O3  UNL     1       5.281  62.763 -32.342  1.00  0.00    -0.395 OA
HETATM   36  H18 UNL     1       5.246  63.663 -31.979  1.00  0.00     0.210 HD
ENDBRANCH   2  35
TORSDOF 7
ENDMDL
MODEL 7
REMARK minimizedAffinity -8.71764565
REMARK  7 active torsions:
REMARK  status: ('A' for Active; 'I' for Inactive)
REMARK    1  A    between atoms: C2_2  and  C3_3 
REMARK    2  A    between atoms: C2_2  and  C9_11 
REMARK    3  A    between atoms: C3_3  and  C4_4 
REMARK    4  A    between atoms: C5_5  and  C6_6 
REMARK    5  A    between atoms: C6_6  and  O1_9 
REMARK    6  A    between atoms: O1_9  and  O2_10 
REMARK    7  A    between atoms: C10_12  and  O3_13 
ROOT
HETATM    1  C9  UNL     1      -6.039  48.888 -22.909  1.00  0.00     0.028 C 
HETATM    2  C10 UNL     1      -6.873  49.364 -21.685  1.00  0.00     0.124 C 
HETATM    3  C11 UNL     1      -5.880  49.989 -20.674  1.00  0.00     0.046 C 
HETATM    4  C12 UNL     1      -4.473  49.682 -21.239  1.00  0.00    -0.010 C 
HETATM    5  C13 UNL     1      -4.075  48.272 -20.697  1.00  0.00     0.021 C 
HETATM    6  C14 UNL     1      -3.314  50.598 -20.856  1.00  0.00    -0.070 C 
HETATM    7  C15 UNL     1      -3.240  51.180 -19.640  1.00  0.00    -0.022 C 
HETATM    8  C16 UNL     1      -2.072  51.992 -19.152  1.00  0.00     0.034 C 
HETATM    9  C17 UNL     1      -1.066  52.303 -20.272  1.00  0.00     0.013 C 
HETATM   10  C18 UNL     1       0.191  53.131 -19.854  1.00  0.00     0.018 C 
HETATM   11  C19 UNL     1      -0.240  54.442 -19.163  1.00  0.00     0.023 C 
HETATM   12  C20 UNL     1       1.168  52.399 -18.926  1.00  0.00     0.023 C 
HETATM   13  C21 UNL     1       0.955  53.518 -21.133  1.00  0.00     0.135 C 
HETATM   14  O4  UNL     1       1.844  54.371 -21.129  1.00  0.00    -0.297 OA
HETATM   15  C22 UNL     1       0.565  52.824 -22.422  1.00  0.00     0.080 C 
HETATM   16  C23 UNL     1       0.366  51.337 -22.162  1.00  0.00     0.017 C 
HETATM   17  C24 UNL     1      -0.788  51.028 -21.163  1.00  0.00    -0.031 C 
HETATM   18  C25 UNL     1      -0.367  49.772 -20.351  1.00  0.00     0.016 C 
HETATM   19  C26 UNL     1      -2.170  50.737 -21.887  1.00  0.00     0.024 C 
HETATM   20  C27 UNL     1      -2.154  49.588 -22.929  1.00  0.00     0.010 C 
HETATM   21  C28 UNL     1      -3.522  49.206 -23.543  1.00  0.00     0.011 C 
HETATM   22  C29 UNL     1      -4.740  49.756 -22.780  1.00  0.00    -0.026 C 
HETATM   23  C30 UNL     1      -5.042  51.200 -23.293  1.00  0.00     0.016 C 
ENDROOT
BRANCH   1  24
HETATM   24  C2  UNL     1      -6.734  48.888 -24.309  1.00  0.00    -0.008 C 
HETATM   25  C1  UNL     1      -8.260  49.041 -24.300  1.00  0.00     0.011 C 
BRANCH  24  26
HETATM   26  C3  UNL     1      -6.328  47.663 -25.172  1.00  0.00     0.031 C 
BRANCH  26  27
HETATM   27  C4  UNL     1      -6.888  47.640 -26.567  1.00  0.00    -0.027 C 
HETATM   28  C5  UNL     1      -6.132  47.722 -27.676  1.00  0.00     0.009 C 
BRANCH  28  29
HETATM   29  C6  UNL     1      -6.593  47.702 -29.126  1.00  0.00     0.106 C 
HETATM   30  C7  UNL     1      -7.917  48.445 -29.371  1.00  0.00     0.053 C 
HETATM   31  C8  UNL     1      -6.759  46.253 -29.610  1.00  0.00     0.053 C 
BRANCH  29  32
HETATM   32  O1  UNL     1      -5.623  48.389 -29.951  1.00  0.00    -0.229 OA
BRANCH  32  33
HETATM   33  O2  UNL     1      -4.631  49.013 -29.076  1.00  0.00    -0.249 OA
HETATM   34  H15 UNL     1      -4.873  49.930 -29.292  1.00  0.00     0.253 HD
ENDBRANCH  32  33
ENDBRANCH  29  32
ENDBRANCH  28  29
ENDBRANCH  26  27
ENDBRANCH  24  26
ENDBRANCH   1  24
BRANCH   2  35
HETATM   35  O3  UNL     1      -7.576  48.283 -21.089  1.00  0.00    -0.395 OA
HETATM   36  H18 UNL     1      -6.930  47.658 -20.720  1.00  0.00     0.210 HD
ENDBRANCH   2  35
TORSDOF 7
ENDMDL
MODEL 8
REMARK minimizedAffinity -8.68750095
REMARK  7 active torsions:
REMARK  status: ('A' for Active; 'I' for Inactive)
REMARK    1  A    between atoms: C2_2  and  C3_3 
REMARK    2  A    between atoms: C2_2  and  C9_11 
REMARK    3  A    between atoms: C3_3  and  C4_4 
REMARK    4  A    between atoms: C5_5  and  C6_6 
REMARK    5  A    between atoms: C6_6  and  O1_9 
REMARK    6  A    between atoms: O1_9  and  O2_10 
REMARK    7  A    between atoms: C10_12  and  O3_13 
ROOT
HETATM    1  C9  UNL     1      -4.035  50.256 -25.240  1.00  0.00     0.028 C 
HETATM    2  C10 UNL     1      -3.321  51.395 -24.458  1.00  0.00     0.124 C 
HETATM    3  C11 UNL     1      -3.708  51.234 -22.967  1.00  0.00     0.046 C 
HETATM    4  C12 UNL     1      -4.795  50.132 -22.943  1.00  0.00    -0.010 C 
HETATM    5  C13 UNL     1      -6.161  50.851 -23.178  1.00  0.00     0.021 C 
HETATM    6  C14 UNL     1      -4.986  49.321 -21.665  1.00  0.00    -0.070 C 
HETATM    7  C15 UNL     1      -4.812  49.867 -20.443  1.00  0.00    -0.022 C 
HETATM    8  C16 UNL     1      -5.101  49.165 -19.144  1.00  0.00     0.034 C 
HETATM    9  C17 UNL     1      -5.384  47.666 -19.340  1.00  0.00     0.013 C 
HETATM   10  C18 UNL     1      -5.710  46.856 -18.045  1.00  0.00     0.018 C 
HETATM   11  C19 UNL     1      -4.587  47.042 -17.002  1.00  0.00     0.023 C 
HETATM   12  C20 UNL     1      -7.045  47.211 -17.379  1.00  0.00     0.023 C 
HETATM   13  C21 UNL     1      -5.749  45.362 -18.413  1.00  0.00     0.135 C 
HETATM   14  O4  UNL     1      -5.742  44.478 -17.554  1.00  0.00    -0.297 OA
HETATM   15  C22 UNL     1      -5.778  45.001 -19.884  1.00  0.00     0.080 C 
HETATM   16  C23 UNL     1      -6.749  45.916 -20.616  1.00  0.00     0.017 C 
HETATM   17  C24 UNL     1      -6.346  47.420 -20.569  1.00  0.00    -0.031 C 
HETATM   18  C25 UNL     1      -7.660  48.246 -20.516  1.00  0.00     0.016 C 
HETATM   19  C26 UNL     1      -5.500  47.872 -21.834  1.00  0.00     0.024 C 
HETATM   20  C27 UNL     1      -6.169  47.627 -23.212  1.00  0.00     0.010 C 
HETATM   21  C28 UNL     1      -5.417  48.184 -24.444  1.00  0.00     0.011 C 
HETATM   22  C29 UNL     1      -4.315  49.206 -24.111  1.00  0.00    -0.026 C 
HETATM   23  C30 UNL     1      -2.995  48.435 -23.795  1.00  0.00     0.016 C 
ENDROOT
BRANCH   1  24
HETATM   24  C2  UNL     1      -3.341  49.713 -26.532  1.00  0.00    -0.008 C 
HETATM   25  C1  UNL     1      -3.935  48.428 -27.122  1.00  0.00     0.011 C 
BRANCH  24  26
HETATM   26  C3  UNL     1      -1.806  49.557 -26.359  1.00  0.00     0.031 C 
BRANCH  26  27
HETATM   27  C4  UNL     1      -0.975  50.679 -26.917  1.00  0.00    -0.027 C 
HETATM   28  C5  UNL     1       0.186  51.088 -26.376  1.00  0.00     0.009 C 
BRANCH  28  29
HETATM   29  C6  UNL     1       1.103  52.201 -26.862  1.00  0.00     0.106 C 
HETATM   30  C7  UNL     1       0.668  52.832 -28.196  1.00  0.00     0.053 C 
HETATM   31  C8  UNL     1       2.537  51.674 -27.025  1.00  0.00     0.053 C 
BRANCH  29  32
HETATM   32  O1  UNL     1       1.084  53.292 -25.911  1.00  0.00    -0.229 OA
BRANCH  32  33
HETATM   33  O2  UNL     1       0.183  54.328 -26.414  1.00  0.00    -0.249 OA
HETATM   34  H15 UNL     1       0.875  54.996 -26.563  1.00  0.00     0.253 HD
ENDBRANCH  32  33
ENDBRANCH  29  32
ENDBRANCH  28  29
ENDBRANCH  26  27
ENDBRANCH  24  26
ENDBRANCH   1  24
BRANCH   2  35
HETATM   35  O3  UNL     1      -3.713  52.674 -24.938  1.00  0.00    -0.395 OA
HETATM   36  H18 UNL     1      -4.658  52.800 -24.751  1.00  0.00     0.210 HD
ENDBRANCH   2  35
TORSDOF 7
ENDMDL
MODEL 9
REMARK minimizedAffinity -8.34063911
REMARK  7 active torsions:
REMARK  status: ('A' for Active; 'I' for Inactive)
REMARK    1  A    between atoms: C2_2  and  C3_3 
REMARK    2  A    between atoms: C2_2  and  C9_11 
REMARK    3  A    between atoms: C3_3  and  C4_4 
REMARK    4  A    between atoms: C5_5  and  C6_6 
REMARK    5  A    between atoms: C6_6  and  O1_9 
REMARK    6  A    between atoms: O1_9  and  O2_10 
REMARK    7  A    between atoms: C10_12  and  O3_13 
ROOT
HETATM    1  C9  UNL     1      -3.537  50.380 -23.514  1.00  0.00     0.028 C 
HETATM    2  C10 UNL     1      -3.896  49.419 -24.684  1.00  0.00     0.124 C 
HETATM    3  C11 UNL     1      -4.806  48.311 -24.098  1.00  0.00     0.046 C 
HETATM    4  C12 UNL     1      -4.793  48.537 -22.567  1.00  0.00    -0.010 C 
HETATM    5  C13 UNL     1      -3.557  47.757 -22.015  1.00  0.00     0.021 C 
HETATM    6  C14 UNL     1      -5.977  48.041 -21.744  1.00  0.00    -0.070 C 
HETATM    7  C15 UNL     1      -6.649  46.915 -22.069  1.00  0.00    -0.022 C 
HETATM    8  C16 UNL     1      -7.743  46.303 -21.239  1.00  0.00     0.034 C 
HETATM    9  C17 UNL     1      -8.195  47.225 -20.094  1.00  0.00     0.013 C 
HETATM   10  C18 UNL     1      -9.320  46.664 -19.168  1.00  0.00     0.018 C 
HETATM   11  C19 UNL     1     -10.542  46.241 -20.009  1.00  0.00     0.023 C 
HETATM   12  C20 UNL     1      -8.905  45.475 -18.293  1.00  0.00     0.023 C 
HETATM   13  C21 UNL     1      -9.778  47.799 -18.233  1.00  0.00     0.135 C 
HETATM   14  O4  UNL     1     -10.812  47.718 -17.568  1.00  0.00    -0.297 OA
HETATM   15  C22 UNL     1      -8.920  49.045 -18.168  1.00  0.00     0.080 C 
HETATM   16  C23 UNL     1      -7.451  48.652 -18.103  1.00  0.00     0.017 C 
HETATM   17  C24 UNL     1      -6.957  47.878 -19.361  1.00  0.00    -0.031 C 
HETATM   18  C25 UNL     1      -5.896  46.850 -18.880  1.00  0.00     0.016 C 
HETATM   19  C26 UNL     1      -6.302  48.827 -20.452  1.00  0.00     0.024 C 
HETATM   20  C27 UNL     1      -5.114  49.695 -19.961  1.00  0.00     0.010 C 
HETATM   21  C28 UNL     1      -4.381  50.523 -21.044  1.00  0.00     0.011 C 
HETATM   22  C29 UNL     1      -4.689  50.097 -22.490  1.00  0.00    -0.026 C 
HETATM   23  C30 UNL     1      -5.982  50.833 -22.965  1.00  0.00     0.016 C 
ENDROOT
BRANCH   1  24
HETATM   24  C2  UNL     1      -3.273  51.882 -23.859  1.00  0.00    -0.008 C 
HETATM   25  C1  UNL     1      -3.749  52.346 -25.242  1.00  0.00     0.011 C 
BRANCH  24  26
HETATM   26  C3  UNL     1      -1.789  52.287 -23.645  1.00  0.00     0.031 C 
BRANCH  26  27
HETATM   27  C4  UNL     1      -0.813  51.716 -24.635  1.00  0.00    -0.027 C 
HETATM   28  C5  UNL     1      -0.134  52.458 -25.528  1.00  0.00     0.009 C 
BRANCH  28  29
HETATM   29  C6  UNL     1       0.875  51.985 -26.563  1.00  0.00     0.106 C 
HETATM   30  C7  UNL     1       0.597  52.495 -27.987  1.00  0.00     0.053 C 
HETATM   31  C8  UNL     1       0.914  50.449 -26.602  1.00  0.00     0.053 C 
BRANCH  29  32
HETATM   32  O1  UNL     1       2.185  52.502 -26.231  1.00  0.00    -0.229 OA
BRANCH  32  33
HETATM   33  O2  UNL     1       3.151  51.965 -27.189  1.00  0.00    -0.249 OA
HETATM   34  H15 UNL     1       3.639  51.425 -26.543  1.00  0.00     0.253 HD
ENDBRANCH  32  33
ENDBRANCH  29  32
ENDBRANCH  28  29
ENDBRANCH  26  27
ENDBRANCH  24  26
ENDBRANCH   1  24
BRANCH   2  35
HETATM   35  O3  UNL     1      -2.728  48.851 -25.260  1.00  0.00    -0.395 OA
HETATM   36  H18 UNL     1      -2.298  48.285 -24.597  1.00  0.00     0.210 HD
ENDBRANCH   2  35
TORSDOF 7
ENDMDL
