MODEL 1
REMARK minimizedAffinity -7.03597975
REMARK CNNscore 0.330542356
REMARK CNNaffinity 5.8103714
REMARK  9 active torsions:
REMARK  status: ('A' for Active; 'I' for Inactive)
REMARK    1  A    between atoms: C2_2  and  C4_4 
REMARK    2  A    between atoms: C4_4  and  O1_5 
REMARK    3  A    between atoms: C4_4  and  C5_7 
REMARK    4  A    between atoms: O1_5  and  O2_6 
REMARK    5  A    between atoms: C5_7  and  O3_8 
REMARK    6  A    between atoms: C5_7  and  C6_9 
REMARK    7  A    between atoms: C6_9  and  C7_10 
REMARK    8  A    between atoms: C7_10  and  C9_12 
REMARK    9  A    between atoms: C20_23  and  O4_24 
ROOT
HETATM    1  C9  UNL     1     -14.371  44.575 -25.936  1.00  0.00    -0.002 C 
HETATM    2  C10 UNL     1     -14.287  43.219 -26.702  1.00  0.00     0.006 C 
HETATM    3  C11 UNL     1     -13.336  43.410 -27.898  1.00  0.00     0.011 C 
HETATM    4  C12 UNL     1     -12.618  44.737 -27.619  1.00  0.00    -0.032 C 
HETATM    5  C13 UNL     1     -11.450  44.426 -26.616  1.00  0.00     0.016 C 
HETATM    6  C14 UNL     1     -12.028  45.473 -28.870  1.00  0.00     0.004 C 
HETATM    7  C15 UNL     1     -11.053  44.565 -29.663  1.00  0.00     0.006 C 
HETATM    8  C16 UNL     1      -9.727  45.167 -30.116  1.00  0.00     0.006 C 
HETATM    9  C17 UNL     1      -9.059  45.977 -29.001  1.00  0.00     0.001 C 
HETATM   10  C18 UNL     1      -7.723  46.634 -29.432  1.00  0.00     0.015 C 
HETATM   11  C19 UNL     1      -6.768  45.690 -30.169  1.00  0.00     0.013 C 
HETATM   12  C20 UNL     1      -7.003  47.237 -28.202  1.00  0.00     0.122 C 
HETATM   13  C21 UNL     1      -7.929  47.507 -27.014  1.00  0.00     0.033 C 
HETATM   14  C22 UNL     1      -9.310  47.999 -27.441  1.00  0.00     0.013 C 
HETATM   15  C23 UNL     1      -9.974  47.091 -28.473  1.00  0.00    -0.027 A 
HETATM   16  C24 UNL     1     -10.882  47.769 -29.478  1.00  0.00     0.021 A 
HETATM   17  C25 UNL     1     -11.497  46.861 -28.433  1.00  0.00    -0.027 A 
HETATM   18  C26 UNL     1     -12.445  47.665 -27.527  1.00  0.00     0.011 C 
HETATM   19  C27 UNL     1     -13.154  46.870 -26.424  1.00  0.00     0.011 C 
HETATM   20  C28 UNL     1     -13.787  45.584 -26.978  1.00  0.00    -0.032 C 
HETATM   21  C29 UNL     1     -14.918  45.968 -27.983  1.00  0.00     0.016 C 
ENDROOT
BRANCH   1  22
HETATM   22  C7  UNL     1     -15.788  44.809 -25.320  1.00  0.00    -0.011 C 
HETATM   23  C8  UNL     1     -15.825  44.503 -23.820  1.00  0.00     0.010 C 
BRANCH  22  24
HETATM   24  C6  UNL     1     -16.844  43.950 -26.068  1.00  0.00     0.039 C 
BRANCH  24  25
HETATM   25  C5  UNL     1     -18.266  44.539 -26.209  1.00  0.00     0.154 C 
BRANCH  25  26
HETATM   26  C4  UNL     1     -18.729  45.352 -24.961  1.00  0.00     0.216 C 
BRANCH  26  27
HETATM   27  C2  UNL     1     -19.430  44.592 -23.833  1.00  0.00    -0.059 C 
HETATM   28  C1  UNL     1     -19.550  45.021 -22.564  1.00  0.00     0.016 C 
HETATM   29  C3  UNL     1     -20.052  43.281 -24.238  1.00  0.00     0.045 C 
ENDBRANCH  26  27
BRANCH  26  30
HETATM   30  O1  UNL     1     -19.600  46.408 -25.408  1.00  0.00    -0.231 OA
BRANCH  30  31
HETATM   31  O2  UNL     1     -19.081  47.655 -24.855  1.00  0.00    -0.250 OA
HETATM   32  H7  UNL     1     -19.915  47.932 -24.431  1.00  0.00     0.253 HD
ENDBRANCH  30  31
ENDBRANCH  26  30
ENDBRANCH  25  26
BRANCH  25  33
HETATM   33  O3  UNL     1     -18.261  45.362 -27.392  1.00  0.00    -0.393 OA
HETATM   34  H9  UNL     1     -17.889  44.836 -28.118  1.00  0.00     0.210 HD
ENDBRANCH  25  33
ENDBRANCH  24  25
ENDBRANCH  22  24
ENDBRANCH   1  22
BRANCH  12  35
HETATM   35  O4  UNL     1      -6.370  48.452 -28.606  1.00  0.00    -0.395 OA
HETATM   36  H35 UNL     1      -5.869  48.791 -27.845  1.00  0.00     0.210 HD
ENDBRANCH  12  35
TORSDOF 9
ENDMDL
MODEL 2
REMARK minimizedAffinity -9.41716576
REMARK CNNscore 0.304905087
REMARK CNNaffinity 6.06279612
REMARK  9 active torsions:
REMARK  status: ('A' for Active; 'I' for Inactive)
REMARK    1  A    between atoms: C2_2  and  C4_4 
REMARK    2  A    between atoms: C4_4  and  O1_5 
REMARK    3  A    between atoms: C4_4  and  C5_7 
REMARK    4  A    between atoms: O1_5  and  O2_6 
REMARK    5  A    between atoms: C5_7  and  O3_8 
REMARK    6  A    between atoms: C5_7  and  C6_9 
REMARK    7  A    between atoms: C6_9  and  C7_10 
REMARK    8  A    between atoms: C7_10  and  C9_12 
REMARK    9  A    between atoms: C20_23  and  O4_24 
ROOT
HETATM    1  C9  UNL     1      -6.435  49.135 -23.458  1.00  0.00    -0.002 C 
HETATM    2  C10 UNL     1      -7.262  49.651 -22.241  1.00  0.00     0.006 C 
HETATM    3  C11 UNL     1      -6.281  49.928 -21.086  1.00  0.00     0.011 C 
HETATM    4  C12 UNL     1      -4.893  49.911 -21.740  1.00  0.00    -0.032 C 
HETATM    5  C13 UNL     1      -4.675  51.323 -22.393  1.00  0.00     0.016 C 
HETATM    6  C14 UNL     1      -3.690  49.605 -20.784  1.00  0.00     0.004 C 
HETATM    7  C15 UNL     1      -3.639  50.593 -19.590  1.00  0.00     0.006 C 
HETATM    8  C16 UNL     1      -2.289  51.197 -19.221  1.00  0.00     0.006 C 
HETATM    9  C17 UNL     1      -1.521  51.673 -20.459  1.00  0.00     0.001 C 
HETATM   10  C18 UNL     1      -0.126  52.263 -20.130  1.00  0.00     0.015 C 
HETATM   11  C19 UNL     1      -0.128  53.272 -18.977  1.00  0.00     0.013 C 
HETATM   12  C20 UNL     1       0.485  52.923 -21.390  1.00  0.00     0.122 C 
HETATM   13  C21 UNL     1      -0.122  52.427 -22.703  1.00  0.00     0.033 C 
HETATM   14  C22 UNL     1      -0.456  50.937 -22.675  1.00  0.00     0.013 C 
HETATM   15  C23 UNL     1      -1.316  50.542 -21.477  1.00  0.00    -0.027 A 
HETATM   16  C24 UNL     1      -1.097  49.149 -20.923  1.00  0.00     0.021 A 
HETATM   17  C25 UNL     1      -2.401  49.458 -21.629  1.00  0.00    -0.027 A 
HETATM   18  C26 UNL     1      -2.542  48.581 -22.885  1.00  0.00     0.011 C 
HETATM   19  C27 UNL     1      -3.827  48.775 -23.699  1.00  0.00     0.011 C 
HETATM   20  C28 UNL     1      -5.071  48.751 -22.796  1.00  0.00    -0.032 C 
HETATM   21  C29 UNL     1      -5.210  47.331 -22.163  1.00  0.00     0.016 C 
ENDROOT
BRANCH   1  22
HETATM   22  C7  UNL     1      -7.229  48.083 -24.298  1.00  0.00    -0.011 C 
HETATM   23  C8  UNL     1      -6.599  47.846 -25.674  1.00  0.00     0.010 C 
BRANCH  22  24
HETATM   24  C6  UNL     1      -8.708  48.530 -24.454  1.00  0.00     0.039 C 
BRANCH  24  25
HETATM   25  C5  UNL     1      -9.243  48.720 -25.891  1.00  0.00     0.154 C 
BRANCH  25  26
HETATM   26  C4  UNL     1     -10.319  47.667 -26.299  1.00  0.00     0.216 C 
BRANCH  26  27
HETATM   27  C2  UNL     1     -10.329  47.182 -27.750  1.00  0.00    -0.059 C 
HETATM   28  C1  UNL     1     -11.130  46.221 -28.242  1.00  0.00     0.016 C 
HETATM   29  C3  UNL     1      -9.374  47.899 -28.669  1.00  0.00     0.045 C 
ENDBRANCH  26  27
BRANCH  26  30
HETATM   30  O1  UNL     1     -11.619  48.205 -25.989  1.00  0.00    -0.231 OA
BRANCH  30  31
HETATM   31  O2  UNL     1     -12.022  49.029 -27.125  1.00  0.00    -0.250 OA
HETATM   32  H7  UNL     1     -12.203  49.834 -26.604  1.00  0.00     0.253 HD
ENDBRANCH  30  31
ENDBRANCH  26  30
ENDBRANCH  25  26
BRANCH  25  33
HETATM   33  O3  UNL     1      -9.773  50.058 -25.966  1.00  0.00    -0.393 OA
HETATM   34  H9  UNL     1      -9.096  50.665 -25.625  1.00  0.00     0.210 HD
ENDBRANCH  25  33
ENDBRANCH  24  25
ENDBRANCH  22  24
ENDBRANCH   1  22
BRANCH  12  35
HETATM   35  O4  UNL     1       1.892  52.676 -21.384  1.00  0.00    -0.395 OA
HETATM   36  H35 UNL     1       2.277  53.147 -22.143  1.00  0.00     0.210 HD
ENDBRANCH  12  35
TORSDOF 9
ENDMDL
MODEL 3
REMARK minimizedAffinity -9.06234074
REMARK CNNscore 0.300071031
REMARK CNNaffinity 6.67118979
REMARK  9 active torsions:
REMARK  status: ('A' for Active; 'I' for Inactive)
REMARK    1  A    between atoms: C2_2  and  C4_4 
REMARK    2  A    between atoms: C4_4  and  O1_5 
REMARK    3  A    between atoms: C4_4  and  C5_7 
REMARK    4  A    between atoms: O1_5  and  O2_6 
REMARK    5  A    between atoms: C5_7  and  O3_8 
REMARK    6  A    between atoms: C5_7  and  C6_9 
REMARK    7  A    between atoms: C6_9  and  C7_10 
REMARK    8  A    between atoms: C7_10  and  C9_12 
REMARK    9  A    between atoms: C20_23  and  O4_24 
ROOT
HETATM    1  C9  UNL     1      -2.544  50.757 -25.117  1.00  0.00    -0.002 C 
HETATM    2  C10 UNL     1      -1.708  51.897 -24.458  1.00  0.00     0.006 C 
HETATM    3  C11 UNL     1      -2.118  51.990 -22.976  1.00  0.00     0.011 C 
HETATM    4  C12 UNL     1      -2.909  50.701 -22.709  1.00  0.00    -0.032 C 
HETATM    5  C13 UNL     1      -1.859  49.563 -22.448  1.00  0.00     0.016 C 
HETATM    6  C14 UNL     1      -3.911  50.751 -21.506  1.00  0.00     0.004 C 
HETATM    7  C15 UNL     1      -3.206  51.155 -20.186  1.00  0.00     0.006 C 
HETATM    8  C16 UNL     1      -3.526  50.352 -18.930  1.00  0.00     0.006 C 
HETATM    9  C17 UNL     1      -3.524  48.845 -19.204  1.00  0.00     0.001 C 
HETATM   10  C18 UNL     1      -3.879  47.992 -17.959  1.00  0.00     0.015 C 
HETATM   11  C19 UNL     1      -3.123  48.393 -16.688  1.00  0.00     0.013 C 
HETATM   12  C20 UNL     1      -3.634  46.492 -18.252  1.00  0.00     0.122 C 
HETATM   13  C21 UNL     1      -3.611  46.149 -19.742  1.00  0.00     0.033 C 
HETATM   14  C22 UNL     1      -4.623  46.958 -20.551  1.00  0.00     0.013 C 
HETATM   15  C23 UNL     1      -4.504  48.462 -20.321  1.00  0.00    -0.027 A 
HETATM   16  C24 UNL     1      -5.789  49.258 -20.411  1.00  0.00     0.021 A 
HETATM   17  C25 UNL     1      -4.739  49.442 -21.487  1.00  0.00    -0.027 A 
HETATM   18  C26 UNL     1      -5.299  49.006 -22.852  1.00  0.00     0.011 C 
HETATM   19  C27 UNL     1      -4.347  49.149 -24.045  1.00  0.00     0.011 C 
HETATM   20  C28 UNL     1      -3.688  50.537 -24.073  1.00  0.00    -0.032 C 
HETATM   21  C29 UNL     1      -4.789  51.616 -24.310  1.00  0.00     0.016 C 
ENDROOT
BRANCH   1  22
HETATM   22  C7  UNL     1      -2.886  51.073 -26.608  1.00  0.00    -0.011 C 
HETATM   23  C8  UNL     1      -3.462  49.858 -27.340  1.00  0.00     0.010 C 
BRANCH  22  24
HETATM   24  C6  UNL     1      -1.624  51.596 -27.347  1.00  0.00     0.039 C 
BRANCH  24  25
HETATM   25  C5  UNL     1      -1.306  53.104 -27.228  1.00  0.00     0.154 C 
BRANCH  25  26
HETATM   26  C4  UNL     1       0.220  53.423 -27.269  1.00  0.00     0.216 C 
BRANCH  26  27
HETATM   27  C2  UNL     1       1.198  52.254 -27.140  1.00  0.00    -0.059 C 
HETATM   28  C1  UNL     1       1.763  51.597 -28.169  1.00  0.00     0.016 C 
HETATM   29  C3  UNL     1       1.555  51.872 -25.727  1.00  0.00     0.045 C 
ENDBRANCH  26  27
BRANCH  26  30
HETATM   30  O1  UNL     1       0.510  54.376 -26.227  1.00  0.00    -0.231 OA
BRANCH  30  31
HETATM   31  O2  UNL     1       0.092  55.686 -26.716  1.00  0.00    -0.250 OA
HETATM   32  H7  UNL     1       0.948  56.128 -26.562  1.00  0.00     0.253 HD
ENDBRANCH  30  31
ENDBRANCH  26  30
ENDBRANCH  25  26
BRANCH  25  33
HETATM   33  O3  UNL     1      -2.004  53.763 -28.302  1.00  0.00    -0.393 OA
HETATM   34  H9  UNL     1      -2.928  53.468 -28.283  1.00  0.00     0.210 HD
ENDBRANCH  25  33
ENDBRANCH  24  25
ENDBRANCH  22  24
ENDBRANCH   1  22
BRANCH  12  35
HETATM   35  O4  UNL     1      -4.657  45.738 -17.599  1.00  0.00    -0.395 OA
HETATM   36  H35 UNL     1      -4.461  44.796 -17.735  1.00  0.00     0.210 HD
ENDBRANCH  12  35
TORSDOF 9
ENDMDL
MODEL 4
REMARK minimizedAffinity -7.45893526
REMARK CNNscore 0.283439189
REMARK CNNaffinity 5.50484467
REMARK  9 active torsions:
REMARK  status: ('A' for Active; 'I' for Inactive)
REMARK    1  A    between atoms: C2_2  and  C4_4 
REMARK    2  A    between atoms: C4_4  and  O1_5 
REMARK    3  A    between atoms: C4_4  and  C5_7 
REMARK    4  A    between atoms: O1_5  and  O2_6 
REMARK    5  A    between atoms: C5_7  and  O3_8 
REMARK    6  A    between atoms: C5_7  and  C6_9 
REMARK    7  A    between atoms: C6_9  and  C7_10 
REMARK    8  A    between atoms: C7_10  and  C9_12 
REMARK    9  A    between atoms: C20_23  and  O4_24 
ROOT
HETATM    1  C9  UNL     1       3.849  66.573 -37.299  1.00  0.00    -0.002 C 
HETATM    2  C10 UNL     1       2.462  65.959 -36.936  1.00  0.00     0.006 C 
HETATM    3  C11 UNL     1       1.371  66.912 -37.460  1.00  0.00     0.011 C 
HETATM    4  C12 UNL     1       2.108  67.866 -38.410  1.00  0.00    -0.032 C 
HETATM    5  C13 UNL     1       2.256  67.122 -39.785  1.00  0.00     0.016 C 
HETATM    6  C14 UNL     1       1.422  69.252 -38.655  1.00  0.00     0.004 C 
HETATM    7  C15 UNL     1      -0.028  69.091 -39.179  1.00  0.00     0.006 C 
HETATM    8  C16 UNL     1      -0.464  69.960 -40.354  1.00  0.00     0.006 C 
HETATM    9  C17 UNL     1       0.598  69.997 -41.457  1.00  0.00     0.001 C 
HETATM   10  C18 UNL     1       0.209  70.898 -42.657  1.00  0.00     0.015 C 
HETATM   11  C19 UNL     1      -1.216  70.672 -43.175  1.00  0.00     0.013 C 
HETATM   12  C20 UNL     1       1.214  70.705 -43.818  1.00  0.00     0.122 C 
HETATM   13  C21 UNL     1       2.561  70.127 -43.380  1.00  0.00     0.033 C 
HETATM   14  C22 UNL     1       3.015  70.652 -42.019  1.00  0.00     0.013 C 
HETATM   15  C23 UNL     1       1.955  70.487 -40.933  1.00  0.00    -0.027 A 
HETATM   16  C24 UNL     1       1.932  71.547 -39.851  1.00  0.00     0.021 A 
HETATM   17  C25 UNL     1       2.374  70.144 -39.490  1.00  0.00    -0.027 A 
HETATM   18  C26 UNL     1       3.838  70.157 -39.015  1.00  0.00     0.011 C 
HETATM   19  C27 UNL     1       4.422  68.801 -38.601  1.00  0.00     0.011 C 
HETATM   20  C28 UNL     1       3.478  68.052 -37.646  1.00  0.00    -0.032 C 
HETATM   21  C29 UNL     1       3.359  68.858 -36.315  1.00  0.00     0.016 C 
ENDROOT
BRANCH   1  22
HETATM   22  C7  UNL     1       4.926  66.264 -36.210  1.00  0.00    -0.011 C 
HETATM   23  C8  UNL     1       6.327  66.111 -36.808  1.00  0.00     0.010 C 
BRANCH  22  24
HETATM   24  C6  UNL     1       4.536  64.983 -35.422  1.00  0.00     0.039 C 
BRANCH  24  25
HETATM   25  C5  UNL     1       5.590  63.857 -35.334  1.00  0.00     0.154 C 
BRANCH  25  26
HETATM   26  C4  UNL     1       5.596  63.116 -33.962  1.00  0.00     0.216 C 
BRANCH  26  27
HETATM   27  C2  UNL     1       4.703  63.668 -32.848  1.00  0.00    -0.059 C 
HETATM   28  C1  UNL     1       4.737  64.927 -32.377  1.00  0.00     0.016 C 
HETATM   29  C3  UNL     1       3.695  62.692 -32.297  1.00  0.00     0.045 C 
ENDBRANCH  26  27
BRANCH  26  30
HETATM   30  O1  UNL     1       6.952  63.072 -33.478  1.00  0.00    -0.231 OA
BRANCH  30  31
HETATM   31  O2  UNL     1       7.633  64.251 -34.003  1.00  0.00    -0.250 OA
HETATM   32  H7  UNL     1       8.375  63.765 -34.410  1.00  0.00     0.253 HD
ENDBRANCH  30  31
ENDBRANCH  26  30
ENDBRANCH  25  26
BRANCH  25  33
HETATM   33  O3  UNL     1       5.317  62.945 -36.415  1.00  0.00    -0.393 OA
HETATM   34  H9  UNL     1       5.242  63.464 -37.232  1.00  0.00     0.210 HD
ENDBRANCH  25  33
ENDBRANCH  24  25
ENDBRANCH  22  24
ENDBRANCH   1  22
BRANCH  12  35
HETATM   35  O4  UNL     1       1.415  71.972 -44.448  1.00  0.00    -0.395 OA
HETATM   36  H35 UNL     1       1.998  71.831 -45.214  1.00  0.00     0.210 HD
ENDBRANCH  12  35
TORSDOF 9
ENDMDL
MODEL 5
REMARK minimizedAffinity -8.85904503
REMARK CNNscore 0.263897777
REMARK CNNaffinity 6.58988571
REMARK  9 active torsions:
REMARK  status: ('A' for Active; 'I' for Inactive)
REMARK    1  A    between atoms: C2_2  and  C4_4 
REMARK    2  A    between atoms: C4_4  and  O1_5 
REMARK    3  A    between atoms: C4_4  and  C5_7 
REMARK    4  A    between atoms: O1_5  and  O2_6 
REMARK    5  A    between atoms: C5_7  and  O3_8 
REMARK    6  A    between atoms: C5_7  and  C6_9 
REMARK    7  A    between atoms: C6_9  and  C7_10 
REMARK    8  A    between atoms: C7_10  and  C9_12 
REMARK    9  A    between atoms: C20_23  and  O4_24 
ROOT
HETATM    1  C9  UNL     1      -3.865  50.890 -23.982  1.00  0.00    -0.002 C 
HETATM    2  C10 UNL     1      -5.357  50.834 -23.530  1.00  0.00     0.006 C 
HETATM    3  C11 UNL     1      -5.408  50.164 -22.144  1.00  0.00     0.011 C 
HETATM    4  C12 UNL     1      -3.952  50.159 -21.659  1.00  0.00    -0.032 C 
HETATM    5  C13 UNL     1      -3.659  51.584 -21.067  1.00  0.00     0.016 C 
HETATM    6  C14 UNL     1      -3.593  49.080 -20.582  1.00  0.00     0.004 C 
HETATM    7  C15 UNL     1      -4.507  49.188 -19.334  1.00  0.00     0.006 C 
HETATM    8  C16 UNL     1      -3.850  49.118 -17.960  1.00  0.00     0.006 C 
HETATM    9  C17 UNL     1      -2.589  49.985 -17.888  1.00  0.00     0.001 C 
HETATM   10  C18 UNL     1      -1.870  49.915 -16.516  1.00  0.00     0.015 C 
HETATM   11  C19 UNL     1      -2.802  50.075 -15.311  1.00  0.00     0.013 C 
HETATM   12  C20 UNL     1      -0.750  50.980 -16.445  1.00  0.00     0.122 C 
HETATM   13  C21 UNL     1      -0.275  51.470 -17.814  1.00  0.00     0.033 C 
HETATM   14  C22 UNL     1      -0.244  50.359 -18.862  1.00  0.00     0.013 C 
HETATM   15  C23 UNL     1      -1.565  49.601 -18.966  1.00  0.00    -0.027 A 
HETATM   16  C24 UNL     1      -1.471  48.135 -19.334  1.00  0.00     0.021 A 
HETATM   17  C25 UNL     1      -2.064  49.103 -20.336  1.00  0.00    -0.027 A 
HETATM   18  C26 UNL     1      -1.200  49.141 -21.609  1.00  0.00     0.011 C 
HETATM   19  C27 UNL     1      -1.688  50.073 -22.725  1.00  0.00     0.011 C 
HETATM   20  C28 UNL     1      -3.185  49.870 -23.010  1.00  0.00    -0.032 C 
HETATM   21  C29 UNL     1      -3.404  48.430 -23.570  1.00  0.00     0.016 C 
ENDROOT
BRANCH   1  22
HETATM   22  C7  UNL     1      -3.718  50.724 -25.528  1.00  0.00    -0.011 C 
HETATM   23  C8  UNL     1      -4.017  49.294 -25.988  1.00  0.00     0.010 C 
BRANCH  22  24
HETATM   24  C6  UNL     1      -2.292  51.144 -25.978  1.00  0.00     0.039 C 
BRANCH  24  25
HETATM   25  C5  UNL     1      -2.184  52.256 -27.045  1.00  0.00     0.154 C 
BRANCH  25  26
HETATM   26  C4  UNL     1      -0.729  52.777 -27.256  1.00  0.00     0.216 C 
BRANCH  26  27
HETATM   27  C2  UNL     1       0.252  52.647 -26.090  1.00  0.00    -0.059 C 
HETATM   28  C1  UNL     1       0.234  53.393 -24.972  1.00  0.00     0.016 C 
HETATM   29  C3  UNL     1       1.277  51.553 -26.239  1.00  0.00     0.045 C 
ENDBRANCH  26  27
BRANCH  26  30
HETATM   30  O1  UNL     1      -0.798  54.164 -27.640  1.00  0.00    -0.231 OA
BRANCH  30  31
HETATM   31  O2  UNL     1      -1.944  54.306 -28.533  1.00  0.00    -0.250 OA
HETATM   32  H7  UNL     1      -1.451  54.726 -29.262  1.00  0.00     0.253 HD
ENDBRANCH  30  31
ENDBRANCH  26  30
ENDBRANCH  25  26
BRANCH  25  33
HETATM   33  O3  UNL     1      -2.723  51.714 -28.267  1.00  0.00    -0.393 OA
HETATM   34  H9  UNL     1      -3.591  51.330 -28.065  1.00  0.00     0.210 HD
ENDBRANCH  25  33
ENDBRANCH  24  25
ENDBRANCH  22  24
ENDBRANCH   1  22
BRANCH  12  35
HETATM   35  O4  UNL     1       0.350  50.423 -15.724  1.00  0.00    -0.395 OA
HETATM   36  H35 UNL     1       1.023  51.118 -15.629  1.00  0.00     0.210 HD
ENDBRANCH  12  35
TORSDOF 9
ENDMDL
MODEL 6
REMARK minimizedAffinity -7.52445221
REMARK CNNscore 0.260161579
REMARK CNNaffinity 5.45468378
REMARK  9 active torsions:
REMARK  status: ('A' for Active; 'I' for Inactive)
REMARK    1  A    between atoms: C2_2  and  C4_4 
REMARK    2  A    between atoms: C4_4  and  O1_5 
REMARK    3  A    between atoms: C4_4  and  C5_7 
REMARK    4  A    between atoms: O1_5  and  O2_6 
REMARK    5  A    between atoms: C5_7  and  O3_8 
REMARK    6  A    between atoms: C5_7  and  C6_9 
REMARK    7  A    between atoms: C6_9  and  C7_10 
REMARK    8  A    between atoms: C7_10  and  C9_12 
REMARK    9  A    between atoms: C20_23  and  O4_24 
ROOT
HETATM    1  C9  UNL     1       5.845  66.114 -36.402  1.00  0.00    -0.002 C 
HETATM    2  C10 UNL     1       5.024  66.430 -35.115  1.00  0.00     0.006 C 
HETATM    3  C11 UNL     1       4.007  67.533 -35.461  1.00  0.00     0.011 C 
HETATM    4  C12 UNL     1       4.005  67.596 -36.994  1.00  0.00    -0.032 C 
HETATM    5  C13 UNL     1       3.070  66.440 -37.500  1.00  0.00     0.016 C 
HETATM    6  C14 UNL     1       3.524  68.948 -37.623  1.00  0.00     0.004 C 
HETATM    7  C15 UNL     1       2.107  69.339 -37.132  1.00  0.00     0.006 C 
HETATM    8  C16 UNL     1       1.100  69.824 -38.169  1.00  0.00     0.006 C 
HETATM    9  C17 UNL     1       1.107  68.943 -39.423  1.00  0.00     0.001 C 
HETATM   10  C18 UNL     1       0.120  69.422 -40.518  1.00  0.00     0.015 C 
HETATM   11  C19 UNL     1      -1.283  69.751 -39.998  1.00  0.00     0.013 C 
HETATM   12  C20 UNL     1       0.017  68.366 -41.644  1.00  0.00     0.122 C 
HETATM   13  C21 UNL     1       1.207  67.406 -41.701  1.00  0.00     0.033 C 
HETATM   14  C22 UNL     1       2.534  68.089 -41.376  1.00  0.00     0.013 C 
HETATM   15  C23 UNL     1       2.500  68.860 -40.060  1.00  0.00    -0.027 A 
HETATM   16  C24 UNL     1       3.364  70.103 -39.988  1.00  0.00     0.021 A 
HETATM   17  C25 UNL     1       3.747  68.897 -39.155  1.00  0.00    -0.027 A 
HETATM   18  C26 UNL     1       5.122  68.366 -39.596  1.00  0.00     0.011 C 
HETATM   19  C27 UNL     1       5.649  67.148 -38.827  1.00  0.00     0.011 C 
HETATM   20  C28 UNL     1       5.533  67.350 -37.308  1.00  0.00    -0.032 C 
HETATM   21  C29 UNL     1       6.466  68.526 -36.881  1.00  0.00     0.016 C 
ENDROOT
BRANCH   1  22
HETATM   22  C7  UNL     1       7.324  65.733 -36.071  1.00  0.00    -0.011 C 
HETATM   23  C8  UNL     1       8.298  66.193 -37.159  1.00  0.00     0.010 C 
BRANCH  22  24
HETATM   24  C6  UNL     1       7.444  64.198 -35.857  1.00  0.00     0.039 C 
BRANCH  24  25
HETATM   25  C5  UNL     1       7.823  63.708 -34.442  1.00  0.00     0.154 C 
BRANCH  25  26
HETATM   26  C4  UNL     1       9.354  63.480 -34.251  1.00  0.00     0.216 C 
BRANCH  26  27
HETATM   27  C2  UNL     1      10.163  63.015 -35.464  1.00  0.00    -0.059 C 
HETATM   28  C1  UNL     1       9.973  61.861 -36.128  1.00  0.00     0.016 C 
HETATM   29  C3  UNL     1      11.220  63.980 -35.935  1.00  0.00     0.045 C 
ENDBRANCH  26  27
BRANCH  26  30
HETATM   30  O1  UNL     1       9.541  62.528 -33.187  1.00  0.00    -0.231 OA
BRANCH  30  31
HETATM   31  O2  UNL     1       8.242  61.912 -32.930  1.00  0.00    -0.250 OA
HETATM   32  H7  UNL     1       8.227  62.106 -31.975  1.00  0.00     0.253 HD
ENDBRANCH  30  31
ENDBRANCH  26  30
ENDBRANCH  25  26
BRANCH  25  33
HETATM   33  O3  UNL     1       7.325  64.691 -33.512  1.00  0.00    -0.393 OA
HETATM   34  H9  UNL     1       6.393  64.856 -33.726  1.00  0.00     0.210 HD
ENDBRANCH  25  33
ENDBRANCH  24  25
ENDBRANCH  22  24
ENDBRANCH   1  22
BRANCH  12  35
HETATM   35  O4  UNL     1      -0.109  69.053 -42.890  1.00  0.00    -0.395 OA
HETATM   36  H35 UNL     1      -0.236  68.384 -43.584  1.00  0.00     0.210 HD
ENDBRANCH  12  35
TORSDOF 9
ENDMDL
MODEL 7
REMARK minimizedAffinity -7.88502741
REMARK CNNscore 0.252628773
REMARK CNNaffinity 6.17283392
REMARK  9 active torsions:
REMARK  status: ('A' for Active; 'I' for Inactive)
REMARK    1  A    between atoms: C2_2  and  C4_4 
REMARK    2  A    between atoms: C4_4  and  O1_5 
REMARK    3  A    between atoms: C4_4  and  C5_7 
REMARK    4  A    between atoms: O1_5  and  O2_6 
REMARK    5  A    between atoms: C5_7  and  O3_8 
REMARK    6  A    between atoms: C5_7  and  C6_9 
REMARK    7  A    between atoms: C6_9  and  C7_10 
REMARK    8  A    between atoms: C7_10  and  C9_12 
REMARK    9  A    between atoms: C20_23  and  O4_24 
ROOT
HETATM    1  C9  UNL     1      -2.377  51.080 -22.497  1.00  0.00    -0.002 C 
HETATM    2  C10 UNL     1      -3.756  51.800 -22.610  1.00  0.00     0.006 C 
HETATM    3  C11 UNL     1      -4.848  50.802 -22.180  1.00  0.00     0.011 C 
HETATM    4  C12 UNL     1      -4.085  49.658 -21.499  1.00  0.00    -0.032 C 
HETATM    5  C13 UNL     1      -3.786  50.116 -20.027  1.00  0.00     0.016 C 
HETATM    6  C14 UNL     1      -4.819  48.274 -21.461  1.00  0.00     0.004 C 
HETATM    7  C15 UNL     1      -6.211  48.381 -20.787  1.00  0.00     0.006 C 
HETATM    8  C16 UNL     1      -6.592  47.317 -19.763  1.00  0.00     0.006 C 
HETATM    9  C17 UNL     1      -5.446  47.030 -18.788  1.00  0.00     0.001 C 
HETATM   10  C18 UNL     1      -5.780  45.928 -17.751  1.00  0.00     0.015 C 
HETATM   11  C19 UNL     1      -7.144  46.098 -17.072  1.00  0.00     0.013 C 
HETATM   12  C20 UNL     1      -4.674  45.857 -16.671  1.00  0.00     0.122 C 
HETATM   13  C21 UNL     1      -3.340  46.462 -17.112  1.00  0.00     0.033 C 
HETATM   14  C22 UNL     1      -3.028  46.196 -18.583  1.00  0.00     0.013 C 
HETATM   15  C23 UNL     1      -4.164  46.605 -19.517  1.00  0.00    -0.027 A 
HETATM   16  C24 UNL     1      -4.330  45.776 -20.774  1.00  0.00     0.021 A 
HETATM   17  C25 UNL     1      -3.847  47.206 -20.900  1.00  0.00    -0.027 A 
HETATM   18  C26 UNL     1      -2.431  47.234 -21.500  1.00  0.00     0.011 C 
HETATM   19  C27 UNL     1      -1.814  48.624 -21.700  1.00  0.00     0.011 C 
HETATM   20  C28 UNL     1      -2.793  49.575 -22.406  1.00  0.00    -0.032 C 
HETATM   21  C29 UNL     1      -3.063  49.047 -23.849  1.00  0.00     0.016 C 
ENDROOT
BRANCH   1  22
HETATM   22  C7  UNL     1      -1.379  51.557 -23.601  1.00  0.00    -0.011 C 
HETATM   23  C8  UNL     1      -0.087  52.124 -23.007  1.00  0.00     0.010 C 
BRANCH  22  24
HETATM   24  C6  UNL     1      -2.059  52.614 -24.515  1.00  0.00     0.039 C 
BRANCH  24  25
HETATM   25  C5  UNL     1      -2.451  52.169 -25.942  1.00  0.00     0.154 C 
BRANCH  25  26
HETATM   26  C4  UNL     1      -1.522  51.061 -26.526  1.00  0.00     0.216 C 
BRANCH  26  27
HETATM   27  C2  UNL     1      -0.160  51.488 -27.079  1.00  0.00    -0.059 C 
HETATM   28  C1  UNL     1       0.032  52.384 -28.062  1.00  0.00     0.016 C 
HETATM   29  C3  UNL     1       1.029  50.854 -26.405  1.00  0.00     0.045 C 
ENDBRANCH  26  27
BRANCH  26  30
HETATM   30  O1  UNL     1      -2.240  50.372 -27.568  1.00  0.00    -0.231 OA
BRANCH  30  31
HETATM   31  O2  UNL     1      -2.889  51.391 -28.387  1.00  0.00    -0.250 OA
HETATM   32  H7  UNL     1      -3.787  51.018 -28.317  1.00  0.00     0.253 HD
ENDBRANCH  30  31
ENDBRANCH  26  30
ENDBRANCH  25  26
BRANCH  25  33
HETATM   33  O3  UNL     1      -3.818  51.719 -25.878  1.00  0.00    -0.393 OA
HETATM   34  H9  UNL     1      -4.338  52.408 -25.434  1.00  0.00     0.210 HD
ENDBRANCH  25  33
ENDBRANCH  24  25
ENDBRANCH  22  24
ENDBRANCH   1  22
BRANCH  12  35
HETATM   35  O4  UNL     1      -4.488  44.486 -16.313  1.00  0.00    -0.395 OA
HETATM   36  H35 UNL     1      -3.837  44.456 -15.591  1.00  0.00     0.210 HD
ENDBRANCH  12  35
TORSDOF 9
ENDMDL
MODEL 8
REMARK minimizedAffinity -8.08859444
REMARK CNNscore 0.234989062
REMARK CNNaffinity 6.09978867
REMARK  9 active torsions:
REMARK  status: ('A' for Active; 'I' for Inactive)
REMARK    1  A    between atoms: C2_2  and  C4_4 
REMARK    2  A    between atoms: C4_4  and  O1_5 
REMARK    3  A    between atoms: C4_4  and  C5_7 
REMARK    4  A    between atoms: O1_5  and  O2_6 
REMARK    5  A    between atoms: C5_7  and  O3_8 
REMARK    6  A    between atoms: C5_7  and  C6_9 
REMARK    7  A    between atoms: C6_9  and  C7_10 
REMARK    8  A    between atoms: C7_10  and  C9_12 
REMARK    9  A    between atoms: C20_23  and  O4_24 
ROOT
HETATM    1  C9  UNL     1      -3.577  50.272 -23.762  1.00  0.00    -0.002 C 
HETATM    2  C10 UNL     1      -4.201  49.574 -25.009  1.00  0.00     0.006 C 
HETATM    3  C11 UNL     1      -5.057  48.393 -24.512  1.00  0.00     0.011 C 
HETATM    4  C12 UNL     1      -5.205  48.627 -23.002  1.00  0.00    -0.032 C 
HETATM    5  C13 UNL     1      -6.360  49.672 -22.810  1.00  0.00     0.016 C 
HETATM    6  C14 UNL     1      -5.522  47.357 -22.142  1.00  0.00     0.004 C 
HETATM    7  C15 UNL     1      -6.800  46.632 -22.635  1.00  0.00     0.006 C 
HETATM    8  C16 UNL     1      -7.815  46.184 -21.590  1.00  0.00     0.006 C 
HETATM    9  C17 UNL     1      -8.079  47.276 -20.548  1.00  0.00     0.001 C 
HETATM   10  C18 UNL     1      -9.081  46.847 -19.446  1.00  0.00     0.015 C 
HETATM   11  C19 UNL     1     -10.353  46.179 -19.980  1.00  0.00     0.013 C 
HETATM   12  C20 UNL     1      -9.467  48.064 -18.572  1.00  0.00     0.122 C 
HETATM   13  C21 UNL     1      -8.461  49.214 -18.635  1.00  0.00     0.033 C 
HETATM   14  C22 UNL     1      -7.015  48.730 -18.722  1.00  0.00     0.013 C 
HETATM   15  C23 UNL     1      -6.789  47.727 -19.850  1.00  0.00    -0.027 A 
HETATM   16  C24 UNL     1      -5.733  46.668 -19.605  1.00  0.00     0.021 A 
HETATM   17  C25 UNL     1      -5.467  47.740 -20.641  1.00  0.00    -0.027 A 
HETATM   18  C26 UNL     1      -4.248  48.583 -20.229  1.00  0.00     0.011 C 
HETATM   19  C27 UNL     1      -3.849  49.705 -21.195  1.00  0.00     0.011 C 
HETATM   20  C28 UNL     1      -3.776  49.197 -22.644  1.00  0.00    -0.032 C 
HETATM   21  C29 UNL     1      -2.626  48.147 -22.755  1.00  0.00     0.016 C 
ENDROOT
BRANCH   1  22
HETATM   22  C7  UNL     1      -2.153  50.841 -24.065  1.00  0.00    -0.011 C 
HETATM   23  C8  UNL     1      -1.925  52.207 -23.412  1.00  0.00     0.010 C 
BRANCH  22  24
HETATM   24  C6  UNL     1      -1.932  50.936 -25.600  1.00  0.00     0.039 C 
BRANCH  24  25
HETATM   25  C5  UNL     1      -1.476  52.299 -26.167  1.00  0.00     0.154 C 
BRANCH  25  26
HETATM   26  C4  UNL     1      -0.380  52.179 -27.271  1.00  0.00     0.216 C 
BRANCH  26  27
HETATM   27  C2  UNL     1       1.070  51.993 -26.819  1.00  0.00    -0.059 C 
HETATM   28  C1  UNL     1       2.114  51.764 -27.635  1.00  0.00     0.016 C 
HETATM   29  C3  UNL     1       1.298  52.125 -25.336  1.00  0.00     0.045 C 
ENDBRANCH  26  27
BRANCH  26  30
HETATM   30  O1  UNL     1      -0.450  53.351 -28.106  1.00  0.00    -0.231 OA
BRANCH  30  31
HETATM   31  O2  UNL     1      -0.298  54.510 -27.231  1.00  0.00    -0.250 OA
HETATM   32  H7  UNL     1      -1.112  54.962 -27.523  1.00  0.00     0.253 HD
ENDBRANCH  30  31
ENDBRANCH  26  30
ENDBRANCH  25  26
BRANCH  25  33
HETATM   33  O3  UNL     1      -2.655  52.954 -26.676  1.00  0.00    -0.393 OA
HETATM   34  H9  UNL     1      -3.333  52.929 -25.981  1.00  0.00     0.210 HD
ENDBRANCH  25  33
ENDBRANCH  24  25
ENDBRANCH  22  24
ENDBRANCH   1  22
BRANCH  12  35
HETATM   35  O4  UNL     1      -9.607  47.618 -17.223  1.00  0.00    -0.395 OA
HETATM   36  H35 UNL     1      -9.910  48.374 -16.692  1.00  0.00     0.210 HD
ENDBRANCH  12  35
TORSDOF 9
ENDMDL
MODEL 9
REMARK minimizedAffinity -8.1571312
REMARK CNNscore 0.229192346
REMARK CNNaffinity 6.25944901
REMARK  9 active torsions:
REMARK  status: ('A' for Active; 'I' for Inactive)
REMARK    1  A    between atoms: C2_2  and  C4_4 
REMARK    2  A    between atoms: C4_4  and  O1_5 
REMARK    3  A    between atoms: C4_4  and  C5_7 
REMARK    4  A    between atoms: O1_5  and  O2_6 
REMARK    5  A    between atoms: C5_7  and  O3_8 
REMARK    6  A    between atoms: C5_7  and  C6_9 
REMARK    7  A    between atoms: C6_9  and  C7_10 
REMARK    8  A    between atoms: C7_10  and  C9_12 
REMARK    9  A    between atoms: C20_23  and  O4_24 
ROOT
HETATM    1  C9  UNL     1      -1.527  49.972 -22.783  1.00  0.00    -0.002 C 
HETATM    2  C10 UNL     1      -0.467  50.572 -21.810  1.00  0.00     0.006 C 
HETATM    3  C11 UNL     1      -0.905  50.243 -20.371  1.00  0.00     0.011 C 
HETATM    4  C12 UNL     1      -1.998  49.176 -20.530  1.00  0.00    -0.032 C 
HETATM    5  C13 UNL     1      -1.270  47.799 -20.728  1.00  0.00     0.016 C 
HETATM    6  C14 UNL     1      -3.008  49.049 -19.339  1.00  0.00     0.004 C 
HETATM    7  C15 UNL     1      -2.282  48.785 -17.995  1.00  0.00     0.006 C 
HETATM    8  C16 UNL     1      -2.842  47.701 -17.082  1.00  0.00     0.006 C 
HETATM    9  C17 UNL     1      -3.197  46.430 -17.860  1.00  0.00     0.001 C 
HETATM   10  C18 UNL     1      -3.803  45.313 -16.972  1.00  0.00     0.015 C 
HETATM   11  C19 UNL     1      -3.027  45.050 -15.677  1.00  0.00     0.013 C 
HETATM   12  C20 UNL     1      -3.921  43.996 -17.777  1.00  0.00     0.122 C 
HETATM   13  C21 UNL     1      -3.918  44.196 -19.293  1.00  0.00     0.033 C 
HETATM   14  C22 UNL     1      -4.666  45.456 -19.725  1.00  0.00     0.013 C 
HETATM   15  C23 UNL     1      -4.193  46.710 -18.994  1.00  0.00    -0.027 A 
HETATM   16  C24 UNL     1      -5.239  47.776 -18.743  1.00  0.00     0.021 A 
HETATM   17  C25 UNL     1      -4.131  48.059 -19.736  1.00  0.00    -0.027 A 
HETATM   18  C26 UNL     1      -4.722  48.273 -21.141  1.00  0.00     0.011 C 
HETATM   19  C27 UNL     1      -3.713  48.584 -22.253  1.00  0.00     0.011 C 
HETATM   20  C28 UNL     1      -2.734  49.690 -21.829  1.00  0.00    -0.032 C 
HETATM   21  C29 UNL     1      -3.527  51.019 -21.627  1.00  0.00     0.016 C 
ENDROOT
BRANCH   1  22
HETATM   22  C7  UNL     1      -1.718  50.859 -24.055  1.00  0.00    -0.011 C 
HETATM   23  C8  UNL     1      -2.135  50.037 -25.278  1.00  0.00     0.010 C 
BRANCH  22  24
HETATM   24  C6  UNL     1      -0.413  51.647 -24.358  1.00  0.00     0.039 C 
BRANCH  24  25
HETATM   25  C5  UNL     1      -0.563  53.082 -24.910  1.00  0.00     0.154 C 
BRANCH  25  26
HETATM   26  C4  UNL     1      -0.198  53.209 -26.421  1.00  0.00     0.216 C 
BRANCH  26  27
HETATM   27  C2  UNL     1       0.852  52.249 -26.985  1.00  0.00    -0.059 C 
HETATM   28  C1  UNL     1       2.030  51.958 -26.406  1.00  0.00     0.016 C 
HETATM   29  C3  UNL     1       0.468  51.572 -28.275  1.00  0.00     0.045 C 
ENDBRANCH  26  27
BRANCH  26  30
HETATM   30  O1  UNL     1       0.242  54.559 -26.667  1.00  0.00    -0.231 OA
BRANCH  30  31
HETATM   31  O2  UNL     1       0.235  55.253 -25.383  1.00  0.00    -0.250 OA
HETATM   32  H7  UNL     1      -0.325  55.997 -25.674  1.00  0.00     0.253 HD
ENDBRANCH  30  31
ENDBRANCH  26  30
ENDBRANCH  25  26
BRANCH  25  33
HETATM   33  O3  UNL     1      -1.928  53.480 -24.671  1.00  0.00    -0.393 OA
HETATM   34  H9  UNL     1      -2.130  53.304 -23.738  1.00  0.00     0.210 HD
ENDBRANCH  25  33
ENDBRANCH  24  25
ENDBRANCH  22  24
ENDBRANCH   1  22
BRANCH  12  35
HETATM   35  O4  UNL     1      -5.124  43.336 -17.379  1.00  0.00    -0.395 OA
HETATM   36  H35 UNL     1      -5.159  42.482 -17.842  1.00  0.00     0.210 HD
ENDBRANCH  12  35
TORSDOF 9
ENDMDL
