MODEL 1
REMARK minimizedAffinity -7.76220369
REMARK CNNscore 0.491954416
REMARK CNNaffinity 6.93476057
REMARK  14 active torsions:
REMARK  status: ('A' for Active; 'I' for Inactive)
REMARK    1  A    between atoms: O1_2  and  C2_3 
REMARK    2  A    between atoms: C8_9  and  O2_10 
REMARK    3  A    between atoms: O2_10  and  C9_11 
REMARK    4  A    between atoms: C10_13  and  C11_14 
REMARK    5  A    between atoms: C11_14  and  O4_15 
REMARK    6  A    between atoms: C12_16  and  O5_17 
REMARK    7  A    between atoms: C13_18  and  O6_19 
REMARK    8  A    between atoms: C14_20  and  O7_21 
REMARK    9  A    between atoms: C18_25  and  C19_26 
REMARK   10  A    between atoms: C24_32  and  C25_33 
REMARK   11  A    between atoms: C25_33  and  C27_35 
REMARK   12  A    between atoms: C27_35  and  C28_36 
REMARK   13  A    between atoms: C29_37  and  C30_38 
REMARK   14  A    between atoms: C30_38  and  O9_41 
ROOT
HETATM    1  C2  UNL     1       3.383   5.491   9.664  1.00  0.00     0.149 C 
HETATM    2  C3  UNL     1       4.673   5.824  10.344  1.00  0.00     0.009 C 
HETATM    3  C4  UNL     1       4.984   7.000  10.922  1.00  0.00    -0.066 C 
HETATM    4  C5  UNL     1       4.004   8.164  10.912  1.00  0.00     0.031 C 
HETATM    5  C6  UNL     1       4.711   9.510  10.584  1.00  0.00     0.013 C 
HETATM    6  C7  UNL     1       6.128   9.664  11.134  1.00  0.00     0.034 C 
HETATM    7  C8  UNL     1       6.455   8.654  12.230  1.00  0.00     0.136 C 
HETATM    8  C15 UNL     1       6.310   7.187  11.699  1.00  0.00     0.002 C 
HETATM    9  C16 UNL     1       6.326   6.249  12.928  1.00  0.00     0.022 C 
HETATM   10  C17 UNL     1       7.514   6.804  10.800  1.00  0.00     0.022 C 
HETATM   11  C18 UNL     1       2.686   7.931  10.062  1.00  0.00     0.027 C 
HETATM   12  C20 UNL     1       1.579   8.925  10.543  1.00  0.00     0.018 C 
HETATM   13  C21 UNL     1       0.687   8.439  11.700  1.00  0.00     0.011 C 
HETATM   14  C22 UNL     1       0.100   7.051  11.410  1.00  0.00    -0.032 C 
HETATM   15  C23 UNL     1      -0.787   7.154  10.125  1.00  0.00     0.016 C 
HETATM   16  C24 UNL     1      -0.758   6.375  12.528  1.00  0.00    -0.002 C 
HETATM   17  C34 UNL     1      -0.658   4.867  12.143  1.00  0.00     0.006 C 
HETATM   18  C35 UNL     1       0.534   4.709  11.180  1.00  0.00     0.011 C 
HETATM   19  C36 UNL     1       1.313   6.035  11.282  1.00  0.00    -0.029 C 
HETATM   20  C37 UNL     1       2.179   5.899  12.573  1.00  0.00     0.016 C 
HETATM   21  C38 UNL     1       2.200   6.424  10.045  1.00  0.00     0.043 C 
ENDROOT
BRANCH   7  22
HETATM   22  O2  UNL     1       7.796   8.886  12.698  1.00  0.00    -0.352 OA
BRANCH  22  23
HETATM   23  C9  UNL     1       7.901   9.941  13.657  1.00  0.00     0.292 C 
HETATM   24  O3  UNL     1       9.246  10.060  14.119  1.00  0.00    -0.348 OA
HETATM   25  C10 UNL     1       9.767   8.934  14.854  1.00  0.00     0.179 C 
HETATM   26  C12 UNL     1       8.691   8.047  15.501  1.00  0.00     0.180 C 
HETATM   27  C13 UNL     1       7.557   8.942  15.988  1.00  0.00     0.183 C 
HETATM   28  C14 UNL     1       6.911   9.702  14.823  1.00  0.00     0.204 C 
BRANCH  25  29
HETATM   29  C11 UNL     1      10.752   8.138  13.980  1.00  0.00     0.198 C 
BRANCH  29  30
HETATM   30  O4  UNL     1      11.880   8.911  13.578  1.00  0.00    -0.398 OA
HETATM   31  H16 UNL     1      12.081   9.511  14.321  1.00  0.00     0.209 HD
ENDBRANCH  29  30
ENDBRANCH  25  29
BRANCH  26  32
HETATM   32  O5  UNL     1       9.245   7.337  16.615  1.00  0.00    -0.390 OA
HETATM   33  H18 UNL     1       8.472   6.956  17.081  1.00  0.00     0.210 HD
ENDBRANCH  26  32
BRANCH  27  34
HETATM   34  O6  UNL     1       6.579   8.142  16.674  1.00  0.00    -0.390 OA
HETATM   35  H20 UNL     1       5.878   8.757  16.956  1.00  0.00     0.210 HD
ENDBRANCH  27  34
BRANCH  28  36
HETATM   36  O7  UNL     1       6.406  10.951  15.342  1.00  0.00    -0.388 OA
HETATM   37  H22 UNL     1       7.175  11.499  15.587  1.00  0.00     0.210 HD
ENDBRANCH  28  36
ENDBRANCH  22  23
ENDBRANCH   7  22
BRANCH  11  38
HETATM   38  C19 UNL     1       2.994   8.245   8.583  1.00  0.00     0.241 C 
HETATM   39  O8  UNL     1       2.231   8.026   7.647  1.00  0.00    -0.306 OA
ENDBRANCH  11  38
BRANCH   1  40
HETATM   40  O1  UNL     1       3.103   4.122   9.941  1.00  0.00    -0.386 OA
HETATM   41  C1  UNL     1       4.110   3.243   9.453  1.00  0.00     0.202 C 
ENDBRANCH   1  40
BRANCH  16  42
HETATM   42  C25 UNL     1      -2.240   6.813  12.760  1.00  0.00    -0.010 C 
HETATM   43  C26 UNL     1      -2.340   8.261  13.255  1.00  0.00     0.010 C 
BRANCH  42  44
HETATM   44  C27 UNL     1      -2.941   5.858  13.767  1.00  0.00     0.031 C 
BRANCH  44  45
HETATM   45  C28 UNL     1      -4.042   5.021  13.170  1.00  0.00    -0.027 C 
HETATM   46  C29 UNL     1      -5.345   5.223  13.433  1.00  0.00     0.006 C 
BRANCH  46  47
HETATM   47  C30 UNL     1      -6.533   4.458  12.879  1.00  0.00     0.070 C 
HETATM   48  C31 UNL     1      -6.208   3.458  11.758  1.00  0.00     0.050 C 
HETATM   49  C32 UNL     1      -7.173   3.683  14.042  1.00  0.00     0.050 C 
BRANCH  47  50
HETATM   50  O9  UNL     1      -7.534   5.406  12.461  1.00  0.00    -0.382 OA
HETATM   51  C33 UNL     1      -8.190   6.122  13.500  1.00  0.00     0.202 C 
ENDBRANCH  47  50
ENDBRANCH  46  47
ENDBRANCH  44  45
ENDBRANCH  42  44
ENDBRANCH  16  42
TORSDOF 14
ENDMDL
MODEL 2
REMARK minimizedAffinity -7.84990501
REMARK CNNscore 0.468131006
REMARK CNNaffinity 7.39784193
REMARK  14 active torsions:
REMARK  status: ('A' for Active; 'I' for Inactive)
REMARK    1  A    between atoms: O1_2  and  C2_3 
REMARK    2  A    between atoms: C8_9  and  O2_10 
REMARK    3  A    between atoms: O2_10  and  C9_11 
REMARK    4  A    between atoms: C10_13  and  C11_14 
REMARK    5  A    between atoms: C11_14  and  O4_15 
REMARK    6  A    between atoms: C12_16  and  O5_17 
REMARK    7  A    between atoms: C13_18  and  O6_19 
REMARK    8  A    between atoms: C14_20  and  O7_21 
REMARK    9  A    between atoms: C18_25  and  C19_26 
REMARK   10  A    between atoms: C24_32  and  C25_33 
REMARK   11  A    between atoms: C25_33  and  C27_35 
REMARK   12  A    between atoms: C27_35  and  C28_36 
REMARK   13  A    between atoms: C29_37  and  C30_38 
REMARK   14  A    between atoms: C30_38  and  O9_41 
ROOT
HETATM    1  C2  UNL     1      -7.099   6.058  16.336  1.00  0.00     0.149 C 
HETATM    2  C3  UNL     1      -5.695   6.304  15.881  1.00  0.00     0.009 C 
HETATM    3  C4  UNL     1      -5.222   6.118  14.634  1.00  0.00    -0.066 C 
HETATM    4  C5  UNL     1      -6.118   5.591  13.523  1.00  0.00     0.031 C 
HETATM    5  C6  UNL     1      -5.398   4.513  12.663  1.00  0.00     0.013 C 
HETATM    6  C7  UNL     1      -3.902   4.733  12.445  1.00  0.00     0.034 C 
HETATM    7  C8  UNL     1      -3.456   6.156  12.766  1.00  0.00     0.136 C 
HETATM    8  C15 UNL     1      -3.775   6.519  14.257  1.00  0.00     0.002 C 
HETATM    9  C16 UNL     1      -3.606   8.049  14.403  1.00  0.00     0.022 C 
HETATM   10  C17 UNL     1      -2.765   5.841  15.218  1.00  0.00     0.022 C 
HETATM   11  C18 UNL     1      -7.572   5.154  13.978  1.00  0.00     0.027 C 
HETATM   12  C20 UNL     1      -8.521   5.143  12.736  1.00  0.00     0.018 C 
HETATM   13  C21 UNL     1      -9.232   6.470  12.413  1.00  0.00     0.011 C 
HETATM   14  C22 UNL     1      -9.941   7.040  13.650  1.00  0.00    -0.032 C 
HETATM   15  C23 UNL     1     -11.025   6.010  14.111  1.00  0.00     0.016 C 
HETATM   16  C24 UNL     1     -10.637   8.434  13.512  1.00  0.00    -0.002 C 
HETATM   17  C34 UNL     1     -10.692   8.913  14.994  1.00  0.00     0.006 C 
HETATM   18  C35 UNL     1      -9.691   8.062  15.799  1.00  0.00     0.011 C 
HETATM   19  C36 UNL     1      -8.830   7.346  14.741  1.00  0.00    -0.029 C 
HETATM   20  C37 UNL     1      -7.767   8.402  14.300  1.00  0.00     0.016 C 
HETATM   21  C38 UNL     1      -8.143   6.005  15.186  1.00  0.00     0.043 C 
ENDROOT
BRANCH   7  22
HETATM   22  O2  UNL     1      -2.044   6.273  12.514  1.00  0.00    -0.352 OA
BRANCH  22  23
HETATM   23  C9  UNL     1      -1.341   5.030  12.564  1.00  0.00     0.292 C 
HETATM   24  O3  UNL     1      -0.421   5.023  13.655  1.00  0.00    -0.348 OA
HETATM   25  C10 UNL     1       0.659   5.975  13.581  1.00  0.00     0.179 C 
HETATM   26  C12 UNL     1       0.990   6.450  12.157  1.00  0.00     0.180 C 
HETATM   27  C13 UNL     1       0.814   5.273  11.204  1.00  0.00     0.183 C 
HETATM   28  C14 UNL     1      -0.633   4.764  11.213  1.00  0.00     0.204 C 
BRANCH  25  29
HETATM   29  C11 UNL     1       0.409   7.140  14.556  1.00  0.00     0.198 C 
BRANCH  29  30
HETATM   30  O4  UNL     1       0.306   6.710  15.912  1.00  0.00    -0.398 OA
HETATM   31  H16 UNL     1       0.924   5.961  16.011  1.00  0.00     0.209 HD
ENDBRANCH  29  30
ENDBRANCH  25  29
BRANCH  26  32
HETATM   32  O5  UNL     1       2.345   6.910  12.096  1.00  0.00    -0.390 OA
HETATM   33  H18 UNL     1       2.535   7.008  11.139  1.00  0.00     0.210 HD
ENDBRANCH  26  32
BRANCH  27  34
HETATM   34  O6  UNL     1       1.202   5.672   9.878  1.00  0.00    -0.390 OA
HETATM   35  H20 UNL     1       1.064   4.891   9.311  1.00  0.00     0.210 HD
ENDBRANCH  27  34
BRANCH  28  36
HETATM   36  O7  UNL     1      -0.601   3.352  10.911  1.00  0.00    -0.388 OA
HETATM   37  H22 UNL     1      -0.184   2.899  11.668  1.00  0.00     0.210 HD
ENDBRANCH  28  36
ENDBRANCH  22  23
ENDBRANCH   7  22
BRANCH  11  38
HETATM   38  C19 UNL     1      -7.501   3.715  14.533  1.00  0.00     0.241 C 
HETATM   39  O8  UNL     1      -7.860   2.712  13.925  1.00  0.00    -0.306 OA
ENDBRANCH  11  38
BRANCH   1  40
HETATM   40  O1  UNL     1      -7.408   7.058  17.302  1.00  0.00    -0.386 OA
HETATM   41  C1  UNL     1      -8.799   7.133  17.592  1.00  0.00     0.202 C 
ENDBRANCH   1  40
BRANCH  16  42
HETATM   42  C25 UNL     1     -12.029   8.556  12.814  1.00  0.00    -0.010 C 
HETATM   43  C26 UNL     1     -12.067   9.711  11.806  1.00  0.00     0.010 C 
BRANCH  42  44
HETATM   44  C27 UNL     1     -13.155   8.737  13.870  1.00  0.00     0.031 C 
BRANCH  44  45
HETATM   45  C28 UNL     1     -14.438   8.017  13.544  1.00  0.00    -0.027 C 
HETATM   46  C29 UNL     1     -15.386   8.528  12.740  1.00  0.00     0.006 C 
BRANCH  46  47
HETATM   47  C30 UNL     1     -16.700   7.889  12.331  1.00  0.00     0.070 C 
HETATM   48  C31 UNL     1     -16.782   6.367  12.526  1.00  0.00     0.050 C 
HETATM   49  C32 UNL     1     -17.816   8.540  13.165  1.00  0.00     0.050 C 
BRANCH  47  50
HETATM   50  O9  UNL     1     -16.985   8.258  10.968  1.00  0.00    -0.382 OA
HETATM   51  C33 UNL     1     -17.648   9.502  10.782  1.00  0.00     0.202 C 
ENDBRANCH  47  50
ENDBRANCH  46  47
ENDBRANCH  44  45
ENDBRANCH  42  44
ENDBRANCH  16  42
TORSDOF 14
ENDMDL
MODEL 3
REMARK minimizedAffinity -8.79113007
REMARK CNNscore 0.358532548
REMARK CNNaffinity 7.84411573
REMARK  14 active torsions:
REMARK  status: ('A' for Active; 'I' for Inactive)
REMARK    1  A    between atoms: O1_2  and  C2_3 
REMARK    2  A    between atoms: C8_9  and  O2_10 
REMARK    3  A    between atoms: O2_10  and  C9_11 
REMARK    4  A    between atoms: C10_13  and  C11_14 
REMARK    5  A    between atoms: C11_14  and  O4_15 
REMARK    6  A    between atoms: C12_16  and  O5_17 
REMARK    7  A    between atoms: C13_18  and  O6_19 
REMARK    8  A    between atoms: C14_20  and  O7_21 
REMARK    9  A    between atoms: C18_25  and  C19_26 
REMARK   10  A    between atoms: C24_32  and  C25_33 
REMARK   11  A    between atoms: C25_33  and  C27_35 
REMARK   12  A    between atoms: C27_35  and  C28_36 
REMARK   13  A    between atoms: C29_37  and  C30_38 
REMARK   14  A    between atoms: C30_38  and  O9_41 
ROOT
HETATM    1  C2  UNL     1      -7.695   4.933  14.836  1.00  0.00     0.149 C 
HETATM    2  C3  UNL     1      -8.965   5.468  14.255  1.00  0.00     0.009 C 
HETATM    3  C4  UNL     1      -9.317   6.765  14.175  1.00  0.00    -0.066 C 
HETATM    4  C5  UNL     1      -8.412   7.860  14.723  1.00  0.00     0.031 C 
HETATM    5  C6  UNL     1      -9.217   8.933  15.511  1.00  0.00     0.013 C 
HETATM    6  C7  UNL     1     -10.609   9.247  14.966  1.00  0.00     0.034 C 
HETATM    7  C8  UNL     1     -10.815   8.755  13.537  1.00  0.00     0.136 C 
HETATM    8  C15 UNL     1     -10.609   7.204  13.445  1.00  0.00     0.002 C 
HETATM    9  C16 UNL     1     -10.503   6.843  11.945  1.00  0.00     0.022 C 
HETATM   10  C17 UNL     1     -11.833   6.449  14.023  1.00  0.00     0.022 C 
HETATM   11  C18 UNL     1      -7.129   7.350  15.502  1.00  0.00     0.027 C 
HETATM   12  C20 UNL     1      -6.062   8.491  15.542  1.00  0.00     0.018 C 
HETATM   13  C21 UNL     1      -5.082   8.545  14.355  1.00  0.00     0.011 C 
HETATM   14  C22 UNL     1      -4.427   7.179  14.107  1.00  0.00    -0.032 C 
HETATM   15  C23 UNL     1      -3.617   6.785  15.387  1.00  0.00     0.016 C 
HETATM   16  C24 UNL     1      -3.471   7.043  12.877  1.00  0.00    -0.002 C 
HETATM   17  C34 UNL     1      -3.499   5.506  12.618  1.00  0.00     0.006 C 
HETATM   18  C35 UNL     1      -4.728   4.930  13.347  1.00  0.00     0.011 C 
HETATM   19  C36 UNL     1      -5.580   6.156  13.728  1.00  0.00    -0.029 C 
HETATM   20  C37 UNL     1      -6.367   6.524  12.431  1.00  0.00     0.016 C 
HETATM   21  C38 UNL     1      -6.553   5.981  14.949  1.00  0.00     0.043 C 
ENDROOT
BRANCH   7  22
HETATM   22  O2  UNL     1     -12.141   9.110  13.104  1.00  0.00    -0.352 OA
BRANCH  22  23
HETATM   23  C9  UNL     1     -12.952   9.684  14.131  1.00  0.00     0.292 C 
HETATM   24  O3  UNL     1     -14.166   8.948  14.275  1.00  0.00    -0.348 OA
HETATM   25  C10 UNL     1     -15.059   8.968  13.143  1.00  0.00     0.179 C 
HETATM   26  C12 UNL     1     -14.867  10.170  12.205  1.00  0.00     0.180 C 
HETATM   27  C13 UNL     1     -14.523  11.391  13.051  1.00  0.00     0.183 C 
HETATM   28  C14 UNL     1     -13.217  11.179  13.827  1.00  0.00     0.204 C 
BRANCH  25  29
HETATM   29  C11 UNL     1     -15.009   7.619  12.403  1.00  0.00     0.198 C 
BRANCH  29  30
HETATM   30  O4  UNL     1     -15.734   7.637  11.176  1.00  0.00    -0.398 OA
HETATM   31  H16 UNL     1     -15.625   8.533  10.805  1.00  0.00     0.209 HD
ENDBRANCH  29  30
ENDBRANCH  25  29
BRANCH  26  32
HETATM   32  O5  UNL     1     -16.074  10.423  11.478  1.00  0.00    -0.390 OA
HETATM   33  H18 UNL     1     -15.938  11.299  11.060  1.00  0.00     0.210 HD
ENDBRANCH  26  32
BRANCH  27  34
HETATM   34  O6  UNL     1     -14.424  12.547  12.201  1.00  0.00    -0.390 OA
HETATM   35  H20 UNL     1     -14.198  13.293  12.787  1.00  0.00     0.210 HD
ENDBRANCH  27  34
BRANCH  28  36
HETATM   36  O7  UNL     1     -13.302  11.951  15.044  1.00  0.00    -0.388 OA
HETATM   37  H22 UNL     1     -13.984  11.538  15.607  1.00  0.00     0.210 HD
ENDBRANCH  28  36
ENDBRANCH  22  23
ENDBRANCH   7  22
BRANCH  11  38
HETATM   38  C19 UNL     1      -7.534   7.027  16.956  1.00  0.00     0.241 C 
HETATM   39  O8  UNL     1      -8.594   7.359  17.478  1.00  0.00    -0.306 OA
ENDBRANCH  11  38
BRANCH   1  40
HETATM   40  O1  UNL     1      -7.318   3.804  14.055  1.00  0.00    -0.386 OA
HETATM   41  C1  UNL     1      -8.187   3.582  12.951  1.00  0.00     0.202 C 
ENDBRANCH   1  40
BRANCH  16  42
HETATM   42  C25 UNL     1      -2.008   7.588  12.949  1.00  0.00    -0.010 C 
HETATM   43  C26 UNL     1      -1.874   8.962  12.281  1.00  0.00     0.010 C 
BRANCH  42  44
HETATM   44  C27 UNL     1      -1.018   6.583  12.299  1.00  0.00     0.031 C 
BRANCH  44  45
HETATM   45  C28 UNL     1      -0.101   7.189  11.268  1.00  0.00    -0.027 C 
HETATM   46  C29 UNL     1       0.716   6.458  10.489  1.00  0.00     0.006 C 
BRANCH  46  47
HETATM   47  C30 UNL     1       1.663   6.956   9.413  1.00  0.00     0.070 C 
HETATM   48  C31 UNL     1       1.057   7.952   8.411  1.00  0.00     0.050 C 
HETATM   49  C32 UNL     1       2.848   7.642  10.114  1.00  0.00     0.050 C 
BRANCH  47  50
HETATM   50  O9  UNL     1       2.232   5.817   8.740  1.00  0.00    -0.382 OA
HETATM   51  C33 UNL     1       3.399   5.259   9.330  1.00  0.00     0.202 C 
ENDBRANCH  47  50
ENDBRANCH  46  47
ENDBRANCH  44  45
ENDBRANCH  42  44
ENDBRANCH  16  42
TORSDOF 14
ENDMDL
MODEL 4
REMARK minimizedAffinity -8.0078001
REMARK CNNscore 0.314093232
REMARK CNNaffinity 6.46965647
REMARK  14 active torsions:
REMARK  status: ('A' for Active; 'I' for Inactive)
REMARK    1  A    between atoms: O1_2  and  C2_3 
REMARK    2  A    between atoms: C8_9  and  O2_10 
REMARK    3  A    between atoms: O2_10  and  C9_11 
REMARK    4  A    between atoms: C10_13  and  C11_14 
REMARK    5  A    between atoms: C11_14  and  O4_15 
REMARK    6  A    between atoms: C12_16  and  O5_17 
REMARK    7  A    between atoms: C13_18  and  O6_19 
REMARK    8  A    between atoms: C14_20  and  O7_21 
REMARK    9  A    between atoms: C18_25  and  C19_26 
REMARK   10  A    between atoms: C24_32  and  C25_33 
REMARK   11  A    between atoms: C25_33  and  C27_35 
REMARK   12  A    between atoms: C27_35  and  C28_36 
REMARK   13  A    between atoms: C29_37  and  C30_38 
REMARK   14  A    between atoms: C30_38  and  O9_41 
ROOT
HETATM    1  C2  UNL     1      -0.056  13.531  17.901  1.00  0.00     0.149 C 
HETATM    2  C3  UNL     1      -1.229  12.694  17.501  1.00  0.00     0.009 C 
HETATM    3  C4  UNL     1      -1.184  11.420  17.068  1.00  0.00    -0.066 C 
HETATM    4  C5  UNL     1       0.142  10.687  16.917  1.00  0.00     0.031 C 
HETATM    5  C6  UNL     1       0.204   9.874  15.593  1.00  0.00     0.013 C 
HETATM    6  C7  UNL     1      -1.111   9.242  15.143  1.00  0.00     0.034 C 
HETATM    7  C8  UNL     1      -2.155   9.182  16.254  1.00  0.00     0.136 C 
HETATM    8  C15 UNL     1      -2.479  10.618  16.794  1.00  0.00     0.002 C 
HETATM    9  C16 UNL     1      -3.270  10.445  18.111  1.00  0.00     0.022 C 
HETATM   10  C17 UNL     1      -3.385  11.390  15.801  1.00  0.00     0.022 C 
HETATM   11  C18 UNL     1       1.434  11.572  17.165  1.00  0.00     0.027 C 
HETATM   12  C20 UNL     1       2.644  10.638  17.496  1.00  0.00     0.018 C 
HETATM   13  C21 UNL     1       2.839  10.281  18.981  1.00  0.00     0.011 C 
HETATM   14  C22 UNL     1       2.850  11.539  19.862  1.00  0.00    -0.032 C 
HETATM   15  C23 UNL     1       4.052  12.437  19.416  1.00  0.00     0.016 C 
HETATM   16  C24 UNL     1       2.950  11.342  21.410  1.00  0.00    -0.002 C 
HETATM   17  C34 UNL     1       2.355  12.681  21.942  1.00  0.00     0.006 C 
HETATM   18  C35 UNL     1       1.573  13.338  20.788  1.00  0.00     0.011 C 
HETATM   19  C36 UNL     1       1.431  12.236  19.720  1.00  0.00    -0.029 C 
HETATM   20  C37 UNL     1       0.232  11.358  20.198  1.00  0.00     0.016 C 
HETATM   21  C38 UNL     1       1.225  12.717  18.239  1.00  0.00     0.043 C 
ENDROOT
BRANCH   7  22
HETATM   22  O2  UNL     1      -3.348   8.559  15.745  1.00  0.00    -0.352 OA
BRANCH  22  23
HETATM   23  C9  UNL     1      -3.425   8.532  14.319  1.00  0.00     0.292 C 
HETATM   24  O3  UNL     1      -4.749   8.845  13.886  1.00  0.00    -0.348 OA
HETATM   25  C10 UNL     1      -5.777   7.906  14.259  1.00  0.00     0.179 C 
HETATM   26  C12 UNL     1      -5.264   6.489  14.559  1.00  0.00     0.180 C 
HETATM   27  C13 UNL     1      -4.122   6.177  13.598  1.00  0.00     0.183 C 
HETATM   28  C14 UNL     1      -2.956   7.156  13.786  1.00  0.00     0.204 C 
BRANCH  25  29
HETATM   29  C11 UNL     1      -6.636   8.483  15.398  1.00  0.00     0.198 C 
BRANCH  29  30
HETATM   30  O4  UNL     1      -7.705   9.299  14.922  1.00  0.00    -0.398 OA
HETATM   31  H16 UNL     1      -8.004   8.899  14.083  1.00  0.00     0.209 HD
ENDBRANCH  29  30
ENDBRANCH  25  29
BRANCH  26  32
HETATM   32  O5  UNL     1      -6.315   5.535  14.369  1.00  0.00    -0.390 OA
HETATM   33  H18 UNL     1      -5.870   4.662  14.387  1.00  0.00     0.210 HD
ENDBRANCH  26  32
BRANCH  27  34
HETATM   34  O6  UNL     1      -3.683   4.823  13.803  1.00  0.00    -0.390 OA
HETATM   35  H20 UNL     1      -2.953   4.678  13.174  1.00  0.00     0.210 HD
ENDBRANCH  27  34
BRANCH  28  36
HETATM   36  O7  UNL     1      -2.289   7.290  12.512  1.00  0.00    -0.388 OA
HETATM   37  H22 UNL     1      -2.898   7.757  11.910  1.00  0.00     0.210 HD
ENDBRANCH  28  36
ENDBRANCH  22  23
ENDBRANCH   7  22
BRANCH  11  38
HETATM   38  C19 UNL     1       1.765  12.332  15.864  1.00  0.00     0.241 C 
HETATM   39  O8  UNL     1       1.021  12.413  14.891  1.00  0.00    -0.306 OA
ENDBRANCH  11  38
BRANCH   1  40
HETATM   40  O1  UNL     1      -0.476  14.353  18.985  1.00  0.00    -0.386 OA
HETATM   41  C1  UNL     1      -1.891  14.410  19.118  1.00  0.00     0.202 C 
ENDBRANCH   1  40
BRANCH  16  42
HETATM   42  C25 UNL     1       4.324  11.017  22.078  1.00  0.00    -0.010 C 
HETATM   43  C26 UNL     1       4.225   9.833  23.048  1.00  0.00     0.010 C 
BRANCH  42  44
HETATM   44  C27 UNL     1       4.881  12.265  22.819  1.00  0.00     0.031 C 
BRANCH  44  45
HETATM   45  C28 UNL     1       6.383  12.378  22.810  1.00  0.00    -0.027 C 
HETATM   46  C29 UNL     1       7.037  13.523  23.071  1.00  0.00     0.006 C 
BRANCH  46  47
HETATM   47  C30 UNL     1       8.537  13.748  23.107  1.00  0.00     0.070 C 
HETATM   48  C31 UNL     1       9.397  12.477  23.012  1.00  0.00     0.050 C 
HETATM   49  C32 UNL     1       8.901  14.662  21.925  1.00  0.00     0.050 C 
BRANCH  47  50
HETATM   50  O9  UNL     1       8.859  14.510  24.286  1.00  0.00    -0.382 OA
HETATM   51  C33 UNL     1       8.521  15.891  24.250  1.00  0.00     0.202 C 
ENDBRANCH  47  50
ENDBRANCH  46  47
ENDBRANCH  44  45
ENDBRANCH  42  44
ENDBRANCH  16  42
TORSDOF 14
ENDMDL
MODEL 5
REMARK minimizedAffinity -6.4234643
REMARK CNNscore 0.263822705
REMARK CNNaffinity 6.79912233
REMARK  14 active torsions:
REMARK  status: ('A' for Active; 'I' for Inactive)
REMARK    1  A    between atoms: O1_2  and  C2_3 
REMARK    2  A    between atoms: C8_9  and  O2_10 
REMARK    3  A    between atoms: O2_10  and  C9_11 
REMARK    4  A    between atoms: C10_13  and  C11_14 
REMARK    5  A    between atoms: C11_14  and  O4_15 
REMARK    6  A    between atoms: C12_16  and  O5_17 
REMARK    7  A    between atoms: C13_18  and  O6_19 
REMARK    8  A    between atoms: C14_20  and  O7_21 
REMARK    9  A    between atoms: C18_25  and  C19_26 
REMARK   10  A    between atoms: C24_32  and  C25_33 
REMARK   11  A    between atoms: C25_33  and  C27_35 
REMARK   12  A    between atoms: C27_35  and  C28_36 
REMARK   13  A    between atoms: C29_37  and  C30_38 
REMARK   14  A    between atoms: C30_38  and  O9_41 
ROOT
HETATM    1  C2  UNL     1     -15.591   9.427  21.939  1.00  0.00     0.149 C 
HETATM    2  C3  UNL     1     -15.073   9.743  20.572  1.00  0.00     0.009 C 
HETATM    3  C4  UNL     1     -13.783   9.713  20.186  1.00  0.00    -0.066 C 
HETATM    4  C5  UNL     1     -12.676   9.359  21.169  1.00  0.00     0.031 C 
HETATM    5  C6  UNL     1     -11.449  10.303  21.021  1.00  0.00     0.013 C 
HETATM    6  C7  UNL     1     -11.135  10.761  19.597  1.00  0.00     0.034 C 
HETATM    7  C8  UNL     1     -11.823   9.912  18.533  1.00  0.00     0.136 C 
HETATM    8  C15 UNL     1     -13.380   9.948  18.711  1.00  0.00     0.002 C 
HETATM    9  C16 UNL     1     -13.969   8.823  17.828  1.00  0.00     0.022 C 
HETATM   10  C17 UNL     1     -13.962  11.293  18.205  1.00  0.00     0.022 C 
HETATM   11  C18 UNL     1     -13.141   9.177  22.674  1.00  0.00     0.027 C 
HETATM   12  C20 UNL     1     -12.076   8.333  23.446  1.00  0.00     0.018 C 
HETATM   13  C21 UNL     1     -12.261   6.806  23.407  1.00  0.00     0.011 C 
HETATM   14  C22 UNL     1     -13.687   6.404  23.810  1.00  0.00    -0.032 C 
HETATM   15  C23 UNL     1     -13.933   6.885  25.279  1.00  0.00     0.016 C 
HETATM   16  C24 UNL     1     -14.066   4.889  23.735  1.00  0.00    -0.002 C 
HETATM   17  C34 UNL     1     -15.620   4.952  23.625  1.00  0.00     0.006 C 
HETATM   18  C35 UNL     1     -16.002   6.385  23.204  1.00  0.00     0.011 C 
HETATM   19  C36 UNL     1     -14.682   7.035  22.746  1.00  0.00    -0.029 C 
HETATM   20  C37 UNL     1     -14.466   6.531  21.284  1.00  0.00     0.016 C 
HETATM   21  C38 UNL     1     -14.610   8.602  22.820  1.00  0.00     0.043 C 
ENDROOT
BRANCH   7  22
HETATM   22  O2  UNL     1     -11.456  10.403  17.231  1.00  0.00    -0.352 OA
BRANCH  22  23
HETATM   23  C9  UNL     1     -10.318   9.751  16.665  1.00  0.00     0.292 C 
HETATM   24  O3  UNL     1      -9.640  10.627  15.766  1.00  0.00    -0.348 OA
HETATM   25  C10 UNL     1     -10.374  11.023  14.590  1.00  0.00     0.179 C 
HETATM   26  C12 UNL     1     -11.501  10.058  14.191  1.00  0.00     0.180 C 
HETATM   27  C13 UNL     1     -11.040   8.633  14.479  1.00  0.00     0.183 C 
HETATM   28  C14 UNL     1     -10.748   8.435  15.972  1.00  0.00     0.204 C 
BRANCH  25  29
HETATM   29  C11 UNL     1     -10.854  12.478  14.728  1.00  0.00     0.198 C 
BRANCH  29  30
HETATM   30  O4  UNL     1     -10.123  13.380  13.900  1.00  0.00    -0.398 OA
HETATM   31  H16 UNL     1      -9.906  12.891  13.084  1.00  0.00     0.209 HD
ENDBRANCH  29  30
ENDBRANCH  25  29
BRANCH  26  32
HETATM   32  O5  UNL     1     -11.789  10.189  12.795  1.00  0.00    -0.390 OA
HETATM   33  H18 UNL     1     -12.364   9.423  12.582  1.00  0.00     0.210 HD
ENDBRANCH  26  32
BRANCH  27  34
HETATM   34  O6  UNL     1     -12.046   7.707  14.033  1.00  0.00    -0.390 OA
HETATM   35  H20 UNL     1     -11.707   6.818  14.245  1.00  0.00     0.210 HD
ENDBRANCH  27  34
BRANCH  28  36
HETATM   36  O7  UNL     1      -9.721   7.426  16.085  1.00  0.00    -0.388 OA
HETATM   37  H22 UNL     1      -8.896   7.806  15.729  1.00  0.00     0.210 HD
ENDBRANCH  28  36
ENDBRANCH  22  23
ENDBRANCH   7  22
BRANCH  11  38
HETATM   38  C19 UNL     1     -13.215  10.569  23.337  1.00  0.00     0.241 C 
HETATM   39  O8  UNL     1     -13.020  11.633  22.756  1.00  0.00    -0.306 OA
ENDBRANCH  11  38
BRANCH   1  40
HETATM   40  O1  UNL     1     -16.846   8.775  21.773  1.00  0.00    -0.386 OA
HETATM   41  C1  UNL     1     -17.927   9.510  22.335  1.00  0.00     0.202 C 
ENDBRANCH   1  40
BRANCH  16  42
HETATM   42  C25 UNL     1     -13.608   3.903  24.857  1.00  0.00    -0.010 C 
HETATM   43  C26 UNL     1     -12.797   2.729  24.293  1.00  0.00     0.010 C 
BRANCH  42  44
HETATM   44  C27 UNL     1     -14.833   3.370  25.650  1.00  0.00     0.031 C 
BRANCH  44  45
HETATM   45  C28 UNL     1     -14.792   3.657  27.129  1.00  0.00    -0.027 C 
HETATM   46  C29 UNL     1     -13.748   3.337  27.912  1.00  0.00     0.006 C 
BRANCH  46  47
HETATM   47  C30 UNL     1     -13.592   3.592  29.400  1.00  0.00     0.070 C 
HETATM   48  C31 UNL     1     -12.153   3.844  29.879  1.00  0.00     0.050 C 
HETATM   49  C32 UNL     1     -14.438   4.827  29.754  1.00  0.00     0.050 C 
BRANCH  47  50
HETATM   50  O9  UNL     1     -14.199   2.501  30.118  1.00  0.00    -0.382 OA
HETATM   51  C33 UNL     1     -14.534   2.755  31.477  1.00  0.00     0.202 C 
ENDBRANCH  47  50
ENDBRANCH  46  47
ENDBRANCH  44  45
ENDBRANCH  42  44
ENDBRANCH  16  42
TORSDOF 14
ENDMDL
MODEL 6
REMARK minimizedAffinity -6.62931204
REMARK CNNscore 0.226495549
REMARK CNNaffinity 6.15076017
REMARK  14 active torsions:
REMARK  status: ('A' for Active; 'I' for Inactive)
REMARK    1  A    between atoms: O1_2  and  C2_3 
REMARK    2  A    between atoms: C8_9  and  O2_10 
REMARK    3  A    between atoms: O2_10  and  C9_11 
REMARK    4  A    between atoms: C10_13  and  C11_14 
REMARK    5  A    between atoms: C11_14  and  O4_15 
REMARK    6  A    between atoms: C12_16  and  O5_17 
REMARK    7  A    between atoms: C13_18  and  O6_19 
REMARK    8  A    between atoms: C14_20  and  O7_21 
REMARK    9  A    between atoms: C18_25  and  C19_26 
REMARK   10  A    between atoms: C24_32  and  C25_33 
REMARK   11  A    between atoms: C25_33  and  C27_35 
REMARK   12  A    between atoms: C27_35  and  C28_36 
REMARK   13  A    between atoms: C29_37  and  C30_38 
REMARK   14  A    between atoms: C30_38  and  O9_41 
ROOT
HETATM    1  C2  UNL     1     -16.334  -2.619  15.168  1.00  0.00     0.149 C 
HETATM    2  C3  UNL     1     -15.753  -3.476  14.089  1.00  0.00     0.009 C 
HETATM    3  C4  UNL     1     -16.195  -3.561  12.819  1.00  0.00    -0.066 C 
HETATM    4  C5  UNL     1     -17.406  -2.765  12.353  1.00  0.00     0.031 C 
HETATM    5  C6  UNL     1     -18.356  -3.625  11.471  1.00  0.00     0.013 C 
HETATM    6  C7  UNL     1     -17.672  -4.643  10.560  1.00  0.00     0.034 C 
HETATM    7  C8  UNL     1     -16.181  -4.374  10.379  1.00  0.00     0.136 C 
HETATM    8  C15 UNL     1     -15.438  -4.397  11.759  1.00  0.00     0.002 C 
HETATM    9  C16 UNL     1     -14.031  -3.797  11.534  1.00  0.00     0.022 C 
HETATM   10  C17 UNL     1     -15.252  -5.853  12.260  1.00  0.00     0.022 C 
HETATM   11  C18 UNL     1     -18.168  -1.967  13.491  1.00  0.00     0.027 C 
HETATM   12  C20 UNL     1     -19.015  -0.824  12.842  1.00  0.00     0.018 C 
HETATM   13  C21 UNL     1     -18.298   0.524  12.644  1.00  0.00     0.011 C 
HETATM   14  C22 UNL     1     -17.628   0.997  13.941  1.00  0.00    -0.032 C 
HETATM   15  C23 UNL     1     -18.741   1.195  15.023  1.00  0.00     0.016 C 
HETATM   16  C24 UNL     1     -16.779   2.309  13.885  1.00  0.00    -0.002 C 
HETATM   17  C34 UNL     1     -15.839   2.136  15.117  1.00  0.00     0.006 C 
HETATM   18  C35 UNL     1     -15.861   0.649  15.517  1.00  0.00     0.011 C 
HETATM   19  C36 UNL     1     -16.526  -0.077  14.332  1.00  0.00    -0.029 C 
HETATM   20  C37 UNL     1     -15.392  -0.252  13.273  1.00  0.00     0.016 C 
HETATM   21  C38 UNL     1     -17.219  -1.451  14.650  1.00  0.00     0.043 C 
ENDROOT
BRANCH   7  22
HETATM   22  O2  UNL     1     -15.628  -5.366   9.496  1.00  0.00    -0.352 OA
BRANCH  22  23
HETATM   23  C9  UNL     1     -14.203  -5.450   9.538  1.00  0.00     0.292 C 
HETATM   24  O3  UNL     1     -13.630  -4.720   8.453  1.00  0.00    -0.348 OA
HETATM   25  C10 UNL     1     -13.921  -5.217   7.130  1.00  0.00     0.179 C 
HETATM   26  C12 UNL     1     -14.308  -6.704   7.082  1.00  0.00     0.180 C 
HETATM   27  C13 UNL     1     -13.476  -7.452   8.118  1.00  0.00     0.183 C 
HETATM   28  C14 UNL     1     -13.756  -6.932   9.534  1.00  0.00     0.204 C 
BRANCH  25  29
HETATM   29  C11 UNL     1     -14.951  -4.309   6.436  1.00  0.00     0.198 C 
BRANCH  29  30
HETATM   30  O4  UNL     1     -14.651  -4.087   5.060  1.00  0.00    -0.398 OA
HETATM   31  H16 UNL     1     -14.255  -4.914   4.728  1.00  0.00     0.209 HD
ENDBRANCH  29  30
ENDBRANCH  25  29
BRANCH  26  32
HETATM   32  O5  UNL     1     -14.037  -7.239   5.782  1.00  0.00    -0.390 OA
HETATM   33  H18 UNL     1     -14.122  -8.210   5.886  1.00  0.00     0.210 HD
ENDBRANCH  26  32
BRANCH  27  34
HETATM   34  O6  UNL     1     -13.759  -8.859   8.031  1.00  0.00    -0.390 OA
HETATM   35  H20 UNL     1     -13.211  -9.287   8.714  1.00  0.00     0.210 HD
ENDBRANCH  27  34
BRANCH  28  36
HETATM   36  O7  UNL     1     -12.553  -7.116  10.312  1.00  0.00    -0.388 OA
HETATM   37  H22 UNL     1     -11.880  -6.503   9.961  1.00  0.00     0.210 HD
ENDBRANCH  28  36
ENDBRANCH  22  23
ENDBRANCH   7  22
BRANCH  11  38
HETATM   38  C19 UNL     1     -19.139  -2.932  14.202  1.00  0.00     0.241 C 
HETATM   39  O8  UNL     1     -19.109  -4.155  14.104  1.00  0.00    -0.306 OA
ENDBRANCH  11  38
BRANCH   1  40
HETATM   40  O1  UNL     1     -15.249  -2.162  15.970  1.00  0.00    -0.386 OA
HETATM   41  C1  UNL     1     -13.987  -2.626  15.508  1.00  0.00     0.202 C 
ENDBRANCH   1  40
BRANCH  16  42
HETATM   42  C25 UNL     1     -17.482   3.705  13.889  1.00  0.00    -0.010 C 
HETATM   43  C26 UNL     1     -17.568   4.308  12.481  1.00  0.00     0.010 C 
BRANCH  42  44
HETATM   44  C27 UNL     1     -16.744   4.686  14.842  1.00  0.00     0.031 C 
BRANCH  44  45
HETATM   45  C28 UNL     1     -15.737   5.577  14.163  1.00  0.00    -0.027 C 
HETATM   46  C29 UNL     1     -14.763   6.226  14.824  1.00  0.00     0.006 C 
BRANCH  46  47
HETATM   47  C30 UNL     1     -13.690   7.130  14.245  1.00  0.00     0.070 C 
HETATM   48  C31 UNL     1     -12.252   6.601  14.356  1.00  0.00     0.050 C 
HETATM   49  C32 UNL     1     -14.011   7.340  12.756  1.00  0.00     0.050 C 
BRANCH  47  50
HETATM   50  O9  UNL     1     -13.816   8.433  14.845  1.00  0.00    -0.382 OA
HETATM   51  C33 UNL     1     -12.730   8.855  15.660  1.00  0.00     0.202 C 
ENDBRANCH  47  50
ENDBRANCH  46  47
ENDBRANCH  44  45
ENDBRANCH  42  44
ENDBRANCH  16  42
TORSDOF 14
ENDMDL
MODEL 7
REMARK minimizedAffinity -7.64660072
REMARK CNNscore 0.193154797
REMARK CNNaffinity 6.51675558
REMARK  14 active torsions:
REMARK  status: ('A' for Active; 'I' for Inactive)
REMARK    1  A    between atoms: O1_2  and  C2_3 
REMARK    2  A    between atoms: C8_9  and  O2_10 
REMARK    3  A    between atoms: O2_10  and  C9_11 
REMARK    4  A    between atoms: C10_13  and  C11_14 
REMARK    5  A    between atoms: C11_14  and  O4_15 
REMARK    6  A    between atoms: C12_16  and  O5_17 
REMARK    7  A    between atoms: C13_18  and  O6_19 
REMARK    8  A    between atoms: C14_20  and  O7_21 
REMARK    9  A    between atoms: C18_25  and  C19_26 
REMARK   10  A    between atoms: C24_32  and  C25_33 
REMARK   11  A    between atoms: C25_33  and  C27_35 
REMARK   12  A    between atoms: C27_35  and  C28_36 
REMARK   13  A    between atoms: C29_37  and  C30_38 
REMARK   14  A    between atoms: C30_38  and  O9_41 
ROOT
HETATM    1  C2  UNL     1      -9.562 -11.442  -1.072  1.00  0.00     0.149 C 
HETATM    2  C3  UNL     1      -9.014 -11.284   0.310  1.00  0.00     0.009 C 
HETATM    3  C4  UNL     1      -7.867 -10.660   0.642  1.00  0.00    -0.066 C 
HETATM    4  C5  UNL     1      -6.968 -10.049  -0.423  1.00  0.00     0.031 C 
HETATM    5  C6  UNL     1      -5.467 -10.362  -0.160  1.00  0.00     0.013 C 
HETATM    6  C7  UNL     1      -5.048 -10.405   1.308  1.00  0.00     0.034 C 
HETATM    7  C8  UNL     1      -6.066  -9.752   2.238  1.00  0.00     0.136 C 
HETATM    8  C15 UNL     1      -7.461 -10.458   2.122  1.00  0.00     0.002 C 
HETATM    9  C16 UNL     1      -8.496  -9.547   2.823  1.00  0.00     0.022 C 
HETATM   10  C17 UNL     1      -7.455 -11.818   2.865  1.00  0.00     0.022 C 
HETATM   11  C18 UNL     1      -7.408 -10.329  -1.920  1.00  0.00     0.027 C 
HETATM   12  C20 UNL     1      -6.756  -9.261  -2.858  1.00  0.00     0.018 C 
HETATM   13  C21 UNL     1      -7.558  -7.963  -3.069  1.00  0.00     0.011 C 
HETATM   14  C22 UNL     1      -9.005  -8.261  -3.486  1.00  0.00    -0.032 C 
HETATM   15  C23 UNL     1      -8.973  -9.037  -4.845  1.00  0.00     0.016 C 
HETATM   16  C24 UNL     1      -9.979  -7.049  -3.652  1.00  0.00    -0.002 C 
HETATM   17  C34 UNL     1     -11.371  -7.729  -3.481  1.00  0.00     0.006 C 
HETATM   18  C35 UNL     1     -11.143  -9.099  -2.814  1.00  0.00     0.011 C 
HETATM   19  C36 UNL     1      -9.692  -9.059  -2.298  1.00  0.00    -0.029 C 
HETATM   20  C37 UNL     1      -9.760  -8.276  -0.950  1.00  0.00     0.016 C 
HETATM   21  C38 UNL     1      -8.976 -10.445  -2.111  1.00  0.00     0.043 C 
ENDROOT
BRANCH   7  22
HETATM   22  O2  UNL     1      -5.581  -9.823   3.591  1.00  0.00    -0.352 OA
BRANCH  22  23
HETATM   23  C9  UNL     1      -4.377 -10.579   3.736  1.00  0.00     0.292 C 
HETATM   24  O3  UNL     1      -4.519 -11.546   4.775  1.00  0.00    -0.348 OA
HETATM   25  C10 UNL     1      -4.708 -11.025   6.106  1.00  0.00     0.179 C 
HETATM   26  C12 UNL     1      -4.189  -9.592   6.306  1.00  0.00     0.180 C 
HETATM   27  C13 UNL     1      -2.913  -9.424   5.489  1.00  0.00     0.183 C 
HETATM   28  C14 UNL     1      -3.181  -9.630   3.992  1.00  0.00     0.204 C 
BRANCH  25  29
HETATM   29  C11 UNL     1      -6.174 -11.196   6.541  1.00  0.00     0.198 C 
BRANCH  29  30
HETATM   30  O4  UNL     1      -6.791 -12.342   5.960  1.00  0.00    -0.398 OA
HETATM   31  H16 UNL     1      -6.097 -13.025   5.896  1.00  0.00     0.209 HD
ENDBRANCH  29  30
ENDBRANCH  25  29
BRANCH  26  32
HETATM   32  O5  UNL     1      -3.899  -9.363   7.689  1.00  0.00    -0.390 OA
HETATM   33  H18 UNL     1      -3.401  -8.519   7.706  1.00  0.00     0.210 HD
ENDBRANCH  26  32
BRANCH  27  34
HETATM   34  O6  UNL     1      -2.362  -8.117   5.728  1.00  0.00    -0.390 OA
HETATM   35  H20 UNL     1      -1.558  -8.059   5.181  1.00  0.00     0.210 HD
ENDBRANCH  27  34
BRANCH  28  36
HETATM   36  O7  UNL     1      -1.969 -10.146   3.399  1.00  0.00    -0.388 OA
HETATM   37  H22 UNL     1      -1.835 -11.048   3.744  1.00  0.00     0.210 HD
ENDBRANCH  28  36
ENDBRANCH  22  23
ENDBRANCH   7  22
BRANCH  11  38
HETATM   38  C19 UNL     1      -6.874 -11.715  -2.338  1.00  0.00     0.241 C 
HETATM   39  O8  UNL     1      -7.219 -12.323  -3.347  1.00  0.00    -0.306 OA
ENDBRANCH  11  38
BRANCH   1  40
HETATM   40  O1  UNL     1     -10.980 -11.351  -0.974  1.00  0.00    -0.386 OA
HETATM   41  C1  UNL     1     -11.457 -11.570   0.348  1.00  0.00     0.202 C 
ENDBRANCH   1  40
BRANCH  16  42
HETATM   42  C25 UNL     1      -9.925  -6.163  -4.939  1.00  0.00    -0.010 C 
HETATM   43  C26 UNL     1      -9.244  -6.887  -6.107  1.00  0.00     0.010 C 
BRANCH  42  44
HETATM   44  C27 UNL     1      -9.195  -4.822  -4.648  1.00  0.00     0.031 C 
BRANCH  44  45
HETATM   45  C28 UNL     1      -9.895  -3.601  -5.186  1.00  0.00    -0.027 C 
HETATM   46  C29 UNL     1      -9.398  -2.358  -5.073  1.00  0.00     0.006 C 
BRANCH  46  47
HETATM   47  C30 UNL     1     -10.004  -1.065  -5.588  1.00  0.00     0.070 C 
HETATM   48  C31 UNL     1     -10.821  -0.265  -4.562  1.00  0.00     0.050 C 
HETATM   49  C32 UNL     1      -8.852  -0.174  -6.084  1.00  0.00     0.050 C 
BRANCH  47  50
HETATM   50  O9  UNL     1     -10.784  -1.361  -6.762  1.00  0.00    -0.382 OA
HETATM   51  C33 UNL     1     -10.387  -0.704  -7.960  1.00  0.00     0.202 C 
ENDBRANCH  47  50
ENDBRANCH  46  47
ENDBRANCH  44  45
ENDBRANCH  42  44
ENDBRANCH  16  42
TORSDOF 14
ENDMDL
MODEL 8
REMARK minimizedAffinity -6.78949308
REMARK CNNscore 0.172212884
REMARK CNNaffinity 5.6217742
REMARK  14 active torsions:
REMARK  status: ('A' for Active; 'I' for Inactive)
REMARK    1  A    between atoms: O1_2  and  C2_3 
REMARK    2  A    between atoms: C8_9  and  O2_10 
REMARK    3  A    between atoms: O2_10  and  C9_11 
REMARK    4  A    between atoms: C10_13  and  C11_14 
REMARK    5  A    between atoms: C11_14  and  O4_15 
REMARK    6  A    between atoms: C12_16  and  O5_17 
REMARK    7  A    between atoms: C13_18  and  O6_19 
REMARK    8  A    between atoms: C14_20  and  O7_21 
REMARK    9  A    between atoms: C18_25  and  C19_26 
REMARK   10  A    between atoms: C24_32  and  C25_33 
REMARK   11  A    between atoms: C25_33  and  C27_35 
REMARK   12  A    between atoms: C27_35  and  C28_36 
REMARK   13  A    between atoms: C29_37  and  C30_38 
REMARK   14  A    between atoms: C30_38  and  O9_41 
ROOT
HETATM    1  C2  UNL     1       0.638  16.935  -4.826  1.00  0.00     0.149 C 
HETATM    2  C3  UNL     1       1.199  16.675  -3.465  1.00  0.00     0.009 C 
HETATM    3  C4  UNL     1       0.510  16.234  -2.394  1.00  0.00    -0.066 C 
HETATM    4  C5  UNL     1      -0.986  15.970  -2.476  1.00  0.00     0.031 C 
HETATM    5  C6  UNL     1      -1.738  16.515  -1.227  1.00  0.00     0.013 C 
HETATM    6  C7  UNL     1      -0.981  16.413   0.096  1.00  0.00     0.034 C 
HETATM    7  C8  UNL     1       0.200  15.449   0.035  1.00  0.00     0.136 C 
HETATM    8  C15 UNL     1       1.225  15.890  -1.065  1.00  0.00     0.002 C 
HETATM    9  C16 UNL     1       2.195  14.707  -1.290  1.00  0.00     0.022 C 
HETATM   10  C17 UNL     1       2.065  17.100  -0.582  1.00  0.00     0.022 C 
HETATM   11  C18 UNL     1      -1.672  16.385  -3.844  1.00  0.00     0.027 C 
HETATM   12  C20 UNL     1      -3.022  15.611  -4.001  1.00  0.00     0.018 C 
HETATM   13  C21 UNL     1      -2.939  14.234  -4.683  1.00  0.00     0.011 C 
HETATM   14  C22 UNL     1      -2.186  14.315  -6.018  1.00  0.00    -0.032 C 
HETATM   15  C23 UNL     1      -2.974  15.279  -6.966  1.00  0.00     0.016 C 
HETATM   16  C24 UNL     1      -1.936  12.981  -6.796  1.00  0.00    -0.002 C 
HETATM   17  C34 UNL     1      -0.717  13.355  -7.692  1.00  0.00     0.006 C 
HETATM   18  C35 UNL     1      -0.076  14.627  -7.104  1.00  0.00     0.011 C 
HETATM   19  C36 UNL     1      -0.702  14.782  -5.704  1.00  0.00    -0.029 C 
HETATM   20  C37 UNL     1       0.101  13.805  -4.789  1.00  0.00     0.016 C 
HETATM   21  C38 UNL     1      -0.722  16.233  -5.102  1.00  0.00     0.043 C 
ENDROOT
BRANCH   7  22
HETATM   22  O2  UNL     1       0.837  15.405   1.325  1.00  0.00    -0.352 OA
BRANCH  22  23
HETATM   23  C9  UNL     1       1.553  14.195   1.577  1.00  0.00     0.292 C 
HETATM   24  O3  UNL     1       0.693  13.222   2.169  1.00  0.00    -0.348 OA
HETATM   25  C10 UNL     1       0.178  13.543   3.477  1.00  0.00     0.179 C 
HETATM   26  C12 UNL     1       1.023  14.561   4.259  1.00  0.00     0.180 C 
HETATM   27  C13 UNL     1       2.494  14.301   3.954  1.00  0.00     0.183 C 
HETATM   28  C14 UNL     1       2.792  14.483   2.460  1.00  0.00     0.204 C 
BRANCH  25  29
HETATM   29  C11 UNL     1      -1.304  13.946   3.381  1.00  0.00     0.198 C 
BRANCH  29  30
HETATM   30  O4  UNL     1      -1.884  13.615   2.121  1.00  0.00    -0.398 OA
HETATM   31  H16 UNL     1      -1.465  12.781   1.836  1.00  0.00     0.209 HD
ENDBRANCH  29  30
ENDBRANCH  25  29
BRANCH  26  32
HETATM   32  O5  UNL     1       0.798  14.408   5.665  1.00  0.00    -0.390 OA
HETATM   33  H18 UNL     1       1.500  14.943   6.093  1.00  0.00     0.210 HD
ENDBRANCH  26  32
BRANCH  27  34
HETATM   34  O6  UNL     1       3.309  15.186   4.743  1.00  0.00    -0.390 OA
HETATM   35  H20 UNL     1       4.232  14.985   4.506  1.00  0.00     0.210 HD
ENDBRANCH  27  34
BRANCH  28  36
HETATM   36  O7  UNL     1       3.888  13.605   2.123  1.00  0.00    -0.388 OA
HETATM   37  H22 UNL     1       3.562  12.688   2.192  1.00  0.00     0.210 HD
ENDBRANCH  28  36
ENDBRANCH  22  23
ENDBRANCH   7  22
BRANCH  11  38
HETATM   38  C19 UNL     1      -1.993  17.893  -3.794  1.00  0.00     0.241 C 
HETATM   39  O8  UNL     1      -2.854  18.449  -4.470  1.00  0.00    -0.306 OA
ENDBRANCH  11  38
BRANCH   1  40
HETATM   40  O1  UNL     1       1.638  16.566  -5.770  1.00  0.00    -0.386 OA
HETATM   41  C1  UNL     1       2.903  16.321  -5.166  1.00  0.00     0.202 C 
ENDBRANCH   1  40
BRANCH  16  42
HETATM   42  C25 UNL     1      -3.085  12.325  -7.628  1.00  0.00    -0.010 C 
HETATM   43  C26 UNL     1      -4.037  13.373  -8.218  1.00  0.00     0.010 C 
BRANCH  42  44
HETATM   44  C27 UNL     1      -3.881  11.313  -6.758  1.00  0.00     0.031 C 
BRANCH  44  45
HETATM   45  C28 UNL     1      -3.813   9.887  -7.240  1.00  0.00    -0.027 C 
HETATM   46  C29 UNL     1      -4.246   8.843  -6.512  1.00  0.00     0.006 C 
BRANCH  46  47
HETATM   47  C30 UNL     1      -4.243   7.376  -6.901  1.00  0.00     0.070 C 
HETATM   48  C31 UNL     1      -4.025   7.091  -8.395  1.00  0.00     0.050 C 
HETATM   49  C32 UNL     1      -3.118   6.686  -6.112  1.00  0.00     0.050 C 
BRANCH  47  50
HETATM   50  O9  UNL     1      -5.461   6.773  -6.425  1.00  0.00    -0.382 OA
HETATM   51  C33 UNL     1      -5.625   5.388  -6.703  1.00  0.00     0.202 C 
ENDBRANCH  47  50
ENDBRANCH  46  47
ENDBRANCH  44  45
ENDBRANCH  42  44
ENDBRANCH  16  42
TORSDOF 14
ENDMDL
MODEL 9
REMARK minimizedAffinity -7.10146427
REMARK CNNscore 0.170332789
REMARK CNNaffinity 7.31874228
REMARK  14 active torsions:
REMARK  status: ('A' for Active; 'I' for Inactive)
REMARK    1  A    between atoms: O1_2  and  C2_3 
REMARK    2  A    between atoms: C8_9  and  O2_10 
REMARK    3  A    between atoms: O2_10  and  C9_11 
REMARK    4  A    between atoms: C10_13  and  C11_14 
REMARK    5  A    between atoms: C11_14  and  O4_15 
REMARK    6  A    between atoms: C12_16  and  O5_17 
REMARK    7  A    between atoms: C13_18  and  O6_19 
REMARK    8  A    between atoms: C14_20  and  O7_21 
REMARK    9  A    between atoms: C18_25  and  C19_26 
REMARK   10  A    between atoms: C24_32  and  C25_33 
REMARK   11  A    between atoms: C25_33  and  C27_35 
REMARK   12  A    between atoms: C27_35  and  C28_36 
REMARK   13  A    between atoms: C29_37  and  C30_38 
REMARK   14  A    between atoms: C30_38  and  O9_41 
ROOT
HETATM    1  C2  UNL     1      -7.645   4.947  14.863  1.00  0.00     0.149 C 
HETATM    2  C3  UNL     1      -8.906   5.509  14.288  1.00  0.00     0.009 C 
HETATM    3  C4  UNL     1      -9.231   6.814  14.214  1.00  0.00    -0.066 C 
HETATM    4  C5  UNL     1      -8.302   7.888  14.761  1.00  0.00     0.031 C 
HETATM    5  C6  UNL     1      -9.081   8.975  15.556  1.00  0.00     0.013 C 
HETATM    6  C7  UNL     1     -10.469   9.319  15.018  1.00  0.00     0.034 C 
HETATM    7  C8  UNL     1     -10.690   8.837  13.587  1.00  0.00     0.136 C 
HETATM    8  C15 UNL     1     -10.516   7.282  13.490  1.00  0.00     0.002 C 
HETATM    9  C16 UNL     1     -10.424   6.924  11.988  1.00  0.00     0.022 C 
HETATM   10  C17 UNL     1     -11.753   6.551  14.071  1.00  0.00     0.022 C 
HETATM   11  C18 UNL     1      -7.027   7.349  15.534  1.00  0.00     0.027 C 
HETATM   12  C20 UNL     1      -5.935   8.467  15.573  1.00  0.00     0.018 C 
HETATM   13  C21 UNL     1      -4.959   8.506  14.383  1.00  0.00     0.011 C 
HETATM   14  C22 UNL     1      -4.334   7.127  14.128  1.00  0.00    -0.032 C 
HETATM   15  C23 UNL     1      -3.527   6.713  15.403  1.00  0.00     0.016 C 
HETATM   16  C24 UNL     1      -3.385   6.975  12.894  1.00  0.00    -0.002 C 
HETATM   17  C34 UNL     1      -3.446   5.440  12.629  1.00  0.00     0.006 C 
HETATM   18  C35 UNL     1      -4.684   4.887  13.361  1.00  0.00     0.011 C 
HETATM   19  C36 UNL     1      -5.509   6.130  13.750  1.00  0.00    -0.029 C 
HETATM   20  C37 UNL     1      -6.293   6.518  12.457  1.00  0.00     0.016 C 
HETATM   21  C38 UNL     1      -6.481   5.971  14.974  1.00  0.00     0.043 C 
ENDROOT
BRANCH   7  22
HETATM   22  O2  UNL     1     -12.010   9.220  13.161  1.00  0.00    -0.352 OA
BRANCH  22  23
HETATM   23  C9  UNL     1     -12.791   9.843  14.183  1.00  0.00     0.292 C 
HETATM   24  O3  UNL     1     -13.981   9.093  14.426  1.00  0.00    -0.348 OA
HETATM   25  C10 UNL     1     -14.920   9.020  13.334  1.00  0.00     0.179 C 
HETATM   26  C12 UNL     1     -14.795  10.162  12.312  1.00  0.00     0.180 C 
HETATM   27  C13 UNL     1     -14.446  11.443  13.063  1.00  0.00     0.183 C 
HETATM   28  C14 UNL     1     -13.104  11.309  13.795  1.00  0.00     0.204 C 
BRANCH  25  29
HETATM   29  C11 UNL     1     -14.869   7.627  12.681  1.00  0.00     0.198 C 
BRANCH  29  30
HETATM   30  O4  UNL     1     -15.468   6.618  13.491  1.00  0.00    -0.398 OA
HETATM   31  H16 UNL     1     -16.216   7.042  13.951  1.00  0.00     0.209 HD
ENDBRANCH  29  30
ENDBRANCH  25  29
BRANCH  26  32
HETATM   32  O5  UNL     1     -16.037  10.342  11.623  1.00  0.00    -0.390 OA
HETATM   33  H18 UNL     1     -15.939  11.192  11.144  1.00  0.00     0.210 HD
ENDBRANCH  26  32
BRANCH  27  34
HETATM   34  O6  UNL     1     -14.409  12.543  12.137  1.00  0.00    -0.390 OA
HETATM   35  H20 UNL     1     -14.176  13.329  12.663  1.00  0.00     0.210 HD
ENDBRANCH  27  34
BRANCH  28  36
HETATM   36  O7  UNL     1     -13.157  12.157  14.962  1.00  0.00    -0.388 OA
HETATM   37  H22 UNL     1     -13.805  11.768  15.579  1.00  0.00     0.210 HD
ENDBRANCH  28  36
ENDBRANCH  22  23
ENDBRANCH   7  22
BRANCH  11  38
HETATM   38  C19 UNL     1      -7.432   7.030  16.988  1.00  0.00     0.241 C 
HETATM   39  O8  UNL     1      -8.526   7.285  17.482  1.00  0.00    -0.306 OA
ENDBRANCH  11  38
BRANCH   1  40
HETATM   40  O1  UNL     1      -7.294   3.812  14.076  1.00  0.00    -0.386 OA
HETATM   41  C1  UNL     1      -8.190   3.593  12.994  1.00  0.00     0.202 C 
ENDBRANCH   1  40
BRANCH  16  42
HETATM   42  C25 UNL     1      -1.911   7.490  12.962  1.00  0.00    -0.010 C 
HETATM   43  C26 UNL     1      -0.911   6.432  12.481  1.00  0.00     0.010 C 
BRANCH  42  44
HETATM   44  C27 UNL     1      -1.556   7.939  14.406  1.00  0.00     0.031 C 
BRANCH  44  45
HETATM   45  C28 UNL     1      -0.320   8.795  14.508  1.00  0.00    -0.027 C 
HETATM   46  C29 UNL     1       0.016   9.474  15.618  1.00  0.00     0.006 C 
BRANCH  46  47
HETATM   47  C30 UNL     1       1.238  10.347  15.838  1.00  0.00     0.070 C 
HETATM   48  C31 UNL     1       2.139   9.937  17.013  1.00  0.00     0.050 C 
HETATM   49  C32 UNL     1       2.080  10.305  14.551  1.00  0.00     0.050 C 
BRANCH  47  50
HETATM   50  O9  UNL     1       0.807  11.716  15.961  1.00  0.00    -0.382 OA
HETATM   51  C33 UNL     1      -0.420  11.926  16.649  1.00  0.00     0.202 C 
ENDBRANCH  47  50
ENDBRANCH  46  47
ENDBRANCH  44  45
ENDBRANCH  42  44
ENDBRANCH  16  42
TORSDOF 14
ENDMDL
