MODEL 1
REMARK minimizedAffinity -7.58847952
REMARK CNNscore 0.719582379
REMARK CNNaffinity 6.59766245
REMARK  8 active torsions:
REMARK  status: ('A' for Active; 'I' for Inactive)
REMARK    1  A    between atoms: C2_2  and  C3_3 
REMARK    2  A    between atoms: C2_2  and  C9_12 
REMARK    3  A    between atoms: C3_3  and  C4_4 
REMARK    4  A    between atoms: C4_4  and  C5_5 
REMARK    5  A    between atoms: C6_6  and  C7_7 
REMARK    6  A    between atoms: C6_6  and  C8_9 
REMARK    7  A    between atoms: C7_7  and  O1_8 
REMARK    8  A    between atoms: C8_9  and  O3_11 
ROOT
HETATM    1  C9  UNL     1       5.937  55.998  -8.095  1.00  0.00    -0.002 C 
HETATM    2  C10 UNL     1       6.763  54.780  -8.599  1.00  0.00     0.006 C 
HETATM    3  C11 UNL     1       5.775  53.821  -9.305  1.00  0.00     0.011 C 
HETATM    4  C12 UNL     1       4.472  54.626  -9.445  1.00  0.00    -0.032 C 
HETATM    5  C13 UNL     1       4.627  55.506 -10.736  1.00  0.00     0.016 C 
HETATM    6  C14 UNL     1       3.157  53.803  -9.534  1.00  0.00     0.004 C 
HETATM    7  C15 UNL     1       3.126  52.816 -10.715  1.00  0.00     0.007 C 
HETATM    8  C16 UNL     1       1.763  52.162 -10.981  1.00  0.00     0.007 C 
HETATM    9  C17 UNL     1       0.631  52.564 -10.016  1.00  0.00     0.010 C 
HETATM   10  C18 UNL     1      -0.778  51.956 -10.374  1.00  0.00     0.018 C 
HETATM   11  C19 UNL     1      -1.415  51.294  -9.131  1.00  0.00     0.023 C 
HETATM   12  C20 UNL     1      -0.729  50.860 -11.460  1.00  0.00     0.023 C 
HETATM   13  C21 UNL     1      -1.741  53.060 -10.840  1.00  0.00     0.135 C 
HETATM   14  O4  UNL     1      -2.457  52.928 -11.837  1.00  0.00    -0.297 OA
HETATM   15  C22 UNL     1      -1.884  54.301  -9.986  1.00  0.00     0.080 C 
HETATM   16  C23 UNL     1      -0.674  54.546  -9.099  1.00  0.00     0.018 C 
HETATM   17  C24 UNL     1       0.587  54.092  -9.796  1.00  0.00    -0.026 A 
HETATM   18  C25 UNL     1       1.189  55.073 -10.783  1.00  0.00     0.021 A 
HETATM   19  C26 UNL     1       1.941  54.759  -9.499  1.00  0.00    -0.027 A 
HETATM   20  C27 UNL     1       1.984  55.844  -8.411  1.00  0.00     0.011 C 
HETATM   21  C28 UNL     1       3.361  56.494  -8.179  1.00  0.00     0.011 C 
HETATM   22  C29 UNL     1       4.480  55.445  -8.098  1.00  0.00    -0.032 C 
HETATM   23  C30 UNL     1       4.247  54.590  -6.816  1.00  0.00     0.016 C 
ENDROOT
BRANCH   1  24
HETATM   24  C2  UNL     1       6.454  56.716  -6.814  1.00  0.00    -0.014 C 
HETATM   25  C1  UNL     1       5.462  57.660  -6.126  1.00  0.00     0.010 C 
BRANCH  24  26
HETATM   26  C3  UNL     1       7.013  55.710  -5.767  1.00  0.00     0.008 C 
BRANCH  26  27
HETATM   27  C4  UNL     1       8.540  55.671  -5.639  1.00  0.00     0.028 C 
BRANCH  27  28
HETATM   28  C5  UNL     1       9.170  56.997  -5.294  1.00  0.00    -0.011 C 
HETATM   29  C6  UNL     1      10.416  57.238  -4.826  1.00  0.00     0.035 C 
BRANCH  29  30
HETATM   30  C7  UNL     1      11.480  56.223  -4.497  1.00  0.00     0.209 C 
BRANCH  30  31
HETATM   31  O1  UNL     1      12.686  56.459  -5.223  1.00  0.00    -0.396 OA
HETATM   32  H12 UNL     1      12.430  56.605  -6.152  1.00  0.00     0.209 HD
ENDBRANCH  30  31
ENDBRANCH  29  30
BRANCH  29  33
HETATM   33  C8  UNL     1      10.857  58.643  -4.615  1.00  0.00     0.173 C 
HETATM   34  O2  UNL     1      11.618  59.032  -3.743  1.00  0.00    -0.646 OA
BRANCH  33  35
HETATM   35  O3  UNL     1      10.295  59.518  -5.473  1.00  0.00    -0.773 OA
HETATM   36  H13 UNL     1      10.678  60.380  -5.208  1.00  0.00     0.167 HD
ENDBRANCH  33  35
ENDBRANCH  29  33
ENDBRANCH  27  28
ENDBRANCH  26  27
ENDBRANCH  24  26
ENDBRANCH   1  24
TORSDOF 8
ENDMDL
MODEL 2
REMARK minimizedAffinity -8.40991211
REMARK CNNscore 0.56565094
REMARK CNNaffinity 7.08411169
REMARK  8 active torsions:
REMARK  status: ('A' for Active; 'I' for Inactive)
REMARK    1  A    between atoms: C2_2  and  C3_3 
REMARK    2  A    between atoms: C2_2  and  C9_12 
REMARK    3  A    between atoms: C3_3  and  C4_4 
REMARK    4  A    between atoms: C4_4  and  C5_5 
REMARK    5  A    between atoms: C6_6  and  C7_7 
REMARK    6  A    between atoms: C6_6  and  C8_9 
REMARK    7  A    between atoms: C7_7  and  O1_8 
REMARK    8  A    between atoms: C8_9  and  O3_11 
ROOT
HETATM    1  C9  UNL     1      -2.529  48.404 -19.253  1.00  0.00    -0.002 C 
HETATM    2  C10 UNL     1      -1.394  49.214 -18.564  1.00  0.00     0.006 C 
HETATM    3  C11 UNL     1      -0.855  50.221 -19.609  1.00  0.00     0.011 C 
HETATM    4  C12 UNL     1      -1.865  50.170 -20.768  1.00  0.00    -0.032 C 
HETATM    5  C13 UNL     1      -3.047  51.126 -20.372  1.00  0.00     0.016 C 
HETATM    6  C14 UNL     1      -1.328  50.563 -22.171  1.00  0.00     0.004 C 
HETATM    7  C15 UNL     1      -0.748  51.987 -22.232  1.00  0.00     0.007 C 
HETATM    8  C16 UNL     1      -0.429  52.501 -23.644  1.00  0.00     0.007 C 
HETATM    9  C17 UNL     1      -0.709  51.511 -24.792  1.00  0.00     0.010 C 
HETATM   10  C18 UNL     1      -0.469  52.100 -26.233  1.00  0.00     0.018 C 
HETATM   11  C19 UNL     1       0.415  51.146 -27.068  1.00  0.00     0.023 C 
HETATM   12  C20 UNL     1       0.256  53.464 -26.240  1.00  0.00     0.023 C 
HETATM   13  C21 UNL     1      -1.801  52.253 -26.985  1.00  0.00     0.135 C 
HETATM   14  O4  UNL     1      -2.083  53.276 -27.617  1.00  0.00    -0.297 OA
HETATM   15  C22 UNL     1      -2.745  51.072 -27.029  1.00  0.00     0.080 C 
HETATM   16  C23 UNL     1      -2.522  50.098 -25.883  1.00  0.00     0.018 C 
HETATM   17  C24 UNL     1      -2.093  50.843 -24.640  1.00  0.00    -0.026 A 
HETATM   18  C25 UNL     1      -3.209  51.458 -23.818  1.00  0.00     0.021 A 
HETATM   19  C26 UNL     1      -2.416  50.297 -23.238  1.00  0.00    -0.027 A 
HETATM   20  C27 UNL     1      -3.115  48.930 -23.143  1.00  0.00     0.011 C 
HETATM   21  C28 UNL     1      -3.437  48.450 -21.716  1.00  0.00     0.011 C 
HETATM   22  C29 UNL     1      -2.244  48.640 -20.768  1.00  0.00    -0.032 C 
HETATM   23  C30 UNL     1      -1.101  47.688 -21.235  1.00  0.00     0.016 C 
ENDROOT
BRANCH   1  24
HETATM   24  C2  UNL     1      -2.749  46.944 -18.760  1.00  0.00    -0.014 C 
HETATM   25  C1  UNL     1      -2.957  46.767 -17.253  1.00  0.00     0.010 C 
BRANCH  24  26
HETATM   26  C3  UNL     1      -3.908  46.239 -19.522  1.00  0.00     0.008 C 
BRANCH  26  27
HETATM   27  C4  UNL     1      -4.599  45.099 -18.765  1.00  0.00     0.028 C 
BRANCH  27  28
HETATM   28  C5  UNL     1      -3.906  43.765 -18.882  1.00  0.00    -0.011 C 
HETATM   29  C6  UNL     1      -4.296  42.570 -18.381  1.00  0.00     0.035 C 
BRANCH  29  30
HETATM   30  C7  UNL     1      -5.514  42.285 -17.542  1.00  0.00     0.209 C 
BRANCH  30  31
HETATM   31  O1  UNL     1      -5.168  41.866 -16.223  1.00  0.00    -0.396 OA
HETATM   32  H12 UNL     1      -4.479  41.184 -16.317  1.00  0.00     0.209 HD
ENDBRANCH  30  31
ENDBRANCH  29  30
BRANCH  29  33
HETATM   33  C8  UNL     1      -3.488  41.357 -18.678  1.00  0.00     0.173 C 
HETATM   34  O2  UNL     1      -2.323  41.344 -19.044  1.00  0.00    -0.646 OA
BRANCH  33  35
HETATM   35  O3  UNL     1      -4.178  40.206 -18.552  1.00  0.00    -0.773 OA
HETATM   36  H13 UNL     1      -3.520  39.516 -18.777  1.00  0.00     0.167 HD
ENDBRANCH  33  35
ENDBRANCH  29  33
ENDBRANCH  27  28
ENDBRANCH  26  27
ENDBRANCH  24  26
ENDBRANCH   1  24
TORSDOF 8
ENDMDL
MODEL 3
REMARK minimizedAffinity -7.26576328
REMARK CNNscore 0.412149131
REMARK CNNaffinity 5.68246412
REMARK  8 active torsions:
REMARK  status: ('A' for Active; 'I' for Inactive)
REMARK    1  A    between atoms: C2_2  and  C3_3 
REMARK    2  A    between atoms: C2_2  and  C9_12 
REMARK    3  A    between atoms: C3_3  and  C4_4 
REMARK    4  A    between atoms: C4_4  and  C5_5 
REMARK    5  A    between atoms: C6_6  and  C7_7 
REMARK    6  A    between atoms: C6_6  and  C8_9 
REMARK    7  A    between atoms: C7_7  and  O1_8 
REMARK    8  A    between atoms: C8_9  and  O3_11 
ROOT
HETATM    1  C9  UNL     1     -14.218  44.890 -26.186  1.00  0.00    -0.002 C 
HETATM    2  C10 UNL     1     -15.137  44.793 -27.438  1.00  0.00     0.006 C 
HETATM    3  C11 UNL     1     -14.286  45.212 -28.660  1.00  0.00     0.011 C 
HETATM    4  C12 UNL     1     -12.840  45.264 -28.139  1.00  0.00    -0.032 C 
HETATM    5  C13 UNL     1     -12.293  43.793 -28.191  1.00  0.00     0.016 C 
HETATM    6  C14 UNL     1     -11.864  46.206 -28.897  1.00  0.00     0.004 C 
HETATM    7  C15 UNL     1     -11.720  45.871 -30.392  1.00  0.00     0.007 C 
HETATM    8  C16 UNL     1     -10.594  46.617 -31.121  1.00  0.00     0.007 C 
HETATM    9  C17 UNL     1      -9.789  47.612 -30.262  1.00  0.00     0.010 C 
HETATM   10  C18 UNL     1      -8.577  48.287 -31.009  1.00  0.00     0.018 C 
HETATM   11  C19 UNL     1      -8.614  49.821 -30.826  1.00  0.00     0.023 C 
HETATM   12  C20 UNL     1      -8.568  48.043 -32.535  1.00  0.00     0.023 C 
HETATM   13  C21 UNL     1      -7.242  47.796 -30.430  1.00  0.00     0.135 C 
HETATM   14  O4  UNL     1      -6.301  47.450 -31.151  1.00  0.00    -0.297 OA
HETATM   15  C22 UNL     1      -7.047  47.836 -28.930  1.00  0.00     0.080 C 
HETATM   16  C23 UNL     1      -8.362  47.824 -28.166  1.00  0.00     0.018 C 
HETATM   17  C24 UNL     1      -9.388  46.995 -28.904  1.00  0.00    -0.026 A 
HETATM   18  C25 UNL     1      -9.316  45.497 -28.681  1.00  0.00     0.021 A 
HETATM   19  C26 UNL     1     -10.513  46.269 -28.147  1.00  0.00    -0.027 A 
HETATM   20  C27 UNL     1     -10.609  46.480 -26.627  1.00  0.00     0.011 C 
HETATM   21  C28 UNL     1     -11.737  45.705 -25.921  1.00  0.00     0.011 C 
HETATM   22  C29 UNL     1     -13.067  45.818 -26.681  1.00  0.00    -0.032 C 
HETATM   23  C30 UNL     1     -13.534  47.304 -26.616  1.00  0.00     0.016 C 
ENDROOT
BRANCH   1  24
HETATM   24  C2  UNL     1     -14.909  45.225 -24.832  1.00  0.00    -0.014 C 
HETATM   25  C1  UNL     1     -13.973  45.539 -23.660  1.00  0.00     0.010 C 
BRANCH  24  26
HETATM   26  C3  UNL     1     -15.950  46.371 -24.976  1.00  0.00     0.008 C 
BRANCH  26  27
HETATM   27  C4  UNL     1     -16.593  46.848 -23.668  1.00  0.00     0.028 C 
BRANCH  27  28
HETATM   28  C5  UNL     1     -17.580  45.878 -23.070  1.00  0.00    -0.011 C 
HETATM   29  C6  UNL     1     -18.836  45.594 -23.487  1.00  0.00     0.035 C 
BRANCH  29  30
HETATM   30  C7  UNL     1     -19.575  46.214 -24.644  1.00  0.00     0.209 C 
BRANCH  30  31
HETATM   31  O1  UNL     1     -19.229  47.586 -24.826  1.00  0.00    -0.396 OA
HETATM   32  H12 UNL     1     -19.272  48.005 -23.947  1.00  0.00     0.209 HD
ENDBRANCH  30  31
ENDBRANCH  29  30
BRANCH  29  33
HETATM   33  C8  UNL     1     -19.618  44.543 -22.783  1.00  0.00     0.173 C 
HETATM   34  O2  UNL     1     -20.053  43.518 -23.284  1.00  0.00    -0.646 OA
BRANCH  33  35
HETATM   35  O3  UNL     1     -19.869  44.833 -21.491  1.00  0.00    -0.773 OA
HETATM   36  H13 UNL     1     -20.383  44.060 -21.176  1.00  0.00     0.167 HD
ENDBRANCH  33  35
ENDBRANCH  29  33
ENDBRANCH  27  28
ENDBRANCH  26  27
ENDBRANCH  24  26
ENDBRANCH   1  24
TORSDOF 8
ENDMDL
MODEL 4
REMARK minimizedAffinity -8.34806538
REMARK CNNscore 0.286195785
REMARK CNNaffinity 6.74243689
REMARK  8 active torsions:
REMARK  status: ('A' for Active; 'I' for Inactive)
REMARK    1  A    between atoms: C2_2  and  C3_3 
REMARK    2  A    between atoms: C2_2  and  C9_12 
REMARK    3  A    between atoms: C3_3  and  C4_4 
REMARK    4  A    between atoms: C4_4  and  C5_5 
REMARK    5  A    between atoms: C6_6  and  C7_7 
REMARK    6  A    between atoms: C6_6  and  C8_9 
REMARK    7  A    between atoms: C7_7  and  O1_8 
REMARK    8  A    between atoms: C8_9  and  O3_11 
ROOT
HETATM    1  C9  UNL     1      -3.351  47.928 -19.890  1.00  0.00    -0.002 C 
HETATM    2  C10 UNL     1      -2.269  48.645 -19.034  1.00  0.00     0.006 C 
HETATM    3  C11 UNL     1      -1.609  49.714 -19.937  1.00  0.00     0.011 C 
HETATM    4  C12 UNL     1      -2.505  49.788 -21.185  1.00  0.00    -0.032 C 
HETATM    5  C13 UNL     1      -3.696  50.746 -20.824  1.00  0.00     0.016 C 
HETATM    6  C14 UNL     1      -1.827  50.275 -22.495  1.00  0.00     0.004 C 
HETATM    7  C15 UNL     1      -1.210  51.680 -22.384  1.00  0.00     0.007 C 
HETATM    8  C16 UNL     1      -0.746  52.294 -23.713  1.00  0.00     0.007 C 
HETATM    9  C17 UNL     1      -0.938  51.409 -24.959  1.00  0.00     0.010 C 
HETATM   10  C18 UNL     1      -0.548  52.103 -26.319  1.00  0.00     0.018 C 
HETATM   11  C19 UNL     1       0.389  51.192 -27.143  1.00  0.00     0.023 C 
HETATM   12  C20 UNL     1       0.207  53.440 -26.145  1.00  0.00     0.023 C 
HETATM   13  C21 UNL     1      -1.797  52.358 -27.176  1.00  0.00     0.135 C 
HETATM   14  O4  UNL     1      -1.994  53.435 -27.746  1.00  0.00    -0.297 OA
HETATM   15  C22 UNL     1      -2.761  51.214 -27.406  1.00  0.00     0.080 C 
HETATM   16  C23 UNL     1      -2.671  50.145 -26.328  1.00  0.00     0.018 C 
HETATM   17  C24 UNL     1      -2.345  50.774 -24.993  1.00  0.00    -0.026 A 
HETATM   18  C25 UNL     1      -3.520  51.357 -24.231  1.00  0.00     0.021 A 
HETATM   19  C26 UNL     1      -2.814  50.128 -23.677  1.00  0.00    -0.027 A 
HETATM   20  C27 UNL     1      -3.551  48.781 -23.761  1.00  0.00     0.011 C 
HETATM   21  C28 UNL     1      -4.019  48.199 -22.414  1.00  0.00     0.011 C 
HETATM   22  C29 UNL     1      -2.917  48.275 -21.347  1.00  0.00    -0.032 C 
HETATM   23  C30 UNL     1      -1.758  47.329 -21.782  1.00  0.00     0.016 C 
ENDROOT
BRANCH   1  24
HETATM   24  C2  UNL     1      -3.652  46.441 -19.542  1.00  0.00    -0.014 C 
HETATM   25  C1  UNL     1      -3.129  45.948 -18.188  1.00  0.00     0.010 C 
BRANCH  24  26
HETATM   26  C3  UNL     1      -5.168  46.110 -19.655  1.00  0.00     0.008 C 
BRANCH  26  27
HETATM   27  C4  UNL     1      -6.103  47.322 -19.747  1.00  0.00     0.028 C 
BRANCH  27  28
HETATM   28  C5  UNL     1      -7.161  47.375 -18.675  1.00  0.00    -0.011 C 
HETATM   29  C6  UNL     1      -8.465  47.716 -18.798  1.00  0.00     0.035 C 
BRANCH  29  30
HETATM   30  C7  UNL     1      -9.176  48.169 -20.046  1.00  0.00     0.209 C 
BRANCH  30  31
HETATM   31  O1  UNL     1     -10.375  47.431 -20.276  1.00  0.00    -0.396 OA
HETATM   32  H12 UNL     1     -10.150  46.489 -20.165  1.00  0.00     0.209 HD
ENDBRANCH  30  31
ENDBRANCH  29  30
BRANCH  29  33
HETATM   33  C8  UNL     1      -9.356  47.631 -17.610  1.00  0.00     0.173 C 
HETATM   34  O2  UNL     1     -10.036  46.668 -17.292  1.00  0.00    -0.646 OA
BRANCH  33  35
HETATM   35  O3  UNL     1      -9.403  48.770 -16.890  1.00  0.00    -0.773 OA
HETATM   36  H13 UNL     1     -10.020  48.556 -16.159  1.00  0.00     0.167 HD
ENDBRANCH  33  35
ENDBRANCH  29  33
ENDBRANCH  27  28
ENDBRANCH  26  27
ENDBRANCH  24  26
ENDBRANCH   1  24
TORSDOF 8
ENDMDL
MODEL 5
REMARK minimizedAffinity -7.75540638
REMARK CNNscore 0.263559222
REMARK CNNaffinity 5.36775398
REMARK  8 active torsions:
REMARK  status: ('A' for Active; 'I' for Inactive)
REMARK    1  A    between atoms: C2_2  and  C3_3 
REMARK    2  A    between atoms: C2_2  and  C9_12 
REMARK    3  A    between atoms: C3_3  and  C4_4 
REMARK    4  A    between atoms: C4_4  and  C5_5 
REMARK    5  A    between atoms: C6_6  and  C7_7 
REMARK    6  A    between atoms: C6_6  and  C8_9 
REMARK    7  A    between atoms: C7_7  and  O1_8 
REMARK    8  A    between atoms: C8_9  and  O3_11 
ROOT
HETATM    1  C9  UNL     1       3.359  66.308 -37.040  1.00  0.00    -0.002 C 
HETATM    2  C10 UNL     1       2.104  66.517 -36.147  1.00  0.00     0.006 C 
HETATM    3  C11 UNL     1       1.093  67.349 -36.970  1.00  0.00     0.011 C 
HETATM    4  C12 UNL     1       1.658  67.359 -38.401  1.00  0.00    -0.032 C 
HETATM    5  C13 UNL     1       1.189  66.020 -39.075  1.00  0.00     0.016 C 
HETATM    6  C14 UNL     1       1.250  68.561 -39.297  1.00  0.00     0.004 C 
HETATM    7  C15 UNL     1      -0.271  68.701 -39.486  1.00  0.00     0.007 C 
HETATM    8  C16 UNL     1      -0.704  69.720 -40.550  1.00  0.00     0.007 C 
HETATM    9  C17 UNL     1       0.440  70.473 -41.256  1.00  0.00     0.010 C 
HETATM   10  C18 UNL     1      -0.028  71.436 -42.411  1.00  0.00     0.018 C 
HETATM   11  C19 UNL     1       0.602  72.837 -42.239  1.00  0.00     0.023 C 
HETATM   12  C20 UNL     1      -1.555  71.661 -42.458  1.00  0.00     0.023 C 
HETATM   13  C21 UNL     1       0.427  70.903 -43.779  1.00  0.00     0.135 C 
HETATM   14  O4  UNL     1      -0.331  70.866 -44.754  1.00  0.00    -0.297 OA
HETATM   15  C22 UNL     1       1.876  70.507 -43.954  1.00  0.00     0.080 C 
HETATM   16  C23 UNL     1       2.554  70.161 -42.637  1.00  0.00     0.018 C 
HETATM   17  C24 UNL     1       1.567  69.512 -41.695  1.00  0.00    -0.026 A 
HETATM   18  C25 UNL     1       1.337  68.027 -41.896  1.00  0.00     0.021 A 
HETATM   19  C26 UNL     1       2.032  68.504 -40.631  1.00  0.00    -0.027 A 
HETATM   20  C27 UNL     1       3.542  68.242 -40.501  1.00  0.00     0.011 C 
HETATM   21  C28 UNL     1       3.944  67.203 -39.438  1.00  0.00     0.011 C 
HETATM   22  C29 UNL     1       3.205  67.431 -38.111  1.00  0.00    -0.032 C 
HETATM   23  C30 UNL     1       3.693  68.786 -37.515  1.00  0.00     0.016 C 
ENDROOT
BRANCH   1  24
HETATM   24  C2  UNL     1       4.727  66.165 -36.309  1.00  0.00    -0.014 C 
HETATM   25  C1  UNL     1       4.791  66.729 -34.886  1.00  0.00     0.010 C 
BRANCH  24  26
HETATM   26  C3  UNL     1       5.230  64.693 -36.298  1.00  0.00     0.008 C 
BRANCH  26  27
HETATM   27  C4  UNL     1       5.096  63.959 -34.958  1.00  0.00     0.028 C 
BRANCH  27  28
HETATM   28  C5  UNL     1       6.066  62.820 -34.772  1.00  0.00    -0.011 C 
HETATM   29  C6  UNL     1       7.362  62.876 -34.385  1.00  0.00     0.035 C 
BRANCH  29  30
HETATM   30  C7  UNL     1       8.170  64.109 -34.076  1.00  0.00     0.209 C 
BRANCH  30  31
HETATM   31  O1  UNL     1       9.268  63.825 -33.211  1.00  0.00    -0.396 OA
HETATM   32  H12 UNL     1       8.917  63.284 -32.479  1.00  0.00     0.209 HD
ENDBRANCH  30  31
ENDBRANCH  29  30
BRANCH  29  33
HETATM   33  C8  UNL     1       8.122  61.610 -34.198  1.00  0.00     0.173 C 
HETATM   34  O2  UNL     1       8.517  60.874 -35.089  1.00  0.00    -0.646 OA
BRANCH  33  35
HETATM   35  O3  UNL     1       8.320  61.287 -32.905  1.00  0.00    -0.773 OA
HETATM   36  H13 UNL     1       8.822  60.447 -32.951  1.00  0.00     0.167 HD
ENDBRANCH  33  35
ENDBRANCH  29  33
ENDBRANCH  27  28
ENDBRANCH  26  27
ENDBRANCH  24  26
ENDBRANCH   1  24
TORSDOF 8
ENDMDL
MODEL 6
REMARK minimizedAffinity -7.8221693
REMARK CNNscore 0.255402148
REMARK CNNaffinity 5.38439941
REMARK  8 active torsions:
REMARK  status: ('A' for Active; 'I' for Inactive)
REMARK    1  A    between atoms: C2_2  and  C3_3 
REMARK    2  A    between atoms: C2_2  and  C9_12 
REMARK    3  A    between atoms: C3_3  and  C4_4 
REMARK    4  A    between atoms: C4_4  and  C5_5 
REMARK    5  A    between atoms: C6_6  and  C7_7 
REMARK    6  A    between atoms: C6_6  and  C8_9 
REMARK    7  A    between atoms: C7_7  and  O1_8 
REMARK    8  A    between atoms: C8_9  and  O3_11 
ROOT
HETATM    1  C9  UNL     1       5.916  66.368 -35.045  1.00  0.00    -0.002 C 
HETATM    2  C10 UNL     1       7.092  67.278 -35.503  1.00  0.00     0.006 C 
HETATM    3  C11 UNL     1       6.538  68.220 -36.599  1.00  0.00     0.011 C 
HETATM    4  C12 UNL     1       5.012  68.033 -36.549  1.00  0.00    -0.032 C 
HETATM    5  C13 UNL     1       4.485  68.966 -35.402  1.00  0.00     0.016 C 
HETATM    6  C14 UNL     1       4.235  68.334 -37.860  1.00  0.00     0.004 C 
HETATM    7  C15 UNL     1       4.428  69.772 -38.374  1.00  0.00     0.007 C 
HETATM    8  C16 UNL     1       3.496  70.183 -39.523  1.00  0.00     0.007 C 
HETATM    9  C17 UNL     1       2.524  69.093 -40.015  1.00  0.00     0.010 C 
HETATM   10  C18 UNL     1       1.513  69.574 -41.124  1.00  0.00     0.018 C 
HETATM   11  C19 UNL     1       1.514  68.594 -42.319  1.00  0.00     0.023 C 
HETATM   12  C20 UNL     1       1.844  70.962 -41.714  1.00  0.00     0.023 C 
HETATM   13  C21 UNL     1       0.079  69.610 -40.572  1.00  0.00     0.135 C 
HETATM   14  O4  UNL     1      -0.677  70.565 -40.772  1.00  0.00    -0.297 OA
HETATM   15  C22 UNL     1      -0.446  68.390 -39.848  1.00  0.00     0.080 C 
HETATM   16  C23 UNL     1       0.664  67.521 -39.277  1.00  0.00     0.018 C 
HETATM   17  C24 UNL     1       1.826  68.381 -38.836  1.00  0.00    -0.026 A 
HETATM   18  C25 UNL     1       1.699  69.013 -37.463  1.00  0.00     0.021 A 
HETATM   19  C26 UNL     1       2.750  67.937 -37.689  1.00  0.00    -0.027 A 
HETATM   20  C27 UNL     1       2.504  66.553 -37.062  1.00  0.00     0.011 C 
HETATM   21  C28 UNL     1       3.442  66.177 -35.901  1.00  0.00     0.011 C 
HETATM   22  C29 UNL     1       4.909  66.493 -36.229  1.00  0.00    -0.032 C 
HETATM   23  C30 UNL     1       5.356  65.556 -37.392  1.00  0.00     0.016 C 
ENDROOT
BRANCH   1  24
HETATM   24  C2  UNL     1       6.287  64.944 -34.536  1.00  0.00    -0.014 C 
HETATM   25  C1  UNL     1       5.196  64.202 -33.759  1.00  0.00     0.010 C 
BRANCH  24  26
HETATM   26  C3  UNL     1       6.806  64.031 -35.685  1.00  0.00     0.008 C 
BRANCH  26  27
HETATM   27  C4  UNL     1       8.329  63.870 -35.763  1.00  0.00     0.028 C 
BRANCH  27  28
HETATM   28  C5  UNL     1       8.975  63.434 -34.472  1.00  0.00    -0.011 C 
HETATM   29  C6  UNL     1       9.097  62.181 -33.975  1.00  0.00     0.035 C 
BRANCH  29  30
HETATM   30  C7  UNL     1       8.577  60.904 -34.582  1.00  0.00     0.209 C 
BRANCH  30  31
HETATM   31  O1  UNL     1       7.307  60.537 -34.045  1.00  0.00    -0.396 OA
HETATM   32  H12 UNL     1       7.379  60.615 -33.076  1.00  0.00     0.209 HD
ENDBRANCH  30  31
ENDBRANCH  29  30
BRANCH  29  33
HETATM   33  C8  UNL     1       9.840  61.970 -32.704  1.00  0.00     0.173 C 
HETATM   34  O2  UNL     1      10.991  62.312 -32.482  1.00  0.00    -0.646 OA
BRANCH  33  35
HETATM   35  O3  UNL     1       9.135  61.297 -31.774  1.00  0.00    -0.773 OA
HETATM   36  H13 UNL     1       9.750  61.240 -31.013  1.00  0.00     0.167 HD
ENDBRANCH  33  35
ENDBRANCH  29  33
ENDBRANCH  27  28
ENDBRANCH  26  27
ENDBRANCH  24  26
ENDBRANCH   1  24
TORSDOF 8
ENDMDL
MODEL 7
REMARK minimizedAffinity -7.18603945
REMARK CNNscore 0.252065539
REMARK CNNaffinity 6.45656204
REMARK  8 active torsions:
REMARK  status: ('A' for Active; 'I' for Inactive)
REMARK    1  A    between atoms: C2_2  and  C3_3 
REMARK    2  A    between atoms: C2_2  and  C9_12 
REMARK    3  A    between atoms: C3_3  and  C4_4 
REMARK    4  A    between atoms: C4_4  and  C5_5 
REMARK    5  A    between atoms: C6_6  and  C7_7 
REMARK    6  A    between atoms: C6_6  and  C8_9 
REMARK    7  A    between atoms: C7_7  and  O1_8 
REMARK    8  A    between atoms: C8_9  and  O3_11 
ROOT
HETATM    1  C9  UNL     1      -0.187  49.586 -15.017  1.00  0.00    -0.002 C 
HETATM    2  C10 UNL     1       1.069  48.671 -15.078  1.00  0.00     0.006 C 
HETATM    3  C11 UNL     1       2.064  49.193 -14.015  1.00  0.00     0.011 C 
HETATM    4  C12 UNL     1       1.260  50.203 -13.179  1.00  0.00    -0.032 C 
HETATM    5  C13 UNL     1       0.469  49.368 -12.110  1.00  0.00     0.016 C 
HETATM    6  C14 UNL     1       2.076  51.316 -12.466  1.00  0.00     0.004 C 
HETATM    7  C15 UNL     1       3.138  50.775 -11.493  1.00  0.00     0.007 C 
HETATM    8  C16 UNL     1       3.797  51.832 -10.595  1.00  0.00     0.007 C 
HETATM    9  C17 UNL     1       3.323  53.282 -10.814  1.00  0.00     0.010 C 
HETATM   10  C18 UNL     1       3.940  54.328  -9.811  1.00  0.00     0.018 C 
HETATM   11  C19 UNL     1       4.513  55.541 -10.578  1.00  0.00     0.023 C 
HETATM   12  C20 UNL     1       5.107  53.772  -8.966  1.00  0.00     0.023 C 
HETATM   13  C21 UNL     1       2.863  54.866  -8.857  1.00  0.00     0.135 C 
HETATM   14  O4  UNL     1       3.054  54.970  -7.642  1.00  0.00    -0.297 OA
HETATM   15  C22 UNL     1       1.566  55.377  -9.446  1.00  0.00     0.080 C 
HETATM   16  C23 UNL     1       1.272  54.788 -10.818  1.00  0.00     0.018 C 
HETATM   17  C24 UNL     1       1.783  53.369 -10.898  1.00  0.00    -0.026 A 
HETATM   18  C25 UNL     1       0.875  52.304 -10.314  1.00  0.00     0.021 A 
HETATM   19  C26 UNL     1       1.109  52.335 -11.816  1.00  0.00    -0.027 A 
HETATM   20  C27 UNL     1      -0.046  52.814 -12.711  1.00  0.00     0.011 C 
HETATM   21  C28 UNL     1      -0.698  51.728 -13.588  1.00  0.00     0.011 C 
HETATM   22  C29 UNL     1       0.353  50.856 -14.290  1.00  0.00    -0.032 C 
HETATM   23  C30 UNL     1       1.119  51.752 -15.310  1.00  0.00     0.016 C 
ENDROOT
BRANCH   1  24
HETATM   24  C2  UNL     1      -0.985  49.775 -16.341  1.00  0.00    -0.014 C 
HETATM   25  C1  UNL     1      -2.181  50.730 -16.275  1.00  0.00     0.010 C 
BRANCH  24  26
HETATM   26  C3  UNL     1      -0.063  50.191 -17.523  1.00  0.00     0.008 C 
BRANCH  26  27
HETATM   27  C4  UNL     1      -0.707  50.138 -18.913  1.00  0.00     0.028 C 
BRANCH  27  28
HETATM   28  C5  UNL     1      -0.084  51.066 -19.924  1.00  0.00    -0.011 C 
HETATM   29  C6  UNL     1      -0.334  51.155 -21.251  1.00  0.00     0.035 C 
BRANCH  29  30
HETATM   30  C7  UNL     1      -1.284  50.309 -22.058  1.00  0.00     0.209 C 
BRANCH  30  31
HETATM   31  O1  UNL     1      -2.544  50.952 -22.245  1.00  0.00    -0.396 OA
HETATM   32  H12 UNL     1      -2.821  51.287 -21.372  1.00  0.00     0.209 HD
ENDBRANCH  30  31
ENDBRANCH  29  30
BRANCH  29  33
HETATM   33  C8  UNL     1       0.353  52.201 -22.055  1.00  0.00     0.173 C 
HETATM   34  O2  UNL     1       0.502  52.189 -23.267  1.00  0.00    -0.646 OA
BRANCH  33  35
HETATM   35  O3  UNL     1       0.870  53.198 -21.311  1.00  0.00    -0.773 OA
HETATM   36  H13 UNL     1       1.280  53.792 -21.974  1.00  0.00     0.167 HD
ENDBRANCH  33  35
ENDBRANCH  29  33
ENDBRANCH  27  28
ENDBRANCH  26  27
ENDBRANCH  24  26
ENDBRANCH   1  24
TORSDOF 8
ENDMDL
MODEL 8
REMARK minimizedAffinity -9.06346703
REMARK CNNscore 0.214424133
REMARK CNNaffinity 6.4098587
REMARK  8 active torsions:
REMARK  status: ('A' for Active; 'I' for Inactive)
REMARK    1  A    between atoms: C2_2  and  C3_3 
REMARK    2  A    between atoms: C2_2  and  C9_12 
REMARK    3  A    between atoms: C3_3  and  C4_4 
REMARK    4  A    between atoms: C4_4  and  C5_5 
REMARK    5  A    between atoms: C6_6  and  C7_7 
REMARK    6  A    between atoms: C6_6  and  C8_9 
REMARK    7  A    between atoms: C7_7  and  O1_8 
REMARK    8  A    between atoms: C8_9  and  O3_11 
ROOT
HETATM    1  C9  UNL     1      -4.144  47.726 -20.781  1.00  0.00    -0.002 C 
HETATM    2  C10 UNL     1      -3.413  48.301 -19.534  1.00  0.00     0.006 C 
HETATM    3  C11 UNL     1      -2.515  49.460 -20.027  1.00  0.00     0.011 C 
HETATM    4  C12 UNL     1      -2.956  49.715 -21.478  1.00  0.00    -0.032 C 
HETATM    5  C13 UNL     1      -4.217  50.648 -21.405  1.00  0.00     0.016 C 
HETATM    6  C14 UNL     1      -1.897  50.349 -22.422  1.00  0.00     0.004 C 
HETATM    7  C15 UNL     1      -1.375  51.712 -21.936  1.00  0.00     0.007 C 
HETATM    8  C16 UNL     1      -0.515  52.480 -22.950  1.00  0.00     0.007 C 
HETATM    9  C17 UNL     1      -0.274  51.766 -24.294  1.00  0.00     0.010 C 
HETATM   10  C18 UNL     1       0.526  52.619 -25.351  1.00  0.00     0.018 C 
HETATM   11  C19 UNL     1       1.697  51.797 -25.935  1.00  0.00     0.023 C 
HETATM   12  C20 UNL     1       1.157  53.903 -24.770  1.00  0.00     0.023 C 
HETATM   13  C21 UNL     1      -0.380  53.012 -26.528  1.00  0.00     0.135 C 
HETATM   14  O4  UNL     1      -0.400  54.158 -26.986  1.00  0.00    -0.297 OA
HETATM   15  C22 UNL     1      -1.195  51.931 -27.204  1.00  0.00     0.080 C 
HETATM   16  C23 UNL     1      -1.442  50.731 -26.303  1.00  0.00     0.018 C 
HETATM   17  C24 UNL     1      -1.581  51.176 -24.866  1.00  0.00    -0.026 A 
HETATM   18  C25 UNL     1      -2.950  51.685 -24.459  1.00  0.00     0.021 A 
HETATM   19  C26 UNL     1      -2.441  50.379 -23.869  1.00  0.00    -0.027 A 
HETATM   20  C27 UNL     1      -3.086  49.072 -24.361  1.00  0.00     0.011 C 
HETATM   21  C28 UNL     1      -3.957  48.334 -23.327  1.00  0.00     0.011 C 
HETATM   22  C29 UNL     1      -3.265  48.246 -21.959  1.00  0.00    -0.032 C 
HETATM   23  C30 UNL     1      -2.010  47.335 -22.112  1.00  0.00     0.016 C 
ENDROOT
BRANCH   1  24
HETATM   24  C2  UNL     1      -4.514  46.215 -20.744  1.00  0.00    -0.014 C 
HETATM   25  C1  UNL     1      -4.497  45.551 -19.363  1.00  0.00     0.010 C 
BRANCH  24  26
HETATM   26  C3  UNL     1      -5.882  45.933 -21.429  1.00  0.00     0.008 C 
BRANCH  26  27
HETATM   27  C4  UNL     1      -6.869  47.106 -21.440  1.00  0.00     0.028 C 
BRANCH  27  28
HETATM   28  C5  UNL     1      -7.558  47.327 -22.763  1.00  0.00    -0.011 C 
HETATM   29  C6  UNL     1      -7.762  48.493 -23.420  1.00  0.00     0.035 C 
BRANCH  29  30
HETATM   30  C7  UNL     1      -7.377  49.876 -22.964  1.00  0.00     0.209 C 
BRANCH  30  31
HETATM   31  O1  UNL     1      -6.586  50.557 -23.937  1.00  0.00    -0.396 OA
HETATM   32  H12 UNL     1      -5.893  49.934 -24.222  1.00  0.00     0.209 HD
ENDBRANCH  30  31
ENDBRANCH  29  30
BRANCH  29  33
HETATM   33  C8  UNL     1      -8.411  48.472 -24.758  1.00  0.00     0.173 C 
HETATM   34  O2  UNL     1      -8.428  47.527 -25.531  1.00  0.00    -0.646 OA
BRANCH  33  35
HETATM   35  O3  UNL     1      -8.972  49.648 -25.102  1.00  0.00    -0.773 OA
HETATM   36  H13 UNL     1      -9.347  49.474 -25.991  1.00  0.00     0.167 HD
ENDBRANCH  33  35
ENDBRANCH  29  33
ENDBRANCH  27  28
ENDBRANCH  26  27
ENDBRANCH  24  26
ENDBRANCH   1  24
TORSDOF 8
ENDMDL
MODEL 9
REMARK minimizedAffinity -9.68477345
REMARK CNNscore 0.211252898
REMARK CNNaffinity 6.09462309
REMARK  8 active torsions:
REMARK  status: ('A' for Active; 'I' for Inactive)
REMARK    1  A    between atoms: C2_2  and  C3_3 
REMARK    2  A    between atoms: C2_2  and  C9_12 
REMARK    3  A    between atoms: C3_3  and  C4_4 
REMARK    4  A    between atoms: C4_4  and  C5_5 
REMARK    5  A    between atoms: C6_6  and  C7_7 
REMARK    6  A    between atoms: C6_6  and  C8_9 
REMARK    7  A    between atoms: C7_7  and  O1_8 
REMARK    8  A    between atoms: C8_9  and  O3_11 
ROOT
HETATM    1  C9  UNL     1      -5.768  48.159 -22.324  1.00  0.00    -0.002 C 
HETATM    2  C10 UNL     1      -5.624  49.002 -21.024  1.00  0.00     0.006 C 
HETATM    3  C11 UNL     1      -4.662  50.171 -21.344  1.00  0.00     0.011 C 
HETATM    4  C12 UNL     1      -4.499  50.144 -22.873  1.00  0.00    -0.032 C 
HETATM    5  C13 UNL     1      -5.729  50.920 -23.467  1.00  0.00     0.016 C 
HETATM    6  C14 UNL     1      -3.184  50.748 -23.439  1.00  0.00     0.004 C 
HETATM    7  C15 UNL     1      -2.968  52.222 -23.057  1.00  0.00     0.007 C 
HETATM    8  C16 UNL     1      -1.813  52.922 -23.788  1.00  0.00     0.007 C 
HETATM    9  C17 UNL     1      -1.020  52.044 -24.776  1.00  0.00     0.010 C 
HETATM   10  C18 UNL     1       0.092  52.814 -25.584  1.00  0.00     0.018 C 
HETATM   11  C19 UNL     1       1.438  52.058 -25.508  1.00  0.00     0.023 C 
HETATM   12  C20 UNL     1       0.375  54.238 -25.059  1.00  0.00     0.023 C 
HETATM   13  C21 UNL     1      -0.288  52.910 -27.070  1.00  0.00     0.135 C 
HETATM   14  O4  UNL     1      -0.179  53.961 -27.708  1.00  0.00    -0.297 OA
HETATM   15  C22 UNL     1      -0.710  51.648 -27.791  1.00  0.00     0.080 C 
HETATM   16  C23 UNL     1      -1.238  50.580 -26.845  1.00  0.00     0.018 C 
HETATM   17  C24 UNL     1      -1.960  51.221 -25.683  1.00  0.00    -0.026 A 
HETATM   18  C25 UNL     1      -3.401  51.619 -25.937  1.00  0.00     0.021 A 
HETATM   19  C26 UNL     1      -3.106  50.490 -24.962  1.00  0.00    -0.027 A 
HETATM   20  C27 UNL     1      -3.436  49.055 -25.408  1.00  0.00     0.011 C 
HETATM   21  C28 UNL     1      -4.610  48.386 -24.669  1.00  0.00     0.011 C 
HETATM   22  C29 UNL     1      -4.518  48.593 -23.150  1.00  0.00    -0.032 C 
HETATM   23  C30 UNL     1      -3.263  47.825 -22.634  1.00  0.00     0.016 C 
ENDROOT
BRANCH   1  24
HETATM   24  C2  UNL     1      -6.047  46.638 -22.148  1.00  0.00    -0.014 C 
HETATM   25  C1  UNL     1      -5.914  46.090 -20.724  1.00  0.00     0.010 C 
BRANCH  24  26
HETATM   26  C3  UNL     1      -7.433  46.229 -22.725  1.00  0.00     0.008 C 
BRANCH  26  27
HETATM   27  C4  UNL     1      -7.596  46.408 -24.240  1.00  0.00     0.028 C 
BRANCH  27  28
HETATM   28  C5  UNL     1      -8.625  47.436 -24.637  1.00  0.00    -0.011 C 
HETATM   29  C6  UNL     1      -8.862  47.957 -25.863  1.00  0.00     0.035 C 
BRANCH  29  30
HETATM   30  C7  UNL     1      -8.120  47.659 -27.140  1.00  0.00     0.209 C 
BRANCH  30  31
HETATM   31  O1  UNL     1      -8.297  48.688 -28.112  1.00  0.00    -0.396 OA
HETATM   32  H12 UNL     1      -9.251  48.883 -28.144  1.00  0.00     0.209 HD
ENDBRANCH  30  31
ENDBRANCH  29  30
BRANCH  29  33
HETATM   33  C8  UNL     1      -9.984  48.918 -26.043  1.00  0.00     0.173 C 
HETATM   34  O2  UNL     1     -11.133  48.629 -26.336  1.00  0.00    -0.646 OA
BRANCH  33  35
HETATM   35  O3  UNL     1      -9.617  50.206 -25.897  1.00  0.00    -0.773 OA
HETATM   36  H13 UNL     1     -10.450  50.701 -26.044  1.00  0.00     0.167 HD
ENDBRANCH  33  35
ENDBRANCH  29  33
ENDBRANCH  27  28
ENDBRANCH  26  27
ENDBRANCH  24  26
ENDBRANCH   1  24
TORSDOF 8
ENDMDL
