MODEL 1
REMARK minimizedAffinity -8.79016113
REMARK CNNscore 0.462378174
REMARK CNNaffinity 6.80265045
REMARK  12 active torsions:
REMARK  status: ('A' for Active; 'I' for Inactive)
REMARK    1  A    between atoms: C3_3  and  O1_4 
REMARK    2  A    between atoms: N1_14  and  O2_16 
REMARK    3  A    between atoms: O2_16  and  C13_17 
REMARK    4  A    between atoms: C13_17  and  C14_18 
REMARK       I    between atoms: C14_18  and  N2_20 
REMARK    5  A    between atoms: N2_20  and  C15_21 
REMARK    6  A    between atoms: C15_21  and  C16_22 
REMARK    7  A    between atoms: C15_21  and  C26_36 
REMARK       I    between atoms: C16_22  and  N3_24 
REMARK    8  A    between atoms: N3_24  and  C17_25 
REMARK    9  A    between atoms: C17_25  and  C18_26 
REMARK   10  A    between atoms: C17_25  and  C25_33 
REMARK   11  A    between atoms: C18_26  and  C19_27 
REMARK   12  A    between atoms: C25_33  and  O6_35 
ROOT
HETATM    1  C1  UNL     1       0.576  52.068 -26.701  1.00  0.00     0.015 C 
HETATM    2  C2  UNL     1      -0.591  51.846 -26.516  1.00  0.00    -0.078 C 
HETATM    3  C3  UNL     1      -2.034  51.576 -26.312  1.00  0.00     0.128 C 
HETATM    4  C4  UNL     1      -2.353  50.161 -26.840  1.00  0.00     0.052 C 
HETATM    5  C5  UNL     1      -2.475  49.264 -25.603  1.00  0.00     0.010 C 
HETATM    6  C6  UNL     1      -1.991  50.107 -24.400  1.00  0.00     0.002 C 
HETATM    7  C7  UNL     1      -2.424  49.624 -22.986  1.00  0.00    -0.004 C 
HETATM    8  C8  UNL     1      -2.625  48.088 -22.958  1.00  0.00     0.010 C 
HETATM    9  C9  UNL     1      -3.120  47.548 -21.624  1.00  0.00     0.035 C 
HETATM   10  C10 UNL     1      -4.375  48.294 -21.255  1.00  0.00    -0.069 C 
HETATM   11  C11 UNL     1      -5.547  47.642 -21.189  1.00  0.00     0.030 C 
HETATM   12  C12 UNL     1      -6.834  48.354 -21.022  1.00  0.00     0.032 C 
HETATM   13  N1  UNL     1      -7.914  47.631 -20.924  1.00  0.00    -0.271 N 
ATOM     14  H1  UNL     1      -7.919  46.611 -20.929  1.00  0.00     0.194 HD
HETATM   15  C29 UNL     1      -6.814  49.866 -21.099  1.00  0.00     0.060 C 
HETATM   16  C30 UNL     1      -5.519  50.453 -20.550  1.00  0.00     0.020 C 
HETATM   17  C31 UNL     1      -4.203  49.789 -21.055  1.00  0.00    -0.016 C 
HETATM   18  C32 UNL     1      -3.181  50.029 -19.900  1.00  0.00     0.020 C 
HETATM   19  C33 UNL     1      -3.607  50.440 -22.364  1.00  0.00     0.002 C 
HETATM   20  C34 UNL     1      -4.609  50.810 -23.461  1.00  0.00     0.007 C 
HETATM   21  C35 UNL     1      -3.998  51.647 -24.607  1.00  0.00     0.014 C 
HETATM   22  C36 UNL     1      -2.453  51.528 -24.797  1.00  0.00     0.003 C 
HETATM   23  C37 UNL     1      -1.751  52.653 -23.999  1.00  0.00     0.020 C 
ENDROOT
BRANCH   3  24
HETATM   24  O1  UNL     1      -2.743  52.568 -27.043  1.00  0.00    -0.377 OA
HETATM   25  H2  UNL     1      -3.669  52.303 -27.118  1.00  0.00     0.211 HD
ENDBRANCH   3  24
BRANCH  13  26
HETATM   26  O2  UNL     1      -9.066  48.419 -20.812  1.00  0.00    -0.271 OA
BRANCH  26  27
HETATM   27  C13 UNL     1      -9.626  48.232 -19.516  1.00  0.00     0.303 C 
BRANCH  27  28
HETATM   28  C14 UNL     1     -10.657  47.117 -19.543  1.00  0.00     0.244 C 
HETATM   29  O3  UNL     1     -10.347  45.938 -19.698  1.00  0.00    -0.271 OA
HETATM   30  N2  UNL     1     -11.951  47.521 -19.313  1.00  0.00    -0.346 N 
HETATM   31  H16 UNL     1     -12.167  48.517 -19.330  1.00  0.00     0.163 HD
BRANCH  30  32
HETATM   32  C15 UNL     1     -13.081  46.590 -19.342  1.00  0.00     0.180 C 
BRANCH  32  33
HETATM   33  C16 UNL     1     -14.007  47.032 -20.496  1.00  0.00     0.241 C 
HETATM   34  O4  UNL     1     -13.737  47.987 -21.227  1.00  0.00    -0.271 OA
HETATM   35  N3  UNL     1     -15.147  46.283 -20.660  1.00  0.00    -0.345 N 
HETATM   36  H18 UNL     1     -15.229  45.396 -20.171  1.00  0.00     0.163 HD
BRANCH  35  37
HETATM   37  C17 UNL     1     -16.034  46.446 -21.816  1.00  0.00     0.186 C 
BRANCH  37  38
HETATM   38  C18 UNL     1     -17.518  46.535 -21.425  1.00  0.00     0.074 C 
BRANCH  38  39
HETATM   39  C19 UNL     1     -18.491  46.131 -22.512  1.00  0.00    -0.056 A 
HETATM   40  C20 UNL     1     -19.265  44.971 -22.377  1.00  0.00     0.007 A 
HETATM   41  C21 UNL     1     -20.147  44.580 -23.386  1.00  0.00     0.001 A 
HETATM   42  C22 UNL     1     -20.271  45.349 -24.541  1.00  0.00     0.000 A 
HETATM   43  C23 UNL     1     -19.521  46.514 -24.681  1.00  0.00     0.001 A 
HETATM   44  C24 UNL     1     -18.639  46.908 -23.670  1.00  0.00     0.007 A 
ENDBRANCH  38  39
ENDBRANCH  37  38
BRANCH  37  45
HETATM   45  C25 UNL     1     -15.790  45.331 -22.836  1.00  0.00     0.163 C 
HETATM   46  O5  UNL     1     -15.786  45.449 -24.051  1.00  0.00    -0.648 OA
BRANCH  45  47
HETATM   47  O6  UNL     1     -15.565  44.120 -22.276  1.00  0.00    -0.775 OA
HETATM   48  H27 UNL     1     -15.419  43.532 -23.049  1.00  0.00     0.167 HD
ENDBRANCH  45  47
ENDBRANCH  37  45
ENDBRANCH  35  37
ENDBRANCH  32  33
BRANCH  32  49
HETATM   49  C26 UNL     1     -13.766  46.507 -17.957  1.00  0.00     0.009 C 
HETATM   50  C27 UNL     1     -12.817  46.057 -16.849  1.00  0.00     0.012 C 
HETATM   51  C28 UNL     1     -14.465  47.809 -17.570  1.00  0.00     0.012 C 
ENDBRANCH  32  49
ENDBRANCH  30  32
ENDBRANCH  27  28
ENDBRANCH  26  27
ENDBRANCH  13  26
TORSDOF 12
ENDMDL
MODEL 2
REMARK minimizedAffinity -9.8894949
REMARK CNNscore 0.421766192
REMARK CNNaffinity 6.17459917
REMARK  12 active torsions:
REMARK  status: ('A' for Active; 'I' for Inactive)
REMARK    1  A    between atoms: C3_3  and  O1_4 
REMARK    2  A    between atoms: N1_14  and  O2_16 
REMARK    3  A    between atoms: O2_16  and  C13_17 
REMARK    4  A    between atoms: C13_17  and  C14_18 
REMARK       I    between atoms: C14_18  and  N2_20 
REMARK    5  A    between atoms: N2_20  and  C15_21 
REMARK    6  A    between atoms: C15_21  and  C16_22 
REMARK    7  A    between atoms: C15_21  and  C26_36 
REMARK       I    between atoms: C16_22  and  N3_24 
REMARK    8  A    between atoms: N3_24  and  C17_25 
REMARK    9  A    between atoms: C17_25  and  C18_26 
REMARK   10  A    between atoms: C17_25  and  C25_33 
REMARK   11  A    between atoms: C18_26  and  C19_27 
REMARK   12  A    between atoms: C25_33  and  O6_35 
ROOT
HETATM    1  C1  UNL     1       0.796  52.941 -24.902  1.00  0.00     0.015 C 
HETATM    2  C2  UNL     1      -0.278  52.543 -25.268  1.00  0.00    -0.078 C 
HETATM    3  C3  UNL     1      -1.596  52.058 -25.745  1.00  0.00     0.128 C 
HETATM    4  C4  UNL     1      -1.413  50.656 -26.365  1.00  0.00     0.052 C 
HETATM    5  C5  UNL     1      -1.932  49.660 -25.322  1.00  0.00     0.010 C 
HETATM    6  C6  UNL     1      -2.180  50.468 -24.028  1.00  0.00     0.002 C 
HETATM    7  C7  UNL     1      -3.118  49.824 -22.967  1.00  0.00    -0.004 C 
HETATM    8  C8  UNL     1      -3.062  48.278 -23.038  1.00  0.00     0.010 C 
HETATM    9  C9  UNL     1      -4.009  47.573 -22.078  1.00  0.00     0.035 C 
HETATM   10  C10 UNL     1      -5.398  48.105 -22.318  1.00  0.00    -0.069 C 
HETATM   11  C11 UNL     1      -6.353  47.291 -22.794  1.00  0.00     0.030 C 
HETATM   12  C12 UNL     1      -7.674  47.801 -23.229  1.00  0.00     0.032 C 
HETATM   13  N1  UNL     1      -8.552  46.927 -23.635  1.00  0.00    -0.271 N 
ATOM     14  H1  UNL     1      -8.391  45.920 -23.645  1.00  0.00     0.194 HD
HETATM   15  C29 UNL     1      -7.863  49.302 -23.282  1.00  0.00     0.060 C 
HETATM   16  C30 UNL     1      -7.064  50.022 -22.202  1.00  0.00     0.020 C 
HETATM   17  C31 UNL     1      -5.575  49.590 -22.056  1.00  0.00    -0.016 C 
HETATM   18  C32 UNL     1      -5.232  49.883 -20.561  1.00  0.00     0.020 C 
HETATM   19  C33 UNL     1      -4.568  50.416 -22.948  1.00  0.00     0.002 C 
HETATM   20  C34 UNL     1      -5.016  50.723 -24.380  1.00  0.00     0.007 C 
HETATM   21  C35 UNL     1      -4.098  51.722 -25.119  1.00  0.00     0.014 C 
HETATM   22  C36 UNL     1      -2.635  51.837 -24.586  1.00  0.00     0.003 C 
HETATM   23  C37 UNL     1      -2.556  52.985 -23.553  1.00  0.00     0.020 C 
ENDROOT
BRANCH   3  24
HETATM   24  O1  UNL     1      -2.049  52.993 -26.714  1.00  0.00    -0.377 OA
HETATM   25  H2  UNL     1      -2.788  52.607 -27.203  1.00  0.00     0.211 HD
ENDBRANCH   3  24
BRANCH  13  26
HETATM   26  O2  UNL     1      -9.742  47.535 -24.056  1.00  0.00    -0.271 OA
BRANCH  26  27
HETATM   27  C13 UNL     1     -10.733  46.528 -24.236  1.00  0.00     0.303 C 
BRANCH  27  28
HETATM   28  C14 UNL     1     -11.851  47.043 -25.126  1.00  0.00     0.244 C 
HETATM   29  O3  UNL     1     -11.723  48.043 -25.830  1.00  0.00    -0.271 OA
HETATM   30  N2  UNL     1     -12.987  46.268 -25.133  1.00  0.00    -0.346 N 
HETATM   31  H16 UNL     1     -13.089  45.537 -24.432  1.00  0.00     0.163 HD
BRANCH  30  32
HETATM   32  C15 UNL     1     -14.179  46.632 -25.901  1.00  0.00     0.180 C 
BRANCH  32  33
HETATM   33  C16 UNL     1     -15.306  46.921 -24.885  1.00  0.00     0.241 C 
HETATM   34  O4  UNL     1     -15.228  47.832 -24.057  1.00  0.00    -0.271 OA
HETATM   35  N3  UNL     1     -16.406  46.103 -24.973  1.00  0.00    -0.345 N 
HETATM   36  H18 UNL     1     -16.513  45.506 -25.788  1.00  0.00     0.163 HD
BRANCH  35  37
HETATM   37  C17 UNL     1     -17.636  46.358 -24.217  1.00  0.00     0.186 C 
BRANCH  37  38
HETATM   38  C18 UNL     1     -17.794  45.432 -23.000  1.00  0.00     0.074 C 
BRANCH  38  39
HETATM   39  C19 UNL     1     -17.776  46.131 -21.657  1.00  0.00    -0.056 A 
HETATM   40  C20 UNL     1     -18.950  46.685 -21.130  1.00  0.00     0.007 A 
HETATM   41  C21 UNL     1     -18.937  47.352 -19.903  1.00  0.00     0.001 A 
HETATM   42  C22 UNL     1     -17.749  47.468 -19.185  1.00  0.00     0.000 A 
HETATM   43  C23 UNL     1     -16.578  46.908 -19.689  1.00  0.00     0.001 A 
HETATM   44  C24 UNL     1     -16.591  46.237 -20.915  1.00  0.00     0.007 A 
ENDBRANCH  38  39
ENDBRANCH  37  38
BRANCH  37  45
HETATM   45  C25 UNL     1     -18.854  46.281 -25.140  1.00  0.00     0.163 C 
HETATM   46  O5  UNL     1     -19.995  46.618 -24.863  1.00  0.00    -0.648 OA
BRANCH  45  47
HETATM   47  O6  UNL     1     -18.578  45.783 -26.367  1.00  0.00    -0.775 OA
HETATM   48  H27 UNL     1     -19.445  45.811 -26.828  1.00  0.00     0.167 HD
ENDBRANCH  45  47
ENDBRANCH  37  45
ENDBRANCH  35  37
ENDBRANCH  32  33
BRANCH  32  49
HETATM   49  C26 UNL     1     -14.516  45.546 -26.950  1.00  0.00     0.009 C 
HETATM   50  C27 UNL     1     -14.417  46.053 -28.387  1.00  0.00     0.012 C 
HETATM   51  C28 UNL     1     -13.682  44.277 -26.769  1.00  0.00     0.012 C 
ENDBRANCH  32  49
ENDBRANCH  30  32
ENDBRANCH  27  28
ENDBRANCH  26  27
ENDBRANCH  13  26
TORSDOF 12
ENDMDL
MODEL 3
REMARK minimizedAffinity -9.60030937
REMARK CNNscore 0.366913527
REMARK CNNaffinity 7.51888132
REMARK  12 active torsions:
REMARK  status: ('A' for Active; 'I' for Inactive)
REMARK    1  A    between atoms: C3_3  and  O1_4 
REMARK    2  A    between atoms: N1_14  and  O2_16 
REMARK    3  A    between atoms: O2_16  and  C13_17 
REMARK    4  A    between atoms: C13_17  and  C14_18 
REMARK       I    between atoms: C14_18  and  N2_20 
REMARK    5  A    between atoms: N2_20  and  C15_21 
REMARK    6  A    between atoms: C15_21  and  C16_22 
REMARK    7  A    between atoms: C15_21  and  C26_36 
REMARK       I    between atoms: C16_22  and  N3_24 
REMARK    8  A    between atoms: N3_24  and  C17_25 
REMARK    9  A    between atoms: C17_25  and  C18_26 
REMARK   10  A    between atoms: C17_25  and  C25_33 
REMARK   11  A    between atoms: C18_26  and  C19_27 
REMARK   12  A    between atoms: C25_33  and  O6_35 
ROOT
HETATM    1  C1  UNL     1      -2.322  50.799  -8.408  1.00  0.00     0.015 C 
HETATM    2  C2  UNL     1      -2.460  51.303  -9.490  1.00  0.00    -0.078 C 
HETATM    3  C3  UNL     1      -2.646  51.943 -10.815  1.00  0.00     0.128 C 
HETATM    4  C4  UNL     1      -1.833  53.255 -10.851  1.00  0.00     0.052 C 
HETATM    5  C5  UNL     1      -0.578  52.953 -11.678  1.00  0.00     0.010 C 
HETATM    6  C6  UNL     1      -0.558  51.424 -11.905  1.00  0.00     0.002 C 
HETATM    7  C7  UNL     1       0.329  50.899 -13.070  1.00  0.00    -0.004 C 
HETATM    8  C8  UNL     1       1.534  51.840 -13.321  1.00  0.00     0.010 C 
HETATM    9  C9  UNL     1       2.411  51.432 -14.497  1.00  0.00     0.035 C 
HETATM   10  C10 UNL     1       1.530  51.296 -15.711  1.00  0.00    -0.069 C 
HETATM   11  C11 UNL     1       1.690  52.130 -16.750  1.00  0.00     0.030 C 
HETATM   12  C12 UNL     1       0.734  52.169 -17.881  1.00  0.00     0.032 C 
HETATM   13  N1  UNL     1       0.999  52.982 -18.865  1.00  0.00    -0.271 N 
ATOM     14  H1  UNL     1       1.833  53.567 -18.912  1.00  0.00     0.194 HD
HETATM   15  C29 UNL     1      -0.536  51.355 -17.754  1.00  0.00     0.060 C 
HETATM   16  C30 UNL     1      -0.320  50.074 -16.955  1.00  0.00     0.020 C 
HETATM   17  C31 UNL     1       0.452  50.231 -15.612  1.00  0.00    -0.016 C 
HETATM   18  C32 UNL     1       1.132  48.844 -15.391  1.00  0.00     0.020 C 
HETATM   19  C33 UNL     1      -0.469  50.516 -14.362  1.00  0.00     0.002 C 
HETATM   20  C34 UNL     1      -1.617  51.508 -14.570  1.00  0.00     0.007 C 
HETATM   21  C35 UNL     1      -2.612  51.566 -13.389  1.00  0.00     0.014 C 
HETATM   22  C36 UNL     1      -2.065  51.094 -12.005  1.00  0.00     0.003 C 
HETATM   23  C37 UNL     1      -2.385  49.593 -11.813  1.00  0.00     0.020 C 
ENDROOT
BRANCH   3  24
HETATM   24  O1  UNL     1      -4.037  52.197 -10.954  1.00  0.00    -0.377 OA
HETATM   25  H2  UNL     1      -4.174  52.803 -11.694  1.00  0.00     0.211 HD
ENDBRANCH   3  24
BRANCH  13  26
HETATM   26  O2  UNL     1       0.003  52.957 -19.850  1.00  0.00    -0.271 OA
BRANCH  26  27
HETATM   27  C13 UNL     1       0.587  52.550 -21.083  1.00  0.00     0.303 C 
BRANCH  27  28
HETATM   28  C14 UNL     1      -0.497  52.218 -22.094  1.00  0.00     0.244 C 
HETATM   29  O3  UNL     1      -0.380  52.472 -23.291  1.00  0.00    -0.271 OA
HETATM   30  N2  UNL     1      -1.585  51.554 -21.577  1.00  0.00    -0.346 N 
HETATM   31  H16 UNL     1      -1.692  51.495 -20.566  1.00  0.00     0.163 HD
BRANCH  30  32
HETATM   32  C15 UNL     1      -2.743  51.190 -22.396  1.00  0.00     0.180 C 
BRANCH  32  33
HETATM   33  C16 UNL     1      -2.239  50.234 -23.500  1.00  0.00     0.241 C 
HETATM   34  O4  UNL     1      -1.857  49.088 -23.254  1.00  0.00    -0.271 OA
HETATM   35  N3  UNL     1      -2.257  50.742 -24.776  1.00  0.00    -0.345 N 
HETATM   36  H18 UNL     1      -2.761  51.606 -24.957  1.00  0.00     0.163 HD
BRANCH  35  37
HETATM   37  C17 UNL     1      -1.994  49.912 -25.955  1.00  0.00     0.186 C 
BRANCH  37  38
HETATM   38  C18 UNL     1      -1.566  50.733 -27.183  1.00  0.00     0.074 C 
BRANCH  38  39
HETATM   39  C19 UNL     1      -0.102  51.115 -27.219  1.00  0.00    -0.056 A 
HETATM   40  C20 UNL     1       0.413  51.854 -28.292  1.00  0.00     0.007 A 
HETATM   41  C21 UNL     1       1.768  52.189 -28.344  1.00  0.00     0.001 A 
HETATM   42  C22 UNL     1       2.624  51.795 -27.318  1.00  0.00     0.000 A 
HETATM   43  C23 UNL     1       2.122  51.075 -26.237  1.00  0.00     0.001 A 
HETATM   44  C24 UNL     1       0.766  50.741 -26.183  1.00  0.00     0.007 A 
ENDBRANCH  38  39
ENDBRANCH  37  38
BRANCH  37  45
HETATM   45  C25 UNL     1      -3.205  49.029 -26.266  1.00  0.00     0.163 C 
HETATM   46  O5  UNL     1      -3.285  48.197 -27.155  1.00  0.00    -0.648 OA
BRANCH  45  47
HETATM   47  O6  UNL     1      -4.258  49.240 -25.443  1.00  0.00    -0.775 OA
HETATM   48  H27 UNL     1      -4.932  48.601 -25.763  1.00  0.00     0.167 HD
ENDBRANCH  45  47
ENDBRANCH  37  45
ENDBRANCH  35  37
ENDBRANCH  32  33
BRANCH  32  49
HETATM   49  C26 UNL     1      -3.473  52.451 -22.916  1.00  0.00     0.009 C 
HETATM   50  C27 UNL     1      -3.408  52.594 -24.434  1.00  0.00     0.012 C 
HETATM   51  C28 UNL     1      -4.920  52.534 -22.429  1.00  0.00     0.012 C 
ENDBRANCH  32  49
ENDBRANCH  30  32
ENDBRANCH  27  28
ENDBRANCH  26  27
ENDBRANCH  13  26
TORSDOF 12
ENDMDL
MODEL 4
REMARK minimizedAffinity -8.53307152
REMARK CNNscore 0.345123827
REMARK CNNaffinity 5.71656466
REMARK  12 active torsions:
REMARK  status: ('A' for Active; 'I' for Inactive)
REMARK    1  A    between atoms: C3_3  and  O1_4 
REMARK    2  A    between atoms: N1_14  and  O2_16 
REMARK    3  A    between atoms: O2_16  and  C13_17 
REMARK    4  A    between atoms: C13_17  and  C14_18 
REMARK       I    between atoms: C14_18  and  N2_20 
REMARK    5  A    between atoms: N2_20  and  C15_21 
REMARK    6  A    between atoms: C15_21  and  C16_22 
REMARK    7  A    between atoms: C15_21  and  C26_36 
REMARK       I    between atoms: C16_22  and  N3_24 
REMARK    8  A    between atoms: N3_24  and  C17_25 
REMARK    9  A    between atoms: C17_25  and  C18_26 
REMARK   10  A    between atoms: C17_25  and  C25_33 
REMARK   11  A    between atoms: C18_26  and  C19_27 
REMARK   12  A    between atoms: C25_33  and  O6_35 
ROOT
HETATM    1  C1  UNL     1      -0.293  51.628 -21.374  1.00  0.00     0.015 C 
HETATM    2  C2  UNL     1      -1.289  51.393 -22.005  1.00  0.00    -0.078 C 
HETATM    3  C3  UNL     1      -2.508  51.117 -22.804  1.00  0.00     0.128 C 
HETATM    4  C4  UNL     1      -2.198  49.982 -23.804  1.00  0.00     0.052 C 
HETATM    5  C5  UNL     1      -2.842  48.718 -23.223  1.00  0.00     0.010 C 
HETATM    6  C6  UNL     1      -3.302  49.077 -21.791  1.00  0.00     0.002 C 
HETATM    7  C7  UNL     1      -4.371  48.151 -21.145  1.00  0.00    -0.004 C 
HETATM    8  C8  UNL     1      -4.266  46.707 -21.696  1.00  0.00     0.010 C 
HETATM    9  C9  UNL     1      -5.328  45.755 -21.165  1.00  0.00     0.035 C 
HETATM   10  C10 UNL     1      -6.678  46.369 -21.428  1.00  0.00    -0.069 C 
HETATM   11  C11 UNL     1      -7.530  45.773 -22.277  1.00  0.00     0.030 C 
HETATM   12  C12 UNL     1      -8.783  46.426 -22.720  1.00  0.00     0.032 C 
HETATM   13  N1  UNL     1      -9.568  45.748 -23.511  1.00  0.00    -0.271 N 
ATOM     14  H1  UNL     1      -9.381  44.793 -23.817  1.00  0.00     0.194 HD
HETATM   15  C29 UNL     1      -9.001  47.869 -22.320  1.00  0.00     0.060 C 
HETATM   16  C30 UNL     1      -8.392  48.188 -20.960  1.00  0.00     0.020 C 
HETATM   17  C31 UNL     1      -6.931  47.697 -20.736  1.00  0.00    -0.016 C 
HETATM   18  C32 UNL     1      -6.824  47.490 -19.193  1.00  0.00     0.020 C 
HETATM   19  C33 UNL     1      -5.822  48.740 -21.157  1.00  0.00     0.002 C 
HETATM   20  C34 UNL     1      -6.059  49.498 -22.466  1.00  0.00     0.007 C 
HETATM   21  C35 UNL     1      -5.066  50.659 -22.701  1.00  0.00     0.014 C 
HETATM   22  C36 UNL     1      -3.703  50.563 -21.946  1.00  0.00     0.003 C 
HETATM   23  C37 UNL     1      -3.810  51.319 -20.601  1.00  0.00     0.020 C 
ENDROOT
BRANCH   3  24
HETATM   24  O1  UNL     1      -2.835  52.323 -23.482  1.00  0.00    -0.377 OA
HETATM   25  H2  UNL     1      -3.481  52.130 -24.173  1.00  0.00     0.211 HD
ENDBRANCH   3  24
BRANCH  13  26
HETATM   26  O2  UNL     1     -10.696  46.486 -23.890  1.00  0.00    -0.271 OA
BRANCH  26  27
HETATM   27  C13 UNL     1     -10.547  46.887 -25.249  1.00  0.00     0.303 C 
BRANCH  27  28
HETATM   28  C14 UNL     1     -11.891  47.296 -25.827  1.00  0.00     0.244 C 
HETATM   29  O3  UNL     1     -12.060  48.366 -26.406  1.00  0.00    -0.271 OA
HETATM   30  N2  UNL     1     -12.881  46.348 -25.711  1.00  0.00    -0.346 N 
HETATM   31  H16 UNL     1     -12.727  45.545 -25.104  1.00  0.00     0.163 HD
BRANCH  30  32
HETATM   32  C15 UNL     1     -14.250  46.584 -26.175  1.00  0.00     0.180 C 
BRANCH  32  33
HETATM   33  C16 UNL     1     -15.119  46.838 -24.924  1.00  0.00     0.241 C 
HETATM   34  O4  UNL     1     -14.878  47.749 -24.129  1.00  0.00    -0.271 OA
HETATM   35  N3  UNL     1     -16.186  45.988 -24.762  1.00  0.00    -0.345 N 
HETATM   36  H18 UNL     1     -16.461  45.388 -25.535  1.00  0.00     0.163 HD
BRANCH  35  37
HETATM   37  C17 UNL     1     -17.214  46.204 -23.740  1.00  0.00     0.186 C 
BRANCH  37  38
HETATM   38  C18 UNL     1     -17.247  45.093 -22.678  1.00  0.00     0.074 C 
BRANCH  38  39
HETATM   39  C19 UNL     1     -17.945  45.464 -21.386  1.00  0.00    -0.056 A 
HETATM   40  C20 UNL     1     -18.829  44.565 -20.774  1.00  0.00     0.007 A 
HETATM   41  C21 UNL     1     -19.495  44.910 -19.595  1.00  0.00     0.001 A 
HETATM   42  C22 UNL     1     -19.279  46.156 -19.011  1.00  0.00     0.000 A 
HETATM   43  C23 UNL     1     -18.391  47.052 -19.600  1.00  0.00     0.001 A 
HETATM   44  C24 UNL     1     -17.722  46.708 -20.778  1.00  0.00     0.007 A 
ENDBRANCH  38  39
ENDBRANCH  37  38
BRANCH  37  45
HETATM   45  C25 UNL     1     -18.585  46.392 -24.396  1.00  0.00     0.163 C 
HETATM   46  O5  UNL     1     -19.431  45.528 -24.565  1.00  0.00    -0.648 OA
BRANCH  45  47
HETATM   47  O6  UNL     1     -18.823  47.658 -24.808  1.00  0.00    -0.775 OA
HETATM   48  H27 UNL     1     -19.728  47.611 -25.187  1.00  0.00     0.167 HD
ENDBRANCH  45  47
ENDBRANCH  37  45
ENDBRANCH  35  37
ENDBRANCH  32  33
BRANCH  32  49
HETATM   49  C26 UNL     1     -14.736  45.425 -27.077  1.00  0.00     0.009 C 
HETATM   50  C27 UNL     1     -14.598  45.731 -28.567  1.00  0.00     0.012 C 
HETATM   51  C28 UNL     1     -14.064  44.095 -26.737  1.00  0.00     0.012 C 
ENDBRANCH  32  49
ENDBRANCH  30  32
ENDBRANCH  27  28
ENDBRANCH  26  27
ENDBRANCH  13  26
TORSDOF 12
ENDMDL
MODEL 5
REMARK minimizedAffinity -8.77287483
REMARK CNNscore 0.273114026
REMARK CNNaffinity 7.21415329
REMARK  12 active torsions:
REMARK  status: ('A' for Active; 'I' for Inactive)
REMARK    1  A    between atoms: C3_3  and  O1_4 
REMARK    2  A    between atoms: N1_14  and  O2_16 
REMARK    3  A    between atoms: O2_16  and  C13_17 
REMARK    4  A    between atoms: C13_17  and  C14_18 
REMARK       I    between atoms: C14_18  and  N2_20 
REMARK    5  A    between atoms: N2_20  and  C15_21 
REMARK    6  A    between atoms: C15_21  and  C16_22 
REMARK    7  A    between atoms: C15_21  and  C26_36 
REMARK       I    between atoms: C16_22  and  N3_24 
REMARK    8  A    between atoms: N3_24  and  C17_25 
REMARK    9  A    between atoms: C17_25  and  C18_26 
REMARK   10  A    between atoms: C17_25  and  C25_33 
REMARK   11  A    between atoms: C18_26  and  C19_27 
REMARK   12  A    between atoms: C25_33  and  O6_35 
ROOT
HETATM    1  C1  UNL     1      -2.949  50.813 -27.973  1.00  0.00     0.015 C 
HETATM    2  C2  UNL     1      -2.986  51.283 -26.867  1.00  0.00    -0.078 C 
HETATM    3  C3  UNL     1      -3.040  51.885 -25.513  1.00  0.00     0.128 C 
HETATM    4  C4  UNL     1      -4.513  51.945 -25.055  1.00  0.00     0.052 C 
HETATM    5  C5  UNL     1      -4.694  50.796 -24.058  1.00  0.00     0.010 C 
HETATM    6  C6  UNL     1      -3.407  49.943 -24.130  1.00  0.00     0.002 C 
HETATM    7  C7  UNL     1      -3.123  48.996 -22.929  1.00  0.00    -0.004 C 
HETATM    8  C8  UNL     1      -4.441  48.540 -22.254  1.00  0.00     0.010 C 
HETATM    9  C9  UNL     1      -4.243  47.668 -21.022  1.00  0.00     0.035 C 
HETATM   10  C10 UNL     1      -3.340  48.406 -20.069  1.00  0.00    -0.069 C 
HETATM   11  C11 UNL     1      -3.810  48.810 -18.878  1.00  0.00     0.030 C 
HETATM   12  C12 UNL     1      -3.031  49.700 -17.988  1.00  0.00     0.032 C 
HETATM   13  N1  UNL     1      -3.554  50.002 -16.832  1.00  0.00    -0.271 N 
ATOM     14  H1  UNL     1      -4.448  49.641 -16.499  1.00  0.00     0.194 HD
HETATM   15  C29 UNL     1      -1.747  50.289 -18.532  1.00  0.00     0.060 C 
HETATM   16  C30 UNL     1      -1.045  49.342 -19.500  1.00  0.00     0.020 C 
HETATM   17  C31 UNL     1      -1.946  48.698 -20.595  1.00  0.00    -0.016 C 
HETATM   18  C32 UNL     1      -1.240  47.347 -20.931  1.00  0.00     0.020 C 
HETATM   19  C33 UNL     1      -2.041  49.533 -21.932  1.00  0.00     0.002 C 
HETATM   20  C34 UNL     1      -2.187  51.050 -21.782  1.00  0.00     0.007 C 
HETATM   21  C35 UNL     1      -2.042  51.823 -23.111  1.00  0.00     0.014 C 
HETATM   22  C36 UNL     1      -2.328  51.013 -24.414  1.00  0.00     0.003 C 
HETATM   23  C37 UNL     1      -1.001  50.428 -24.954  1.00  0.00     0.020 C 
ENDROOT
BRANCH   3  24
HETATM   24  O1  UNL     1      -2.482  53.187 -25.622  1.00  0.00    -0.377 OA
HETATM   25  H2  UNL     1      -2.696  53.689 -24.824  1.00  0.00     0.211 HD
ENDBRANCH   3  24
BRANCH  13  26
HETATM   26  O2  UNL     1      -2.743  50.880 -16.101  1.00  0.00    -0.271 OA
BRANCH  26  27
HETATM   27  C13 UNL     1      -2.485  50.310 -14.822  1.00  0.00     0.303 C 
BRANCH  27  28
HETATM   28  C14 UNL     1      -1.365  51.064 -14.127  1.00  0.00     0.244 C 
HETATM   29  O3  UNL     1      -1.519  52.192 -13.664  1.00  0.00    -0.271 OA
HETATM   30  N2  UNL     1      -0.190  50.361 -13.996  1.00  0.00    -0.346 N 
HETATM   31  H16 UNL     1      -0.074  49.492 -14.516  1.00  0.00     0.163 HD
BRANCH  30  32
HETATM   32  C15 UNL     1       1.009  50.943 -13.388  1.00  0.00     0.180 C 
BRANCH  32  33
HETATM   33  C16 UNL     1       0.555  51.702 -12.122  1.00  0.00     0.241 C 
HETATM   34  O4  UNL     1       0.295  51.122 -11.065  1.00  0.00    -0.271 OA
HETATM   35  N3  UNL     1       0.473  53.067 -12.248  1.00  0.00    -0.345 N 
HETATM   36  H18 UNL     1       0.885  53.513 -13.063  1.00  0.00     0.163 HD
BRANCH  35  37
HETATM   37  C17 UNL     1       0.245  53.949 -11.099  1.00  0.00     0.186 C 
BRANCH  37  38
HETATM   38  C18 UNL     1       1.175  53.643  -9.914  1.00  0.00     0.074 C 
BRANCH  38  39
HETATM   39  C19 UNL     1       2.549  54.272 -10.000  1.00  0.00    -0.056 A 
HETATM   40  C20 UNL     1       2.707  55.565 -10.515  1.00  0.00     0.007 A 
HETATM   41  C21 UNL     1       3.974  56.143 -10.620  1.00  0.00     0.001 A 
HETATM   42  C22 UNL     1       5.100  55.435 -10.204  1.00  0.00     0.000 A 
HETATM   43  C23 UNL     1       4.956  54.156  -9.675  1.00  0.00     0.001 A 
HETATM   44  C24 UNL     1       3.688  53.578  -9.567  1.00  0.00     0.007 A 
ENDBRANCH  38  39
ENDBRANCH  37  38
BRANCH  37  45
HETATM   45  C25 UNL     1      -1.227  53.908 -10.681  1.00  0.00     0.163 C 
HETATM   46  O5  UNL     1      -1.848  54.801 -10.127  1.00  0.00    -0.648 OA
BRANCH  45  47
HETATM   47  O6  UNL     1      -1.846  52.742 -10.978  1.00  0.00    -0.775 OA
HETATM   48  H27 UNL     1      -2.765  52.881 -10.662  1.00  0.00     0.167 HD
ENDBRANCH  45  47
ENDBRANCH  37  45
ENDBRANCH  35  37
ENDBRANCH  32  33
BRANCH  32  49
HETATM   49  C26 UNL     1       1.788  51.800 -14.413  1.00  0.00     0.009 C 
HETATM   50  C27 UNL     1       3.296  51.564 -14.363  1.00  0.00     0.012 C 
HETATM   51  C28 UNL     1       1.264  51.631 -15.839  1.00  0.00     0.012 C 
ENDBRANCH  32  49
ENDBRANCH  30  32
ENDBRANCH  27  28
ENDBRANCH  26  27
ENDBRANCH  13  26
TORSDOF 12
ENDMDL
MODEL 6
REMARK minimizedAffinity -8.57359028
REMARK CNNscore 0.238115609
REMARK CNNaffinity 6.62792015
REMARK  12 active torsions:
REMARK  status: ('A' for Active; 'I' for Inactive)
REMARK    1  A    between atoms: C3_3  and  O1_4 
REMARK    2  A    between atoms: N1_14  and  O2_16 
REMARK    3  A    between atoms: O2_16  and  C13_17 
REMARK    4  A    between atoms: C13_17  and  C14_18 
REMARK       I    between atoms: C14_18  and  N2_20 
REMARK    5  A    between atoms: N2_20  and  C15_21 
REMARK    6  A    between atoms: C15_21  and  C16_22 
REMARK    7  A    between atoms: C15_21  and  C26_36 
REMARK       I    between atoms: C16_22  and  N3_24 
REMARK    8  A    between atoms: N3_24  and  C17_25 
REMARK    9  A    between atoms: C17_25  and  C18_26 
REMARK   10  A    between atoms: C17_25  and  C25_33 
REMARK   11  A    between atoms: C18_26  and  C19_27 
REMARK   12  A    between atoms: C25_33  and  O6_35 
ROOT
HETATM    1  C1  UNL     1       0.220  51.887 -27.320  1.00  0.00     0.015 C 
HETATM    2  C2  UNL     1      -0.880  51.747 -26.855  1.00  0.00    -0.078 C 
HETATM    3  C3  UNL     1      -2.246  51.580 -26.305  1.00  0.00     0.128 C 
HETATM    4  C4  UNL     1      -2.800  50.212 -26.759  1.00  0.00     0.052 C 
HETATM    5  C5  UNL     1      -2.687  49.285 -25.544  1.00  0.00     0.010 C 
HETATM    6  C6  UNL     1      -1.855  50.045 -24.486  1.00  0.00     0.002 C 
HETATM    7  C7  UNL     1      -1.965  49.548 -23.016  1.00  0.00    -0.004 C 
HETATM    8  C8  UNL     1      -2.278  48.032 -22.962  1.00  0.00     0.010 C 
HETATM    9  C9  UNL     1      -2.473  47.483 -21.556  1.00  0.00     0.035 C 
HETATM   10  C10 UNL     1      -3.534  48.309 -20.876  1.00  0.00    -0.069 C 
HETATM   11  C11 UNL     1      -4.703  47.745 -20.532  1.00  0.00     0.030 C 
HETATM   12  C12 UNL     1      -5.847  48.547 -20.041  1.00  0.00     0.032 C 
HETATM   13  N1  UNL     1      -6.925  47.904 -19.690  1.00  0.00    -0.271 N 
ATOM     14  H1  UNL     1      -7.015  46.888 -19.709  1.00  0.00     0.194 HD
HETATM   15  C29 UNL     1      -5.723  50.054 -20.097  1.00  0.00     0.060 C 
HETATM   16  C30 UNL     1      -4.288  50.522 -19.877  1.00  0.00     0.020 C 
HETATM   17  C31 UNL     1      -3.196  49.779 -20.702  1.00  0.00    -0.016 C 
HETATM   18  C32 UNL     1      -1.905  49.901 -19.833  1.00  0.00     0.020 C 
HETATM   19  C33 UNL     1      -2.889  50.428 -22.108  1.00  0.00     0.002 C 
HETATM   20  C34 UNL     1      -4.096  50.911 -22.917  1.00  0.00     0.007 C 
HETATM   21  C35 UNL     1      -3.718  51.739 -24.165  1.00  0.00     0.014 C 
HETATM   22  C36 UNL     1      -2.282  51.511 -24.734  1.00  0.00     0.003 C 
HETATM   23  C37 UNL     1      -1.317  52.551 -24.118  1.00  0.00     0.020 C 
ENDROOT
BRANCH   3  24
HETATM   24  O1  UNL     1      -3.029  52.648 -26.822  1.00  0.00    -0.377 OA
HETATM   25  H2  UNL     1      -3.963  52.456 -26.669  1.00  0.00     0.211 HD
ENDBRANCH   3  24
BRANCH  13  26
HETATM   26  O2  UNL     1      -7.946  48.772 -19.284  1.00  0.00    -0.271 OA
BRANCH  26  27
HETATM   27  C13 UNL     1      -9.133  48.453 -20.002  1.00  0.00     0.303 C 
BRANCH  27  28
HETATM   28  C14 UNL     1      -9.835  47.269 -19.359  1.00  0.00     0.244 C 
HETATM   29  O3  UNL     1      -9.702  46.120 -19.775  1.00  0.00    -0.271 OA
HETATM   30  N2  UNL     1     -10.573  47.574 -18.239  1.00  0.00    -0.346 N 
HETATM   31  H16 UNL     1     -10.761  48.552 -18.023  1.00  0.00     0.163 HD
BRANCH  30  32
HETATM   32  C15 UNL     1     -11.348  46.566 -17.513  1.00  0.00     0.180 C 
BRANCH  32  33
HETATM   33  C16 UNL     1     -12.824  47.024 -17.533  1.00  0.00     0.241 C 
HETATM   34  O4  UNL     1     -13.418  47.375 -16.512  1.00  0.00    -0.271 OA
HETATM   35  N3  UNL     1     -13.426  47.024 -18.768  1.00  0.00    -0.345 N 
HETATM   36  H18 UNL     1     -12.849  46.922 -19.599  1.00  0.00     0.163 HD
BRANCH  35  37
HETATM   37  C17 UNL     1     -14.752  47.605 -18.994  1.00  0.00     0.186 C 
BRANCH  37  38
HETATM   38  C18 UNL     1     -15.437  47.062 -20.259  1.00  0.00     0.074 C 
BRANCH  38  39
HETATM   39  C19 UNL     1     -16.717  46.291 -20.012  1.00  0.00    -0.056 A 
HETATM   40  C20 UNL     1     -17.893  46.631 -20.693  1.00  0.00     0.007 A 
HETATM   41  C21 UNL     1     -19.083  45.939 -20.453  1.00  0.00     0.001 A 
HETATM   42  C22 UNL     1     -19.108  44.893 -19.533  1.00  0.00     0.000 A 
HETATM   43  C23 UNL     1     -17.942  44.534 -18.862  1.00  0.00     0.001 A 
HETATM   44  C24 UNL     1     -16.750  45.223 -19.103  1.00  0.00     0.007 A 
ENDBRANCH  38  39
ENDBRANCH  37  38
BRANCH  37  45
HETATM   45  C25 UNL     1     -14.668  49.134 -19.016  1.00  0.00     0.163 C 
HETATM   46  O5  UNL     1     -15.252  49.902 -18.269  1.00  0.00    -0.648 OA
BRANCH  45  47
HETATM   47  O6  UNL     1     -13.853  49.620 -19.979  1.00  0.00    -0.775 OA
HETATM   48  H27 UNL     1     -13.900  50.593 -19.852  1.00  0.00     0.167 HD
ENDBRANCH  45  47
ENDBRANCH  37  45
ENDBRANCH  35  37
ENDBRANCH  32  33
BRANCH  32  49
HETATM   49  C26 UNL     1     -10.764  46.329 -16.101  1.00  0.00     0.009 C 
HETATM   50  C27 UNL     1     -11.021  44.917 -15.579  1.00  0.00     0.012 C 
HETATM   51  C28 UNL     1      -9.276  46.670 -16.017  1.00  0.00     0.012 C 
ENDBRANCH  32  49
ENDBRANCH  30  32
ENDBRANCH  27  28
ENDBRANCH  26  27
ENDBRANCH  13  26
TORSDOF 12
ENDMDL
MODEL 7
REMARK minimizedAffinity -8.93203259
REMARK CNNscore 0.22685881
REMARK CNNaffinity 7.2261939
REMARK  12 active torsions:
REMARK  status: ('A' for Active; 'I' for Inactive)
REMARK    1  A    between atoms: C3_3  and  O1_4 
REMARK    2  A    between atoms: N1_14  and  O2_16 
REMARK    3  A    between atoms: O2_16  and  C13_17 
REMARK    4  A    between atoms: C13_17  and  C14_18 
REMARK       I    between atoms: C14_18  and  N2_20 
REMARK    5  A    between atoms: N2_20  and  C15_21 
REMARK    6  A    between atoms: C15_21  and  C16_22 
REMARK    7  A    between atoms: C15_21  and  C26_36 
REMARK       I    between atoms: C16_22  and  N3_24 
REMARK    8  A    between atoms: N3_24  and  C17_25 
REMARK    9  A    between atoms: C17_25  and  C18_26 
REMARK   10  A    between atoms: C17_25  and  C25_33 
REMARK   11  A    between atoms: C18_26  and  C19_27 
REMARK   12  A    between atoms: C25_33  and  O6_35 
ROOT
HETATM    1  C1  UNL     1      -1.570  51.713  -7.607  1.00  0.00     0.015 C 
HETATM    2  C2  UNL     1      -1.731  52.130  -8.722  1.00  0.00    -0.078 C 
HETATM    3  C3  UNL     1      -1.946  52.663 -10.089  1.00  0.00     0.128 C 
HETATM    4  C4  UNL     1      -1.098  53.942 -10.262  1.00  0.00     0.052 C 
HETATM    5  C5  UNL     1       0.118  53.534 -11.101  1.00  0.00     0.010 C 
HETATM    6  C6  UNL     1       0.087  51.992 -11.200  1.00  0.00     0.002 C 
HETATM    7  C7  UNL     1       0.918  51.345 -12.345  1.00  0.00    -0.004 C 
HETATM    8  C8  UNL     1       2.139  52.224 -12.714  1.00  0.00     0.010 C 
HETATM    9  C9  UNL     1       2.962  51.693 -13.879  1.00  0.00     0.035 C 
HETATM   10  C10 UNL     1       2.035  51.484 -15.048  1.00  0.00    -0.069 C 
HETATM   11  C11 UNL     1       2.182  52.224 -16.158  1.00  0.00     0.030 C 
HETATM   12  C12 UNL     1       1.188  52.198 -17.256  1.00  0.00     0.032 C 
HETATM   13  N1  UNL     1       1.441  52.919 -18.313  1.00  0.00    -0.271 N 
ATOM     14  H1  UNL     1       2.289  53.472 -18.437  1.00  0.00     0.194 HD
HETATM   15  C29 UNL     1      -0.098  51.437 -17.020  1.00  0.00     0.060 C 
HETATM   16  C30 UNL     1       0.109  50.221 -16.124  1.00  0.00     0.020 C 
HETATM   17  C31 UNL     1       0.932  50.465 -14.825  1.00  0.00    -0.016 C 
HETATM   18  C32 UNL     1       1.580  49.080 -14.511  1.00  0.00     0.020 C 
HETATM   19  C33 UNL     1       0.064  50.881 -13.573  1.00  0.00     0.002 C 
HETATM   20  C34 UNL     1      -1.062  51.887 -13.826  1.00  0.00     0.007 C 
HETATM   21  C35 UNL     1      -2.013  52.073 -12.622  1.00  0.00     0.014 C 
HETATM   22  C36 UNL     1      -1.431  51.701 -11.222  1.00  0.00     0.003 C 
HETATM   23  C37 UNL     1      -1.786  50.231 -10.895  1.00  0.00     0.020 C 
ENDROOT
BRANCH   3  24
HETATM   24  O1  UNL     1      -3.333  52.948 -10.204  1.00  0.00    -0.377 OA
HETATM   25  H2  UNL     1      -3.479  53.494 -10.987  1.00  0.00     0.211 HD
ENDBRANCH   3  24
BRANCH  13  26
HETATM   26  O2  UNL     1       0.411  52.843 -19.259  1.00  0.00    -0.271 OA
BRANCH  26  27
HETATM   27  C13 UNL     1       0.986  52.777 -20.560  1.00  0.00     0.303 C 
BRANCH  27  28
HETATM   28  C14 UNL     1       0.139  51.900 -21.466  1.00  0.00     0.244 C 
HETATM   29  O3  UNL     1       0.126  50.674 -21.370  1.00  0.00    -0.271 OA
HETATM   30  N2  UNL     1      -0.659  52.585 -22.352  1.00  0.00    -0.346 N 
HETATM   31  H16 UNL     1      -0.506  53.583 -22.484  1.00  0.00     0.163 HD
BRANCH  30  32
HETATM   32  C15 UNL     1      -1.512  51.903 -23.328  1.00  0.00     0.180 C 
BRANCH  32  33
HETATM   33  C16 UNL     1      -2.310  50.825 -22.563  1.00  0.00     0.241 C 
HETATM   34  O4  UNL     1      -2.218  49.625 -22.829  1.00  0.00    -0.271 OA
HETATM   35  N3  UNL     1      -3.121  51.292 -21.557  1.00  0.00    -0.345 N 
HETATM   36  H18 UNL     1      -3.016  52.253 -21.244  1.00  0.00     0.163 HD
BRANCH  35  37
HETATM   37  C17 UNL     1      -3.798  50.396 -20.615  1.00  0.00     0.186 C 
BRANCH  37  38
HETATM   38  C18 UNL     1      -5.330  50.504 -20.679  1.00  0.00     0.074 C 
BRANCH  38  39
HETATM   39  C19 UNL     1      -5.995  49.577 -21.674  1.00  0.00    -0.056 A 
HETATM   40  C20 UNL     1      -5.517  48.273 -21.858  1.00  0.00     0.007 A 
HETATM   41  C21 UNL     1      -6.111  47.419 -22.791  1.00  0.00     0.001 A 
HETATM   42  C22 UNL     1      -7.195  47.859 -23.547  1.00  0.00     0.000 A 
HETATM   43  C23 UNL     1      -7.691  49.147 -23.362  1.00  0.00     0.001 A 
HETATM   44  C24 UNL     1      -7.100  50.000 -22.427  1.00  0.00     0.007 A 
ENDBRANCH  38  39
ENDBRANCH  37  38
BRANCH  37  45
HETATM   45  C25 UNL     1      -3.280  50.629 -19.193  1.00  0.00     0.163 C 
HETATM   46  O5  UNL     1      -3.107  49.777 -18.337  1.00  0.00    -0.648 OA
BRANCH  45  47
HETATM   47  O6  UNL     1      -3.006  51.925 -18.918  1.00  0.00    -0.775 OA
HETATM   48  H27 UNL     1      -2.681  51.901 -17.992  1.00  0.00     0.167 HD
ENDBRANCH  45  47
ENDBRANCH  37  45
ENDBRANCH  35  37
ENDBRANCH  32  33
BRANCH  32  49
HETATM   49  C26 UNL     1      -0.677  51.369 -24.515  1.00  0.00     0.009 C 
HETATM   50  C27 UNL     1      -1.429  51.417 -25.843  1.00  0.00     0.012 C 
HETATM   51  C28 UNL     1       0.678  52.066 -24.640  1.00  0.00     0.012 C 
ENDBRANCH  32  49
ENDBRANCH  30  32
ENDBRANCH  27  28
ENDBRANCH  26  27
ENDBRANCH  13  26
TORSDOF 12
ENDMDL
MODEL 8
REMARK minimizedAffinity -9.15964603
REMARK CNNscore 0.203737557
REMARK CNNaffinity 6.4779067
REMARK  12 active torsions:
REMARK  status: ('A' for Active; 'I' for Inactive)
REMARK    1  A    between atoms: C3_3  and  O1_4 
REMARK    2  A    between atoms: N1_14  and  O2_16 
REMARK    3  A    between atoms: O2_16  and  C13_17 
REMARK    4  A    between atoms: C13_17  and  C14_18 
REMARK       I    between atoms: C14_18  and  N2_20 
REMARK    5  A    between atoms: N2_20  and  C15_21 
REMARK    6  A    between atoms: C15_21  and  C16_22 
REMARK    7  A    between atoms: C15_21  and  C26_36 
REMARK       I    between atoms: C16_22  and  N3_24 
REMARK    8  A    between atoms: N3_24  and  C17_25 
REMARK    9  A    between atoms: C17_25  and  C18_26 
REMARK   10  A    between atoms: C17_25  and  C25_33 
REMARK   11  A    between atoms: C18_26  and  C19_27 
REMARK   12  A    between atoms: C25_33  and  O6_35 
ROOT
HETATM    1  C1  UNL     1      -7.554  46.843 -24.798  1.00  0.00     0.015 C 
HETATM    2  C2  UNL     1      -7.325  47.143 -23.657  1.00  0.00    -0.078 C 
HETATM    3  C3  UNL     1      -7.063  47.501 -22.242  1.00  0.00     0.128 C 
HETATM    4  C4  UNL     1      -6.500  46.262 -21.513  1.00  0.00     0.052 C 
HETATM    5  C5  UNL     1      -4.992  46.499 -21.379  1.00  0.00     0.010 C 
HETATM    6  C6  UNL     1      -4.664  47.743 -22.235  1.00  0.00     0.002 C 
HETATM    7  C7  UNL     1      -3.323  48.472 -21.931  1.00  0.00    -0.004 C 
HETATM    8  C8  UNL     1      -2.266  47.486 -21.375  1.00  0.00     0.010 C 
HETATM    9  C9  UNL     1      -0.948  48.139 -20.983  1.00  0.00     0.035 C 
HETATM   10  C10 UNL     1      -1.249  49.255 -20.018  1.00  0.00    -0.069 C 
HETATM   11  C11 UNL     1      -0.814  49.180 -18.750  1.00  0.00     0.030 C 
HETATM   12  C12 UNL     1      -1.242  50.149 -17.715  1.00  0.00     0.032 C 
HETATM   13  N1  UNL     1      -0.730  50.019 -16.522  1.00  0.00    -0.271 N 
ATOM     14  H1  UNL     1      -0.039  49.312 -16.272  1.00  0.00     0.194 HD
HETATM   15  C29 UNL     1      -2.327  51.137 -18.084  1.00  0.00     0.060 C 
HETATM   16  C30 UNL     1      -2.262  51.541 -19.553  1.00  0.00     0.020 C 
HETATM   17  C31 UNL     1      -2.113  50.374 -20.573  1.00  0.00    -0.016 C 
HETATM   18  C32 UNL     1      -1.384  51.017 -21.794  1.00  0.00     0.020 C 
HETATM   19  C33 UNL     1      -3.484  49.785 -21.092  1.00  0.00     0.002 C 
HETATM   20  C34 UNL     1      -4.586  49.595 -20.046  1.00  0.00     0.007 C 
HETATM   21  C35 UNL     1      -5.963  49.240 -20.650  1.00  0.00     0.014 C 
HETATM   22  C36 UNL     1      -5.945  48.593 -22.071  1.00  0.00     0.003 C 
HETATM   23  C37 UNL     1      -6.094  49.702 -23.139  1.00  0.00     0.020 C 
ENDROOT
BRANCH   3  24
HETATM   24  O1  UNL     1      -8.308  47.902 -21.685  1.00  0.00    -0.377 OA
HETATM   25  H2  UNL     1      -8.227  47.932 -20.723  1.00  0.00     0.211 HD
ENDBRANCH   3  24
BRANCH  13  26
HETATM   26  O2  UNL     1      -1.242  50.965 -15.625  1.00  0.00    -0.271 OA
BRANCH  26  27
HETATM   27  C13 UNL     1      -0.740  50.682 -14.323  1.00  0.00     0.303 C 
BRANCH  27  28
HETATM   28  C14 UNL     1      -0.547  51.970 -13.542  1.00  0.00     0.244 C 
HETATM   29  O3  UNL     1       0.272  52.824 -13.874  1.00  0.00    -0.271 OA
HETATM   30  N2  UNL     1      -1.404  52.136 -12.479  1.00  0.00    -0.346 N 
HETATM   31  H16 UNL     1      -1.962  51.342 -12.168  1.00  0.00     0.163 HD
BRANCH  30  32
HETATM   32  C15 UNL     1      -1.336  53.297 -11.591  1.00  0.00     0.180 C 
BRANCH  32  33
HETATM   33  C16 UNL     1      -0.006  53.200 -10.812  1.00  0.00     0.241 C 
HETATM   34  O4  UNL     1       0.211  52.307  -9.989  1.00  0.00    -0.271 OA
HETATM   35  N3  UNL     1       0.924  54.166 -11.107  1.00  0.00    -0.345 N 
HETATM   36  H18 UNL     1       0.784  54.754 -11.924  1.00  0.00     0.163 HD
BRANCH  35  37
HETATM   37  C17 UNL     1       2.300  54.111 -10.603  1.00  0.00     0.186 C 
BRANCH  37  38
HETATM   38  C18 UNL     1       3.055  55.439 -10.774  1.00  0.00     0.074 C 
BRANCH  38  39
HETATM   39  C19 UNL     1       4.024  55.773  -9.659  1.00  0.00    -0.056 A 
HETATM   40  C20 UNL     1       5.288  55.171  -9.613  1.00  0.00     0.007 A 
HETATM   41  C21 UNL     1       6.177  55.455  -8.575  1.00  0.00     0.001 A 
HETATM   42  C22 UNL     1       5.815  56.352  -7.572  1.00  0.00     0.000 A 
HETATM   43  C23 UNL     1       4.568  56.971  -7.615  1.00  0.00     0.001 A 
HETATM   44  C24 UNL     1       3.678  56.689  -8.655  1.00  0.00     0.007 A 
ENDBRANCH  38  39
ENDBRANCH  37  38
BRANCH  37  45
HETATM   45  C25 UNL     1       3.058  52.949 -11.251  1.00  0.00     0.163 C 
HETATM   46  O5  UNL     1       3.679  52.076 -10.667  1.00  0.00    -0.648 OA
BRANCH  45  47
HETATM   47  O6  UNL     1       2.998  52.946 -12.602  1.00  0.00    -0.775 OA
HETATM   48  H27 UNL     1       3.514  52.148 -12.854  1.00  0.00     0.167 HD
ENDBRANCH  45  47
ENDBRANCH  37  45
ENDBRANCH  35  37
ENDBRANCH  32  33
BRANCH  32  49
HETATM   49  C26 UNL     1      -2.600  53.391 -10.703  1.00  0.00     0.009 C 
HETATM   50  C27 UNL     1      -3.897  53.351 -11.508  1.00  0.00     0.012 C 
HETATM   51  C28 UNL     1      -2.620  52.334  -9.599  1.00  0.00     0.012 C 
ENDBRANCH  32  49
ENDBRANCH  30  32
ENDBRANCH  27  28
ENDBRANCH  26  27
ENDBRANCH  13  26
TORSDOF 12
ENDMDL
MODEL 9
REMARK minimizedAffinity -9.57285595
REMARK CNNscore 0.195713922
REMARK CNNaffinity 7.15658188
REMARK  12 active torsions:
REMARK  status: ('A' for Active; 'I' for Inactive)
REMARK    1  A    between atoms: C3_3  and  O1_4 
REMARK    2  A    between atoms: N1_14  and  O2_16 
REMARK    3  A    between atoms: O2_16  and  C13_17 
REMARK    4  A    between atoms: C13_17  and  C14_18 
REMARK       I    between atoms: C14_18  and  N2_20 
REMARK    5  A    between atoms: N2_20  and  C15_21 
REMARK    6  A    between atoms: C15_21  and  C16_22 
REMARK    7  A    between atoms: C15_21  and  C26_36 
REMARK       I    between atoms: C16_22  and  N3_24 
REMARK    8  A    between atoms: N3_24  and  C17_25 
REMARK    9  A    between atoms: C17_25  and  C18_26 
REMARK   10  A    between atoms: C17_25  and  C25_33 
REMARK   11  A    between atoms: C18_26  and  C19_27 
REMARK   12  A    between atoms: C25_33  and  O6_35 
ROOT
HETATM    1  C1  UNL     1      -3.252  50.513  -9.017  1.00  0.00     0.015 C 
HETATM    2  C2  UNL     1      -3.237  51.108 -10.061  1.00  0.00    -0.078 C 
HETATM    3  C3  UNL     1      -3.234  51.861 -11.339  1.00  0.00     0.128 C 
HETATM    4  C4  UNL     1      -2.295  53.078 -11.195  1.00  0.00     0.052 C 
HETATM    5  C5  UNL     1      -1.005  52.708 -11.934  1.00  0.00     0.010 C 
HETATM    6  C6  UNL     1      -1.114  51.206 -12.285  1.00  0.00     0.002 C 
HETATM    7  C7  UNL     1      -0.178  50.678 -13.410  1.00  0.00    -0.004 C 
HETATM    8  C8  UNL     1       1.132  51.502 -13.478  1.00  0.00     0.010 C 
HETATM    9  C9  UNL     1       2.071  51.092 -14.604  1.00  0.00     0.035 C 
HETATM   10  C10 UNL     1       1.298  51.141 -15.896  1.00  0.00    -0.069 C 
HETATM   11  C11 UNL     1       1.637  52.029 -16.844  1.00  0.00     0.030 C 
HETATM   12  C12 UNL     1       0.800  52.252 -18.045  1.00  0.00     0.032 C 
HETATM   13  N1  UNL     1       1.235  53.104 -18.932  1.00  0.00    -0.271 N 
ATOM     14  H1  UNL     1       2.123  53.599 -18.858  1.00  0.00     0.194 HD
HETATM   15  C29 UNL     1      -0.550  51.570 -18.096  1.00  0.00     0.060 C 
HETATM   16  C30 UNL     1      -0.539  50.218 -17.392  1.00  0.00     0.020 C 
HETATM   17  C31 UNL     1       0.116  50.192 -15.979  1.00  0.00    -0.016 C 
HETATM   18  C32 UNL     1       0.632  48.728 -15.818  1.00  0.00     0.020 C 
HETATM   19  C33 UNL     1      -0.886  50.479 -14.793  1.00  0.00     0.002 C 
HETATM   20  C34 UNL     1      -1.905  51.600 -15.014  1.00  0.00     0.007 C 
HETATM   21  C35 UNL     1      -2.996  51.675 -13.922  1.00  0.00     0.014 C 
HETATM   22  C36 UNL     1      -2.631  51.046 -12.541  1.00  0.00     0.003 C 
HETATM   23  C37 UNL     1      -3.114  49.577 -12.504  1.00  0.00     0.020 C 
ENDROOT
BRANCH   3  24
HETATM   24  O1  UNL     1      -4.574  52.271 -11.575  1.00  0.00    -0.377 OA
HETATM   25  H2  UNL     1      -4.580  52.941 -12.270  1.00  0.00     0.211 HD
ENDBRANCH   3  24
BRANCH  13  26
HETATM   26  O2  UNL     1       0.338  53.258 -19.996  1.00  0.00    -0.271 OA
BRANCH  26  27
HETATM   27  C13 UNL     1       1.052  53.119 -21.221  1.00  0.00     0.303 C 
BRANCH  27  28
HETATM   28  C14 UNL     1       0.194  52.403 -22.251  1.00  0.00     0.244 C 
HETATM   29  O3  UNL     1      -0.365  51.335 -22.014  1.00  0.00    -0.271 OA
HETATM   30  N2  UNL     1       0.038  53.077 -23.440  1.00  0.00    -0.346 N 
HETATM   31  H16 UNL     1       0.631  53.882 -23.632  1.00  0.00     0.163 HD
BRANCH  30  32
HETATM   32  C15 UNL     1      -0.722  52.521 -24.562  1.00  0.00     0.180 C 
BRANCH  32  33
HETATM   33  C16 UNL     1      -2.092  52.071 -24.007  1.00  0.00     0.241 C 
HETATM   34  O4  UNL     1      -2.950  52.877 -23.641  1.00  0.00    -0.271 OA
HETATM   35  N3  UNL     1      -2.294  50.713 -23.959  1.00  0.00    -0.345 N 
HETATM   36  H18 UNL     1      -1.650  50.101 -24.451  1.00  0.00     0.163 HD
BRANCH  35  37
HETATM   37  C17 UNL     1      -3.599  50.125 -23.641  1.00  0.00     0.186 C 
BRANCH  37  38
HETATM   38  C18 UNL     1      -4.020  49.028 -24.632  1.00  0.00     0.074 C 
BRANCH  38  39
HETATM   39  C19 UNL     1      -5.205  48.192 -24.196  1.00  0.00    -0.056 A 
HETATM   40  C20 UNL     1      -6.241  47.908 -25.095  1.00  0.00     0.007 A 
HETATM   41  C21 UNL     1      -7.349  47.158 -24.694  1.00  0.00     0.001 A 
HETATM   42  C22 UNL     1      -7.431  46.678 -23.388  1.00  0.00     0.000 A 
HETATM   43  C23 UNL     1      -6.399  46.939 -22.489  1.00  0.00     0.001 A 
HETATM   44  C24 UNL     1      -5.289  47.687 -22.891  1.00  0.00     0.007 A 
ENDBRANCH  38  39
ENDBRANCH  37  38
BRANCH  37  45
HETATM   45  C25 UNL     1      -4.664  51.219 -23.531  1.00  0.00     0.163 C 
HETATM   46  O5  UNL     1      -5.103  51.701 -22.500  1.00  0.00    -0.648 OA
BRANCH  45  47
HETATM   47  O6  UNL     1      -5.126  51.650 -24.727  1.00  0.00    -0.775 OA
HETATM   48  H27 UNL     1      -5.779  52.343 -24.486  1.00  0.00     0.167 HD
ENDBRANCH  45  47
ENDBRANCH  37  45
ENDBRANCH  35  37
ENDBRANCH  32  33
BRANCH  32  49
HETATM   49  C26 UNL     1       0.081  51.410 -25.279  1.00  0.00     0.009 C 
HETATM   50  C27 UNL     1      -0.671  50.797 -26.457  1.00  0.00     0.012 C 
HETATM   51  C28 UNL     1       1.470  51.880 -25.714  1.00  0.00     0.012 C 
ENDBRANCH  32  49
ENDBRANCH  30  32
ENDBRANCH  27  28
ENDBRANCH  26  27
ENDBRANCH  13  26
TORSDOF 12
ENDMDL
