MODEL 1
REMARK minimizedAffinity -6.48040104
REMARK  11 active torsions:
REMARK  status: ('A' for Active; 'I' for Inactive)
REMARK    1  A    between atoms: C2_2  and  C3_3 
REMARK    2  A    between atoms: C3_3  and  O1_4 
REMARK    3  A    between atoms: O1_4  and  C4_5 
REMARK    4  A    between atoms: C6_7  and  N1_8 
REMARK    5  A    between atoms: C9_11  and  C10_12 
REMARK    6  A    between atoms: C10_12  and  O3_14 
REMARK    7  A    between atoms: O3_14  and  C11_15 
REMARK    8  A    between atoms: C11_15  and  C12_16 
REMARK    9  A    between atoms: C12_16  and  N2_17 
REMARK   10  A    between atoms: N2_17  and  C13_18 
REMARK   11  A    between atoms: N2_17  and  C15_20 
ROOT
HETATM    1  C4  UNL     1       0.174  52.015 -25.314  1.00  0.00     0.086 A 
HETATM    2  C5  UNL     1       1.521  51.912 -25.681  1.00  0.00     0.061 A 
HETATM    3  C6  UNL     1       1.888  51.812 -27.026  1.00  0.00     0.008 A 
HETATM    4  C7  UNL     1       0.883  51.731 -27.992  1.00  0.00     0.024 A 
HETATM    5  C8  UNL     1      -0.463  51.856 -27.635  1.00  0.00     0.022 A 
HETATM    6  C9  UNL     1      -0.824  52.015 -26.292  1.00  0.00     0.072 A 
ENDROOT
BRANCH   6   7
HETATM    7  C10 UNL     1      -2.254  52.114 -25.919  1.00  0.00     0.296 C 
HETATM    8  O2  UNL     1      -2.998  53.015 -26.268  1.00  0.00    -0.259 OA
BRANCH   7   9
HETATM    9  O3  UNL     1      -2.565  51.063 -25.122  1.00  0.00    -0.316 OA
BRANCH   9  10
HETATM   10  C11 UNL     1      -3.551  51.302 -24.104  1.00  0.00     0.198 C 
BRANCH  10  11
HETATM   11  C12 UNL     1      -4.743  50.347 -24.299  1.00  0.00     0.143 C 
BRANCH  11  12
HETATM   12  N2  UNL     1      -4.392  48.936 -24.521  1.00  0.00    -0.411 N 
BRANCH  12  13
HETATM   13  C13 UNL     1      -4.563  48.481 -25.904  1.00  0.00     0.112 C 
HETATM   14  C14 UNL     1      -3.306  48.346 -26.758  1.00  0.00     0.026 C 
ENDBRANCH  12  13
BRANCH  12  15
HETATM   15  C15 UNL     1      -3.156  48.476 -23.879  1.00  0.00     0.112 C 
HETATM   16  C16 UNL     1      -3.248  48.094 -22.408  1.00  0.00     0.026 C 
ENDBRANCH  12  15
ENDBRANCH  11  12
ENDBRANCH  10  11
ENDBRANCH   9  10
ENDBRANCH   7   9
ENDBRANCH   6   7
BRANCH   1  17
HETATM   17  O1  UNL     1      -0.129  52.206 -23.991  1.00  0.00    -0.350 OA
BRANCH  17  18
HETATM   18  C3  UNL     1       0.714  53.216 -23.419  1.00  0.00     0.175 C 
BRANCH  18  19
HETATM   19  C2  UNL     1       0.905  52.887 -21.943  1.00  0.00     0.022 C 
HETATM   20  C1  UNL     1       1.271  54.118 -21.132  1.00  0.00     0.007 C 
ENDBRANCH  18  19
ENDBRANCH  17  18
ENDBRANCH   1  17
BRANCH   3  21
HETATM   21  N1  UNL     1       3.222  51.574 -27.375  1.00  0.00    -0.303 NA
HETATM   22  H9  UNL     1       3.449  51.822 -28.333  1.00  0.00     0.124 HD
HETATM   23  H10 UNL     1       3.895  51.946 -26.713  1.00  0.00     0.124 HD
ENDBRANCH   3  21
TORSDOF 11
ENDMDL
MODEL 2
REMARK minimizedAffinity -6.47289944
REMARK  11 active torsions:
REMARK  status: ('A' for Active; 'I' for Inactive)
REMARK    1  A    between atoms: C2_2  and  C3_3 
REMARK    2  A    between atoms: C3_3  and  O1_4 
REMARK    3  A    between atoms: O1_4  and  C4_5 
REMARK    4  A    between atoms: C6_7  and  N1_8 
REMARK    5  A    between atoms: C9_11  and  C10_12 
REMARK    6  A    between atoms: C10_12  and  O3_14 
REMARK    7  A    between atoms: O3_14  and  C11_15 
REMARK    8  A    between atoms: C11_15  and  C12_16 
REMARK    9  A    between atoms: C12_16  and  N2_17 
REMARK   10  A    between atoms: N2_17  and  C13_18 
REMARK   11  A    between atoms: N2_17  and  C15_20 
ROOT
HETATM    1  C4  UNL     1       0.212  52.018 -25.411  1.00  0.00     0.086 A 
HETATM    2  C5  UNL     1       1.564  51.861 -25.739  1.00  0.00     0.061 A 
HETATM    3  C6  UNL     1       1.969  51.765 -27.073  1.00  0.00     0.008 A 
HETATM    4  C7  UNL     1       0.991  51.744 -28.071  1.00  0.00     0.024 A 
HETATM    5  C8  UNL     1      -0.358  51.924 -27.754  1.00  0.00     0.022 A 
HETATM    6  C9  UNL     1      -0.754  52.078 -26.419  1.00  0.00     0.072 A 
ENDROOT
BRANCH   6   7
HETATM    7  C10 UNL     1      -2.189  52.234 -26.088  1.00  0.00     0.296 C 
HETATM    8  O2  UNL     1      -2.929  53.060 -26.596  1.00  0.00    -0.259 OA
BRANCH   7   9
HETATM    9  O3  UNL     1      -2.511  51.332 -25.129  1.00  0.00    -0.316 OA
BRANCH   9  10
HETATM   10  C11 UNL     1      -3.688  51.615 -24.355  1.00  0.00     0.198 C 
BRANCH  10  11
HETATM   11  C12 UNL     1      -4.568  50.354 -24.267  1.00  0.00     0.143 C 
BRANCH  11  12
HETATM   12  N2  UNL     1      -3.883  49.085 -24.551  1.00  0.00    -0.411 N 
BRANCH  12  13
HETATM   13  C13 UNL     1      -3.696  48.224 -23.378  1.00  0.00     0.112 C 
HETATM   14  C14 UNL     1      -2.494  48.511 -22.482  1.00  0.00     0.026 C 
ENDBRANCH  12  13
BRANCH  12  15
HETATM   15  C15 UNL     1      -4.321  48.378 -25.759  1.00  0.00     0.112 C 
HETATM   16  C16 UNL     1      -3.416  48.480 -26.979  1.00  0.00     0.026 C 
ENDBRANCH  12  15
ENDBRANCH  11  12
ENDBRANCH  10  11
ENDBRANCH   9  10
ENDBRANCH   7   9
ENDBRANCH   6   7
BRANCH   1  17
HETATM   17  O1  UNL     1      -0.123  52.202 -24.095  1.00  0.00    -0.350 OA
BRANCH  17  18
HETATM   18  C3  UNL     1       0.656  53.258 -23.516  1.00  0.00     0.175 C 
BRANCH  18  19
HETATM   19  C2  UNL     1       0.787  52.981 -22.023  1.00  0.00     0.022 C 
HETATM   20  C1  UNL     1       1.461  54.128 -21.292  1.00  0.00     0.007 C 
ENDBRANCH  18  19
ENDBRANCH  17  18
ENDBRANCH   1  17
BRANCH   3  21
HETATM   21  N1  UNL     1       3.301  51.474 -27.386  1.00  0.00    -0.303 NA
HETATM   22  H9  UNL     1       3.568  51.727 -28.332  1.00  0.00     0.124 HD
HETATM   23  H10 UNL     1       3.969  51.806 -26.698  1.00  0.00     0.124 HD
ENDBRANCH   3  21
TORSDOF 11
ENDMDL
MODEL 3
REMARK minimizedAffinity -6.41715384
REMARK  11 active torsions:
REMARK  status: ('A' for Active; 'I' for Inactive)
REMARK    1  A    between atoms: C2_2  and  C3_3 
REMARK    2  A    between atoms: C3_3  and  O1_4 
REMARK    3  A    between atoms: O1_4  and  C4_5 
REMARK    4  A    between atoms: C6_7  and  N1_8 
REMARK    5  A    between atoms: C9_11  and  C10_12 
REMARK    6  A    between atoms: C10_12  and  O3_14 
REMARK    7  A    between atoms: O3_14  and  C11_15 
REMARK    8  A    between atoms: C11_15  and  C12_16 
REMARK    9  A    between atoms: C12_16  and  N2_17 
REMARK   10  A    between atoms: N2_17  and  C13_18 
REMARK   11  A    between atoms: N2_17  and  C15_20 
ROOT
HETATM    1  C4  UNL     1       0.121  51.760 -25.495  1.00  0.00     0.086 A 
HETATM    2  C5  UNL     1       1.491  51.743 -25.783  1.00  0.00     0.061 A 
HETATM    3  C6  UNL     1       1.946  51.883 -27.097  1.00  0.00     0.008 A 
HETATM    4  C7  UNL     1       1.007  51.955 -28.129  1.00  0.00     0.024 A 
HETATM    5  C8  UNL     1      -0.362  51.995 -27.848  1.00  0.00     0.022 A 
HETATM    6  C9  UNL     1      -0.813  51.913 -26.524  1.00  0.00     0.072 A 
ENDROOT
BRANCH   6   7
HETATM    7  C10 UNL     1      -2.266  51.923 -26.238  1.00  0.00     0.296 C 
HETATM    8  O2  UNL     1      -2.750  52.080 -25.130  1.00  0.00    -0.259 OA
BRANCH   7   9
HETATM    9  O3  UNL     1      -2.934  51.707 -27.396  1.00  0.00    -0.316 OA
BRANCH   9  10
HETATM   10  C11 UNL     1      -3.098  50.335 -27.794  1.00  0.00     0.198 C 
BRANCH  10  11
HETATM   11  C12 UNL     1      -3.110  49.430 -26.549  1.00  0.00     0.143 C 
BRANCH  11  12
HETATM   12  N2  UNL     1      -4.146  48.386 -26.536  1.00  0.00    -0.411 N 
BRANCH  12  13
HETATM   13  C13 UNL     1      -5.036  48.432 -25.372  1.00  0.00     0.112 C 
HETATM   14  C14 UNL     1      -4.384  48.506 -23.994  1.00  0.00     0.026 C 
ENDBRANCH  12  13
BRANCH  12  15
HETATM   15  C15 UNL     1      -4.828  48.147 -27.812  1.00  0.00     0.112 C 
HETATM   16  C16 UNL     1      -6.267  47.655 -27.740  1.00  0.00     0.026 C 
ENDBRANCH  12  15
ENDBRANCH  11  12
ENDBRANCH  10  11
ENDBRANCH   9  10
ENDBRANCH   7   9
ENDBRANCH   6   7
BRANCH   1  17
HETATM   17  O1  UNL     1      -0.271  51.713 -24.183  1.00  0.00    -0.350 OA
BRANCH  17  18
HETATM   18  C3  UNL     1       0.582  52.531 -23.370  1.00  0.00     0.175 C 
BRANCH  18  19
HETATM   19  C2  UNL     1       0.063  52.474 -21.939  1.00  0.00     0.022 C 
HETATM   20  C1  UNL     1       0.918  53.298 -20.993  1.00  0.00     0.007 C 
ENDBRANCH  18  19
ENDBRANCH  17  18
ENDBRANCH   1  17
BRANCH   3  21
HETATM   21  N1  UNL     1       3.306  51.731 -27.391  1.00  0.00    -0.303 NA
HETATM   22  H9  UNL     1       3.586  52.144 -28.274  1.00  0.00     0.124 HD
HETATM   23  H10 UNL     1       3.924  51.993 -26.631  1.00  0.00     0.124 HD
ENDBRANCH   3  21
TORSDOF 11
ENDMDL
MODEL 4
REMARK minimizedAffinity -6.16569281
REMARK  11 active torsions:
REMARK  status: ('A' for Active; 'I' for Inactive)
REMARK    1  A    between atoms: C2_2  and  C3_3 
REMARK    2  A    between atoms: C3_3  and  O1_4 
REMARK    3  A    between atoms: O1_4  and  C4_5 
REMARK    4  A    between atoms: C6_7  and  N1_8 
REMARK    5  A    between atoms: C9_11  and  C10_12 
REMARK    6  A    between atoms: C10_12  and  O3_14 
REMARK    7  A    between atoms: O3_14  and  C11_15 
REMARK    8  A    between atoms: C11_15  and  C12_16 
REMARK    9  A    between atoms: C12_16  and  N2_17 
REMARK   10  A    between atoms: N2_17  and  C13_18 
REMARK   11  A    between atoms: N2_17  and  C15_20 
ROOT
HETATM    1  C4  UNL     1       0.025  51.821 -25.462  1.00  0.00     0.086 A 
HETATM    2  C5  UNL     1       1.394  51.769 -25.752  1.00  0.00     0.061 A 
HETATM    3  C6  UNL     1       1.843  51.757 -27.075  1.00  0.00     0.008 A 
HETATM    4  C7  UNL     1       0.900  51.714 -28.104  1.00  0.00     0.024 A 
HETATM    5  C8  UNL     1      -0.468  51.788 -27.824  1.00  0.00     0.022 A 
HETATM    6  C9  UNL     1      -0.913  51.858 -26.497  1.00  0.00     0.072 A 
ENDROOT
BRANCH   6   7
HETATM    7  C10 UNL     1      -2.364  51.904 -26.208  1.00  0.00     0.296 C 
HETATM    8  O2  UNL     1      -3.043  52.916 -26.239  1.00  0.00    -0.259 OA
BRANCH   7   9
HETATM    9  O3  UNL     1      -2.779  50.654 -25.888  1.00  0.00    -0.316 OA
BRANCH   9  10
HETATM   10  C11 UNL     1      -3.959  50.560 -25.072  1.00  0.00     0.198 C 
BRANCH  10  11
HETATM   11  C12 UNL     1      -3.679  51.157 -23.681  1.00  0.00     0.143 C 
BRANCH  11  12
HETATM   12  N2  UNL     1      -3.853  50.233 -22.551  1.00  0.00    -0.411 N 
BRANCH  12  13
HETATM   13  C13 UNL     1      -2.611  49.612 -22.081  1.00  0.00     0.112 C 
HETATM   14  C14 UNL     1      -2.422  48.123 -22.360  1.00  0.00     0.026 C 
ENDBRANCH  12  13
BRANCH  12  15
HETATM   15  C15 UNL     1      -4.744  50.693 -21.480  1.00  0.00     0.112 C 
HETATM   16  C16 UNL     1      -4.332  50.359 -20.053  1.00  0.00     0.026 C 
ENDBRANCH  12  15
ENDBRANCH  11  12
ENDBRANCH  10  11
ENDBRANCH   9  10
ENDBRANCH   7   9
ENDBRANCH   6   7
BRANCH   1  17
HETATM   17  O1  UNL     1      -0.361  51.925 -24.151  1.00  0.00    -0.350 OA
BRANCH  17  18
HETATM   18  C3  UNL     1       0.517  52.803 -23.433  1.00  0.00     0.175 C 
BRANCH  18  19
HETATM   19  C2  UNL     1       0.415  52.459 -21.951  1.00  0.00     0.022 C 
HETATM   20  C1  UNL     1       1.377  53.281 -21.112  1.00  0.00     0.007 C 
ENDBRANCH  18  19
ENDBRANCH  17  18
ENDBRANCH   1  17
BRANCH   3  21
HETATM   21  N1  UNL     1       3.201  51.570 -27.356  1.00  0.00    -0.303 NA
HETATM   22  H9  UNL     1       3.478  51.880 -28.282  1.00  0.00     0.124 HD
HETATM   23  H10 UNL     1       3.824  51.916 -26.633  1.00  0.00     0.124 HD
ENDBRANCH   3  21
TORSDOF 11
ENDMDL
MODEL 5
REMARK minimizedAffinity -5.95718622
REMARK  11 active torsions:
REMARK  status: ('A' for Active; 'I' for Inactive)
REMARK    1  A    between atoms: C2_2  and  C3_3 
REMARK    2  A    between atoms: C3_3  and  O1_4 
REMARK    3  A    between atoms: O1_4  and  C4_5 
REMARK    4  A    between atoms: C6_7  and  N1_8 
REMARK    5  A    between atoms: C9_11  and  C10_12 
REMARK    6  A    between atoms: C10_12  and  O3_14 
REMARK    7  A    between atoms: O3_14  and  C11_15 
REMARK    8  A    between atoms: C11_15  and  C12_16 
REMARK    9  A    between atoms: C12_16  and  N2_17 
REMARK   10  A    between atoms: N2_17  and  C13_18 
REMARK   11  A    between atoms: N2_17  and  C15_20 
ROOT
HETATM    1  C4  UNL     1      -0.010  51.938 -22.867  1.00  0.00     0.086 A 
HETATM    2  C5  UNL     1       0.767  53.100 -22.941  1.00  0.00     0.061 A 
HETATM    3  C6  UNL     1       1.248  53.712 -21.780  1.00  0.00     0.008 A 
HETATM    4  C7  UNL     1       0.870  53.191 -20.540  1.00  0.00     0.024 A 
HETATM    5  C8  UNL     1       0.114  52.018 -20.458  1.00  0.00     0.022 A 
HETATM    6  C9  UNL     1      -0.318  51.375 -21.625  1.00  0.00     0.072 A 
ENDROOT
BRANCH   6   7
HETATM    7  C10 UNL     1      -1.147  50.151 -21.529  1.00  0.00     0.296 C 
HETATM    8  O2  UNL     1      -0.712  49.042 -21.268  1.00  0.00    -0.259 OA
BRANCH   7   9
HETATM    9  O3  UNL     1      -2.433  50.480 -21.802  1.00  0.00    -0.316 OA
BRANCH   9  10
HETATM   10  C11 UNL     1      -3.271  49.424 -22.301  1.00  0.00     0.198 C 
BRANCH  10  11
HETATM   11  C12 UNL     1      -4.470  50.024 -23.056  1.00  0.00     0.143 C 
BRANCH  11  12
HETATM   12  N2  UNL     1      -4.231  50.344 -24.471  1.00  0.00    -0.411 N 
BRANCH  12  13
HETATM   13  C13 UNL     1      -4.184  51.779 -24.767  1.00  0.00     0.112 C 
HETATM   14  C14 UNL     1      -3.228  52.238 -25.865  1.00  0.00     0.026 C 
ENDBRANCH  12  13
BRANCH  12  15
HETATM   15  C15 UNL     1      -3.192  49.552 -25.138  1.00  0.00     0.112 C 
HETATM   16  C16 UNL     1      -3.663  48.392 -26.005  1.00  0.00     0.026 C 
ENDBRANCH  12  15
ENDBRANCH  11  12
ENDBRANCH  10  11
ENDBRANCH   9  10
ENDBRANCH   7   9
ENDBRANCH   6   7
BRANCH   1  17
HETATM   17  O1  UNL     1      -0.378  51.323 -24.035  1.00  0.00    -0.350 OA
BRANCH  17  18
HETATM   18  C3  UNL     1       0.330  51.886 -25.148  1.00  0.00     0.175 C 
BRANCH  18  19
HETATM   19  C2  UNL     1       0.298  50.872 -26.286  1.00  0.00     0.022 C 
HETATM   20  C1  UNL     1       0.582  51.520 -27.630  1.00  0.00     0.007 C 
ENDBRANCH  18  19
ENDBRANCH  17  18
ENDBRANCH   1  17
BRANCH   3  21
HETATM   21  N1  UNL     1       1.908  54.944 -21.855  1.00  0.00    -0.303 NA
HETATM   22  H9  UNL     1       2.481  55.156 -21.045  1.00  0.00     0.124 HD
HETATM   23  H10 UNL     1       2.405  55.093 -22.726  1.00  0.00     0.124 HD
ENDBRANCH   3  21
TORSDOF 11
ENDMDL
MODEL 6
REMARK minimizedAffinity -5.91867876
REMARK  11 active torsions:
REMARK  status: ('A' for Active; 'I' for Inactive)
REMARK    1  A    between atoms: C2_2  and  C3_3 
REMARK    2  A    between atoms: C3_3  and  O1_4 
REMARK    3  A    between atoms: O1_4  and  C4_5 
REMARK    4  A    between atoms: C6_7  and  N1_8 
REMARK    5  A    between atoms: C9_11  and  C10_12 
REMARK    6  A    between atoms: C10_12  and  O3_14 
REMARK    7  A    between atoms: O3_14  and  C11_15 
REMARK    8  A    between atoms: C11_15  and  C12_16 
REMARK    9  A    between atoms: C12_16  and  N2_17 
REMARK   10  A    between atoms: N2_17  and  C13_18 
REMARK   11  A    between atoms: N2_17  and  C15_20 
ROOT
HETATM    1  C4  UNL     1      -0.612  51.258 -26.314  1.00  0.00     0.086 A 
HETATM    2  C5  UNL     1       0.555  51.067 -27.064  1.00  0.00     0.061 A 
HETATM    3  C6  UNL     1       1.794  51.492 -26.576  1.00  0.00     0.008 A 
HETATM    4  C7  UNL     1       1.837  52.187 -25.365  1.00  0.00     0.024 A 
HETATM    5  C8  UNL     1       0.679  52.362 -24.600  1.00  0.00     0.022 A 
HETATM    6  C9  UNL     1      -0.552  51.883 -25.066  1.00  0.00     0.072 A 
ENDROOT
BRANCH   6   7
HETATM    7  C10 UNL     1      -1.779  52.101 -24.265  1.00  0.00     0.296 C 
HETATM    8  O2  UNL     1      -2.602  52.972 -24.488  1.00  0.00    -0.259 OA
BRANCH   7   9
HETATM    9  O3  UNL     1      -1.801  51.196 -23.257  1.00  0.00    -0.316 OA
BRANCH   9  10
HETATM   10  C11 UNL     1      -1.866  51.727 -21.922  1.00  0.00     0.198 C 
BRANCH  10  11
HETATM   11  C12 UNL     1      -1.049  50.838 -20.968  1.00  0.00     0.143 C 
BRANCH  11  12
HETATM   12  N2  UNL     1      -0.021  51.535 -20.181  1.00  0.00    -0.411 N 
BRANCH  12  13
HETATM   13  C13 UNL     1       0.770  52.505 -20.944  1.00  0.00     0.112 C 
HETATM   14  C14 UNL     1       0.840  53.932 -20.405  1.00  0.00     0.026 C 
ENDBRANCH  12  13
BRANCH  12  15
HETATM   15  C15 UNL     1      -0.438  52.001 -18.854  1.00  0.00     0.112 C 
HETATM   16  C16 UNL     1       0.298  51.413 -17.658  1.00  0.00     0.026 C 
ENDBRANCH  12  15
ENDBRANCH  11  12
ENDBRANCH  10  11
ENDBRANCH   9  10
ENDBRANCH   7   9
ENDBRANCH   6   7
BRANCH   1  17
HETATM   17  O1  UNL     1      -1.787  50.740 -26.793  1.00  0.00    -0.350 OA
BRANCH  17  18
HETATM   18  C3  UNL     1      -1.974  49.395 -26.329  1.00  0.00     0.175 C 
BRANCH  18  19
HETATM   19  C2  UNL     1      -3.193  48.819 -27.040  1.00  0.00     0.022 C 
HETATM   20  C1  UNL     1      -4.282  48.419 -26.060  1.00  0.00     0.007 C 
ENDBRANCH  18  19
ENDBRANCH  17  18
ENDBRANCH   1  17
BRANCH   3  21
HETATM   21  N1  UNL     1       2.933  51.418 -27.386  1.00  0.00    -0.303 NA
HETATM   22  H9  UNL     1       3.808  51.446 -26.873  1.00  0.00     0.124 HD
HETATM   23  H10 UNL     1       2.909  50.664 -28.064  1.00  0.00     0.124 HD
ENDBRANCH   3  21
TORSDOF 11
ENDMDL
MODEL 7
REMARK minimizedAffinity -5.87932205
REMARK  11 active torsions:
REMARK  status: ('A' for Active; 'I' for Inactive)
REMARK    1  A    between atoms: C2_2  and  C3_3 
REMARK    2  A    between atoms: C3_3  and  O1_4 
REMARK    3  A    between atoms: O1_4  and  C4_5 
REMARK    4  A    between atoms: C6_7  and  N1_8 
REMARK    5  A    between atoms: C9_11  and  C10_12 
REMARK    6  A    between atoms: C10_12  and  O3_14 
REMARK    7  A    between atoms: O3_14  and  C11_15 
REMARK    8  A    between atoms: C11_15  and  C12_16 
REMARK    9  A    between atoms: C12_16  and  N2_17 
REMARK   10  A    between atoms: N2_17  and  C13_18 
REMARK   11  A    between atoms: N2_17  and  C15_20 
ROOT
HETATM    1  C4  UNL     1      -1.948  52.040 -26.580  1.00  0.00     0.086 A 
HETATM    2  C5  UNL     1      -2.742  51.508 -27.603  1.00  0.00     0.061 A 
HETATM    3  C6  UNL     1      -3.209  50.193 -27.533  1.00  0.00     0.008 A 
HETATM    4  C7  UNL     1      -2.801  49.390 -26.465  1.00  0.00     0.024 A 
HETATM    5  C8  UNL     1      -2.027  49.921 -25.428  1.00  0.00     0.022 A 
HETATM    6  C9  UNL     1      -1.609  51.257 -25.473  1.00  0.00     0.072 A 
ENDROOT
BRANCH   6   7
HETATM    7  C10 UNL     1      -0.762  51.802 -24.387  1.00  0.00     0.296 C 
HETATM    8  O2  UNL     1       0.452  51.698 -24.341  1.00  0.00    -0.259 OA
BRANCH   7   9
HETATM    9  O3  UNL     1      -1.565  52.396 -23.472  1.00  0.00    -0.316 OA
BRANCH   9  10
HETATM   10  C11 UNL     1      -1.757  51.690 -22.235  1.00  0.00     0.198 C 
BRANCH  10  11
HETATM   11  C12 UNL     1      -0.473  51.767 -21.388  1.00  0.00     0.143 C 
BRANCH  11  12
HETATM   12  N2  UNL     1      -0.560  52.605 -20.183  1.00  0.00    -0.411 N 
BRANCH  12  13
HETATM   13  C13 UNL     1      -1.051  51.903 -18.993  1.00  0.00     0.112 C 
HETATM   14  C14 UNL     1      -0.350  50.603 -18.607  1.00  0.00     0.026 C 
ENDBRANCH  12  13
BRANCH  12  15
HETATM   15  C15 UNL     1       0.582  53.491 -19.937  1.00  0.00     0.112 C 
HETATM   16  C16 UNL     1       1.313  54.025 -21.162  1.00  0.00     0.026 C 
ENDBRANCH  12  15
ENDBRANCH  11  12
ENDBRANCH  10  11
ENDBRANCH   9  10
ENDBRANCH   7   9
ENDBRANCH   6   7
BRANCH   1  17
HETATM   17  O1  UNL     1      -1.594  53.362 -26.650  1.00  0.00    -0.350 OA
BRANCH  17  18
HETATM   18  C3  UNL     1      -0.196  53.497 -26.943  1.00  0.00     0.175 C 
BRANCH  18  19
HETATM   19  C2  UNL     1       0.067  52.831 -28.288  1.00  0.00     0.022 C 
HETATM   20  C1  UNL     1       1.227  51.854 -28.218  1.00  0.00     0.007 C 
ENDBRANCH  18  19
ENDBRANCH  17  18
ENDBRANCH   1  17
BRANCH   3  21
HETATM   21  N1  UNL     1      -3.887  49.627 -28.619  1.00  0.00    -0.303 NA
HETATM   22  H9  UNL     1      -4.447  48.815 -28.380  1.00  0.00     0.124 HD
HETATM   23  H10 UNL     1      -4.404  50.298 -29.178  1.00  0.00     0.124 HD
ENDBRANCH   3  21
TORSDOF 11
ENDMDL
MODEL 8
REMARK minimizedAffinity -5.87082911
REMARK  11 active torsions:
REMARK  status: ('A' for Active; 'I' for Inactive)
REMARK    1  A    between atoms: C2_2  and  C3_3 
REMARK    2  A    between atoms: C3_3  and  O1_4 
REMARK    3  A    between atoms: O1_4  and  C4_5 
REMARK    4  A    between atoms: C6_7  and  N1_8 
REMARK    5  A    between atoms: C9_11  and  C10_12 
REMARK    6  A    between atoms: C10_12  and  O3_14 
REMARK    7  A    between atoms: O3_14  and  C11_15 
REMARK    8  A    between atoms: C11_15  and  C12_16 
REMARK    9  A    between atoms: C12_16  and  N2_17 
REMARK   10  A    between atoms: N2_17  and  C13_18 
REMARK   11  A    between atoms: N2_17  and  C15_20 
ROOT
HETATM    1  C4  UNL     1       0.050  52.247 -22.585  1.00  0.00     0.086 A 
HETATM    2  C5  UNL     1       0.113  52.413 -21.197  1.00  0.00     0.061 A 
HETATM    3  C6  UNL     1       0.769  53.514 -20.639  1.00  0.00     0.008 A 
HETATM    4  C7  UNL     1       1.434  54.402 -21.490  1.00  0.00     0.024 A 
HETATM    5  C8  UNL     1       1.356  54.254 -22.878  1.00  0.00     0.022 A 
HETATM    6  C9  UNL     1       0.648  53.182 -23.435  1.00  0.00     0.072 A 
ENDROOT
BRANCH   6   7
HETATM    7  C10 UNL     1       0.598  53.015 -24.905  1.00  0.00     0.296 C 
HETATM    8  O2  UNL     1       1.545  52.675 -25.594  1.00  0.00    -0.259 OA
BRANCH   7   9
HETATM    9  O3  UNL     1      -0.651  53.324 -25.331  1.00  0.00    -0.316 OA
BRANCH   9  10
HETATM   10  C11 UNL     1      -1.097  52.671 -26.532  1.00  0.00     0.198 C 
BRANCH  10  11
HETATM   11  C12 UNL     1      -1.291  51.167 -26.267  1.00  0.00     0.143 C 
BRANCH  11  12
HETATM   12  N2  UNL     1      -2.666  50.755 -25.947  1.00  0.00    -0.411 N 
BRANCH  12  13
HETATM   13  C13 UNL     1      -3.593  51.867 -25.720  1.00  0.00     0.112 C 
HETATM   14  C14 UNL     1      -4.259  51.956 -24.349  1.00  0.00     0.026 C 
ENDBRANCH  12  13
BRANCH  12  15
HETATM   15  C15 UNL     1      -3.212  49.666 -26.764  1.00  0.00     0.112 C 
HETATM   16  C16 UNL     1      -3.645  48.406 -26.027  1.00  0.00     0.026 C 
ENDBRANCH  12  15
ENDBRANCH  11  12
ENDBRANCH  10  11
ENDBRANCH   9  10
ENDBRANCH   7   9
ENDBRANCH   6   7
BRANCH   1  17
HETATM   17  O1  UNL     1      -0.685  51.203 -23.085  1.00  0.00    -0.350 OA
BRANCH  17  18
HETATM   18  C3  UNL     1      -1.016  50.273 -22.044  1.00  0.00     0.175 C 
BRANCH  18  19
HETATM   19  C2  UNL     1      -2.362  49.646 -22.385  1.00  0.00     0.022 C 
HETATM   20  C1  UNL     1      -2.293  48.129 -22.398  1.00  0.00     0.007 C 
ENDBRANCH  18  19
ENDBRANCH  17  18
ENDBRANCH   1  17
BRANCH   3  21
HETATM   21  N1  UNL     1       0.944  53.603 -19.254  1.00  0.00    -0.303 NA
HETATM   22  H9  UNL     1       1.137  54.542 -18.920  1.00  0.00     0.124 HD
HETATM   23  H10 UNL     1       0.215  53.147 -18.716  1.00  0.00     0.124 HD
ENDBRANCH   3  21
TORSDOF 11
ENDMDL
MODEL 9
REMARK minimizedAffinity -5.86137247
REMARK  11 active torsions:
REMARK  status: ('A' for Active; 'I' for Inactive)
REMARK    1  A    between atoms: C2_2  and  C3_3 
REMARK    2  A    between atoms: C3_3  and  O1_4 
REMARK    3  A    between atoms: O1_4  and  C4_5 
REMARK    4  A    between atoms: C6_7  and  N1_8 
REMARK    5  A    between atoms: C9_11  and  C10_12 
REMARK    6  A    between atoms: C10_12  and  O3_14 
REMARK    7  A    between atoms: O3_14  and  C11_15 
REMARK    8  A    between atoms: C11_15  and  C12_16 
REMARK    9  A    between atoms: C12_16  and  N2_17 
REMARK   10  A    between atoms: N2_17  and  C13_18 
REMARK   11  A    between atoms: N2_17  and  C15_20 
ROOT
HETATM    1  C4  UNL     1      -0.223  52.388 -23.448  1.00  0.00     0.086 A 
HETATM    2  C5  UNL     1       0.741  53.384 -23.246  1.00  0.00     0.061 A 
HETATM    3  C6  UNL     1       1.129  53.749 -21.954  1.00  0.00     0.008 A 
HETATM    4  C7  UNL     1       0.478  53.162 -20.866  1.00  0.00     0.024 A 
HETATM    5  C8  UNL     1      -0.468  52.152 -21.059  1.00  0.00     0.022 A 
HETATM    6  C9  UNL     1      -0.813  51.748 -22.355  1.00  0.00     0.072 A 
ENDROOT
BRANCH   6   7
HETATM    7  C10 UNL     1      -1.841  50.699 -22.552  1.00  0.00     0.296 C 
HETATM    8  O2  UNL     1      -1.597  49.518 -22.732  1.00  0.00    -0.259 OA
BRANCH   7   9
HETATM    9  O3  UNL     1      -3.063  51.284 -22.521  1.00  0.00    -0.316 OA
BRANCH   9  10
HETATM   10  C11 UNL     1      -3.762  51.372 -23.774  1.00  0.00     0.198 C 
BRANCH  10  11
HETATM   11  C12 UNL     1      -4.953  50.398 -23.775  1.00  0.00     0.143 C 
BRANCH  11  12
HETATM   12  N2  UNL     1      -4.612  48.983 -23.986  1.00  0.00    -0.411 N 
BRANCH  12  13
HETATM   13  C13 UNL     1      -5.277  48.057 -23.064  1.00  0.00     0.112 C 
HETATM   14  C14 UNL     1      -4.455  47.520 -21.896  1.00  0.00     0.026 C 
ENDBRANCH  12  13
BRANCH  12  15
HETATM   15  C15 UNL     1      -4.584  48.533 -25.382  1.00  0.00     0.112 C 
HETATM   16  C16 UNL     1      -3.223  48.502 -26.065  1.00  0.00     0.026 C 
ENDBRANCH  12  15
ENDBRANCH  11  12
ENDBRANCH  10  11
ENDBRANCH   9  10
ENDBRANCH   7   9
ENDBRANCH   6   7
BRANCH   1  17
HETATM   17  O1  UNL     1      -0.500  52.000 -24.733  1.00  0.00    -0.350 OA
BRANCH  17  18
HETATM   18  C3  UNL     1       0.524  52.450 -25.630  1.00  0.00     0.175 C 
BRANCH  18  19
HETATM   19  C2  UNL     1       1.110  51.226 -26.325  1.00  0.00     0.022 C 
HETATM   20  C1  UNL     1       2.579  51.414 -26.659  1.00  0.00     0.007 C 
ENDBRANCH  18  19
ENDBRANCH  17  18
ENDBRANCH   1  17
BRANCH   3  21
HETATM   21  N1  UNL     1       1.991  54.834 -21.757  1.00  0.00    -0.303 NA
HETATM   22  H9  UNL     1       2.456  54.835 -20.855  1.00  0.00     0.124 HD
HETATM   23  H10 UNL     1       2.638  54.991 -22.523  1.00  0.00     0.124 HD
ENDBRANCH   3  21
TORSDOF 11
ENDMDL
