MODEL 1
REMARK minimizedAffinity -7.71364355
REMARK CNNscore 0.415328979
REMARK CNNaffinity 6.40672159
REMARK  5 active torsions:
REMARK  status: ('A' for Active; 'I' for Inactive)
REMARK    1  A    between atoms: C2_2  and  C3_3 
REMARK    2  A    between atoms: C6_6  and  C7_7 
REMARK    3  A    between atoms: C7_7  and  O1_8 
REMARK    4  A    between atoms: C7_7  and  C8_9 
REMARK    5  A    between atoms: C26_32  and  O6_33 
ROOT
HETATM    1  C3  UNL     1      -0.497  16.113  -4.623  1.00  0.00     0.008 C 
HETATM    2  C4  UNL     1      -0.139  16.354  -3.170  1.00  0.00    -0.023 C 
HETATM    3  C5  UNL     1      -0.059  15.441  -2.187  1.00  0.00     0.005 C 
HETATM    4  C6  UNL     1       0.405  15.778  -0.790  1.00  0.00     0.187 C 
HETATM    5  O2  UNL     1       1.834  15.524  -0.766  1.00  0.00    -0.308 OA
HETATM    6  C12 UNL     1       2.629  16.630  -0.929  1.00  0.00     0.276 C 
HETATM    7  O3  UNL     1       2.211  17.774  -1.066  1.00  0.00    -0.264 OA
HETATM    8  C13 UNL     1       4.132  16.271  -0.762  1.00  0.00     0.095 C 
HETATM    9  C14 UNL     1       5.016  17.420  -1.303  1.00  0.00     0.036 C 
HETATM   10  C15 UNL     1       4.289  16.324   0.745  1.00  0.00     0.003 C 
HETATM   11  C16 UNL     1       4.838  15.495   1.632  1.00  0.00     0.072 C 
HETATM   12  C17 UNL     1       5.519  14.220   1.429  1.00  0.00     0.245 C 
HETATM   13  O4  UNL     1       6.025  13.667   2.405  1.00  0.00    -0.268 OA
HETATM   14  N1  UNL     1       5.592  13.633   0.221  1.00  0.00    -0.320 N 
HETATM   15  C18 UNL     1       5.140  13.893  -1.048  1.00  0.00     0.098 C 
HETATM   16  C19 UNL     1       4.488  14.976  -1.504  1.00  0.00     0.045 C 
HETATM   17  C20 UNL     1       4.060  14.987  -2.957  1.00  0.00     0.194 C 
HETATM   18  O5  UNL     1       3.473  15.956  -3.418  1.00  0.00    -0.287 OA
HETATM   19  C21 UNL     1       4.371  13.863  -3.861  1.00  0.00     0.046 A 
HETATM   20  C22 UNL     1       5.154  12.823  -3.382  1.00  0.00     0.032 A 
HETATM   21  C23 UNL     1       5.602  11.800  -4.234  1.00  0.00     0.026 A 
HETATM   22  C24 UNL     1       5.290  11.815  -5.596  1.00  0.00    -0.027 A 
HETATM   23  C25 UNL     1       5.807  10.741  -6.510  1.00  0.00     0.051 C 
HETATM   24  C26 UNL     1       4.482  12.846  -6.078  1.00  0.00     0.086 A 
HETATM   25  C27 UNL     1       3.979  13.838  -5.214  1.00  0.00     0.059 A 
HETATM   26  C28 UNL     1       2.973  14.751  -5.805  1.00  0.00     0.163 C 
HETATM   27  O7  UNL     1       3.274  15.339  -6.842  1.00  0.00    -0.292 OA
HETATM   28  C29 UNL     1       1.562  14.689  -5.251  1.00  0.00     0.084 C 
HETATM   29  C30 UNL     1       0.801  16.001  -5.456  1.00  0.00     0.016 C 
HETATM   30  C31 UNL     1       5.513  12.764  -1.965  1.00  0.00     0.210 C 
HETATM   31  O8  UNL     1       6.123  11.793  -1.521  1.00  0.00    -0.285 OA
HETATM   32  H24 UNL     1       6.094  12.743   0.297  1.00  0.00     0.169 HD
ENDROOT
BRANCH   4  33
HETATM   33  C7  UNL     1      -0.243  14.881   0.308  1.00  0.00     0.174 C 
BRANCH  33  34
HETATM   34  O1  UNL     1      -0.624  13.636  -0.284  1.00  0.00    -0.389 OA
HETATM   35  H11 UNL     1      -1.260  13.851  -0.987  1.00  0.00     0.210 HD
ENDBRANCH  33  34
BRANCH  33  36
HETATM   36  C8  UNL     1       0.658  14.667   1.505  1.00  0.00     0.009 C 
HETATM   37  C9  UNL     1       0.410  14.118   2.713  1.00  0.00    -0.089 C 
HETATM   38  C10 UNL     1       1.509  13.987   3.736  1.00  0.00     0.042 C 
HETATM   39  C11 UNL     1      -0.928  13.599   3.161  1.00  0.00     0.042 C 
ENDBRANCH  33  36
ENDBRANCH   4  33
BRANCH   1  40
HETATM   40  C2  UNL     1      -1.489  14.951  -4.839  1.00  0.00     0.004 C 
HETATM   41  C1  UNL     1      -1.516  14.447  -6.277  1.00  0.00     0.006 C 
ENDBRANCH   1  40
BRANCH  24  42
HETATM   42  O6  UNL     1       4.199  12.846  -7.421  1.00  0.00    -0.359 OA
HETATM   43  H29 UNL     1       3.896  13.745  -7.682  1.00  0.00     0.217 HD
ENDBRANCH  24  42
TORSDOF 5
ENDMDL
MODEL 2
REMARK minimizedAffinity -7.3222518
REMARK CNNscore 0.32264933
REMARK CNNaffinity 6.17364502
REMARK  5 active torsions:
REMARK  status: ('A' for Active; 'I' for Inactive)
REMARK    1  A    between atoms: C2_2  and  C3_3 
REMARK    2  A    between atoms: C6_6  and  C7_7 
REMARK    3  A    between atoms: C7_7  and  O1_8 
REMARK    4  A    between atoms: C7_7  and  C8_9 
REMARK    5  A    between atoms: C26_32  and  O6_33 
ROOT
HETATM    1  C3  UNL     1     -13.119   2.156  23.834  1.00  0.00     0.008 C 
HETATM    2  C4  UNL     1     -14.253   2.000  24.829  1.00  0.00    -0.023 C 
HETATM    3  C5  UNL     1     -14.262   2.375  26.120  1.00  0.00     0.005 C 
HETATM    4  C6  UNL     1     -15.485   2.261  26.999  1.00  0.00     0.187 C 
HETATM    5  O2  UNL     1     -16.168   3.539  26.909  1.00  0.00    -0.308 OA
HETATM    6  C12 UNL     1     -17.222   3.580  26.032  1.00  0.00     0.276 C 
HETATM    7  O3  UNL     1     -17.612   2.627  25.366  1.00  0.00    -0.264 OA
HETATM    8  C13 UNL     1     -17.960   4.946  26.104  1.00  0.00     0.095 C 
HETATM    9  C14 UNL     1     -18.890   5.113  24.878  1.00  0.00     0.036 C 
HETATM   10  C15 UNL     1     -18.889   4.725  27.281  1.00  0.00     0.003 C 
HETATM   11  C16 UNL     1     -19.171   5.446  28.366  1.00  0.00     0.072 C 
HETATM   12  C17 UNL     1     -18.671   6.754  28.780  1.00  0.00     0.245 C 
HETATM   13  O4  UNL     1     -19.144   7.265  29.793  1.00  0.00    -0.268 OA
HETATM   14  N1  UNL     1     -17.706   7.398  28.099  1.00  0.00    -0.320 N 
HETATM   15  C18 UNL     1     -16.926   7.156  26.996  1.00  0.00     0.098 C 
HETATM   16  C19 UNL     1     -16.972   6.119  26.144  1.00  0.00     0.045 C 
HETATM   17  C20 UNL     1     -15.954   6.076  25.023  1.00  0.00     0.194 C 
HETATM   18  O5  UNL     1     -15.965   5.157  24.216  1.00  0.00    -0.287 OA
HETATM   19  C21 UNL     1     -14.958   7.151  24.844  1.00  0.00     0.046 A 
HETATM   20  C22 UNL     1     -15.027   8.263  25.670  1.00  0.00     0.032 A 
HETATM   21  C23 UNL     1     -14.200   9.379  25.455  1.00  0.00     0.026 A 
HETATM   22  C24 UNL     1     -13.301   9.407  24.385  1.00  0.00    -0.027 A 
HETATM   23  C25 UNL     1     -12.450  10.619  24.135  1.00  0.00     0.051 C 
HETATM   24  C26 UNL     1     -13.210   8.280  23.566  1.00  0.00     0.086 A 
HETATM   25  C27 UNL     1     -13.992   7.136  23.819  1.00  0.00     0.059 A 
HETATM   26  C28 UNL     1     -13.657   5.941  23.009  1.00  0.00     0.163 C 
HETATM   27  O7  UNL     1     -13.638   6.065  21.786  1.00  0.00    -0.292 OA
HETATM   28  C29 UNL     1     -13.098   4.735  23.742  1.00  0.00     0.084 C 
HETATM   29  C30 UNL     1     -13.357   3.429  22.988  1.00  0.00     0.016 C 
HETATM   30  C31 UNL     1     -15.955   8.286  26.799  1.00  0.00     0.210 C 
HETATM   31  O8  UNL     1     -15.948   9.229  27.589  1.00  0.00    -0.285 OA
HETATM   32  H24 UNL     1     -17.489   8.286  28.562  1.00  0.00     0.169 HD
ENDROOT
BRANCH   4  33
HETATM   33  C7  UNL     1     -15.144   2.023  28.501  1.00  0.00     0.174 C 
BRANCH  33  34
HETATM   34  O1  UNL     1     -14.655   0.688  28.654  1.00  0.00    -0.389 OA
HETATM   35  H11 UNL     1     -15.370   0.099  28.355  1.00  0.00     0.210 HD
ENDBRANCH  33  34
BRANCH  33  36
HETATM   36  C8  UNL     1     -14.162   3.034  29.052  1.00  0.00     0.009 C 
HETATM   37  C9  UNL     1     -12.812   3.036  29.074  1.00  0.00    -0.089 C 
HETATM   38  C10 UNL     1     -12.057   4.201  29.660  1.00  0.00     0.042 C 
HETATM   39  C11 UNL     1     -11.944   1.929  28.546  1.00  0.00     0.042 C 
ENDBRANCH  33  36
ENDBRANCH   4  33
BRANCH   1  40
HETATM   40  C2  UNL     1     -11.714   2.069  24.466  1.00  0.00     0.004 C 
HETATM   41  C1  UNL     1     -11.273   0.638  24.748  1.00  0.00     0.006 C 
ENDBRANCH   1  40
BRANCH  24  42
HETATM   42  O6  UNL     1     -12.329   8.336  22.517  1.00  0.00    -0.359 OA
HETATM   43  H29 UNL     1     -12.568   7.640  21.863  1.00  0.00     0.217 HD
ENDBRANCH  24  42
TORSDOF 5
ENDMDL
MODEL 3
REMARK minimizedAffinity -6.44318962
REMARK CNNscore 0.29890573
REMARK CNNaffinity 6.14870644
REMARK  5 active torsions:
REMARK  status: ('A' for Active; 'I' for Inactive)
REMARK    1  A    between atoms: C2_2  and  C3_3 
REMARK    2  A    between atoms: C6_6  and  C7_7 
REMARK    3  A    between atoms: C7_7  and  O1_8 
REMARK    4  A    between atoms: C7_7  and  C8_9 
REMARK    5  A    between atoms: C26_32  and  O6_33 
ROOT
HETATM    1  C3  UNL     1       4.466  13.506  14.463  1.00  0.00     0.008 C 
HETATM    2  C4  UNL     1       3.053  13.551  15.014  1.00  0.00    -0.023 C 
HETATM    3  C5  UNL     1       1.918  13.773  14.331  1.00  0.00     0.005 C 
HETATM    4  C6  UNL     1       0.550  13.698  14.966  1.00  0.00     0.187 C 
HETATM    5  O2  UNL     1       0.083  12.339  14.761  1.00  0.00    -0.308 OA
HETATM    6  C12 UNL     1       0.249  11.494  15.829  1.00  0.00     0.276 C 
HETATM    7  O3  UNL     1       0.732  11.821  16.907  1.00  0.00    -0.264 OA
HETATM    8  C13 UNL     1      -0.395  10.107  15.553  1.00  0.00     0.095 C 
HETATM    9  C14 UNL     1       0.111   9.072  16.586  1.00  0.00     0.036 C 
HETATM   10  C15 UNL     1      -1.841  10.367  15.927  1.00  0.00     0.003 C 
HETATM   11  C16 UNL     1      -2.998  10.109  15.318  1.00  0.00     0.072 C 
HETATM   12  C17 UNL     1      -3.262   9.440  14.047  1.00  0.00     0.245 C 
HETATM   13  O4  UNL     1      -4.432   9.239  13.725  1.00  0.00    -0.268 OA
HETATM   14  N1  UNL     1      -2.270   9.058  13.221  1.00  0.00    -0.320 N 
HETATM   15  C18 UNL     1      -0.901   9.137  13.197  1.00  0.00     0.098 C 
HETATM   16  C19 UNL     1      -0.068   9.603  14.141  1.00  0.00     0.045 C 
HETATM   17  C20 UNL     1       1.416   9.618  13.835  1.00  0.00     0.194 C 
HETATM   18  O5  UNL     1       2.213  10.023  14.669  1.00  0.00    -0.287 OA
HETATM   19  C21 UNL     1       1.943   9.108  12.554  1.00  0.00     0.046 A 
HETATM   20  C22 UNL     1       1.061   8.521  11.660  1.00  0.00     0.032 A 
HETATM   21  C23 UNL     1       1.523   7.890  10.492  1.00  0.00     0.026 A 
HETATM   22  C24 UNL     1       2.891   7.817  10.213  1.00  0.00    -0.027 A 
HETATM   23  C25 UNL     1       3.382   7.104   8.985  1.00  0.00     0.051 C 
HETATM   24  C26 UNL     1       3.781   8.428  11.097  1.00  0.00     0.086 A 
HETATM   25  C27 UNL     1       3.315   9.116  12.235  1.00  0.00     0.059 A 
HETATM   26  C28 UNL     1       4.337   9.891  12.976  1.00  0.00     0.163 C 
HETATM   27  O7  UNL     1       5.352   9.299  13.340  1.00  0.00    -0.292 OA
HETATM   28  C29 UNL     1       4.191  11.401  12.994  1.00  0.00     0.084 C 
HETATM   29  C30 UNL     1       4.868  12.033  14.214  1.00  0.00     0.016 C 
HETATM   30  C31 UNL     1      -0.379   8.565  11.910  1.00  0.00     0.210 C 
HETATM   31  O8  UNL     1      -1.167   8.132  11.071  1.00  0.00    -0.285 OA
HETATM   32  H24 UNL     1      -2.667   8.625  12.381  1.00  0.00     0.169 HD
ENDROOT
BRANCH   4  33
HETATM   33  C7  UNL     1      -0.490  14.650  14.303  1.00  0.00     0.174 C 
BRANCH  33  34
HETATM   34  O1  UNL     1      -0.227  14.711  12.899  1.00  0.00    -0.389 OA
HETATM   35  H11 UNL     1       0.678  15.054  12.806  1.00  0.00     0.210 HD
ENDBRANCH  33  34
BRANCH  33  36
HETATM   36  C8  UNL     1      -1.922  14.244  14.576  1.00  0.00     0.009 C 
HETATM   37  C9  UNL     1      -3.081  14.916  14.408  1.00  0.00    -0.089 C 
HETATM   38  C10 UNL     1      -4.400  14.262  14.727  1.00  0.00     0.042 C 
HETATM   39  C11 UNL     1      -3.188  16.331  13.910  1.00  0.00     0.042 C 
ENDBRANCH  33  36
ENDBRANCH   4  33
BRANCH   1  40
HETATM   40  C2  UNL     1       4.696  14.438  13.256  1.00  0.00     0.004 C 
HETATM   41  C1  UNL     1       6.171  14.629  12.921  1.00  0.00     0.006 C 
ENDBRANCH   1  40
BRANCH  24  42
HETATM   42  O6  UNL     1       5.119   8.333  10.807  1.00  0.00    -0.359 OA
HETATM   43  H29 UNL     1       5.635   8.523  11.623  1.00  0.00     0.217 HD
ENDBRANCH  24  42
TORSDOF 5
ENDMDL
MODEL 4
REMARK minimizedAffinity -6.71011209
REMARK CNNscore 0.261191249
REMARK CNNaffinity 6.18068933
REMARK  5 active torsions:
REMARK  status: ('A' for Active; 'I' for Inactive)
REMARK    1  A    between atoms: C2_2  and  C3_3 
REMARK    2  A    between atoms: C6_6  and  C7_7 
REMARK    3  A    between atoms: C7_7  and  O1_8 
REMARK    4  A    between atoms: C7_7  and  C8_9 
REMARK    5  A    between atoms: C26_32  and  O6_33 
ROOT
HETATM    1  C3  UNL     1     -13.344   1.858  24.795  1.00  0.00     0.008 C 
HETATM    2  C4  UNL     1     -14.040   2.187  26.102  1.00  0.00    -0.023 C 
HETATM    3  C5  UNL     1     -13.616   3.024  27.064  1.00  0.00     0.005 C 
HETATM    4  C6  UNL     1     -14.440   3.353  28.286  1.00  0.00     0.187 C 
HETATM    5  O2  UNL     1     -15.190   4.552  27.957  1.00  0.00    -0.308 OA
HETATM    6  C12 UNL     1     -16.486   4.342  27.561  1.00  0.00     0.276 C 
HETATM    7  O3  UNL     1     -17.025   3.242  27.494  1.00  0.00    -0.264 OA
HETATM    8  C13 UNL     1     -17.236   5.688  27.355  1.00  0.00     0.095 C 
HETATM    9  C14 UNL     1     -18.548   5.450  26.569  1.00  0.00     0.036 C 
HETATM   10  C15 UNL     1     -17.673   6.008  28.771  1.00  0.00     0.003 C 
HETATM   11  C16 UNL     1     -17.598   7.108  29.520  1.00  0.00     0.072 C 
HETATM   12  C17 UNL     1     -17.069   8.430  29.196  1.00  0.00     0.245 C 
HETATM   13  O4  UNL     1     -17.185   9.326  30.030  1.00  0.00    -0.268 OA
HETATM   14  N1  UNL     1     -16.449   8.685  28.028  1.00  0.00    -0.320 N 
HETATM   15  C18 UNL     1     -16.096   7.978  26.907  1.00  0.00     0.098 C 
HETATM   16  C19 UNL     1     -16.374   6.703  26.593  1.00  0.00     0.045 C 
HETATM   17  C20 UNL     1     -15.817   6.153  25.296  1.00  0.00     0.194 C 
HETATM   18  O5  UNL     1     -16.055   5.000  24.964  1.00  0.00    -0.287 OA
HETATM   19  C21 UNL     1     -15.020   6.994  24.382  1.00  0.00     0.046 A 
HETATM   20  C22 UNL     1     -14.863   8.338  24.684  1.00  0.00     0.032 A 
HETATM   21  C23 UNL     1     -14.238   9.216  23.782  1.00  0.00     0.026 A 
HETATM   22  C24 UNL     1     -13.778   8.761  22.543  1.00  0.00    -0.027 A 
HETATM   23  C25 UNL     1     -13.150   9.713  21.566  1.00  0.00     0.051 C 
HETATM   24  C26 UNL     1     -13.912   7.404  22.245  1.00  0.00     0.086 A 
HETATM   25  C27 UNL     1     -14.480   6.510  23.174  1.00  0.00     0.059 A 
HETATM   26  C28 UNL     1     -14.377   5.074  22.824  1.00  0.00     0.163 C 
HETATM   27  O7  UNL     1     -14.800   4.721  21.725  1.00  0.00    -0.292 OA
HETATM   28  C29 UNL     1     -13.520   4.197  23.718  1.00  0.00     0.084 C 
HETATM   29  C30 UNL     1     -13.945   2.728  23.666  1.00  0.00     0.016 C 
HETATM   30  C31 UNL     1     -15.331   8.865  25.965  1.00  0.00     0.210 C 
HETATM   31  O8  UNL     1     -15.105  10.033  26.275  1.00  0.00    -0.285 OA
HETATM   32  H24 UNL     1     -16.140   9.662  28.007  1.00  0.00     0.169 HD
ENDROOT
BRANCH   4  33
HETATM   33  C7  UNL     1     -13.576   3.678  29.542  1.00  0.00     0.174 C 
BRANCH  33  34
HETATM   34  O1  UNL     1     -13.619   5.088  29.776  1.00  0.00    -0.389 OA
HETATM   35  H11 UNL     1     -13.256   5.509  28.977  1.00  0.00     0.210 HD
ENDBRANCH  33  34
BRANCH  33  36
HETATM   36  C8  UNL     1     -14.003   2.905  30.770  1.00  0.00     0.009 C 
HETATM   37  C9  UNL     1     -15.110   3.002  31.537  1.00  0.00    -0.089 C 
HETATM   38  C10 UNL     1     -15.318   2.072  32.705  1.00  0.00     0.042 C 
HETATM   39  C11 UNL     1     -16.212   4.003  31.330  1.00  0.00     0.042 C 
ENDBRANCH  33  36
ENDBRANCH   4  33
BRANCH   1  40
HETATM   40  C2  UNL     1     -11.804   1.904  24.877  1.00  0.00     0.004 C 
HETATM   41  C1  UNL     1     -11.155   0.534  24.719  1.00  0.00     0.006 C 
ENDBRANCH   1  40
BRANCH  24  42
HETATM   42  O6  UNL     1     -13.464   6.984  21.018  1.00  0.00    -0.359 OA
HETATM   43  H29 UNL     1     -13.874   6.114  20.811  1.00  0.00     0.217 HD
ENDBRANCH  24  42
TORSDOF 5
ENDMDL
MODEL 5
REMARK minimizedAffinity -6.56751251
REMARK CNNscore 0.247911349
REMARK CNNaffinity 6.01814222
REMARK  5 active torsions:
REMARK  status: ('A' for Active; 'I' for Inactive)
REMARK    1  A    between atoms: C2_2  and  C3_3 
REMARK    2  A    between atoms: C6_6  and  C7_7 
REMARK    3  A    between atoms: C7_7  and  O1_8 
REMARK    4  A    between atoms: C7_7  and  C8_9 
REMARK    5  A    between atoms: C26_32  and  O6_33 
ROOT
HETATM    1  C3  UNL     1      -0.910  17.898   0.953  1.00  0.00     0.008 C 
HETATM    2  C4  UNL     1       0.310  17.467   1.744  1.00  0.00    -0.023 C 
HETATM    3  C5  UNL     1       0.664  16.215   2.078  1.00  0.00     0.005 C 
HETATM    4  C6  UNL     1       1.958  15.890   2.787  1.00  0.00     0.187 C 
HETATM    5  O2  UNL     1       2.925  15.592   1.746  1.00  0.00    -0.308 OA
HETATM    6  C12 UNL     1       3.765  16.624   1.411  1.00  0.00     0.276 C 
HETATM    7  O3  UNL     1       3.753  17.730   1.939  1.00  0.00    -0.264 OA
HETATM    8  C13 UNL     1       4.837  16.165   0.384  1.00  0.00     0.095 C 
HETATM    9  C14 UNL     1       5.526  17.397  -0.250  1.00  0.00     0.036 C 
HETATM   10  C15 UNL     1       5.882  15.551   1.295  1.00  0.00     0.003 C 
HETATM   11  C16 UNL     1       6.547  14.396   1.269  1.00  0.00     0.072 C 
HETATM   12  C17 UNL     1       6.501  13.308   0.295  1.00  0.00     0.245 C 
HETATM   13  O4  UNL     1       7.277  12.365   0.436  1.00  0.00    -0.268 OA
HETATM   14  N1  UNL     1       5.629  13.304  -0.730  1.00  0.00    -0.320 N 
HETATM   15  C18 UNL     1       4.617  14.109  -1.188  1.00  0.00     0.098 C 
HETATM   16  C19 UNL     1       4.223  15.308  -0.729  1.00  0.00     0.045 C 
HETATM   17  C20 UNL     1       3.034  15.968  -1.398  1.00  0.00     0.194 C 
HETATM   18  O5  UNL     1       2.647  17.065  -1.022  1.00  0.00    -0.287 OA
HETATM   19  C21 UNL     1       2.344  15.337  -2.540  1.00  0.00     0.046 A 
HETATM   20  C22 UNL     1       2.862  14.161  -3.061  1.00  0.00     0.032 A 
HETATM   21  C23 UNL     1       2.335  13.592  -4.233  1.00  0.00     0.026 A 
HETATM   22  C24 UNL     1       1.288  14.212  -4.920  1.00  0.00    -0.027 A 
HETATM   23  C25 UNL     1       0.757  13.621  -6.195  1.00  0.00     0.051 C 
HETATM   24  C26 UNL     1       0.747  15.383  -4.387  1.00  0.00     0.086 A 
HETATM   25  C27 UNL     1       1.231  15.920  -3.178  1.00  0.00     0.059 A 
HETATM   26  C28 UNL     1       0.443  17.041  -2.615  1.00  0.00     0.163 C 
HETATM   27  O7  UNL     1       0.224  18.008  -3.342  1.00  0.00    -0.292 OA
HETATM   28  C29 UNL     1      -0.265  16.803  -1.294  1.00  0.00     0.084 C 
HETATM   29  C30 UNL     1      -0.511  18.105  -0.527  1.00  0.00     0.016 C 
HETATM   30  C31 UNL     1       3.961  13.476  -2.382  1.00  0.00     0.210 C 
HETATM   31  O8  UNL     1       4.355  12.384  -2.787  1.00  0.00    -0.285 OA
HETATM   32  H24 UNL     1       5.748  12.448  -1.282  1.00  0.00     0.169 HD
ENDROOT
BRANCH   4  33
HETATM   33  C7  UNL     1       1.861  14.633   3.703  1.00  0.00     0.174 C 
BRANCH  33  34
HETATM   34  O1  UNL     1       1.512  15.055   5.024  1.00  0.00    -0.389 OA
HETATM   35  H11 UNL     1       2.223  15.652   5.316  1.00  0.00     0.210 HD
ENDBRANCH  33  34
BRANCH  33  36
HETATM   36  C8  UNL     1       0.888  13.597   3.183  1.00  0.00     0.009 C 
HETATM   37  C9  UNL     1      -0.440  13.451   3.378  1.00  0.00    -0.089 C 
HETATM   38  C10 UNL     1      -1.196  12.336   2.706  1.00  0.00     0.042 C 
HETATM   39  C11 UNL     1      -1.281  14.341   4.252  1.00  0.00     0.042 C 
ENDBRANCH  33  36
ENDBRANCH   4  33
BRANCH   1  40
HETATM   40  C2  UNL     1      -2.140  16.988   1.155  1.00  0.00     0.004 C 
HETATM   41  C1  UNL     1      -3.462  17.743   1.075  1.00  0.00     0.006 C 
ENDBRANCH   1  40
BRANCH  24  42
HETATM   42  O6  UNL     1      -0.272  15.979  -5.086  1.00  0.00    -0.359 OA
HETATM   43  H29 UNL     1      -0.356  16.914  -4.791  1.00  0.00     0.217 HD
ENDBRANCH  24  42
TORSDOF 5
ENDMDL
MODEL 6
REMARK minimizedAffinity -6.51980162
REMARK CNNscore 0.246227533
REMARK CNNaffinity 5.65096092
REMARK  5 active torsions:
REMARK  status: ('A' for Active; 'I' for Inactive)
REMARK    1  A    between atoms: C2_2  and  C3_3 
REMARK    2  A    between atoms: C6_6  and  C7_7 
REMARK    3  A    between atoms: C7_7  and  O1_8 
REMARK    4  A    between atoms: C7_7  and  C8_9 
REMARK    5  A    between atoms: C26_32  and  O6_33 
ROOT
HETATM    1  C3  UNL     1      -7.221  18.248   5.987  1.00  0.00     0.008 C 
HETATM    2  C4  UNL     1      -8.555  17.703   5.515  1.00  0.00    -0.023 C 
HETATM    3  C5  UNL     1      -9.059  16.477   5.736  1.00  0.00     0.005 C 
HETATM    4  C6  UNL     1     -10.448  16.070   5.301  1.00  0.00     0.187 C 
HETATM    5  O2  UNL     1     -11.319  16.333   6.431  1.00  0.00    -0.308 OA
HETATM    6  C12 UNL     1     -12.017  17.513   6.373  1.00  0.00     0.276 C 
HETATM    7  O3  UNL     1     -11.959  18.311   5.444  1.00  0.00    -0.264 OA
HETATM    8  C13 UNL     1     -13.009  17.637   7.563  1.00  0.00     0.095 C 
HETATM    9  C14 UNL     1     -13.507  19.098   7.688  1.00  0.00     0.036 C 
HETATM   10  C15 UNL     1     -14.200  16.855   7.044  1.00  0.00     0.003 C 
HETATM   11  C16 UNL     1     -14.963  15.900   7.575  1.00  0.00     0.072 C 
HETATM   12  C17 UNL     1     -14.913  15.287   8.900  1.00  0.00     0.245 C 
HETATM   13  O4  UNL     1     -15.785  14.474   9.199  1.00  0.00    -0.268 OA
HETATM   14  N1  UNL     1     -13.939  15.573   9.783  1.00  0.00    -0.320 N 
HETATM   15  C18 UNL     1     -12.812  16.355   9.813  1.00  0.00     0.098 C 
HETATM   16  C19 UNL     1     -12.360  17.216   8.887  1.00  0.00     0.045 C 
HETATM   17  C20 UNL     1     -11.049  17.926   9.158  1.00  0.00     0.194 C 
HETATM   18  O5  UNL     1     -10.604  18.727   8.347  1.00  0.00    -0.287 OA
HETATM   19  C21 UNL     1     -10.301  17.711  10.411  1.00  0.00     0.046 A 
HETATM   20  C22 UNL     1     -10.866  16.912  11.393  1.00  0.00     0.032 A 
HETATM   21  C23 UNL     1     -10.271  16.787  12.660  1.00  0.00     0.026 A 
HETATM   22  C24 UNL     1      -9.102  17.486  12.972  1.00  0.00    -0.027 A 
HETATM   23  C25 UNL     1      -8.493  17.381  14.341  1.00  0.00     0.051 C 
HETATM   24  C26 UNL     1      -8.515  18.272  11.979  1.00  0.00     0.086 A 
HETATM   25  C27 UNL     1      -9.076  18.348  10.689  1.00  0.00     0.059 A 
HETATM   26  C28 UNL     1      -8.252  19.046   9.674  1.00  0.00     0.163 C 
HETATM   27  O7  UNL     1      -7.865  20.183   9.934  1.00  0.00    -0.292 OA
HETATM   28  C29 UNL     1      -7.718  18.218   8.520  1.00  0.00     0.084 C 
HETATM   29  C30 UNL     1      -7.436  19.070   7.279  1.00  0.00     0.016 C 
HETATM   30  C31 UNL     1     -12.093  16.164  11.118  1.00  0.00     0.210 C 
HETATM   31  O8  UNL     1     -12.541  15.380  11.953  1.00  0.00    -0.285 OA
HETATM   32  H24 UNL     1     -14.077  15.027  10.639  1.00  0.00     0.169 HD
ENDROOT
BRANCH   4  33
HETATM   33  C7  UNL     1     -10.568  14.553   4.965  1.00  0.00     0.174 C 
BRANCH  33  34
HETATM   34  O1  UNL     1     -11.607  13.987   5.769  1.00  0.00    -0.389 OA
HETATM   35  H11 UNL     1     -11.341  14.126   6.695  1.00  0.00     0.210 HD
ENDBRANCH  33  34
BRANCH  33  36
HETATM   36  C8  UNL     1     -10.808  14.290   3.494  1.00  0.00     0.009 C 
HETATM   37  C9  UNL     1     -11.862  14.582   2.702  1.00  0.00    -0.089 C 
HETATM   38  C10 UNL     1     -11.836  14.239   1.235  1.00  0.00     0.042 C 
HETATM   39  C11 UNL     1     -13.127  15.248   3.168  1.00  0.00     0.042 C 
ENDBRANCH  33  36
ENDBRANCH   4  33
BRANCH   1  40
HETATM   40  C2  UNL     1      -6.111  17.181   6.093  1.00  0.00     0.004 C 
HETATM   41  C1  UNL     1      -4.722  17.780   6.281  1.00  0.00     0.006 C 
ENDBRANCH   1  40
BRANCH  24  42
HETATM   42  O6  UNL     1      -7.374  18.958  12.314  1.00  0.00    -0.359 OA
HETATM   43  H29 UNL     1      -7.237  19.682  11.662  1.00  0.00     0.217 HD
ENDBRANCH  24  42
TORSDOF 5
ENDMDL
MODEL 7
REMARK minimizedAffinity -7.55463934
REMARK CNNscore 0.209777981
REMARK CNNaffinity 5.76378012
REMARK  5 active torsions:
REMARK  status: ('A' for Active; 'I' for Inactive)
REMARK    1  A    between atoms: C2_2  and  C3_3 
REMARK    2  A    between atoms: C6_6  and  C7_7 
REMARK    3  A    between atoms: C7_7  and  O1_8 
REMARK    4  A    between atoms: C7_7  and  C8_9 
REMARK    5  A    between atoms: C26_32  and  O6_33 
ROOT
HETATM    1  C3  UNL     1      -1.939  12.215  18.454  1.00  0.00     0.008 C 
HETATM    2  C4  UNL     1      -0.533  12.421  18.982  1.00  0.00    -0.023 C 
HETATM    3  C5  UNL     1       0.340  11.475  19.370  1.00  0.00     0.005 C 
HETATM    4  C6  UNL     1       1.757  11.789  19.789  1.00  0.00     0.187 C 
HETATM    5  O2  UNL     1       2.571  11.661  18.594  1.00  0.00    -0.308 OA
HETATM    6  C12 UNL     1       2.862  12.838  17.953  1.00  0.00     0.276 C 
HETATM    7  O3  UNL     1       2.504  13.947  18.336  1.00  0.00    -0.264 OA
HETATM    8  C13 UNL     1       3.837  12.605  16.765  1.00  0.00     0.095 C 
HETATM    9  C14 UNL     1       3.863  13.851  15.848  1.00  0.00     0.036 C 
HETATM   10  C15 UNL     1       5.178  12.605  17.472  1.00  0.00     0.003 C 
HETATM   11  C16 UNL     1       6.231  11.788  17.426  1.00  0.00     0.072 C 
HETATM   12  C17 UNL     1       6.453  10.588  16.625  1.00  0.00     0.245 C 
HETATM   13  O4  UNL     1       7.552  10.038  16.690  1.00  0.00    -0.268 OA
HETATM   14  N1  UNL     1       5.494  10.065  15.840  1.00  0.00    -0.320 N 
HETATM   15  C18 UNL     1       4.184  10.341  15.540  1.00  0.00     0.098 C 
HETATM   16  C19 UNL     1       3.432  11.381  15.934  1.00  0.00     0.045 C 
HETATM   17  C20 UNL     1       1.984  11.420  15.489  1.00  0.00     0.194 C 
HETATM   18  O5  UNL     1       1.264  12.354  15.815  1.00  0.00    -0.287 OA
HETATM   19  C21 UNL     1       1.417  10.369  14.622  1.00  0.00     0.046 A 
HETATM   20  C22 UNL     1       2.260   9.382  14.136  1.00  0.00     0.032 A 
HETATM   21  C23 UNL     1       1.811   8.440  13.194  1.00  0.00     0.026 A 
HETATM   22  C24 UNL     1       0.503   8.490  12.703  1.00  0.00    -0.027 A 
HETATM   23  C25 UNL     1       0.041   7.507  11.665  1.00  0.00     0.051 C 
HETATM   24  C26 UNL     1      -0.357   9.466  13.207  1.00  0.00     0.086 A 
HETATM   25  C27 UNL     1       0.073  10.370  14.198  1.00  0.00     0.059 A 
HETATM   26  C28 UNL     1      -0.986  11.217  14.794  1.00  0.00     0.163 C 
HETATM   27  O7  UNL     1      -1.691  11.875  14.030  1.00  0.00    -0.292 OA
HETATM   28  C29 UNL     1      -1.305  11.007  16.263  1.00  0.00     0.084 C 
HETATM   29  C30 UNL     1      -1.912  12.255  16.908  1.00  0.00     0.016 C 
HETATM   30  C31 UNL     1       3.640   9.291  14.615  1.00  0.00     0.210 C 
HETATM   31  O8  UNL     1       4.358   8.358  14.259  1.00  0.00    -0.285 OA
HETATM   32  H24 UNL     1       5.846   9.220  15.379  1.00  0.00     0.169 HD
ENDROOT
BRANCH   4  33
HETATM   33  C7  UNL     1       2.322  10.790  20.843  1.00  0.00     0.174 C 
BRANCH  33  34
HETATM   34  O1  UNL     1       2.457   9.504  20.231  1.00  0.00    -0.389 OA
HETATM   35  H11 UNL     1       1.566   9.246  19.940  1.00  0.00     0.210 HD
ENDBRANCH  33  34
BRANCH  33  36
HETATM   36  C8  UNL     1       3.631  11.249  21.450  1.00  0.00     0.009 C 
HETATM   37  C9  UNL     1       4.255  10.881  22.589  1.00  0.00    -0.089 C 
HETATM   38  C10 UNL     1       5.592  11.473  22.956  1.00  0.00     0.042 C 
HETATM   39  C11 UNL     1       3.716   9.889  23.582  1.00  0.00     0.042 C 
ENDBRANCH  33  36
ENDBRANCH   4  33
BRANCH   1  40
HETATM   40  C2  UNL     1      -2.654  10.981  19.043  1.00  0.00     0.004 C 
HETATM   41  C1  UNL     1      -3.799  10.480  18.170  1.00  0.00     0.006 C 
ENDBRANCH   1  40
BRANCH  24  42
HETATM   42  O6  UNL     1      -1.632   9.502  12.701  1.00  0.00    -0.359 OA
HETATM   43  H29 UNL     1      -2.027  10.381  12.895  1.00  0.00     0.217 HD
ENDBRANCH  24  42
TORSDOF 5
ENDMDL
MODEL 8
REMARK minimizedAffinity -6.84610176
REMARK CNNscore 0.18366392
REMARK CNNaffinity 5.11047935
REMARK  5 active torsions:
REMARK  status: ('A' for Active; 'I' for Inactive)
REMARK    1  A    between atoms: C2_2  and  C3_3 
REMARK    2  A    between atoms: C6_6  and  C7_7 
REMARK    3  A    between atoms: C7_7  and  O1_8 
REMARK    4  A    between atoms: C7_7  and  C8_9 
REMARK    5  A    between atoms: C26_32  and  O6_33 
ROOT
HETATM    1  C3  UNL     1     -13.083 -10.473  12.599  1.00  0.00     0.008 C 
HETATM    2  C4  UNL     1     -13.302  -9.605  13.823  1.00  0.00    -0.023 C 
HETATM    3  C5  UNL     1     -12.554  -8.565  14.230  1.00  0.00     0.005 C 
HETATM    4  C6  UNL     1     -12.921  -7.705  15.416  1.00  0.00     0.187 C 
HETATM    5  O2  UNL     1     -13.687  -6.591  14.886  1.00  0.00    -0.308 OA
HETATM    6  C12 UNL     1     -15.049  -6.715  14.988  1.00  0.00     0.276 C 
HETATM    7  O3  UNL     1     -15.626  -7.668  15.501  1.00  0.00    -0.264 OA
HETATM    8  C13 UNL     1     -15.768  -5.422  14.510  1.00  0.00     0.095 C 
HETATM    9  C14 UNL     1     -17.273  -5.704  14.284  1.00  0.00     0.036 C 
HETATM   10  C15 UNL     1     -15.707  -4.565  15.759  1.00  0.00     0.003 C 
HETATM   11  C16 UNL     1     -15.347  -3.301  15.979  1.00  0.00     0.072 C 
HETATM   12  C17 UNL     1     -14.897  -2.277  15.040  1.00  0.00     0.245 C 
HETATM   13  O4  UNL     1     -14.697  -1.141  15.467  1.00  0.00    -0.268 OA
HETATM   14  N1  UNL     1     -14.680  -2.545  13.739  1.00  0.00    -0.320 N 
HETATM   15  C18 UNL     1     -14.740  -3.644  12.920  1.00  0.00     0.098 C 
HETATM   16  C19 UNL     1     -15.159  -4.887  13.208  1.00  0.00     0.045 C 
HETATM   17  C20 UNL     1     -15.078  -5.934  12.116  1.00  0.00     0.194 C 
HETATM   18  O5  UNL     1     -15.458  -7.077  12.330  1.00  0.00    -0.287 OA
HETATM   19  C21 UNL     1     -14.586  -5.602  10.765  1.00  0.00     0.046 A 
HETATM   20  C22 UNL     1     -14.283  -4.280  10.475  1.00  0.00     0.032 A 
HETATM   21  C23 UNL     1     -13.949  -3.881   9.169  1.00  0.00     0.026 A 
HETATM   22  C24 UNL     1     -13.937  -4.805   8.121  1.00  0.00    -0.027 A 
HETATM   23  C25 UNL     1     -13.621  -4.365   6.720  1.00  0.00     0.051 C 
HETATM   24  C26 UNL     1     -14.217  -6.141   8.412  1.00  0.00     0.086 A 
HETATM   25  C27 UNL     1     -14.489  -6.554   9.731  1.00  0.00     0.059 A 
HETATM   26  C28 UNL     1     -14.566  -8.019   9.939  1.00  0.00     0.163 C 
HETATM   27  O7  UNL     1     -15.337  -8.659   9.227  1.00  0.00    -0.292 OA
HETATM   28  C29 UNL     1     -13.502  -8.657  10.814  1.00  0.00     0.084 C 
HETATM   29  C30 UNL     1     -13.982  -9.965  11.448  1.00  0.00     0.016 C 
HETATM   30  C31 UNL     1     -14.288  -3.274  11.536  1.00  0.00     0.210 C 
HETATM   31  O8  UNL     1     -13.925  -2.123  11.300  1.00  0.00    -0.285 OA
HETATM   32  H24 UNL     1     -14.354  -1.699  13.261  1.00  0.00     0.169 HD
ENDROOT
BRANCH   4  33
HETATM   33  C7  UNL     1     -11.683  -7.108  16.151  1.00  0.00     0.174 C 
BRANCH  33  34
HETATM   34  O1  UNL     1     -11.987  -5.768  16.547  1.00  0.00    -0.389 OA
HETATM   35  H11 UNL     1     -12.184  -5.279  15.729  1.00  0.00     0.210 HD
ENDBRANCH  33  34
BRANCH  33  36
HETATM   36  C8  UNL     1     -11.237  -7.942  17.332  1.00  0.00     0.009 C 
HETATM   37  C9  UNL     1     -10.497  -9.070  17.390  1.00  0.00    -0.089 C 
HETATM   38  C10 UNL     1     -10.156  -9.695  18.718  1.00  0.00     0.042 C 
HETATM   39  C11 UNL     1      -9.954  -9.803  16.195  1.00  0.00     0.042 C 
ENDBRANCH  33  36
ENDBRANCH   4  33
BRANCH   1  40
HETATM   40  C2  UNL     1     -11.600 -10.649  12.214  1.00  0.00     0.004 C 
HETATM   41  C1  UNL     1     -10.900 -11.743  13.011  1.00  0.00     0.006 C 
ENDBRANCH   1  40
BRANCH  24  42
HETATM   42  O6  UNL     1     -14.210  -7.027   7.364  1.00  0.00    -0.359 OA
HETATM   43  H29 UNL     1     -14.701  -7.837   7.629  1.00  0.00     0.217 HD
ENDBRANCH  24  42
TORSDOF 5
ENDMDL
MODEL 9
REMARK minimizedAffinity -7.38477135
REMARK CNNscore 0.178485319
REMARK CNNaffinity 4.98196411
REMARK  5 active torsions:
REMARK  status: ('A' for Active; 'I' for Inactive)
REMARK    1  A    between atoms: C2_2  and  C3_3 
REMARK    2  A    between atoms: C6_6  and  C7_7 
REMARK    3  A    between atoms: C7_7  and  O1_8 
REMARK    4  A    between atoms: C7_7  and  C8_9 
REMARK    5  A    between atoms: C26_32  and  O6_33 
ROOT
HETATM    1  C3  UNL     1       6.149  16.698  24.079  1.00  0.00     0.008 C 
HETATM    2  C4  UNL     1       4.788  16.165  23.674  1.00  0.00    -0.023 C 
HETATM    3  C5  UNL     1       4.247  16.161  22.444  1.00  0.00     0.005 C 
HETATM    4  C6  UNL     1       2.919  15.513  22.134  1.00  0.00     0.187 C 
HETATM    5  O2  UNL     1       3.219  14.159  21.707  1.00  0.00    -0.308 OA
HETATM    6  C12 UNL     1       3.078  13.194  22.673  1.00  0.00     0.276 C 
HETATM    7  O3  UNL     1       2.706  13.408  23.821  1.00  0.00    -0.264 OA
HETATM    8  C13 UNL     1       3.299  11.773  22.083  1.00  0.00     0.095 C 
HETATM    9  C14 UNL     1       3.500  10.750  23.226  1.00  0.00     0.036 C 
HETATM   10  C15 UNL     1       1.928  11.468  21.513  1.00  0.00     0.003 C 
HETATM   11  C16 UNL     1       1.516  10.998  20.335  1.00  0.00     0.072 C 
HETATM   12  C17 UNL     1       2.289  10.582  19.168  1.00  0.00     0.245 C 
HETATM   13  O4  UNL     1       1.687  10.096  18.212  1.00  0.00    -0.268 OA
HETATM   14  N1  UNL     1       3.625  10.732  19.106  1.00  0.00    -0.320 N 
HETATM   15  C18 UNL     1       4.614  11.248  19.905  1.00  0.00     0.098 C 
HETATM   16  C19 UNL     1       4.519  11.731  21.155  1.00  0.00     0.045 C 
HETATM   17  C20 UNL     1       5.774  12.286  21.797  1.00  0.00     0.194 C 
HETATM   18  O5  UNL     1       5.738  12.727  22.938  1.00  0.00    -0.287 OA
HETATM   19  C21 UNL     1       7.071  12.272  21.094  1.00  0.00     0.046 A 
HETATM   20  C22 UNL     1       7.149  11.651  19.857  1.00  0.00     0.032 A 
HETATM   21  C23 UNL     1       8.383  11.479  19.207  1.00  0.00     0.026 A 
HETATM   22  C24 UNL     1       9.571  11.911  19.803  1.00  0.00    -0.027 A 
HETATM   23  C25 UNL     1      10.891  11.687  19.122  1.00  0.00     0.051 C 
HETATM   24  C26 UNL     1       9.495  12.559  21.037  1.00  0.00     0.086 A 
HETATM   25  C27 UNL     1       8.253  12.789  21.660  1.00  0.00     0.059 A 
HETATM   26  C28 UNL     1       8.290  13.662  22.856  1.00  0.00     0.163 C 
HETATM   27  O7  UNL     1       9.064  13.359  23.762  1.00  0.00    -0.292 OA
HETATM   28  C29 UNL     1       7.584  15.002  22.765  1.00  0.00     0.084 C 
HETATM   29  C30 UNL     1       7.157  15.527  24.138  1.00  0.00     0.016 C 
HETATM   30  C31 UNL     1       5.935  11.176  19.194  1.00  0.00     0.210 C 
HETATM   31  O8  UNL     1       5.991  10.714  18.056  1.00  0.00    -0.285 OA
HETATM   32  H24 UNL     1       3.969  10.396  18.201  1.00  0.00     0.169 HD
ENDROOT
BRANCH   4  33
HETATM   33  C7  UNL     1       2.152  16.207  20.969  1.00  0.00     0.174 C 
BRANCH  33  34
HETATM   34  O1  UNL     1       3.105  16.752  20.052  1.00  0.00    -0.389 OA
HETATM   35  H11 UNL     1       3.635  17.391  20.558  1.00  0.00     0.210 HD
ENDBRANCH  33  34
BRANCH  33  36
HETATM   36  C8  UNL     1       1.181  15.283  20.266  1.00  0.00     0.009 C 
HETATM   37  C9  UNL     1      -0.164  15.328  20.156  1.00  0.00    -0.089 C 
HETATM   38  C10 UNL     1      -0.903  14.287  19.356  1.00  0.00     0.042 C 
HETATM   39  C11 UNL     1      -1.042  16.371  20.790  1.00  0.00     0.042 C 
ENDBRANCH  33  36
ENDBRANCH   4  33
BRANCH   1  40
HETATM   40  C2  UNL     1       6.626  17.901  23.239  1.00  0.00     0.004 C 
HETATM   41  C1  UNL     1       7.857  18.587  23.820  1.00  0.00     0.006 C 
ENDBRANCH   1  40
BRANCH  24  42
HETATM   42  O6  UNL     1      10.676  12.963  21.607  1.00  0.00    -0.359 OA
HETATM   43  H29 UNL     1      10.528  13.120  22.567  1.00  0.00     0.217 HD
ENDBRANCH  24  42
TORSDOF 5
ENDMDL
