MODEL 1
REMARK minimizedAffinity -8.25260067
REMARK CNNscore 0.181675777
REMARK CNNaffinity 5.93802023
REMARK  19 active torsions:
REMARK  status: ('A' for Active; 'I' for Inactive)
REMARK    1  A    between atoms: O1_2  and  C2_3 
REMARK    2  A    between atoms: C2_3  and  C3_4 
REMARK    3  A    between atoms: C2_3  and  C28_36 
REMARK    4  A    between atoms: C3_4  and  C4_5 
REMARK    5  A    between atoms: C4_5  and  C6_7 
REMARK    6  A    between atoms: C6_7  and  O2_8 
REMARK    7  A    between atoms: C6_7  and  C7_9 
REMARK    8  A    between atoms: C8_10  and  C9_11 
REMARK    9  A    between atoms: C10_12  and  C11_13 
REMARK   10  A    between atoms: C11_13  and  N1_14 
REMARK       I    between atoms: N1_14  and  C12_15 
REMARK   11  A    between atoms: C12_15  and  C13_17 
REMARK   12  A    between atoms: C13_17  and  C16_20 
REMARK   13  A    between atoms: C16_20  and  O4_21 
REMARK   14  A    between atoms: C16_20  and  C17_22 
REMARK   15  A    between atoms: C19_24  and  C20_25 
REMARK   16  A    between atoms: C21_26  and  C22_27 
REMARK   17  A    between atoms: C23_28  and  C24_29 
REMARK   18  A    between atoms: C26_31  and  N2_33 
REMARK   19  A    between atoms: C28_36  and  O7_37 
ROOT
HETATM    1  C9  UNL     1      -3.663  48.619 -27.400  1.00  0.00    -0.003 C 
HETATM    2  C10 UNL     1      -4.616  48.728 -28.343  1.00  0.00    -0.007 C 
ENDROOT
BRANCH   1   3
HETATM    3  C8  UNL     1      -3.264  49.746 -26.584  1.00  0.00    -0.002 C 
HETATM    4  C7  UNL     1      -2.974  50.958 -27.085  1.00  0.00     0.005 C 
BRANCH   4   5
HETATM    5  C6  UNL     1      -2.550  52.204 -26.340  1.00  0.00     0.144 C 
BRANCH   5   6
HETATM    6  C4  UNL     1      -1.395  52.101 -25.316  1.00  0.00     0.016 C 
HETATM    7  C5  UNL     1      -0.321  51.087 -25.719  1.00  0.00     0.013 C 
BRANCH   6   8
HETATM    8  C3  UNL     1      -1.832  51.937 -23.838  1.00  0.00     0.042 C 
BRANCH   8   9
HETATM    9  C2  UNL     1      -3.067  51.109 -23.390  1.00  0.00     0.159 C 
BRANCH   9  10
HETATM   10  O1  UNL     1      -3.986  52.001 -22.729  1.00  0.00    -0.388 OA
HETATM   11  C1  UNL     1      -5.052  52.462 -23.555  1.00  0.00     0.202 C 
ENDBRANCH   9  10
BRANCH   9  12
HETATM   12  C28 UNL     1      -2.914  49.837 -22.484  1.00  0.00     0.133 C 
HETATM   13  C29 UNL     1      -4.354  49.338 -22.070  1.00  0.00     0.114 C 
HETATM   14  C30 UNL     1      -4.480  47.841 -21.787  1.00  0.00     0.023 C 
HETATM   15  C31 UNL     1      -4.632  50.081 -20.786  1.00  0.00     0.227 C 
HETATM   16  O8  UNL     1      -5.741  50.326 -20.342  1.00  0.00    -0.273 OA
HETATM   17  N3  UNL     1      -3.413  50.362 -20.196  1.00  0.00    -0.332 N 
HETATM   18  C32 UNL     1      -3.338  51.294 -19.093  1.00  0.00     0.154 C 
HETATM   19  C33 UNL     1      -2.247  50.076 -21.107  1.00  0.00     0.183 C 
HETATM   20  C34 UNL     1      -1.007  51.011 -20.961  1.00  0.00     0.294 C 
HETATM   21  C35 UNL     1      -1.249  49.044 -20.457  1.00  0.00     0.169 C 
HETATM   22  O9  UNL     1      -0.720  52.182 -21.057  1.00  0.00    -0.262 OA
HETATM   23  O10 UNL     1      -0.178  50.022 -20.539  1.00  0.00    -0.311 OA
HETATM   24  C36 UNL     1      -0.777  47.738 -21.065  1.00  0.00     0.043 C 
BRANCH  12  25
HETATM   25  O7  UNL     1      -2.278  48.799 -23.229  1.00  0.00    -0.383 OA
HETATM   26  H42 UNL     1      -2.886  48.541 -23.948  1.00  0.00     0.210 HD
ENDBRANCH  12  25
ENDBRANCH   9  12
ENDBRANCH   8   9
ENDBRANCH   6   8
ENDBRANCH   5   6
BRANCH   5  27
HETATM   27  O2  UNL     1      -2.211  53.161 -27.345  1.00  0.00    -0.391 OA
HETATM   28  H12 UNL     1      -1.491  52.767 -27.874  1.00  0.00     0.210 HD
ENDBRANCH   5  27
ENDBRANCH   4   5
ENDBRANCH   1   3
BRANCH   2  29
HETATM   29  C11 UNL     1      -5.150  47.695 -29.284  1.00  0.00     0.149 C 
BRANCH  29  30
HETATM   30  N1  UNL     1      -6.553  47.401 -29.091  1.00  0.00    -0.357 N 
HETATM   31  C12 UNL     1      -7.462  47.863 -30.031  1.00  0.00     0.228 C 
HETATM   32  O3  UNL     1      -7.084  48.541 -30.980  1.00  0.00    -0.273 OA
HETATM   33  H19 UNL     1      -6.790  46.564 -28.580  1.00  0.00     0.162 HD
BRANCH  31  34
HETATM   34  C13 UNL     1      -8.924  47.394 -29.842  1.00  0.00     0.063 C 
HETATM   35  C14 UNL     1      -8.986  45.853 -29.832  1.00  0.00     0.028 C 
HETATM   36  C15 UNL     1      -9.721  47.905 -31.068  1.00  0.00     0.028 C 
BRANCH  34  37
HETATM   37  C16 UNL     1      -9.597  47.941 -28.527  1.00  0.00     0.164 C 
BRANCH  37  38
HETATM   38  O4  UNL     1      -8.904  49.029 -27.916  1.00  0.00    -0.390 OA
HETATM   39  H27 UNL     1      -8.524  49.605 -28.599  1.00  0.00     0.210 HD
ENDBRANCH  37  38
BRANCH  37  40
HETATM   40  C17 UNL     1      -9.915  46.950 -27.408  1.00  0.00    -0.054 C 
HETATM   41  C18 UNL     1      -8.825  46.727 -26.386  1.00  0.00     0.046 C 
HETATM   42  C19 UNL     1     -11.108  46.347 -27.205  1.00  0.00     0.005 C 
BRANCH  42  43
HETATM   43  C20 UNL     1     -12.314  46.460 -28.004  1.00  0.00     0.000 C 
HETATM   44  C21 UNL     1     -13.551  46.741 -27.553  1.00  0.00     0.000 C 
BRANCH  44  45
HETATM   45  C22 UNL     1     -13.939  46.962 -26.176  1.00  0.00     0.001 C 
HETATM   46  C23 UNL     1     -15.004  46.484 -25.508  1.00  0.00     0.009 C 
BRANCH  46  47
HETATM   47  C24 UNL     1     -16.166  45.703 -25.951  1.00  0.00    -0.034 C 
HETATM   48  C25 UNL     1     -15.984  44.856 -27.194  1.00  0.00     0.050 C 
HETATM   49  C26 UNL     1     -17.359  45.831 -25.317  1.00  0.00     0.082 C 
HETATM   50  C27 UNL     1     -17.788  46.630 -24.130  1.00  0.00     0.075 C 
BRANCH  49  51
HETATM   51  N2  UNL     1     -18.465  45.035 -25.813  1.00  0.00    -0.120 N 
HETATM   52  O5  UNL     1     -19.204  45.558 -26.658  1.00  0.00    -0.532 OA
HETATM   53  O6  UNL     1     -18.566  43.882 -25.369  1.00  0.00    -0.532 OA
ENDBRANCH  49  51
ENDBRANCH  46  47
ENDBRANCH  44  45
ENDBRANCH  42  43
ENDBRANCH  37  40
ENDBRANCH  34  37
ENDBRANCH  31  34
ENDBRANCH  29  30
ENDBRANCH   2  29
TORSDOF 19
ENDMDL
MODEL 2
REMARK minimizedAffinity -8.69408894
REMARK CNNscore 0.174733192
REMARK CNNaffinity 6.38221979
REMARK  19 active torsions:
REMARK  status: ('A' for Active; 'I' for Inactive)
REMARK    1  A    between atoms: O1_2  and  C2_3 
REMARK    2  A    between atoms: C2_3  and  C3_4 
REMARK    3  A    between atoms: C2_3  and  C28_36 
REMARK    4  A    between atoms: C3_4  and  C4_5 
REMARK    5  A    between atoms: C4_5  and  C6_7 
REMARK    6  A    between atoms: C6_7  and  O2_8 
REMARK    7  A    between atoms: C6_7  and  C7_9 
REMARK    8  A    between atoms: C8_10  and  C9_11 
REMARK    9  A    between atoms: C10_12  and  C11_13 
REMARK   10  A    between atoms: C11_13  and  N1_14 
REMARK       I    between atoms: N1_14  and  C12_15 
REMARK   11  A    between atoms: C12_15  and  C13_17 
REMARK   12  A    between atoms: C13_17  and  C16_20 
REMARK   13  A    between atoms: C16_20  and  O4_21 
REMARK   14  A    between atoms: C16_20  and  C17_22 
REMARK   15  A    between atoms: C19_24  and  C20_25 
REMARK   16  A    between atoms: C21_26  and  C22_27 
REMARK   17  A    between atoms: C23_28  and  C24_29 
REMARK   18  A    between atoms: C26_31  and  N2_33 
REMARK   19  A    between atoms: C28_36  and  O7_37 
ROOT
HETATM    1  C9  UNL     1      -4.737  48.235 -26.729  1.00  0.00    -0.003 C 
HETATM    2  C10 UNL     1      -3.476  48.550 -27.075  1.00  0.00    -0.007 C 
ENDROOT
BRANCH   1   3
HETATM    3  C8  UNL     1      -5.719  47.824 -27.711  1.00  0.00    -0.002 C 
HETATM    4  C7  UNL     1      -5.676  48.197 -29.000  1.00  0.00     0.005 C 
BRANCH   4   5
HETATM    5  C6  UNL     1      -6.635  47.836 -30.113  1.00  0.00     0.144 C 
BRANCH   5   6
HETATM    6  C4  UNL     1      -7.522  46.579 -29.950  1.00  0.00     0.016 C 
HETATM    7  C5  UNL     1      -7.286  45.530 -31.039  1.00  0.00     0.013 C 
BRANCH   6   8
HETATM    8  C3  UNL     1      -9.030  46.857 -29.721  1.00  0.00     0.042 C 
BRANCH   8   9
HETATM    9  C2  UNL     1     -10.072  45.751 -29.395  1.00  0.00     0.159 C 
BRANCH   9  10
HETATM   10  O1  UNL     1     -11.183  45.905 -30.299  1.00  0.00    -0.388 OA
HETATM   11  C1  UNL     1     -10.851  46.528 -31.537  1.00  0.00     0.202 C 
ENDBRANCH   9  10
BRANCH   9  12
HETATM   12  C28 UNL     1     -10.660  45.583 -27.951  1.00  0.00     0.133 C 
HETATM   13  C29 UNL     1     -11.140  44.088 -27.774  1.00  0.00     0.114 C 
HETATM   14  C30 UNL     1     -11.113  43.549 -26.344  1.00  0.00     0.023 C 
HETATM   15  C31 UNL     1     -12.576  44.119 -28.235  1.00  0.00     0.227 C 
HETATM   16  O8  UNL     1     -13.200  43.160 -28.656  1.00  0.00    -0.273 OA
HETATM   17  N3  UNL     1     -13.053  45.401 -28.028  1.00  0.00    -0.332 N 
HETATM   18  C32 UNL     1     -14.309  45.813 -28.613  1.00  0.00     0.154 C 
HETATM   19  C33 UNL     1     -11.961  46.374 -27.665  1.00  0.00     0.183 C 
HETATM   20  C34 UNL     1     -12.142  47.839 -28.169  1.00  0.00     0.294 C 
HETATM   21  C35 UNL     1     -12.245  47.067 -26.278  1.00  0.00     0.169 C 
HETATM   22  O9  UNL     1     -12.260  48.449 -29.206  1.00  0.00    -0.262 OA
HETATM   23  O10 UNL     1     -12.236  48.369 -26.921  1.00  0.00    -0.311 OA
HETATM   24  C36 UNL     1     -11.319  47.099 -25.077  1.00  0.00     0.043 C 
BRANCH  12  25
HETATM   25  O7  UNL     1      -9.638  45.841 -26.989  1.00  0.00    -0.383 OA
HETATM   26  H42 UNL     1      -8.965  45.141 -27.084  1.00  0.00     0.210 HD
ENDBRANCH  12  25
ENDBRANCH   9  12
ENDBRANCH   8   9
ENDBRANCH   6   8
ENDBRANCH   5   6
BRANCH   5  27
HETATM   27  O2  UNL     1      -7.465  48.983 -30.298  1.00  0.00    -0.391 OA
HETATM   28  H12 UNL     1      -7.912  49.145 -29.445  1.00  0.00     0.210 HD
ENDBRANCH   5  27
ENDBRANCH   4   5
ENDBRANCH   1   3
BRANCH   2  29
HETATM   29  C11 UNL     1      -2.336  49.003 -26.219  1.00  0.00     0.149 C 
BRANCH  29  30
HETATM   30  N1  UNL     1      -2.082  50.426 -26.294  1.00  0.00    -0.357 N 
HETATM   31  C12 UNL     1      -0.767  50.862 -26.332  1.00  0.00     0.228 C 
HETATM   32  O3  UNL     1       0.158  50.059 -26.262  1.00  0.00    -0.273 OA
HETATM   33  H19 UNL     1      -2.782  51.004 -26.733  1.00  0.00     0.162 HD
BRANCH  31  34
HETATM   34  C13 UNL     1      -0.566  52.380 -26.554  1.00  0.00     0.063 C 
HETATM   35  C14 UNL     1      -1.719  52.943 -27.410  1.00  0.00     0.028 C 
HETATM   36  C15 UNL     1       0.754  52.548 -27.347  1.00  0.00     0.028 C 
BRANCH  34  37
HETATM   37  C16 UNL     1      -0.471  53.206 -25.217  1.00  0.00     0.164 C 
BRANCH  37  38
HETATM   38  O4  UNL     1       0.861  53.429 -24.753  1.00  0.00    -0.390 OA
HETATM   39  H27 UNL     1       1.455  53.567 -25.508  1.00  0.00     0.210 HD
ENDBRANCH  37  38
BRANCH  37  40
HETATM   40  C17 UNL     1      -1.273  52.726 -24.007  1.00  0.00    -0.054 C 
HETATM   41  C18 UNL     1      -2.776  52.741 -24.156  1.00  0.00     0.046 C 
HETATM   42  C19 UNL     1      -0.752  52.202 -22.875  1.00  0.00     0.005 C 
BRANCH  42  43
HETATM   43  C20 UNL     1       0.646  52.022 -22.534  1.00  0.00     0.000 C 
HETATM   44  C21 UNL     1       1.324  52.663 -21.563  1.00  0.00     0.000 C 
BRANCH  44  45
HETATM   45  C22 UNL     1       0.805  53.684 -20.678  1.00  0.00     0.001 C 
HETATM   46  C23 UNL     1       0.180  53.544 -19.495  1.00  0.00     0.009 C 
BRANCH  46  47
HETATM   47  C24 UNL     1      -0.286  52.354 -18.771  1.00  0.00    -0.034 C 
HETATM   48  C25 UNL     1      -1.582  51.731 -19.247  1.00  0.00     0.050 C 
HETATM   49  C26 UNL     1       0.379  51.918 -17.672  1.00  0.00     0.082 C 
HETATM   50  C27 UNL     1       1.622  52.393 -16.992  1.00  0.00     0.075 C 
BRANCH  49  51
HETATM   51  N2  UNL     1      -0.142  50.742 -17.001  1.00  0.00    -0.120 N 
HETATM   52  O5  UNL     1      -0.932  50.928 -16.066  1.00  0.00    -0.532 OA
HETATM   53  O6  UNL     1       0.227  49.642 -17.438  1.00  0.00    -0.532 OA
ENDBRANCH  49  51
ENDBRANCH  46  47
ENDBRANCH  44  45
ENDBRANCH  42  43
ENDBRANCH  37  40
ENDBRANCH  34  37
ENDBRANCH  31  34
ENDBRANCH  29  30
ENDBRANCH   2  29
TORSDOF 19
ENDMDL
MODEL 3
REMARK minimizedAffinity -8.88885307
REMARK CNNscore 0.173307985
REMARK CNNaffinity 6.18129587
REMARK  19 active torsions:
REMARK  status: ('A' for Active; 'I' for Inactive)
REMARK    1  A    between atoms: O1_2  and  C2_3 
REMARK    2  A    between atoms: C2_3  and  C3_4 
REMARK    3  A    between atoms: C2_3  and  C28_36 
REMARK    4  A    between atoms: C3_4  and  C4_5 
REMARK    5  A    between atoms: C4_5  and  C6_7 
REMARK    6  A    between atoms: C6_7  and  O2_8 
REMARK    7  A    between atoms: C6_7  and  C7_9 
REMARK    8  A    between atoms: C8_10  and  C9_11 
REMARK    9  A    between atoms: C10_12  and  C11_13 
REMARK   10  A    between atoms: C11_13  and  N1_14 
REMARK       I    between atoms: N1_14  and  C12_15 
REMARK   11  A    between atoms: C12_15  and  C13_17 
REMARK   12  A    between atoms: C13_17  and  C16_20 
REMARK   13  A    between atoms: C16_20  and  O4_21 
REMARK   14  A    between atoms: C16_20  and  C17_22 
REMARK   15  A    between atoms: C19_24  and  C20_25 
REMARK   16  A    between atoms: C21_26  and  C22_27 
REMARK   17  A    between atoms: C23_28  and  C24_29 
REMARK   18  A    between atoms: C26_31  and  N2_33 
REMARK   19  A    between atoms: C28_36  and  O7_37 
ROOT
HETATM    1  C9  UNL     1      -3.695  48.564 -24.903  1.00  0.00    -0.003 C 
HETATM    2  C10 UNL     1      -4.865  48.906 -24.336  1.00  0.00    -0.007 C 
ENDROOT
BRANCH   1   3
HETATM    3  C8  UNL     1      -3.547  48.447 -26.339  1.00  0.00    -0.002 C 
HETATM    4  C7  UNL     1      -4.586  48.392 -27.188  1.00  0.00     0.005 C 
BRANCH   4   5
HETATM    5  C6  UNL     1      -4.560  48.272 -28.695  1.00  0.00     0.144 C 
BRANCH   5   6
HETATM    6  C4  UNL     1      -5.832  47.776 -29.423  1.00  0.00     0.016 C 
HETATM    7  C5  UNL     1      -6.772  46.978 -28.517  1.00  0.00     0.013 C 
BRANCH   6   8
HETATM    8  C3  UNL     1      -5.586  47.068 -30.781  1.00  0.00     0.042 C 
BRANCH   8   9
HETATM    9  C2  UNL     1      -6.358  45.805 -31.248  1.00  0.00     0.159 C 
BRANCH   9  10
HETATM   10  O1  UNL     1      -5.409  44.893 -31.834  1.00  0.00    -0.388 OA
HETATM   11  C1  UNL     1      -4.179  45.498 -32.226  1.00  0.00     0.202 C 
ENDBRANCH   9  10
BRANCH   9  12
HETATM   12  C28 UNL     1      -7.578  45.909 -32.229  1.00  0.00     0.133 C 
HETATM   13  C29 UNL     1      -7.677  47.395 -32.753  1.00  0.00     0.114 C 
HETATM   14  C30 UNL     1      -8.306  47.570 -34.135  1.00  0.00     0.023 C 
HETATM   15  C31 UNL     1      -8.574  48.068 -31.742  1.00  0.00     0.227 C 
HETATM   16  O8  UNL     1      -8.595  49.265 -31.508  1.00  0.00    -0.273 OA
HETATM   17  N3  UNL     1      -9.393  47.095 -31.199  1.00  0.00    -0.332 N 
HETATM   18  C32 UNL     1     -10.175  47.380 -30.017  1.00  0.00     0.154 C 
HETATM   19  C33 UNL     1      -8.971  45.701 -31.584  1.00  0.00     0.183 C 
HETATM   20  C34 UNL     1      -9.210  44.585 -30.520  1.00  0.00     0.294 C 
HETATM   21  C35 UNL     1     -10.135  44.927 -32.311  1.00  0.00     0.169 C 
HETATM   22  O9  UNL     1      -8.888  44.307 -29.388  1.00  0.00    -0.262 OA
HETATM   23  O10 UNL     1     -10.105  43.904 -31.282  1.00  0.00    -0.311 OA
HETATM   24  C36 UNL     1     -10.067  44.264 -33.674  1.00  0.00     0.043 C 
BRANCH  12  25
HETATM   25  O7  UNL     1      -7.359  45.054 -33.350  1.00  0.00    -0.383 OA
HETATM   26  H42 UNL     1      -6.593  45.407 -33.842  1.00  0.00     0.210 HD
ENDBRANCH  12  25
ENDBRANCH   9  12
ENDBRANCH   8   9
ENDBRANCH   6   8
ENDBRANCH   5   6
BRANCH   5  27
HETATM   27  O2  UNL     1      -4.209  49.568 -29.182  1.00  0.00    -0.391 OA
HETATM   28  H12 UNL     1      -4.895  50.183 -28.858  1.00  0.00     0.210 HD
ENDBRANCH   5  27
ENDBRANCH   4   5
ENDBRANCH   1   3
BRANCH   2  29
HETATM   29  C11 UNL     1      -5.216  49.063 -22.890  1.00  0.00     0.149 C 
BRANCH  29  30
HETATM   30  N1  UNL     1      -4.066  49.092 -22.012  1.00  0.00    -0.357 N 
HETATM   31  C12 UNL     1      -3.945  50.140 -21.113  1.00  0.00     0.228 C 
HETATM   32  O3  UNL     1      -4.775  51.043 -21.096  1.00  0.00    -0.273 OA
HETATM   33  H19 UNL     1      -3.643  48.210 -21.765  1.00  0.00     0.162 HD
BRANCH  31  34
HETATM   34  C13 UNL     1      -2.772  50.037 -20.111  1.00  0.00     0.063 C 
HETATM   35  C14 UNL     1      -2.828  48.684 -19.373  1.00  0.00     0.028 C 
HETATM   36  C15 UNL     1      -2.970  51.166 -19.069  1.00  0.00     0.028 C 
BRANCH  34  37
HETATM   37  C16 UNL     1      -1.354  50.198 -20.778  1.00  0.00     0.164 C 
BRANCH  37  38
HETATM   38  O4  UNL     1      -0.282  49.622 -20.033  1.00  0.00    -0.390 OA
HETATM   39  H27 UNL     1      -0.578  48.803 -19.604  1.00  0.00     0.210 HD
ENDBRANCH  37  38
BRANCH  37  40
HETATM   40  C17 UNL     1      -0.896  51.600 -21.180  1.00  0.00    -0.054 C 
HETATM   41  C18 UNL     1       0.108  52.260 -20.265  1.00  0.00     0.046 C 
HETATM   42  C19 UNL     1      -1.232  52.240 -22.322  1.00  0.00     0.005 C 
BRANCH  42  43
HETATM   43  C20 UNL     1      -2.116  51.783 -23.377  1.00  0.00     0.000 C 
HETATM   44  C21 UNL     1      -1.754  51.152 -24.510  1.00  0.00     0.000 C 
BRANCH  44  45
HETATM   45  C22 UNL     1      -0.405  50.824 -24.923  1.00  0.00     0.001 C 
HETATM   46  C23 UNL     1       0.391  51.460 -25.801  1.00  0.00     0.009 C 
BRANCH  46  47
HETATM   47  C24 UNL     1       0.143  52.591 -26.704  1.00  0.00    -0.034 C 
HETATM   48  C25 UNL     1       0.111  52.285 -28.187  1.00  0.00     0.050 C 
HETATM   49  C26 UNL     1       0.051  53.852 -26.211  1.00  0.00     0.082 C 
HETATM   50  C27 UNL     1       0.107  54.397 -24.821  1.00  0.00     0.075 C 
BRANCH  49  51
HETATM   51  N2  UNL     1      -0.186  54.922 -27.161  1.00  0.00    -0.120 N 
HETATM   52  O5  UNL     1      -0.967  54.687 -28.094  1.00  0.00    -0.532 OA
HETATM   53  O6  UNL     1       0.393  55.997 -26.947  1.00  0.00    -0.532 OA
ENDBRANCH  49  51
ENDBRANCH  46  47
ENDBRANCH  44  45
ENDBRANCH  42  43
ENDBRANCH  37  40
ENDBRANCH  34  37
ENDBRANCH  31  34
ENDBRANCH  29  30
ENDBRANCH   2  29
TORSDOF 19
ENDMDL
MODEL 4
REMARK minimizedAffinity -8.47667122
REMARK CNNscore 0.17192778
REMARK CNNaffinity 6.51589012
REMARK  19 active torsions:
REMARK  status: ('A' for Active; 'I' for Inactive)
REMARK    1  A    between atoms: O1_2  and  C2_3 
REMARK    2  A    between atoms: C2_3  and  C3_4 
REMARK    3  A    between atoms: C2_3  and  C28_36 
REMARK    4  A    between atoms: C3_4  and  C4_5 
REMARK    5  A    between atoms: C4_5  and  C6_7 
REMARK    6  A    between atoms: C6_7  and  O2_8 
REMARK    7  A    between atoms: C6_7  and  C7_9 
REMARK    8  A    between atoms: C8_10  and  C9_11 
REMARK    9  A    between atoms: C10_12  and  C11_13 
REMARK   10  A    between atoms: C11_13  and  N1_14 
REMARK       I    between atoms: N1_14  and  C12_15 
REMARK   11  A    between atoms: C12_15  and  C13_17 
REMARK   12  A    between atoms: C13_17  and  C16_20 
REMARK   13  A    between atoms: C16_20  and  O4_21 
REMARK   14  A    between atoms: C16_20  and  C17_22 
REMARK   15  A    between atoms: C19_24  and  C20_25 
REMARK   16  A    between atoms: C21_26  and  C22_27 
REMARK   17  A    between atoms: C23_28  and  C24_29 
REMARK   18  A    between atoms: C26_31  and  N2_33 
REMARK   19  A    between atoms: C28_36  and  O7_37 
ROOT
HETATM    1  C9  UNL     1      -3.162  48.559 -25.159  1.00  0.00    -0.003 C 
HETATM    2  C10 UNL     1      -4.226  49.019 -24.476  1.00  0.00    -0.007 C 
ENDROOT
BRANCH   1   3
HETATM    3  C8  UNL     1      -3.129  48.552 -26.606  1.00  0.00    -0.002 C 
HETATM    4  C7  UNL     1      -4.218  48.364 -27.371  1.00  0.00     0.005 C 
BRANCH   4   5
HETATM    5  C6  UNL     1      -4.310  48.337 -28.880  1.00  0.00     0.144 C 
BRANCH   5   6
HETATM    6  C4  UNL     1      -5.519  47.631 -29.538  1.00  0.00     0.016 C 
HETATM    7  C5  UNL     1      -5.542  47.770 -31.062  1.00  0.00     0.013 C 
BRANCH   6   8
HETATM    8  C3  UNL     1      -6.897  47.942 -28.899  1.00  0.00     0.042 C 
BRANCH   8   9
HETATM    9  C2  UNL     1      -8.253  47.717 -29.622  1.00  0.00     0.159 C 
BRANCH   9  10
HETATM   10  O1  UNL     1      -8.940  48.981 -29.686  1.00  0.00    -0.388 OA
HETATM   11  C1  UNL     1      -8.771  49.679 -30.918  1.00  0.00     0.202 C 
ENDBRANCH   9  10
BRANCH   9  12
HETATM   12  C28 UNL     1      -9.283  46.648 -29.111  1.00  0.00     0.133 C 
HETATM   13  C29 UNL     1      -8.559  45.710 -28.067  1.00  0.00     0.114 C 
HETATM   14  C30 UNL     1      -9.460  45.082 -27.004  1.00  0.00     0.023 C 
HETATM   15  C31 UNL     1      -7.997  44.599 -28.920  1.00  0.00     0.227 C 
HETATM   16  O8  UNL     1      -7.044  43.897 -28.622  1.00  0.00    -0.273 OA
HETATM   17  N3  UNL     1      -8.795  44.491 -30.043  1.00  0.00    -0.332 N 
HETATM   18  C32 UNL     1      -8.360  43.697 -31.171  1.00  0.00     0.154 C 
HETATM   19  C33 UNL     1      -9.770  45.632 -30.174  1.00  0.00     0.183 C 
HETATM   20  C34 UNL     1     -10.118  46.086 -31.625  1.00  0.00     0.294 C 
HETATM   21  C35 UNL     1     -11.258  45.115 -30.233  1.00  0.00     0.169 C 
HETATM   22  O9  UNL     1      -9.568  46.519 -32.612  1.00  0.00    -0.262 OA
HETATM   23  O10 UNL     1     -11.427  45.736 -31.535  1.00  0.00    -0.311 OA
HETATM   24  C36 UNL     1     -12.399  45.538 -29.328  1.00  0.00     0.043 C 
BRANCH  12  25
HETATM   25  O7  UNL     1     -10.360  47.308 -28.447  1.00  0.00    -0.383 OA
HETATM   26  H42 UNL     1      -9.996  47.728 -27.645  1.00  0.00     0.210 HD
ENDBRANCH  12  25
ENDBRANCH   9  12
ENDBRANCH   8   9
ENDBRANCH   6   8
ENDBRANCH   5   6
BRANCH   5  27
HETATM   27  O2  UNL     1      -4.273  49.702 -29.296  1.00  0.00    -0.391 OA
HETATM   28  H12 UNL     1      -5.034  50.144 -28.874  1.00  0.00     0.210 HD
ENDBRANCH   5  27
ENDBRANCH   4   5
ENDBRANCH   1   3
BRANCH   2  29
HETATM   29  C11 UNL     1      -4.452  49.095 -22.999  1.00  0.00     0.149 C 
BRANCH  29  30
HETATM   30  N1  UNL     1      -3.297  48.719 -22.213  1.00  0.00    -0.357 N 
HETATM   31  C12 UNL     1      -3.404  48.728 -20.831  1.00  0.00     0.228 C 
HETATM   32  O3  UNL     1      -4.445  49.088 -20.291  1.00  0.00    -0.273 OA
HETATM   33  H19 UNL     1      -2.635  48.081 -22.629  1.00  0.00     0.162 HD
BRANCH  31  34
HETATM   34  C13 UNL     1      -2.183  48.182 -20.056  1.00  0.00     0.063 C 
HETATM   35  C14 UNL     1      -1.238  47.437 -21.021  1.00  0.00     0.028 C 
HETATM   36  C15 UNL     1      -2.725  47.162 -19.023  1.00  0.00     0.028 C 
BRANCH  34  37
HETATM   37  C16 UNL     1      -1.366  49.295 -19.298  1.00  0.00     0.164 C 
BRANCH  37  38
HETATM   38  O4  UNL     1      -1.295  49.117 -17.884  1.00  0.00    -0.390 OA
HETATM   39  H27 UNL     1      -1.230  48.171 -17.672  1.00  0.00     0.210 HD
ENDBRANCH  37  38
BRANCH  37  40
HETATM   40  C17 UNL     1      -1.745  50.758 -19.529  1.00  0.00    -0.054 C 
HETATM   41  C18 UNL     1      -2.493  51.438 -18.407  1.00  0.00     0.046 C 
HETATM   42  C19 UNL     1      -1.381  51.506 -20.594  1.00  0.00     0.005 C 
BRANCH  42  43
HETATM   43  C20 UNL     1      -0.609  51.098 -21.753  1.00  0.00     0.000 C 
HETATM   44  C21 UNL     1      -0.928  51.310 -23.044  1.00  0.00     0.000 C 
BRANCH  44  45
HETATM   45  C22 UNL     1      -2.119  51.964 -23.544  1.00  0.00     0.001 C 
HETATM   46  C23 UNL     1      -2.398  52.378 -24.792  1.00  0.00     0.009 C 
BRANCH  46  47
HETATM   47  C24 UNL     1      -1.583  52.423 -26.013  1.00  0.00    -0.034 C 
HETATM   48  C25 UNL     1      -2.017  51.527 -27.155  1.00  0.00     0.050 C 
HETATM   49  C26 UNL     1      -0.446  53.163 -26.049  1.00  0.00     0.082 C 
HETATM   50  C27 UNL     1       0.202  54.063 -25.049  1.00  0.00     0.075 C 
BRANCH  49  51
HETATM   51  N2  UNL     1       0.315  53.154 -27.284  1.00  0.00    -0.120 N 
HETATM   52  O5  UNL     1       1.282  52.383 -27.347  1.00  0.00    -0.532 OA
HETATM   53  O6  UNL     1      -0.082  53.902 -28.189  1.00  0.00    -0.532 OA
ENDBRANCH  49  51
ENDBRANCH  46  47
ENDBRANCH  44  45
ENDBRANCH  42  43
ENDBRANCH  37  40
ENDBRANCH  34  37
ENDBRANCH  31  34
ENDBRANCH  29  30
ENDBRANCH   2  29
TORSDOF 19
ENDMDL
MODEL 5
REMARK minimizedAffinity -8.5458107
REMARK CNNscore 0.166881397
REMARK CNNaffinity 6.23045397
REMARK  19 active torsions:
REMARK  status: ('A' for Active; 'I' for Inactive)
REMARK    1  A    between atoms: O1_2  and  C2_3 
REMARK    2  A    between atoms: C2_3  and  C3_4 
REMARK    3  A    between atoms: C2_3  and  C28_36 
REMARK    4  A    between atoms: C3_4  and  C4_5 
REMARK    5  A    between atoms: C4_5  and  C6_7 
REMARK    6  A    between atoms: C6_7  and  O2_8 
REMARK    7  A    between atoms: C6_7  and  C7_9 
REMARK    8  A    between atoms: C8_10  and  C9_11 
REMARK    9  A    between atoms: C10_12  and  C11_13 
REMARK   10  A    between atoms: C11_13  and  N1_14 
REMARK       I    between atoms: N1_14  and  C12_15 
REMARK   11  A    between atoms: C12_15  and  C13_17 
REMARK   12  A    between atoms: C13_17  and  C16_20 
REMARK   13  A    between atoms: C16_20  and  O4_21 
REMARK   14  A    between atoms: C16_20  and  C17_22 
REMARK   15  A    between atoms: C19_24  and  C20_25 
REMARK   16  A    between atoms: C21_26  and  C22_27 
REMARK   17  A    between atoms: C23_28  and  C24_29 
REMARK   18  A    between atoms: C26_31  and  N2_33 
REMARK   19  A    between atoms: C28_36  and  O7_37 
ROOT
HETATM    1  C9  UNL     1      -0.222  51.343 -18.252  1.00  0.00    -0.003 C 
HETATM    2  C10 UNL     1      -0.594  50.468 -19.205  1.00  0.00    -0.007 C 
ENDROOT
BRANCH   1   3
HETATM    3  C8  UNL     1      -0.148  50.966 -16.857  1.00  0.00    -0.002 C 
HETATM    4  C7  UNL     1       0.996  50.622 -16.242  1.00  0.00     0.005 C 
BRANCH   4   5
HETATM    5  C6  UNL     1       1.200  50.214 -14.801  1.00  0.00     0.144 C 
BRANCH   5   6
HETATM    6  C4  UNL     1       1.375  51.319 -13.733  1.00  0.00     0.016 C 
HETATM    7  C5  UNL     1       2.837  51.710 -13.504  1.00  0.00     0.013 C 
BRANCH   6   8
HETATM    8  C3  UNL     1       0.616  51.082 -12.401  1.00  0.00     0.042 C 
BRANCH   8   9
HETATM    9  C2  UNL     1       0.539  52.126 -11.254  1.00  0.00     0.159 C 
BRANCH   9  10
HETATM   10  O1  UNL     1       0.980  51.489 -10.040  1.00  0.00    -0.388 OA
HETATM   11  C1  UNL     1       2.376  51.615  -9.784  1.00  0.00     0.202 C 
ENDBRANCH   9  10
BRANCH   9  12
HETATM   12  C28 UNL     1      -0.795  52.885 -10.929  1.00  0.00     0.133 C 
HETATM   13  C29 UNL     1      -0.442  54.206 -10.137  1.00  0.00     0.114 C 
HETATM   14  C30 UNL     1      -1.430  55.361 -10.301  1.00  0.00     0.023 C 
HETATM   15  C31 UNL     1      -0.468  53.770  -8.692  1.00  0.00     0.227 C 
HETATM   16  O8  UNL     1       0.127  54.321  -7.781  1.00  0.00    -0.273 OA
HETATM   17  N3  UNL     1      -1.331  52.694  -8.597  1.00  0.00    -0.332 N 
HETATM   18  C32 UNL     1      -1.362  51.892  -7.394  1.00  0.00     0.154 C 
HETATM   19  C33 UNL     1      -1.749  52.164  -9.944  1.00  0.00     0.183 C 
HETATM   20  C34 UNL     1      -1.997  50.627 -10.040  1.00  0.00     0.294 C 
HETATM   21  C35 UNL     1      -3.316  52.188 -10.111  1.00  0.00     0.169 C 
HETATM   22  O9  UNL     1      -1.402  49.586  -9.881  1.00  0.00    -0.262 OA
HETATM   23  O10 UNL     1      -3.321  50.751 -10.320  1.00  0.00    -0.311 OA
HETATM   24  C36 UNL     1      -4.097  52.855 -11.227  1.00  0.00     0.043 C 
BRANCH  12  25
HETATM   25  O7  UNL     1      -1.440  53.254 -12.147  1.00  0.00    -0.383 OA
HETATM   26  H42 UNL     1      -0.867  53.906 -12.595  1.00  0.00     0.210 HD
ENDBRANCH  12  25
ENDBRANCH   9  12
ENDBRANCH   8   9
ENDBRANCH   6   8
ENDBRANCH   5   6
BRANCH   5  27
HETATM   27  O2  UNL     1       0.075  49.402 -14.464  1.00  0.00    -0.391 OA
HETATM   28  H12 UNL     1      -0.719  49.955 -14.597  1.00  0.00     0.210 HD
ENDBRANCH   5  27
ENDBRANCH   4   5
ENDBRANCH   1   3
BRANCH   2  29
HETATM   29  C11 UNL     1      -0.743  50.669 -20.679  1.00  0.00     0.149 C 
BRANCH  29  30
HETATM   30  N1  UNL     1      -2.102  50.938 -21.096  1.00  0.00    -0.357 N 
HETATM   31  C12 UNL     1      -2.682  50.104 -22.041  1.00  0.00     0.228 C 
HETATM   32  O3  UNL     1      -2.038  49.187 -22.540  1.00  0.00    -0.273 OA
HETATM   33  H19 UNL     1      -2.712  51.396 -20.437  1.00  0.00     0.162 HD
BRANCH  31  34
HETATM   34  C13 UNL     1      -4.178  50.359 -22.336  1.00  0.00     0.063 C 
HETATM   35  C14 UNL     1      -4.634  51.666 -21.657  1.00  0.00     0.028 C 
HETATM   36  C15 UNL     1      -4.967  49.184 -21.705  1.00  0.00     0.028 C 
BRANCH  34  37
HETATM   37  C16 UNL     1      -4.515  50.436 -23.873  1.00  0.00     0.164 C 
BRANCH  37  38
HETATM   38  O4  UNL     1      -5.376  51.515 -24.236  1.00  0.00    -0.390 OA
HETATM   39  H27 UNL     1      -5.175  52.296 -23.695  1.00  0.00     0.210 HD
ENDBRANCH  37  38
BRANCH  37  40
HETATM   40  C17 UNL     1      -5.075  49.189 -24.558  1.00  0.00    -0.054 C 
HETATM   41  C18 UNL     1      -6.557  48.951 -24.398  1.00  0.00     0.046 C 
HETATM   42  C19 UNL     1      -4.380  48.356 -25.365  1.00  0.00     0.005 C 
BRANCH  42  43
HETATM   43  C20 UNL     1      -2.975  48.421 -25.721  1.00  0.00     0.000 C 
HETATM   44  C21 UNL     1      -2.381  49.369 -26.470  1.00  0.00     0.000 C 
BRANCH  44  45
HETATM   45  C22 UNL     1      -3.024  50.504 -27.097  1.00  0.00     0.001 C 
HETATM   46  C23 UNL     1      -2.705  51.808 -27.021  1.00  0.00     0.009 C 
BRANCH  46  47
HETATM   47  C24 UNL     1      -1.710  52.525 -26.213  1.00  0.00    -0.034 C 
HETATM   48  C25 UNL     1      -2.021  52.695 -24.740  1.00  0.00     0.050 C 
HETATM   49  C26 UNL     1      -0.624  53.085 -26.805  1.00  0.00     0.082 C 
HETATM   50  C27 UNL     1      -0.143  53.100 -28.219  1.00  0.00     0.075 C 
BRANCH  49  51
HETATM   51  N2  UNL     1       0.314  53.785 -25.947  1.00  0.00    -0.120 N 
HETATM   52  O5  UNL     1       1.185  53.105 -25.388  1.00  0.00    -0.532 OA
HETATM   53  O6  UNL     1       0.182  55.015 -25.865  1.00  0.00    -0.532 OA
ENDBRANCH  49  51
ENDBRANCH  46  47
ENDBRANCH  44  45
ENDBRANCH  42  43
ENDBRANCH  37  40
ENDBRANCH  34  37
ENDBRANCH  31  34
ENDBRANCH  29  30
ENDBRANCH   2  29
TORSDOF 19
ENDMDL
MODEL 6
REMARK minimizedAffinity -9.01852798
REMARK CNNscore 0.165819407
REMARK CNNaffinity 6.20512438
REMARK  19 active torsions:
REMARK  status: ('A' for Active; 'I' for Inactive)
REMARK    1  A    between atoms: O1_2  and  C2_3 
REMARK    2  A    between atoms: C2_3  and  C3_4 
REMARK    3  A    between atoms: C2_3  and  C28_36 
REMARK    4  A    between atoms: C3_4  and  C4_5 
REMARK    5  A    between atoms: C4_5  and  C6_7 
REMARK    6  A    between atoms: C6_7  and  O2_8 
REMARK    7  A    between atoms: C6_7  and  C7_9 
REMARK    8  A    between atoms: C8_10  and  C9_11 
REMARK    9  A    between atoms: C10_12  and  C11_13 
REMARK   10  A    between atoms: C11_13  and  N1_14 
REMARK       I    between atoms: N1_14  and  C12_15 
REMARK   11  A    between atoms: C12_15  and  C13_17 
REMARK   12  A    between atoms: C13_17  and  C16_20 
REMARK   13  A    between atoms: C16_20  and  O4_21 
REMARK   14  A    between atoms: C16_20  and  C17_22 
REMARK   15  A    between atoms: C19_24  and  C20_25 
REMARK   16  A    between atoms: C21_26  and  C22_27 
REMARK   17  A    between atoms: C23_28  and  C24_29 
REMARK   18  A    between atoms: C26_31  and  N2_33 
REMARK   19  A    between atoms: C28_36  and  O7_37 
ROOT
HETATM    1  C9  UNL     1       1.182  53.393 -20.971  1.00  0.00    -0.003 C 
HETATM    2  C10 UNL     1       0.528  53.266 -22.140  1.00  0.00    -0.007 C 
ENDROOT
BRANCH   1   3
HETATM    3  C8  UNL     1       0.552  53.083 -19.706  1.00  0.00    -0.002 C 
HETATM    4  C7  UNL     1       1.238  52.830 -18.579  1.00  0.00     0.005 C 
BRANCH   4   5
HETATM    5  C6  UNL     1       0.698  52.497 -17.206  1.00  0.00     0.144 C 
BRANCH   5   6
HETATM    6  C4  UNL     1       0.602  51.011 -16.786  1.00  0.00     0.016 C 
HETATM    7  C5  UNL     1      -0.114  50.138 -17.819  1.00  0.00     0.013 C 
BRANCH   6   8
HETATM    8  C3  UNL     1       0.083  50.762 -15.346  1.00  0.00     0.042 C 
BRANCH   8   9
HETATM    9  C2  UNL     1       0.713  51.400 -14.078  1.00  0.00     0.159 C 
BRANCH   9  10
HETATM   10  O1  UNL     1       1.712  50.494 -13.573  1.00  0.00    -0.388 OA
HETATM   11  C1  UNL     1       3.031  50.746 -14.053  1.00  0.00     0.202 C 
ENDBRANCH   9  10
BRANCH   9  12
HETATM   12  C28 UNL     1      -0.172  51.849 -12.864  1.00  0.00     0.133 C 
HETATM   13  C29 UNL     1       0.665  52.851 -11.974  1.00  0.00     0.114 C 
HETATM   14  C30 UNL     1      -0.149  53.875 -11.185  1.00  0.00     0.023 C 
HETATM   15  C31 UNL     1       1.365  51.949 -10.988  1.00  0.00     0.227 C 
HETATM   16  O8  UNL     1       2.399  52.219 -10.399  1.00  0.00    -0.273 OA
HETATM   17  N3  UNL     1       0.588  50.815 -10.835  1.00  0.00    -0.332 N 
HETATM   18  C32 UNL     1       1.121  49.653 -10.160  1.00  0.00     0.154 C 
HETATM   19  C33 UNL     1      -0.525  50.734 -11.848  1.00  0.00     0.183 C 
HETATM   20  C34 UNL     1      -0.926  49.305 -12.325  1.00  0.00     0.294 C 
HETATM   21  C35 UNL     1      -1.934  50.639 -11.149  1.00  0.00     0.169 C 
HETATM   22  O9  UNL     1      -0.436  48.345 -12.874  1.00  0.00    -0.262 OA
HETATM   23  O10 UNL     1      -2.180  49.369 -11.807  1.00  0.00    -0.311 OA
HETATM   24  C36 UNL     1      -3.121  51.556 -11.378  1.00  0.00     0.043 C 
BRANCH  12  25
HETATM   25  O7  UNL     1      -1.325  52.537 -13.346  1.00  0.00    -0.383 OA
HETATM   26  H42 UNL     1      -1.018  53.362 -13.769  1.00  0.00     0.210 HD
ENDBRANCH  12  25
ENDBRANCH   9  12
ENDBRANCH   8   9
ENDBRANCH   6   8
ENDBRANCH   5   6
BRANCH   5  27
HETATM   27  O2  UNL     1       1.527  53.201 -16.281  1.00  0.00    -0.391 OA
HETATM   28  H12 UNL     1       2.438  52.879 -16.422  1.00  0.00     0.210 HD
ENDBRANCH   5  27
ENDBRANCH   4   5
ENDBRANCH   1   3
BRANCH   2  29
HETATM   29  C11 UNL     1       0.996  53.547 -23.532  1.00  0.00     0.149 C 
BRANCH  29  30
HETATM   30  N1  UNL     1       0.498  52.609 -24.514  1.00  0.00    -0.357 N 
HETATM   31  C12 UNL     1       0.099  53.094 -25.751  1.00  0.00     0.228 C 
HETATM   32  O3  UNL     1       0.132  54.298 -25.986  1.00  0.00    -0.273 OA
HETATM   33  H19 UNL     1       0.835  51.659 -24.469  1.00  0.00     0.162 HD
BRANCH  31  34
HETATM   34  C13 UNL     1      -0.288  52.027 -26.801  1.00  0.00     0.063 C 
HETATM   35  C14 UNL     1       0.112  50.625 -26.299  1.00  0.00     0.028 C 
HETATM   36  C15 UNL     1       0.530  52.336 -28.080  1.00  0.00     0.028 C 
BRANCH  34  37
HETATM   37  C16 UNL     1      -1.822  52.023 -27.161  1.00  0.00     0.164 C 
BRANCH  37  38
HETATM   38  O4  UNL     1      -2.351  53.303 -27.507  1.00  0.00    -0.390 OA
HETATM   39  H27 UNL     1      -1.689  53.812 -28.002  1.00  0.00     0.210 HD
ENDBRANCH  37  38
BRANCH  37  40
HETATM   40  C17 UNL     1      -2.801  51.408 -26.161  1.00  0.00    -0.054 C 
HETATM   41  C18 UNL     1      -3.298  52.323 -25.067  1.00  0.00     0.046 C 
HETATM   42  C19 UNL     1      -3.326  50.165 -26.237  1.00  0.00     0.005 C 
BRANCH  42  43
HETATM   43  C20 UNL     1      -3.057  49.139 -27.227  1.00  0.00     0.000 C 
HETATM   44  C21 UNL     1      -3.930  48.227 -27.695  1.00  0.00     0.000 C 
BRANCH  44  45
HETATM   45  C22 UNL     1      -5.310  48.065 -27.289  1.00  0.00     0.001 C 
HETATM   46  C23 UNL     1      -6.346  47.562 -27.985  1.00  0.00     0.009 C 
BRANCH  46  47
HETATM   47  C24 UNL     1      -6.467  47.132 -29.384  1.00  0.00    -0.034 C 
HETATM   48  C25 UNL     1      -6.191  48.178 -30.444  1.00  0.00     0.050 C 
HETATM   49  C26 UNL     1      -6.903  45.882 -29.679  1.00  0.00     0.082 C 
HETATM   50  C27 UNL     1      -7.282  44.718 -28.823  1.00  0.00     0.075 C 
BRANCH  49  51
HETATM   51  N2  UNL     1      -7.006  45.528 -31.082  1.00  0.00    -0.120 N 
HETATM   52  O5  UNL     1      -5.949  45.298 -31.686  1.00  0.00    -0.532 OA
HETATM   53  O6  UNL     1      -8.148  45.458 -31.557  1.00  0.00    -0.532 OA
ENDBRANCH  49  51
ENDBRANCH  46  47
ENDBRANCH  44  45
ENDBRANCH  42  43
ENDBRANCH  37  40
ENDBRANCH  34  37
ENDBRANCH  31  34
ENDBRANCH  29  30
ENDBRANCH   2  29
TORSDOF 19
ENDMDL
MODEL 7
REMARK minimizedAffinity -8.5472126
REMARK CNNscore 0.159469247
REMARK CNNaffinity 6.48854876
REMARK  19 active torsions:
REMARK  status: ('A' for Active; 'I' for Inactive)
REMARK    1  A    between atoms: O1_2  and  C2_3 
REMARK    2  A    between atoms: C2_3  and  C3_4 
REMARK    3  A    between atoms: C2_3  and  C28_36 
REMARK    4  A    between atoms: C3_4  and  C4_5 
REMARK    5  A    between atoms: C4_5  and  C6_7 
REMARK    6  A    between atoms: C6_7  and  O2_8 
REMARK    7  A    between atoms: C6_7  and  C7_9 
REMARK    8  A    between atoms: C8_10  and  C9_11 
REMARK    9  A    between atoms: C10_12  and  C11_13 
REMARK   10  A    between atoms: C11_13  and  N1_14 
REMARK       I    between atoms: N1_14  and  C12_15 
REMARK   11  A    between atoms: C12_15  and  C13_17 
REMARK   12  A    between atoms: C13_17  and  C16_20 
REMARK   13  A    between atoms: C16_20  and  O4_21 
REMARK   14  A    between atoms: C16_20  and  C17_22 
REMARK   15  A    between atoms: C19_24  and  C20_25 
REMARK   16  A    between atoms: C21_26  and  C22_27 
REMARK   17  A    between atoms: C23_28  and  C24_29 
REMARK   18  A    between atoms: C26_31  and  N2_33 
REMARK   19  A    between atoms: C28_36  and  O7_37 
ROOT
HETATM    1  C9  UNL     1      -4.602  48.371 -27.620  1.00  0.00    -0.003 C 
HETATM    2  C10 UNL     1      -3.378  48.877 -27.382  1.00  0.00    -0.007 C 
ENDROOT
BRANCH   1   3
HETATM    3  C8  UNL     1      -4.993  47.904 -28.933  1.00  0.00    -0.002 C 
HETATM    4  C7  UNL     1      -6.267  47.665 -29.285  1.00  0.00     0.005 C 
BRANCH   4   5
HETATM    5  C6  UNL     1      -6.797  47.180 -30.615  1.00  0.00     0.144 C 
BRANCH   5   6
HETATM    6  C4  UNL     1      -7.679  48.134 -31.456  1.00  0.00     0.016 C 
HETATM    7  C5  UNL     1      -8.263  49.290 -30.641  1.00  0.00     0.013 C 
BRANCH   6   8
HETATM    8  C3  UNL     1      -8.747  47.442 -32.342  1.00  0.00     0.042 C 
BRANCH   8   9
HETATM    9  C2  UNL     1     -10.045  46.797 -31.784  1.00  0.00     0.159 C 
BRANCH   9  10
HETATM   10  O1  UNL     1     -10.099  47.057 -30.369  1.00  0.00    -0.388 OA
HETATM   11  C1  UNL     1     -11.291  47.709 -29.937  1.00  0.00     0.202 C 
ENDBRANCH   9  10
BRANCH   9  12
HETATM   12  C28 UNL     1     -10.356  45.274 -31.996  1.00  0.00     0.133 C 
HETATM   13  C29 UNL     1      -9.920  44.487 -30.697  1.00  0.00     0.114 C 
HETATM   14  C30 UNL     1     -10.694  43.200 -30.412  1.00  0.00     0.023 C 
HETATM   15  C31 UNL     1      -8.483  44.117 -30.973  1.00  0.00     0.227 C 
HETATM   16  O8  UNL     1      -7.643  43.879 -30.121  1.00  0.00    -0.273 OA
HETATM   17  N3  UNL     1      -8.329  44.036 -32.345  1.00  0.00    -0.332 N 
HETATM   18  C32 UNL     1      -7.007  43.962 -32.924  1.00  0.00     0.154 C 
HETATM   19  C33 UNL     1      -9.523  44.570 -33.095  1.00  0.00     0.183 C 
HETATM   20  C34 UNL     1      -9.230  45.268 -34.458  1.00  0.00     0.294 C 
HETATM   21  C35 UNL     1     -10.134  43.479 -34.055  1.00  0.00     0.169 C 
HETATM   22  O9  UNL     1      -8.607  46.207 -34.897  1.00  0.00    -0.262 OA
HETATM   23  O10 UNL     1      -9.903  44.347 -35.195  1.00  0.00    -0.311 OA
HETATM   24  C36 UNL     1     -11.572  42.999 -34.078  1.00  0.00     0.043 C 
BRANCH  12  25
HETATM   25  O7  UNL     1     -11.761  45.098 -32.174  1.00  0.00    -0.383 OA
HETATM   26  H42 UNL     1     -12.195  45.343 -31.335  1.00  0.00     0.210 HD
ENDBRANCH  12  25
ENDBRANCH   9  12
ENDBRANCH   8   9
ENDBRANCH   6   8
ENDBRANCH   5   6
BRANCH   5  27
HETATM   27  O2  UNL     1      -5.650  46.799 -31.375  1.00  0.00    -0.391 OA
HETATM   28  H12 UNL     1      -5.090  47.595 -31.453  1.00  0.00     0.210 HD
ENDBRANCH   5  27
ENDBRANCH   4   5
ENDBRANCH   1   3
BRANCH   2  29
HETATM   29  C11 UNL     1      -2.798  49.417 -26.114  1.00  0.00     0.149 C 
BRANCH  29  30
HETATM   30  N1  UNL     1      -1.613  50.222 -26.312  1.00  0.00    -0.357 N 
HETATM   31  C12 UNL     1      -1.756  51.488 -26.862  1.00  0.00     0.228 C 
HETATM   32  O3  UNL     1      -2.861  51.894 -27.209  1.00  0.00    -0.273 OA
HETATM   33  H19 UNL     1      -0.830  50.064 -25.696  1.00  0.00     0.162 HD
BRANCH  31  34
HETATM   34  C13 UNL     1      -0.472  52.348 -26.916  1.00  0.00     0.063 C 
HETATM   35  C14 UNL     1      -0.704  53.584 -27.809  1.00  0.00     0.028 C 
HETATM   36  C15 UNL     1       0.627  51.475 -27.571  1.00  0.00     0.028 C 
BRANCH  34  37
HETATM   37  C16 UNL     1       0.028  52.827 -25.501  1.00  0.00     0.164 C 
BRANCH  37  38
HETATM   38  O4  UNL     1       1.247  52.224 -25.070  1.00  0.00    -0.390 OA
HETATM   39  H27 UNL     1       1.839  52.095 -25.828  1.00  0.00     0.210 HD
ENDBRANCH  37  38
BRANCH  37  40
HETATM   40  C17 UNL     1      -0.939  52.735 -24.320  1.00  0.00    -0.054 C 
HETATM   41  C18 UNL     1      -2.382  53.073 -24.613  1.00  0.00     0.046 C 
HETATM   42  C19 UNL     1      -0.631  52.285 -23.084  1.00  0.00     0.005 C 
BRANCH  42  43
HETATM   43  C20 UNL     1       0.659  51.842 -22.589  1.00  0.00     0.000 C 
HETATM   44  C21 UNL     1       1.316  52.325 -21.517  1.00  0.00     0.000 C 
BRANCH  44  45
HETATM   45  C22 UNL     1       0.885  53.404 -20.654  1.00  0.00     0.001 C 
HETATM   46  C23 UNL     1       0.309  53.341 -19.440  1.00  0.00     0.009 C 
BRANCH  46  47
HETATM   47  C24 UNL     1      -0.178  52.204 -18.647  1.00  0.00    -0.034 C 
HETATM   48  C25 UNL     1      -1.448  51.533 -19.126  1.00  0.00     0.050 C 
HETATM   49  C26 UNL     1       0.446  51.860 -17.492  1.00  0.00     0.082 C 
HETATM   50  C27 UNL     1       1.656  52.398 -16.801  1.00  0.00     0.075 C 
BRANCH  49  51
HETATM   51  N2  UNL     1      -0.093  50.732 -16.756  1.00  0.00    -0.120 N 
HETATM   52  O5  UNL     1       0.336  49.608 -17.050  1.00  0.00    -0.532 OA
HETATM   53  O6  UNL     1      -0.924  50.989 -15.872  1.00  0.00    -0.532 OA
ENDBRANCH  49  51
ENDBRANCH  46  47
ENDBRANCH  44  45
ENDBRANCH  42  43
ENDBRANCH  37  40
ENDBRANCH  34  37
ENDBRANCH  31  34
ENDBRANCH  29  30
ENDBRANCH   2  29
TORSDOF 19
ENDMDL
MODEL 8
REMARK minimizedAffinity -8.59613895
REMARK CNNscore 0.15493761
REMARK CNNaffinity 6.04950476
REMARK  19 active torsions:
REMARK  status: ('A' for Active; 'I' for Inactive)
REMARK    1  A    between atoms: O1_2  and  C2_3 
REMARK    2  A    between atoms: C2_3  and  C3_4 
REMARK    3  A    between atoms: C2_3  and  C28_36 
REMARK    4  A    between atoms: C3_4  and  C4_5 
REMARK    5  A    between atoms: C4_5  and  C6_7 
REMARK    6  A    between atoms: C6_7  and  O2_8 
REMARK    7  A    between atoms: C6_7  and  C7_9 
REMARK    8  A    between atoms: C8_10  and  C9_11 
REMARK    9  A    between atoms: C10_12  and  C11_13 
REMARK   10  A    between atoms: C11_13  and  N1_14 
REMARK       I    between atoms: N1_14  and  C12_15 
REMARK   11  A    between atoms: C12_15  and  C13_17 
REMARK   12  A    between atoms: C13_17  and  C16_20 
REMARK   13  A    between atoms: C16_20  and  O4_21 
REMARK   14  A    between atoms: C16_20  and  C17_22 
REMARK   15  A    between atoms: C19_24  and  C20_25 
REMARK   16  A    between atoms: C21_26  and  C22_27 
REMARK   17  A    between atoms: C23_28  and  C24_29 
REMARK   18  A    between atoms: C26_31  and  N2_33 
REMARK   19  A    between atoms: C28_36  and  O7_37 
ROOT
HETATM    1  C9  UNL     1      -4.176  48.831 -24.474  1.00  0.00    -0.003 C 
HETATM    2  C10 UNL     1      -4.709  48.104 -23.476  1.00  0.00    -0.007 C 
ENDROOT
BRANCH   1   3
HETATM    3  C8  UNL     1      -4.447  48.533 -25.865  1.00  0.00    -0.002 C 
HETATM    4  C7  UNL     1      -5.624  48.057 -26.304  1.00  0.00     0.005 C 
BRANCH   4   5
HETATM    5  C6  UNL     1      -6.026  47.711 -27.720  1.00  0.00     0.144 C 
BRANCH   5   6
HETATM    6  C4  UNL     1      -7.529  47.723 -28.090  1.00  0.00     0.016 C 
HETATM    7  C5  UNL     1      -8.450  47.603 -26.873  1.00  0.00     0.013 C 
BRANCH   6   8
HETATM    8  C3  UNL     1      -7.938  46.759 -29.233  1.00  0.00     0.042 C 
BRANCH   8   9
HETATM    9  C2  UNL     1      -8.021  47.178 -30.727  1.00  0.00     0.159 C 
BRANCH   9  10
HETATM   10  O1  UNL     1      -9.302  46.763 -31.236  1.00  0.00    -0.388 OA
HETATM   11  C1  UNL     1     -10.390  47.591 -30.833  1.00  0.00     0.202 C 
ENDBRANCH   9  10
BRANCH   9  12
HETATM   12  C28 UNL     1      -6.934  46.724 -31.763  1.00  0.00     0.133 C 
HETATM   13  C29 UNL     1      -7.150  47.530 -33.105  1.00  0.00     0.114 C 
HETATM   14  C30 UNL     1      -5.899  47.750 -33.955  1.00  0.00     0.023 C 
HETATM   15  C31 UNL     1      -8.102  46.660 -33.890  1.00  0.00     0.227 C 
HETATM   16  O8  UNL     1      -8.850  47.054 -34.770  1.00  0.00    -0.273 OA
HETATM   17  N3  UNL     1      -7.914  45.355 -33.473  1.00  0.00    -0.332 N 
HETATM   18  C32 UNL     1      -8.861  44.329 -33.849  1.00  0.00     0.154 C 
HETATM   19  C33 UNL     1      -7.045  45.257 -32.246  1.00  0.00     0.183 C 
HETATM   20  C34 UNL     1      -7.376  44.102 -31.252  1.00  0.00     0.294 C 
HETATM   21  C35 UNL     1      -5.781  44.352 -32.507  1.00  0.00     0.169 C 
HETATM   22  O9  UNL     1      -8.291  43.713 -30.563  1.00  0.00    -0.262 OA
HETATM   23  O10 UNL     1      -6.193  43.461 -31.437  1.00  0.00    -0.311 OA
HETATM   24  C36 UNL     1      -4.331  44.742 -32.299  1.00  0.00     0.043 C 
BRANCH  12  25
HETATM   25  O7  UNL     1      -5.637  47.039 -31.258  1.00  0.00    -0.383 OA
HETATM   26  H42 UNL     1      -5.569  48.012 -31.212  1.00  0.00     0.210 HD
ENDBRANCH  12  25
ENDBRANCH   9  12
ENDBRANCH   8   9
ENDBRANCH   6   8
ENDBRANCH   5   6
BRANCH   5  27
HETATM   27  O2  UNL     1      -5.323  48.628 -28.558  1.00  0.00    -0.391 OA
HETATM   28  H12 UNL     1      -5.602  49.524 -28.289  1.00  0.00     0.210 HD
ENDBRANCH   5  27
ENDBRANCH   4   5
ENDBRANCH   1   3
BRANCH   2  29
HETATM   29  C11 UNL     1      -4.539  48.245 -21.996  1.00  0.00     0.149 C 
BRANCH  29  30
HETATM   30  N1  UNL     1      -3.669  49.336 -21.612  1.00  0.00    -0.357 N 
HETATM   31  C12 UNL     1      -2.877  49.185 -20.484  1.00  0.00     0.228 C 
HETATM   32  O3  UNL     1      -2.946  48.164 -19.807  1.00  0.00    -0.273 OA
HETATM   33  H19 UNL     1      -3.338  49.950 -22.340  1.00  0.00     0.162 HD
BRANCH  31  34
HETATM   34  C13 UNL     1      -1.870  50.326 -20.210  1.00  0.00     0.063 C 
HETATM   35  C14 UNL     1      -2.205  51.547 -21.091  1.00  0.00     0.028 C 
HETATM   36  C15 UNL     1      -0.472  49.801 -20.621  1.00  0.00     0.028 C 
BRANCH  34  37
HETATM   37  C16 UNL     1      -1.825  50.780 -18.702  1.00  0.00     0.164 C 
BRANCH  37  38
HETATM   38  O4  UNL     1      -2.648  51.906 -18.399  1.00  0.00    -0.390 OA
HETATM   39  H27 UNL     1      -3.467  51.867 -18.919  1.00  0.00     0.210 HD
ENDBRANCH  37  38
BRANCH  37  40
HETATM   40  C17 UNL     1      -0.462  51.061 -18.069  1.00  0.00    -0.054 C 
HETATM   41  C18 UNL     1       0.110  49.962 -17.205  1.00  0.00     0.046 C 
HETATM   42  C19 UNL     1       0.304  52.150 -18.301  1.00  0.00     0.005 C 
BRANCH  42  43
HETATM   43  C20 UNL     1       0.002  53.294 -19.140  1.00  0.00     0.000 C 
HETATM   44  C21 UNL     1       0.414  53.491 -20.407  1.00  0.00     0.000 C 
BRANCH  44  45
HETATM   45  C22 UNL     1       1.266  52.616 -21.184  1.00  0.00     0.001 C 
HETATM   46  C23 UNL     1       1.368  52.499 -22.520  1.00  0.00     0.009 C 
BRANCH  46  47
HETATM   47  C24 UNL     1       0.599  53.103 -23.616  1.00  0.00    -0.034 C 
HETATM   48  C25 UNL     1       0.860  54.567 -23.905  1.00  0.00     0.050 C 
HETATM   49  C26 UNL     1      -0.362  52.387 -24.253  1.00  0.00     0.082 C 
HETATM   50  C27 UNL     1      -0.830  50.976 -24.108  1.00  0.00     0.075 C 
BRANCH  49  51
HETATM   51  N2  UNL     1      -1.088  53.050 -25.320  1.00  0.00    -0.120 N 
HETATM   52  O5  UNL     1      -2.318  53.128 -25.203  1.00  0.00    -0.532 OA
HETATM   53  O6  UNL     1      -0.412  53.508 -26.252  1.00  0.00    -0.532 OA
ENDBRANCH  49  51
ENDBRANCH  46  47
ENDBRANCH  44  45
ENDBRANCH  42  43
ENDBRANCH  37  40
ENDBRANCH  34  37
ENDBRANCH  31  34
ENDBRANCH  29  30
ENDBRANCH   2  29
TORSDOF 19
ENDMDL
MODEL 9
REMARK minimizedAffinity -9.05239391
REMARK CNNscore 0.153445661
REMARK CNNaffinity 6.27406883
REMARK  19 active torsions:
REMARK  status: ('A' for Active; 'I' for Inactive)
REMARK    1  A    between atoms: O1_2  and  C2_3 
REMARK    2  A    between atoms: C2_3  and  C3_4 
REMARK    3  A    between atoms: C2_3  and  C28_36 
REMARK    4  A    between atoms: C3_4  and  C4_5 
REMARK    5  A    between atoms: C4_5  and  C6_7 
REMARK    6  A    between atoms: C6_7  and  O2_8 
REMARK    7  A    between atoms: C6_7  and  C7_9 
REMARK    8  A    between atoms: C8_10  and  C9_11 
REMARK    9  A    between atoms: C10_12  and  C11_13 
REMARK   10  A    between atoms: C11_13  and  N1_14 
REMARK       I    between atoms: N1_14  and  C12_15 
REMARK   11  A    between atoms: C12_15  and  C13_17 
REMARK   12  A    between atoms: C13_17  and  C16_20 
REMARK   13  A    between atoms: C16_20  and  O4_21 
REMARK   14  A    between atoms: C16_20  and  C17_22 
REMARK   15  A    between atoms: C19_24  and  C20_25 
REMARK   16  A    between atoms: C21_26  and  C22_27 
REMARK   17  A    between atoms: C23_28  and  C24_29 
REMARK   18  A    between atoms: C26_31  and  N2_33 
REMARK   19  A    between atoms: C28_36  and  O7_37 
ROOT
HETATM    1  C9  UNL     1       1.382  54.116 -21.579  1.00  0.00    -0.003 C 
HETATM    2  C10 UNL     1       0.823  53.405 -22.575  1.00  0.00    -0.007 C 
ENDROOT
BRANCH   1   3
HETATM    3  C8  UNL     1       1.411  53.629 -20.216  1.00  0.00    -0.002 C 
HETATM    4  C7  UNL     1       0.404  52.940 -19.655  1.00  0.00     0.005 C 
BRANCH   4   5
HETATM    5  C6  UNL     1       0.318  52.381 -18.252  1.00  0.00     0.144 C 
BRANCH   5   6
HETATM    6  C4  UNL     1       0.327  50.846 -18.061  1.00  0.00     0.016 C 
HETATM    7  C5  UNL     1      -0.459  50.100 -19.143  1.00  0.00     0.013 C 
BRANCH   6   8
HETATM    8  C3  UNL     1      -0.026  50.352 -16.634  1.00  0.00     0.042 C 
BRANCH   8   9
HETATM    9  C2  UNL     1       0.367  51.111 -15.337  1.00  0.00     0.159 C 
BRANCH   9  10
HETATM   10  O1  UNL     1       1.688  50.685 -14.954  1.00  0.00    -0.388 OA
HETATM   11  C1  UNL     1       2.631  51.746 -14.821  1.00  0.00     0.202 C 
ENDBRANCH   9  10
BRANCH   9  12
HETATM   12  C28 UNL     1      -0.535  51.056 -14.055  1.00  0.00     0.133 C 
HETATM   13  C29 UNL     1      -0.020  49.886 -13.127  1.00  0.00     0.114 C 
HETATM   14  C30 UNL     1      -0.276  50.066 -11.630  1.00  0.00     0.023 C 
HETATM   15  C31 UNL     1      -0.808  48.688 -13.596  1.00  0.00     0.227 C 
HETATM   16  O8  UNL     1      -0.464  47.525 -13.465  1.00  0.00    -0.273 OA
HETATM   17  N3  UNL     1      -1.997  49.154 -14.128  1.00  0.00    -0.332 N 
HETATM   18  C32 UNL     1      -2.844  48.271 -14.897  1.00  0.00     0.154 C 
HETATM   19  C33 UNL     1      -2.011  50.652 -14.294  1.00  0.00     0.183 C 
HETATM   20  C34 UNL     1      -2.813  51.208 -15.511  1.00  0.00     0.294 C 
HETATM   21  C35 UNL     1      -3.208  51.307 -13.507  1.00  0.00     0.169 C 
HETATM   22  O9  UNL     1      -2.827  51.132 -16.717  1.00  0.00    -0.262 OA
HETATM   23  O10 UNL     1      -3.725  51.862 -14.745  1.00  0.00    -0.311 OA
HETATM   24  C36 UNL     1      -3.113  52.410 -12.470  1.00  0.00     0.043 C 
BRANCH  12  25
HETATM   25  O7  UNL     1      -0.412  52.283 -13.336  1.00  0.00    -0.383 OA
HETATM   26  H42 UNL     1       0.507  52.341 -13.012  1.00  0.00     0.210 HD
ENDBRANCH  12  25
ENDBRANCH   9  12
ENDBRANCH   8   9
ENDBRANCH   6   8
ENDBRANCH   5   6
BRANCH   5  27
HETATM   27  O2  UNL     1       1.412  52.955 -17.537  1.00  0.00    -0.391 OA
HETATM   28  H12 UNL     1       2.225  52.686 -18.008  1.00  0.00     0.210 HD
ENDBRANCH   5  27
ENDBRANCH   4   5
ENDBRANCH   1   3
BRANCH   2  29
HETATM   29  C11 UNL     1       0.684  53.741 -24.026  1.00  0.00     0.149 C 
BRANCH  29  30
HETATM   30  N1  UNL     1       0.323  52.609 -24.853  1.00  0.00    -0.357 N 
HETATM   31  C12 UNL     1      -0.233  52.851 -26.100  1.00  0.00     0.228 C 
HETATM   32  O3  UNL     1      -0.451  54.000 -26.471  1.00  0.00    -0.273 OA
HETATM   33  H19 UNL     1       0.842  51.754 -24.728  1.00  0.00     0.162 HD
BRANCH  31  34
HETATM   34  C13 UNL     1      -0.465  51.607 -26.988  1.00  0.00     0.063 C 
HETATM   35  C14 UNL     1       0.110  50.353 -26.297  1.00  0.00     0.028 C 
HETATM   36  C15 UNL     1       0.321  51.840 -28.302  1.00  0.00     0.028 C 
BRANCH  34  37
HETATM   37  C16 UNL     1      -1.980  51.350 -27.334  1.00  0.00     0.164 C 
BRANCH  37  38
HETATM   38  O4  UNL     1      -2.573  52.346 -28.167  1.00  0.00    -0.390 OA
HETATM   39  H27 UNL     1      -1.925  52.664 -28.816  1.00  0.00     0.210 HD
ENDBRANCH  37  38
BRANCH  37  40
HETATM   40  C17 UNL     1      -2.957  51.113 -26.183  1.00  0.00    -0.054 C 
HETATM   41  C18 UNL     1      -3.493  52.348 -25.499  1.00  0.00     0.046 C 
HETATM   42  C19 UNL     1      -3.450  49.913 -25.804  1.00  0.00     0.005 C 
BRANCH  42  43
HETATM   43  C20 UNL     1      -3.141  48.605 -26.351  1.00  0.00     0.000 C 
HETATM   44  C21 UNL     1      -3.630  48.076 -27.489  1.00  0.00     0.000 C 
BRANCH  44  45
HETATM   45  C22 UNL     1      -4.585  48.691 -28.387  1.00  0.00     0.001 C 
HETATM   46  C23 UNL     1      -5.820  48.278 -28.722  1.00  0.00     0.009 C 
BRANCH  46  47
HETATM   47  C24 UNL     1      -6.559  47.048 -28.407  1.00  0.00    -0.034 C 
HETATM   48  C25 UNL     1      -6.697  46.031 -29.520  1.00  0.00     0.050 C 
HETATM   49  C26 UNL     1      -7.163  46.905 -27.200  1.00  0.00     0.082 C 
HETATM   50  C27 UNL     1      -7.215  47.778 -25.989  1.00  0.00     0.075 C 
BRANCH  49  51
HETATM   51  N2  UNL     1      -7.883  45.668 -26.959  1.00  0.00    -0.120 N 
HETATM   52  O5  UNL     1      -8.336  45.077 -27.948  1.00  0.00    -0.532 OA
HETATM   53  O6  UNL     1      -7.964  45.290 -25.782  1.00  0.00    -0.532 OA
ENDBRANCH  49  51
ENDBRANCH  46  47
ENDBRANCH  44  45
ENDBRANCH  42  43
ENDBRANCH  37  40
ENDBRANCH  34  37
ENDBRANCH  31  34
ENDBRANCH  29  30
ENDBRANCH   2  29
TORSDOF 19
ENDMDL
