MODEL 1
REMARK minimizedAffinity -8.03473473
REMARK CNNscore 0.559325814
REMARK CNNaffinity 7.27303553
REMARK  15 active torsions:
REMARK  status: ('A' for Active; 'I' for Inactive)
REMARK    1  A    between atoms: N1_2  and  C2_3 
REMARK    2  A    between atoms: C2_3  and  C3_4 
REMARK    3  A    between atoms: C3_4  and  C4_5 
REMARK    4  A    between atoms: C4_5  and  C5_6 
REMARK    5  A    between atoms: C4_5  and  C6_9 
REMARK    6  A    between atoms: C5_6  and  O2_8 
REMARK    7  A    between atoms: C6_9  and  C7_11 
REMARK    8  A    between atoms: C7_11  and  O4_12 
REMARK    9  A    between atoms: C7_11  and  C8_13 
REMARK   10  A    between atoms: C8_13  and  C9_14 
REMARK   11  A    between atoms: C9_14  and  C11_16 
REMARK   12  A    between atoms: C13_18  and  O5_19 
REMARK   13  A    between atoms: C16_22  and  O6_23 
REMARK   14  A    between atoms: C34_43  and  C35_44 
REMARK   15  A    between atoms: C36_45  and  C37_46 
ROOT
HETATM    1  C11 UNL     1      -0.560  53.203 -10.136  1.00  0.00     0.002 C 
HETATM    2  C12 UNL     1      -0.873  52.565  -8.752  1.00  0.00     0.049 C 
HETATM    3  C13 UNL     1      -0.116  53.391  -7.684  1.00  0.00     0.088 C 
HETATM    4  C14 UNL     1       0.700  52.581  -6.729  1.00  0.00     0.011 C 
HETATM    5  C15 UNL     1       1.852  53.046  -6.224  1.00  0.00     0.015 C 
HETATM    6  C16 UNL     1       2.498  54.358  -6.614  1.00  0.00     0.108 C 
HETATM    7  C17 UNL     1       2.114  54.804  -8.003  1.00  0.00    -0.018 C 
HETATM    8  C18 UNL     1       2.965  55.485  -8.807  1.00  0.00     0.003 C 
HETATM    9  C19 UNL     1       2.537  55.691 -10.260  1.00  0.00     0.157 C 
HETATM   10  O7  UNL     1       3.085  56.527 -10.974  1.00  0.00    -0.293 OA
HETATM   11  C20 UNL     1       1.407  54.839 -10.861  1.00  0.00     0.094 C 
HETATM   12  C21 UNL     1       0.887  53.757  -9.907  1.00  0.00    -0.019 C 
HETATM   13  C22 UNL     1       1.908  52.578  -9.954  1.00  0.00     0.017 C 
HETATM   14  C23 UNL     1       0.718  54.438  -8.499  1.00  0.00     0.026 C 
HETATM   15  C24 UNL     1      -0.097  55.784  -8.534  1.00  0.00     0.025 C 
HETATM   16  C25 UNL     1       4.288  56.118  -8.309  1.00  0.00    -0.007 C 
HETATM   17  C26 UNL     1       5.442  55.834  -9.314  1.00  0.00     0.021 C 
HETATM   18  C27 UNL     1       4.051  57.654  -8.263  1.00  0.00     0.022 C 
HETATM   19  C28 UNL     1       3.215  58.084  -7.068  1.00  0.00     0.080 C 
HETATM   20  C29 UNL     1       3.933  57.792  -5.779  1.00  0.00     0.135 C 
HETATM   21  O8  UNL     1       3.720  58.501  -4.786  1.00  0.00    -0.297 OA
HETATM   22  C30 UNL     1       4.981  56.672  -5.753  1.00  0.00     0.018 C 
HETATM   23  C31 UNL     1       5.003  56.081  -4.327  1.00  0.00     0.023 C 
HETATM   24  C32 UNL     1       6.367  57.353  -5.928  1.00  0.00     0.023 C 
HETATM   25  C33 UNL     1       4.782  55.576  -6.883  1.00  0.00     0.025 C 
HETATM   26  C34 UNL     1       4.044  54.264  -6.454  1.00  0.00     0.057 C 
ENDROOT
BRANCH   1  27
HETATM   27  C9  UNL     1      -0.834  52.227 -11.330  1.00  0.00    -0.011 C 
HETATM   28  C10 UNL     1      -1.937  51.224 -10.976  1.00  0.00     0.010 C 
BRANCH  27  29
HETATM   29  C8  UNL     1       0.483  51.519 -11.766  1.00  0.00     0.044 C 
BRANCH  29  30
HETATM   30  C7  UNL     1       1.089  51.894 -13.132  1.00  0.00     0.188 C 
BRANCH  30  31
HETATM   31  C6  UNL     1       1.476  50.671 -13.986  1.00  0.00     0.169 C 
HETATM   32  O3  UNL     1       0.651  49.792 -14.252  1.00  0.00    -0.294 OA
BRANCH  31  33
HETATM   33  C4  UNL     1       2.932  50.558 -14.399  1.00  0.00     0.157 C 
BRANCH  33  34
HETATM   34  C3  UNL     1       3.512  51.957 -14.686  1.00  0.00     0.053 C 
BRANCH  34  35
HETATM   35  C2  UNL     1       3.334  52.376 -16.151  1.00  0.00     0.270 C 
BRANCH  35  36
HETATM   36  N1  UNL     1       2.120  53.166 -16.385  1.00  0.00     0.079 N 
HETATM   37  C1  UNL     1       1.161  52.473 -17.247  1.00  0.00     0.306 C 
HETATM   38  H4  UNL     1       2.380  54.043 -16.842  1.00  0.00     0.315 HD
ENDBRANCH  35  36
ENDBRANCH  34  35
ENDBRANCH  33  34
BRANCH  33  39
HETATM   39  C5  UNL     1       3.726  49.826 -13.347  1.00  0.00     0.151 C 
HETATM   40  O1  UNL     1       3.356  49.468 -12.246  1.00  0.00    -0.649 OA
BRANCH  39  41
HETATM   41  O2  UNL     1       4.989  49.566 -13.754  1.00  0.00    -0.776 OA
HETATM   42  H10 UNL     1       5.370  49.037 -13.021  1.00  0.00     0.167 HD
ENDBRANCH  39  41
ENDBRANCH  33  39
ENDBRANCH  31  33
ENDBRANCH  30  31
BRANCH  30  43
HETATM   43  O4  UNL     1       0.286  52.858 -13.789  1.00  0.00    -0.388 OA
HETATM   44  H12 UNL     1      -0.560  52.449 -14.039  1.00  0.00     0.210 HD
ENDBRANCH  30  43
ENDBRANCH  29  30
ENDBRANCH  27  29
ENDBRANCH   1  27
BRANCH   3  45
HETATM   45  O5  UNL     1      -1.068  54.039  -6.834  1.00  0.00    -0.385 OA
HETATM   46  H22 UNL     1      -1.632  53.361  -6.430  1.00  0.00     0.211 HD
ENDBRANCH   3  45
BRANCH   6  47
HETATM   47  O6  UNL     1       1.995  55.327  -5.700  1.00  0.00    -0.380 OA
HETATM   48  H25 UNL     1       1.021  55.298  -5.767  1.00  0.00     0.211 HD
ENDBRANCH   6  47
BRANCH  26  49
HETATM   49  C35 UNL     1       4.656  53.059  -7.177  1.00  0.00    -0.017 C 
HETATM   50  C36 UNL     1       5.969  52.944  -7.437  1.00  0.00     0.008 C 
BRANCH  50  51
HETATM   51  C37 UNL     1       6.587  51.777  -8.089  1.00  0.00    -0.036 A 
HETATM   52  C38 UNL     1       7.296  50.864  -7.305  1.00  0.00     0.011 A 
HETATM   53  C39 UNL     1       7.862  49.720  -7.875  1.00  0.00     0.001 A 
HETATM   54  C40 UNL     1       7.700  49.473  -9.236  1.00  0.00     0.000 A 
HETATM   55  C41 UNL     1       6.976  50.364 -10.029  1.00  0.00     0.001 A 
HETATM   56  C42 UNL     1       6.426  51.512  -9.456  1.00  0.00     0.011 A 
ENDBRANCH  50  51
ENDBRANCH  26  49
TORSDOF 15
ENDMDL
MODEL 2
REMARK minimizedAffinity -7.64300442
REMARK CNNscore 0.516095877
REMARK CNNaffinity 7.3522377
REMARK  15 active torsions:
REMARK  status: ('A' for Active; 'I' for Inactive)
REMARK    1  A    between atoms: N1_2  and  C2_3 
REMARK    2  A    between atoms: C2_3  and  C3_4 
REMARK    3  A    between atoms: C3_4  and  C4_5 
REMARK    4  A    between atoms: C4_5  and  C5_6 
REMARK    5  A    between atoms: C4_5  and  C6_9 
REMARK    6  A    between atoms: C5_6  and  O2_8 
REMARK    7  A    between atoms: C6_9  and  C7_11 
REMARK    8  A    between atoms: C7_11  and  O4_12 
REMARK    9  A    between atoms: C7_11  and  C8_13 
REMARK   10  A    between atoms: C8_13  and  C9_14 
REMARK   11  A    between atoms: C9_14  and  C11_16 
REMARK   12  A    between atoms: C13_18  and  O5_19 
REMARK   13  A    between atoms: C16_22  and  O6_23 
REMARK   14  A    between atoms: C34_43  and  C35_44 
REMARK   15  A    between atoms: C36_45  and  C37_46 
ROOT
HETATM    1  C11 UNL     1      -2.428  51.444  -9.777  1.00  0.00     0.002 C 
HETATM    2  C12 UNL     1      -1.763  50.046  -9.930  1.00  0.00     0.049 C 
HETATM    3  C13 UNL     1      -0.294  50.183  -9.462  1.00  0.00     0.088 C 
HETATM    4  C14 UNL     1       0.720  49.637 -10.415  1.00  0.00     0.011 C 
HETATM    5  C15 UNL     1       1.931  50.198 -10.544  1.00  0.00     0.015 C 
HETATM    6  C16 UNL     1       2.376  51.462  -9.841  1.00  0.00     0.108 C 
HETATM    7  C17 UNL     1       1.222  52.367  -9.487  1.00  0.00    -0.018 C 
HETATM    8  C18 UNL     1       1.333  53.717  -9.486  1.00  0.00     0.003 C 
HETATM    9  C19 UNL     1       0.044  54.522  -9.321  1.00  0.00     0.157 C 
HETATM   10  O7  UNL     1       0.070  55.713  -9.018  1.00  0.00    -0.293 OA
HETATM   11  C20 UNL     1      -1.320  53.850  -9.543  1.00  0.00     0.094 C 
HETATM   12  C21 UNL     1      -1.214  52.400 -10.029  1.00  0.00    -0.019 C 
HETATM   13  C22 UNL     1      -0.903  52.452 -11.557  1.00  0.00     0.017 C 
HETATM   14  C23 UNL     1      -0.111  51.707  -9.147  1.00  0.00     0.026 C 
HETATM   15  C24 UNL     1      -0.312  51.908  -7.599  1.00  0.00     0.025 C 
HETATM   16  C25 UNL     1       2.688  54.463  -9.566  1.00  0.00    -0.007 C 
HETATM   17  C26 UNL     1       2.600  55.653 -10.563  1.00  0.00     0.021 C 
HETATM   18  C27 UNL     1       2.958  55.038  -8.146  1.00  0.00     0.022 C 
HETATM   19  C28 UNL     1       3.422  53.977  -7.161  1.00  0.00     0.080 C 
HETATM   20  C29 UNL     1       4.750  53.406  -7.575  1.00  0.00     0.135 C 
HETATM   21  O8  UNL     1       5.526  52.974  -6.712  1.00  0.00    -0.297 OA
HETATM   22  C30 UNL     1       5.147  53.454  -9.056  1.00  0.00     0.018 C 
HETATM   23  C31 UNL     1       6.066  52.246  -9.338  1.00  0.00     0.023 C 
HETATM   24  C32 UNL     1       6.057  54.702  -9.234  1.00  0.00     0.023 C 
HETATM   25  C33 UNL     1       3.914  53.551 -10.051  1.00  0.00     0.025 C 
HETATM   26  C34 UNL     1       3.440  52.208 -10.700  1.00  0.00     0.057 C 
ENDROOT
BRANCH   1  27
HETATM   27  C9  UNL     1      -3.725  51.597 -10.642  1.00  0.00    -0.011 C 
HETATM   28  C10 UNL     1      -4.210  53.050 -10.652  1.00  0.00     0.010 C 
BRANCH  27  29
HETATM   29  C8  UNL     1      -4.828  50.615 -10.145  1.00  0.00     0.044 C 
BRANCH  29  30
HETATM   30  C7  UNL     1      -4.855  49.194 -10.740  1.00  0.00     0.188 C 
BRANCH  30  31
HETATM   31  C6  UNL     1      -6.088  48.375 -10.312  1.00  0.00     0.169 C 
HETATM   32  O3  UNL     1      -6.107  47.763  -9.240  1.00  0.00    -0.294 OA
BRANCH  31  33
HETATM   33  C4  UNL     1      -7.227  48.282 -11.310  1.00  0.00     0.157 C 
BRANCH  33  34
HETATM   34  C3  UNL     1      -7.441  46.816 -11.736  1.00  0.00     0.053 C 
BRANCH  34  35
HETATM   35  C2  UNL     1      -7.508  46.652 -13.260  1.00  0.00     0.270 C 
BRANCH  35  36
HETATM   36  N1  UNL     1      -8.528  45.693 -13.697  1.00  0.00     0.079 N 
HETATM   37  C1  UNL     1      -9.779  45.829 -12.951  1.00  0.00     0.306 C 
HETATM   38  H4  UNL     1      -8.174  44.744 -13.550  1.00  0.00     0.315 HD
ENDBRANCH  35  36
ENDBRANCH  34  35
ENDBRANCH  33  34
BRANCH  33  39
HETATM   39  C5  UNL     1      -8.483  48.888 -10.739  1.00  0.00     0.151 C 
HETATM   40  O1  UNL     1      -9.556  48.347 -10.550  1.00  0.00    -0.649 OA
BRANCH  39  41
HETATM   41  O2  UNL     1      -8.317  50.190 -10.414  1.00  0.00    -0.776 OA
HETATM   42  H10 UNL     1      -9.168  50.442  -9.998  1.00  0.00     0.167 HD
ENDBRANCH  39  41
ENDBRANCH  33  39
ENDBRANCH  31  33
ENDBRANCH  30  31
BRANCH  30  43
HETATM   43  O4  UNL     1      -4.610  49.231 -12.134  1.00  0.00    -0.388 OA
HETATM   44  H12 UNL     1      -5.362  49.660 -12.577  1.00  0.00     0.210 HD
ENDBRANCH  30  43
ENDBRANCH  29  30
ENDBRANCH  27  29
ENDBRANCH   1  27
BRANCH   3  45
HETATM   45  O5  UNL     1      -0.102  49.387  -8.288  1.00  0.00    -0.385 OA
HETATM   46  H22 UNL     1      -0.327  48.467  -8.499  1.00  0.00     0.211 HD
ENDBRANCH   3  45
BRANCH   6  47
HETATM   47  O6  UNL     1       2.977  51.040  -8.623  1.00  0.00    -0.380 OA
HETATM   48  H25 UNL     1       2.309  50.506  -8.150  1.00  0.00     0.211 HD
ENDBRANCH   6  47
BRANCH  26  49
HETATM   49  C35 UNL     1       2.990  52.454 -12.144  1.00  0.00    -0.017 C 
HETATM   50  C36 UNL     1       3.317  51.645 -13.167  1.00  0.00     0.008 C 
BRANCH  50  51
HETATM   51  C37 UNL     1       2.862  51.835 -14.554  1.00  0.00    -0.036 A 
HETATM   52  C38 UNL     1       1.533  51.542 -14.873  1.00  0.00     0.011 A 
HETATM   53  C39 UNL     1       1.046  51.749 -16.166  1.00  0.00     0.001 A 
HETATM   54  C40 UNL     1       1.886  52.274 -17.146  1.00  0.00     0.000 A 
HETATM   55  C41 UNL     1       3.208  52.593 -16.837  1.00  0.00     0.001 A 
HETATM   56  C42 UNL     1       3.692  52.371 -15.547  1.00  0.00     0.011 A 
ENDBRANCH  50  51
ENDBRANCH  26  49
TORSDOF 15
ENDMDL
MODEL 3
REMARK minimizedAffinity -8.73227215
REMARK CNNscore 0.396387786
REMARK CNNaffinity 6.3678627
REMARK  15 active torsions:
REMARK  status: ('A' for Active; 'I' for Inactive)
REMARK    1  A    between atoms: N1_2  and  C2_3 
REMARK    2  A    between atoms: C2_3  and  C3_4 
REMARK    3  A    between atoms: C3_4  and  C4_5 
REMARK    4  A    between atoms: C4_5  and  C5_6 
REMARK    5  A    between atoms: C4_5  and  C6_9 
REMARK    6  A    between atoms: C5_6  and  O2_8 
REMARK    7  A    between atoms: C6_9  and  C7_11 
REMARK    8  A    between atoms: C7_11  and  O4_12 
REMARK    9  A    between atoms: C7_11  and  C8_13 
REMARK   10  A    between atoms: C8_13  and  C9_14 
REMARK   11  A    between atoms: C9_14  and  C11_16 
REMARK   12  A    between atoms: C13_18  and  O5_19 
REMARK   13  A    between atoms: C16_22  and  O6_23 
REMARK   14  A    between atoms: C34_43  and  C35_44 
REMARK   15  A    between atoms: C36_45  and  C37_46 
ROOT
HETATM    1  C11 UNL     1     -13.926  46.266 -27.454  1.00  0.00     0.002 C 
HETATM    2  C12 UNL     1     -13.300  47.073 -26.280  1.00  0.00     0.049 C 
HETATM    3  C13 UNL     1     -11.928  47.599 -26.764  1.00  0.00     0.088 C 
HETATM    4  C14 UNL     1     -10.789  47.326 -25.835  1.00  0.00     0.011 C 
HETATM    5  C15 UNL     1      -9.552  47.088 -26.295  1.00  0.00     0.015 C 
HETATM    6  C16 UNL     1      -9.183  46.975 -27.759  1.00  0.00     0.108 C 
HETATM    7  C17 UNL     1     -10.344  46.539 -28.619  1.00  0.00    -0.018 C 
HETATM    8  C18 UNL     1     -10.181  45.765 -29.718  1.00  0.00     0.003 C 
HETATM    9  C19 UNL     1     -11.447  45.217 -30.377  1.00  0.00     0.157 C 
HETATM   10  O7  UNL     1     -11.425  44.762 -31.519  1.00  0.00    -0.293 OA
HETATM   11  C20 UNL     1     -12.779  45.217 -29.611  1.00  0.00     0.094 C 
HETATM   12  C21 UNL     1     -12.649  45.700 -28.162  1.00  0.00    -0.019 C 
HETATM   13  C22 UNL     1     -12.082  44.507 -27.332  1.00  0.00     0.017 C 
HETATM   14  C23 UNL     1     -11.741  46.983 -28.193  1.00  0.00     0.026 C 
HETATM   15  C24 UNL     1     -12.193  48.061 -29.247  1.00  0.00     0.025 C 
HETATM   16  C25 UNL     1      -8.805  45.482 -30.367  1.00  0.00    -0.007 C 
HETATM   17  C26 UNL     1      -8.675  43.977 -30.740  1.00  0.00     0.021 C 
HETATM   18  C27 UNL     1      -8.757  46.313 -31.680  1.00  0.00     0.022 C 
HETATM   19  C28 UNL     1      -8.509  47.792 -31.430  1.00  0.00     0.080 C 
HETATM   20  C29 UNL     1      -7.153  48.012 -30.817  1.00  0.00     0.135 C 
HETATM   21  O8  UNL     1      -6.553  49.075 -31.026  1.00  0.00    -0.297 OA
HETATM   22  C30 UNL     1      -6.509  46.872 -30.017  1.00  0.00     0.018 C 
HETATM   23  C31 UNL     1      -5.605  47.506 -28.939  1.00  0.00     0.023 C 
HETATM   24  C32 UNL     1      -5.534  46.144 -30.984  1.00  0.00     0.023 C 
HETATM   25  C33 UNL     1      -7.550  45.828 -29.429  1.00  0.00     0.025 C 
HETATM   26  C34 UNL     1      -7.960  46.027 -27.932  1.00  0.00     0.057 C 
ENDROOT
BRANCH   1  27
HETATM   27  C9  UNL     1     -15.050  45.283 -26.983  1.00  0.00    -0.011 C 
HETATM   28  C10 UNL     1     -15.870  44.775 -28.174  1.00  0.00     0.010 C 
BRANCH  27  29
HETATM   29  C8  UNL     1     -15.945  45.959 -25.902  1.00  0.00     0.044 C 
BRANCH  29  30
HETATM   30  C7  UNL     1     -16.164  45.213 -24.572  1.00  0.00     0.188 C 
BRANCH  30  31
HETATM   31  C6  UNL     1     -16.768  46.099 -23.465  1.00  0.00     0.169 C 
HETATM   32  O3  UNL     1     -16.074  46.912 -22.848  1.00  0.00    -0.294 OA
BRANCH  31  33
HETATM   33  C4  UNL     1     -18.224  45.855 -23.112  1.00  0.00     0.157 C 
BRANCH  33  34
HETATM   34  C3  UNL     1     -18.517  46.366 -21.688  1.00  0.00     0.053 C 
BRANCH  34  35
HETATM   35  C2  UNL     1     -19.160  45.293 -20.800  1.00  0.00     0.270 C 
BRANCH  35  36
HETATM   36  N1  UNL     1     -19.863  44.254 -21.562  1.00  0.00     0.079 N 
HETATM   37  C1  UNL     1     -19.291  42.924 -21.351  1.00  0.00     0.306 C 
HETATM   38  H4  UNL     1     -19.796  44.473 -22.559  1.00  0.00     0.315 HD
ENDBRANCH  35  36
ENDBRANCH  34  35
ENDBRANCH  33  34
BRANCH  33  39
HETATM   39  C5  UNL     1     -19.131  46.491 -24.134  1.00  0.00     0.151 C 
HETATM   40  O1  UNL     1     -18.958  47.527 -24.746  1.00  0.00    -0.649 OA
BRANCH  39  41
HETATM   41  O2  UNL     1     -20.247  45.758 -24.348  1.00  0.00    -0.776 OA
HETATM   42  H10 UNL     1     -20.710  46.235 -25.069  1.00  0.00     0.167 HD
ENDBRANCH  39  41
ENDBRANCH  33  39
ENDBRANCH  31  33
ENDBRANCH  30  31
BRANCH  30  43
HETATM   43  O4  UNL     1     -16.831  43.983 -24.792  1.00  0.00    -0.388 OA
HETATM   44  H12 UNL     1     -17.741  44.164 -25.083  1.00  0.00     0.210 HD
ENDBRANCH  30  43
ENDBRANCH  29  30
ENDBRANCH  27  29
ENDBRANCH   1  27
BRANCH   3  45
HETATM   45  O5  UNL     1     -11.969  49.028 -26.821  1.00  0.00    -0.385 OA
HETATM   46  H22 UNL     1     -12.191  49.366 -25.938  1.00  0.00     0.211 HD
ENDBRANCH   3  45
BRANCH   6  47
HETATM   47  O6  UNL     1      -8.815  48.286 -28.171  1.00  0.00    -0.380 OA
HETATM   48  H25 UNL     1      -9.574  48.868 -27.970  1.00  0.00     0.211 HD
ENDBRANCH   6  47
BRANCH  26  49
HETATM   49  C35 UNL     1      -8.149  44.664 -27.256  1.00  0.00    -0.017 C 
HETATM   50  C36 UNL     1      -8.167  44.499 -25.923  1.00  0.00     0.008 C 
BRANCH  50  51
HETATM   51  C37 UNL     1      -8.389  43.208 -25.249  1.00  0.00    -0.036 A 
HETATM   52  C38 UNL     1      -7.529  42.833 -24.213  1.00  0.00     0.011 A 
HETATM   53  C39 UNL     1      -7.728  41.637 -23.517  1.00  0.00     0.001 A 
HETATM   54  C40 UNL     1      -8.809  40.819 -23.841  1.00  0.00     0.000 A 
HETATM   55  C41 UNL     1      -9.689  41.192 -24.858  1.00  0.00     0.001 A 
HETATM   56  C42 UNL     1      -9.476  42.380 -25.559  1.00  0.00     0.011 A 
ENDBRANCH  50  51
ENDBRANCH  26  49
TORSDOF 15
ENDMDL
MODEL 4
REMARK minimizedAffinity -8.09958839
REMARK CNNscore 0.343486041
REMARK CNNaffinity 6.73730421
REMARK  15 active torsions:
REMARK  status: ('A' for Active; 'I' for Inactive)
REMARK    1  A    between atoms: N1_2  and  C2_3 
REMARK    2  A    between atoms: C2_3  and  C3_4 
REMARK    3  A    between atoms: C3_4  and  C4_5 
REMARK    4  A    between atoms: C4_5  and  C5_6 
REMARK    5  A    between atoms: C4_5  and  C6_9 
REMARK    6  A    between atoms: C5_6  and  O2_8 
REMARK    7  A    between atoms: C6_9  and  C7_11 
REMARK    8  A    between atoms: C7_11  and  O4_12 
REMARK    9  A    between atoms: C7_11  and  C8_13 
REMARK   10  A    between atoms: C8_13  and  C9_14 
REMARK   11  A    between atoms: C9_14  and  C11_16 
REMARK   12  A    between atoms: C13_18  and  O5_19 
REMARK   13  A    between atoms: C16_22  and  O6_23 
REMARK   14  A    between atoms: C34_43  and  C35_44 
REMARK   15  A    between atoms: C36_45  and  C37_46 
ROOT
HETATM    1  C11 UNL     1      -4.323  48.858 -22.962  1.00  0.00     0.002 C 
HETATM    2  C12 UNL     1      -5.241  48.239 -24.056  1.00  0.00     0.049 C 
HETATM    3  C13 UNL     1      -6.619  47.975 -23.404  1.00  0.00     0.088 C 
HETATM    4  C14 UNL     1      -7.160  46.598 -23.620  1.00  0.00     0.011 C 
HETATM    5  C15 UNL     1      -7.903  45.985 -22.687  1.00  0.00     0.015 C 
HETATM    6  C16 UNL     1      -8.198  46.546 -21.312  1.00  0.00     0.108 C 
HETATM    7  C17 UNL     1      -7.139  47.508 -20.838  1.00  0.00    -0.018 C 
HETATM    8  C18 UNL     1      -6.795  47.623 -19.533  1.00  0.00     0.003 C 
HETATM    9  C19 UNL     1      -5.566  48.473 -19.208  1.00  0.00     0.157 C 
HETATM   10  O7  UNL     1      -5.351  48.872 -18.065  1.00  0.00    -0.293 OA
HETATM   11  C20 UNL     1      -4.564  48.838 -20.314  1.00  0.00     0.094 C 
HETATM   12  C21 UNL     1      -4.883  48.184 -21.665  1.00  0.00    -0.019 C 
HETATM   13  C22 UNL     1      -4.381  46.709 -21.587  1.00  0.00     0.017 C 
HETATM   14  C23 UNL     1      -6.430  48.352 -21.894  1.00  0.00     0.026 C 
HETATM   15  C24 UNL     1      -6.949  49.824 -21.695  1.00  0.00     0.025 C 
HETATM   16  C25 UNL     1      -7.620  47.009 -18.375  1.00  0.00    -0.007 C 
HETATM   17  C26 UNL     1      -6.683  46.325 -17.339  1.00  0.00     0.021 C 
HETATM   18  C27 UNL     1      -8.341  48.194 -17.671  1.00  0.00     0.022 C 
HETATM   19  C28 UNL     1      -9.536  48.706 -18.458  1.00  0.00     0.080 C 
HETATM   20  C29 UNL     1     -10.601  47.649 -18.563  1.00  0.00     0.135 C 
HETATM   21  O8  UNL     1     -11.789  47.986 -18.661  1.00  0.00    -0.297 OA
HETATM   22  C30 UNL     1     -10.193  46.174 -18.459  1.00  0.00     0.018 C 
HETATM   23  C31 UNL     1     -11.194  45.348 -19.294  1.00  0.00     0.023 C 
HETATM   24  C32 UNL     1     -10.446  45.744 -16.987  1.00  0.00     0.023 C 
HETATM   25  C33 UNL     1      -8.677  45.896 -18.839  1.00  0.00     0.025 C 
HETATM   26  C34 UNL     1      -8.410  45.387 -20.294  1.00  0.00     0.057 C 
ENDROOT
BRANCH   1  27
HETATM   27  C9  UNL     1      -2.800  48.730 -23.305  1.00  0.00    -0.011 C 
HETATM   28  C10 UNL     1      -1.937  49.394 -22.227  1.00  0.00     0.010 C 
BRANCH  27  29
HETATM   29  C8  UNL     1      -2.513  49.309 -24.723  1.00  0.00     0.044 C 
BRANCH  29  30
HETATM   30  C7  UNL     1      -3.002  50.736 -25.036  1.00  0.00     0.188 C 
BRANCH  30  31
HETATM   31  C6  UNL     1      -1.866  51.777 -25.078  1.00  0.00     0.169 C 
HETATM   32  O3  UNL     1      -2.111  52.987 -25.092  1.00  0.00    -0.294 OA
BRANCH  31  33
HETATM   33  C4  UNL     1      -0.451  51.241 -25.196  1.00  0.00     0.157 C 
BRANCH  33  34
HETATM   34  C3  UNL     1      -0.185  50.759 -26.636  1.00  0.00     0.053 C 
BRANCH  34  35
HETATM   35  C2  UNL     1      -0.914  51.611 -27.683  1.00  0.00     0.270 C 
BRANCH  35  36
HETATM   36  N1  UNL     1      -0.046  52.596 -28.337  1.00  0.00     0.079 N 
HETATM   37  C1  UNL     1      -0.480  53.972 -28.093  1.00  0.00     0.306 C 
HETATM   38  H4  UNL     1      -0.063  52.433 -29.346  1.00  0.00     0.315 HD
ENDBRANCH  35  36
ENDBRANCH  34  35
ENDBRANCH  33  34
BRANCH  33  39
HETATM   39  C5  UNL     1       0.548  52.283 -24.760  1.00  0.00     0.151 C 
HETATM   40  O1  UNL     1       1.405  52.824 -25.432  1.00  0.00    -0.649 OA
BRANCH  39  41
HETATM   41  O2  UNL     1       0.405  52.609 -23.456  1.00  0.00    -0.776 OA
HETATM   42  H10 UNL     1       1.055  53.330 -23.319  1.00  0.00     0.167 HD
ENDBRANCH  39  41
ENDBRANCH  33  39
ENDBRANCH  31  33
ENDBRANCH  30  31
BRANCH  30  43
HETATM   43  O4  UNL     1      -3.860  50.734 -26.162  1.00  0.00    -0.388 OA
HETATM   44  H12 UNL     1      -3.343  50.510 -26.955  1.00  0.00     0.210 HD
ENDBRANCH  30  43
ENDBRANCH  29  30
ENDBRANCH  27  29
ENDBRANCH   1  27
BRANCH   3  45
HETATM   45  O5  UNL     1      -7.598  48.813 -24.025  1.00  0.00    -0.385 OA
HETATM   46  H22 UNL     1      -7.609  48.621 -24.976  1.00  0.00     0.211 HD
ENDBRANCH   3  45
BRANCH   6  47
HETATM   47  O6  UNL     1      -9.412  47.276 -21.442  1.00  0.00    -0.380 OA
HETATM   48  H25 UNL     1      -9.269  47.938 -22.147  1.00  0.00     0.211 HD
ENDBRANCH   6  47
BRANCH  26  49
HETATM   49  C35 UNL     1      -7.267  44.366 -20.290  1.00  0.00    -0.017 C 
HETATM   50  C36 UNL     1      -7.191  43.346 -19.419  1.00  0.00     0.008 C 
BRANCH  50  51
HETATM   51  C37 UNL     1      -6.127  42.328 -19.422  1.00  0.00    -0.036 A 
HETATM   52  C38 UNL     1      -4.917  42.617 -18.786  1.00  0.00     0.011 A 
HETATM   53  C39 UNL     1      -3.895  41.665 -18.727  1.00  0.00     0.001 A 
HETATM   54  C40 UNL     1      -4.091  40.405 -19.287  1.00  0.00     0.000 A 
HETATM   55  C41 UNL     1      -5.302  40.093 -19.905  1.00  0.00     0.001 A 
HETATM   56  C42 UNL     1      -6.313  41.054 -19.974  1.00  0.00     0.011 A 
ENDBRANCH  50  51
ENDBRANCH  26  49
TORSDOF 15
ENDMDL
MODEL 5
REMARK minimizedAffinity -8.34206867
REMARK CNNscore 0.321729392
REMARK CNNaffinity 6.62457466
REMARK  15 active torsions:
REMARK  status: ('A' for Active; 'I' for Inactive)
REMARK    1  A    between atoms: N1_2  and  C2_3 
REMARK    2  A    between atoms: C2_3  and  C3_4 
REMARK    3  A    between atoms: C3_4  and  C4_5 
REMARK    4  A    between atoms: C4_5  and  C5_6 
REMARK    5  A    between atoms: C4_5  and  C6_9 
REMARK    6  A    between atoms: C5_6  and  O2_8 
REMARK    7  A    between atoms: C6_9  and  C7_11 
REMARK    8  A    between atoms: C7_11  and  O4_12 
REMARK    9  A    between atoms: C7_11  and  C8_13 
REMARK   10  A    between atoms: C8_13  and  C9_14 
REMARK   11  A    between atoms: C9_14  and  C11_16 
REMARK   12  A    between atoms: C13_18  and  O5_19 
REMARK   13  A    between atoms: C16_22  and  O6_23 
REMARK   14  A    between atoms: C34_43  and  C35_44 
REMARK   15  A    between atoms: C36_45  and  C37_46 
ROOT
HETATM    1  C11 UNL     1      -7.467  45.720 -19.983  1.00  0.00     0.002 C 
HETATM    2  C12 UNL     1      -6.298  44.698 -19.889  1.00  0.00     0.049 C 
HETATM    3  C13 UNL     1      -4.999  45.505 -19.656  1.00  0.00     0.088 C 
HETATM    4  C14 UNL     1      -3.874  45.158 -20.577  1.00  0.00     0.011 C 
HETATM    5  C15 UNL     1      -2.994  46.084 -20.987  1.00  0.00     0.015 C 
HETATM    6  C16 UNL     1      -3.081  47.560 -20.660  1.00  0.00     0.108 C 
HETATM    7  C17 UNL     1      -4.493  48.012 -20.383  1.00  0.00    -0.018 C 
HETATM    8  C18 UNL     1      -4.935  49.250 -20.711  1.00  0.00     0.003 C 
HETATM    9  C19 UNL     1      -6.435  49.512 -20.575  1.00  0.00     0.157 C 
HETATM   10  O7  UNL     1      -6.884  50.656 -20.564  1.00  0.00    -0.293 OA
HETATM   11  C20 UNL     1      -7.418  48.336 -20.458  1.00  0.00     0.094 C 
HETATM   12  C21 UNL     1      -6.747  46.964 -20.603  1.00  0.00    -0.019 C 
HETATM   13  C22 UNL     1      -6.519  46.726 -22.128  1.00  0.00     0.017 C 
HETATM   14  C23 UNL     1      -5.439  47.007 -19.731  1.00  0.00     0.026 C 
HETATM   15  C24 UNL     1      -5.667  47.518 -18.260  1.00  0.00     0.025 C 
HETATM   16  C25 UNL     1      -3.998  50.407 -21.133  1.00  0.00    -0.007 C 
HETATM   17  C26 UNL     1      -4.582  51.164 -22.361  1.00  0.00     0.021 C 
HETATM   18  C27 UNL     1      -3.950  51.395 -19.932  1.00  0.00     0.022 C 
HETATM   19  C28 UNL     1      -3.075  50.895 -18.795  1.00  0.00     0.080 C 
HETATM   20  C29 UNL     1      -1.639  50.789 -19.230  1.00  0.00     0.135 C 
HETATM   21  O8  UNL     1      -0.735  50.932 -18.396  1.00  0.00    -0.297 OA
HETATM   22  C30 UNL     1      -1.330  50.591 -20.720  1.00  0.00     0.018 C 
HETATM   23  C31 UNL     1      -0.009  49.800 -20.826  1.00  0.00     0.023 C 
HETATM   24  C32 UNL     1      -1.004  51.997 -21.298  1.00  0.00     0.023 C 
HETATM   25  C33 UNL     1      -2.519  49.942 -21.545  1.00  0.00     0.025 C 
HETATM   26  C34 UNL     1      -2.427  48.400 -21.797  1.00  0.00     0.057 C 
ENDROOT
BRANCH   1  27
HETATM   27  C9  UNL     1      -8.735  45.130 -20.687  1.00  0.00    -0.011 C 
HETATM   28  C10 UNL     1      -8.344  44.279 -21.900  1.00  0.00     0.010 C 
BRANCH  27  29
HETATM   29  C8  UNL     1      -9.725  46.271 -21.068  1.00  0.00     0.044 C 
BRANCH  29  30
HETATM   30  C7  UNL     1     -11.032  46.395 -20.261  1.00  0.00     0.188 C 
BRANCH  30  31
HETATM   31  C6  UNL     1     -10.943  47.407 -19.103  1.00  0.00     0.169 C 
HETATM   32  O3  UNL     1     -10.631  48.584 -19.306  1.00  0.00    -0.294 OA
BRANCH  31  33
HETATM   33  C4  UNL     1     -11.163  46.865 -17.702  1.00  0.00     0.157 C 
BRANCH  33  34
HETATM   34  C3  UNL     1     -10.393  47.720 -16.676  1.00  0.00     0.053 C 
BRANCH  34  35
HETATM   35  C2  UNL     1      -9.617  46.864 -15.666  1.00  0.00     0.270 C 
BRANCH  35  36
HETATM   36  N1  UNL     1      -8.164  47.058 -15.736  1.00  0.00     0.079 N 
HETATM   37  C1  UNL     1      -7.434  46.124 -14.879  1.00  0.00     0.306 C 
HETATM   38  H4  UNL     1      -7.943  48.008 -15.429  1.00  0.00     0.315 HD
ENDBRANCH  35  36
ENDBRANCH  34  35
ENDBRANCH  33  34
BRANCH  33  39
HETATM   39  C5  UNL     1     -12.635  46.799 -17.385  1.00  0.00     0.151 C 
HETATM   40  O1  UNL     1     -13.255  47.460 -16.574  1.00  0.00    -0.649 OA
BRANCH  39  41
HETATM   41  O2  UNL     1     -13.277  45.877 -18.137  1.00  0.00    -0.776 OA
HETATM   42  H10 UNL     1     -14.219  45.980 -17.888  1.00  0.00     0.167 HD
ENDBRANCH  39  41
ENDBRANCH  33  39
ENDBRANCH  31  33
ENDBRANCH  30  31
BRANCH  30  43
HETATM   43  O4  UNL     1     -12.140  46.567 -21.127  1.00  0.00    -0.388 OA
HETATM   44  H12 UNL     1     -12.075  47.436 -21.557  1.00  0.00     0.210 HD
ENDBRANCH  30  43
ENDBRANCH  29  30
ENDBRANCH  27  29
ENDBRANCH   1  27
BRANCH   3  45
HETATM   45  O5  UNL     1      -4.476  45.185 -18.364  1.00  0.00    -0.385 OA
HETATM   46  H22 UNL     1      -4.315  44.228 -18.324  1.00  0.00     0.211 HD
ENDBRANCH   3  45
BRANCH   6  47
HETATM   47  O6  UNL     1      -2.332  47.738 -19.463  1.00  0.00    -0.380 OA
HETATM   48  H25 UNL     1      -2.717  47.135 -18.798  1.00  0.00     0.211 HD
ENDBRANCH   6  47
BRANCH  26  49
HETATM   49  C35 UNL     1      -2.972  48.063 -23.189  1.00  0.00    -0.017 C 
HETATM   50  C36 UNL     1      -3.582  48.962 -23.980  1.00  0.00     0.008 C 
BRANCH  50  51
HETATM   51  C37 UNL     1      -4.075  48.675 -25.338  1.00  0.00    -0.036 A 
HETATM   52  C38 UNL     1      -3.192  48.798 -26.414  1.00  0.00     0.011 A 
HETATM   53  C39 UNL     1      -3.604  48.494 -27.715  1.00  0.00     0.001 A 
HETATM   54  C40 UNL     1      -4.902  48.041 -27.941  1.00  0.00     0.000 A 
HETATM   55  C41 UNL     1      -5.788  47.892 -26.874  1.00  0.00     0.001 A 
HETATM   56  C42 UNL     1      -5.374  48.212 -25.579  1.00  0.00     0.011 A 
ENDBRANCH  50  51
ENDBRANCH  26  49
TORSDOF 15
ENDMDL
MODEL 6
REMARK minimizedAffinity -8.39971733
REMARK CNNscore 0.308131397
REMARK CNNaffinity 6.39979172
REMARK  15 active torsions:
REMARK  status: ('A' for Active; 'I' for Inactive)
REMARK    1  A    between atoms: N1_2  and  C2_3 
REMARK    2  A    between atoms: C2_3  and  C3_4 
REMARK    3  A    between atoms: C3_4  and  C4_5 
REMARK    4  A    between atoms: C4_5  and  C5_6 
REMARK    5  A    between atoms: C4_5  and  C6_9 
REMARK    6  A    between atoms: C5_6  and  O2_8 
REMARK    7  A    between atoms: C6_9  and  C7_11 
REMARK    8  A    between atoms: C7_11  and  O4_12 
REMARK    9  A    between atoms: C7_11  and  C8_13 
REMARK   10  A    between atoms: C8_13  and  C9_14 
REMARK   11  A    between atoms: C9_14  and  C11_16 
REMARK   12  A    between atoms: C13_18  and  O5_19 
REMARK   13  A    between atoms: C16_22  and  O6_23 
REMARK   14  A    between atoms: C34_43  and  C35_44 
REMARK   15  A    between atoms: C36_45  and  C37_46 
ROOT
HETATM    1  C11 UNL     1      -7.619  45.792 -19.415  1.00  0.00     0.002 C 
HETATM    2  C12 UNL     1      -6.487  44.724 -19.453  1.00  0.00     0.049 C 
HETATM    3  C13 UNL     1      -5.141  45.478 -19.352  1.00  0.00     0.088 C 
HETATM    4  C14 UNL     1      -4.132  45.100 -20.389  1.00  0.00     0.011 C 
HETATM    5  C15 UNL     1      -3.265  45.998 -20.882  1.00  0.00     0.015 C 
HETATM    6  C16 UNL     1      -3.259  47.471 -20.536  1.00  0.00     0.108 C 
HETATM    7  C17 UNL     1      -4.615  47.974 -20.108  1.00  0.00    -0.018 C 
HETATM    8  C18 UNL     1      -5.041  49.231 -20.377  1.00  0.00     0.003 C 
HETATM    9  C19 UNL     1      -6.507  49.548 -20.082  1.00  0.00     0.157 C 
HETATM   10  O7  UNL     1      -6.907  50.708 -20.014  1.00  0.00    -0.293 OA
HETATM   11  C20 UNL     1      -7.517  48.409 -19.872  1.00  0.00     0.094 C 
HETATM   12  C21 UNL     1      -6.919  47.015 -20.098  1.00  0.00    -0.019 C 
HETATM   13  C22 UNL     1      -6.863  46.787 -21.640  1.00  0.00     0.017 C 
HETATM   14  C23 UNL     1      -5.526  46.997 -19.368  1.00  0.00     0.026 C 
HETATM   15  C24 UNL     1      -5.579  47.498 -17.877  1.00  0.00     0.025 C 
HETATM   16  C25 UNL     1      -4.109  50.357 -20.887  1.00  0.00    -0.007 C 
HETATM   17  C26 UNL     1      -4.788  51.150 -22.040  1.00  0.00     0.021 C 
HETATM   18  C27 UNL     1      -3.896  51.328 -19.690  1.00  0.00     0.022 C 
HETATM   19  C28 UNL     1      -2.927  50.781 -18.656  1.00  0.00     0.080 C 
HETATM   20  C29 UNL     1      -1.550  50.625 -19.240  1.00  0.00     0.135 C 
HETATM   21  O8  UNL     1      -0.558  50.723 -18.505  1.00  0.00    -0.297 OA
HETATM   22  C30 UNL     1      -1.407  50.434 -20.756  1.00  0.00     0.018 C 
HETATM   23  C31 UNL     1      -0.136  49.594 -21.007  1.00  0.00     0.023 C 
HETATM   24  C32 UNL     1      -1.089  51.834 -21.354  1.00  0.00     0.023 C 
HETATM   25  C33 UNL     1      -2.701  49.841 -21.456  1.00  0.00     0.025 C 
HETATM   26  C34 UNL     1      -2.696  48.300 -21.729  1.00  0.00     0.057 C 
ENDROOT
BRANCH   1  27
HETATM   27  C9  UNL     1      -8.976  45.259 -19.987  1.00  0.00    -0.011 C 
HETATM   28  C10 UNL     1      -9.346  45.981 -21.286  1.00  0.00     0.010 C 
BRANCH  27  29
HETATM   29  C8  UNL     1     -10.099  45.373 -18.913  1.00  0.00     0.044 C 
BRANCH  29  30
HETATM   30  C7  UNL     1     -11.181  46.453 -19.109  1.00  0.00     0.188 C 
BRANCH  30  31
HETATM   31  C6  UNL     1     -12.573  46.022 -18.608  1.00  0.00     0.169 C 
HETATM   32  O3  UNL     1     -12.754  44.910 -18.103  1.00  0.00    -0.294 OA
BRANCH  31  33
HETATM   33  C4  UNL     1     -13.718  46.988 -18.854  1.00  0.00     0.157 C 
BRANCH  33  34
HETATM   34  C3  UNL     1     -14.937  46.233 -19.420  1.00  0.00     0.053 C 
BRANCH  34  35
HETATM   35  C2  UNL     1     -15.359  46.752 -20.800  1.00  0.00     0.270 C 
BRANCH  35  36
HETATM   36  N1  UNL     1     -16.797  46.620 -21.057  1.00  0.00     0.079 N 
HETATM   37  C1  UNL     1     -17.595  46.742 -19.837  1.00  0.00     0.306 C 
HETATM   38  H4  UNL     1     -16.976  45.697 -21.461  1.00  0.00     0.315 HD
ENDBRANCH  35  36
ENDBRANCH  34  35
ENDBRANCH  33  34
BRANCH  33  39
HETATM   39  C5  UNL     1     -14.059  47.737 -17.591  1.00  0.00     0.151 C 
HETATM   40  O1  UNL     1     -14.963  48.531 -17.414  1.00  0.00    -0.649 OA
BRANCH  39  41
HETATM   41  O2  UNL     1     -13.221  47.430 -16.576  1.00  0.00    -0.776 OA
HETATM   42  H10 UNL     1     -13.586  47.921 -15.809  1.00  0.00     0.167 HD
ENDBRANCH  39  41
ENDBRANCH  33  39
ENDBRANCH  31  33
ENDBRANCH  30  31
BRANCH  30  43
HETATM   43  O4  UNL     1     -10.730  47.707 -18.631  1.00  0.00    -0.388 OA
HETATM   44  H12 UNL     1     -10.647  47.665 -17.663  1.00  0.00     0.210 HD
ENDBRANCH  30  43
ENDBRANCH  29  30
ENDBRANCH  27  29
ENDBRANCH   1  27
BRANCH   3  45
HETATM   45  O5  UNL     1      -4.497  45.123 -18.125  1.00  0.00    -0.385 OA
HETATM   46  H22 UNL     1      -4.371  44.161 -18.110  1.00  0.00     0.211 HD
ENDBRANCH   3  45
BRANCH   6  47
HETATM   47  O6  UNL     1      -2.382  47.607 -19.423  1.00  0.00    -0.380 OA
HETATM   48  H25 UNL     1      -2.718  47.010 -18.726  1.00  0.00     0.211 HD
ENDBRANCH   6  47
BRANCH  26  49
HETATM   49  C35 UNL     1      -3.397  48.001 -23.059  1.00  0.00    -0.017 C 
HETATM   50  C36 UNL     1      -3.256  48.765 -24.155  1.00  0.00     0.008 C 
BRANCH  50  51
HETATM   51  C37 UNL     1      -3.883  48.476 -25.455  1.00  0.00    -0.036 A 
HETATM   52  C38 UNL     1      -5.250  48.187 -25.494  1.00  0.00     0.011 A 
HETATM   53  C39 UNL     1      -5.896  47.949 -26.711  1.00  0.00     0.001 A 
HETATM   54  C40 UNL     1      -5.176  48.022 -27.902  1.00  0.00     0.000 A 
HETATM   55  C41 UNL     1      -3.816  48.331 -27.881  1.00  0.00     0.001 A 
HETATM   56  C42 UNL     1      -3.174  48.554 -26.661  1.00  0.00     0.011 A 
ENDBRANCH  50  51
ENDBRANCH  26  49
TORSDOF 15
ENDMDL
MODEL 7
REMARK minimizedAffinity -7.41101885
REMARK CNNscore 0.297333449
REMARK CNNaffinity 6.03883028
REMARK  15 active torsions:
REMARK  status: ('A' for Active; 'I' for Inactive)
REMARK    1  A    between atoms: N1_2  and  C2_3 
REMARK    2  A    between atoms: C2_3  and  C3_4 
REMARK    3  A    between atoms: C3_4  and  C4_5 
REMARK    4  A    between atoms: C4_5  and  C5_6 
REMARK    5  A    between atoms: C4_5  and  C6_9 
REMARK    6  A    between atoms: C5_6  and  O2_8 
REMARK    7  A    between atoms: C6_9  and  C7_11 
REMARK    8  A    between atoms: C7_11  and  O4_12 
REMARK    9  A    between atoms: C7_11  and  C8_13 
REMARK   10  A    between atoms: C8_13  and  C9_14 
REMARK   11  A    between atoms: C9_14  and  C11_16 
REMARK   12  A    between atoms: C13_18  and  O5_19 
REMARK   13  A    between atoms: C16_22  and  O6_23 
REMARK   14  A    between atoms: C34_43  and  C35_44 
REMARK   15  A    between atoms: C36_45  and  C37_46 
ROOT
HETATM    1  C11 UNL     1      -9.996  45.460 -29.795  1.00  0.00     0.002 C 
HETATM    2  C12 UNL     1     -10.524  46.921 -29.880  1.00  0.00     0.049 C 
HETATM    3  C13 UNL     1     -11.032  47.309 -28.471  1.00  0.00     0.088 C 
HETATM    4  C14 UNL     1     -12.405  47.899 -28.441  1.00  0.00     0.011 C 
HETATM    5  C15 UNL     1     -13.235  47.688 -27.409  1.00  0.00     0.015 C 
HETATM    6  C16 UNL     1     -12.935  46.785 -26.232  1.00  0.00     0.108 C 
HETATM    7  C17 UNL     1     -11.955  45.690 -26.574  1.00  0.00    -0.018 C 
HETATM    8  C18 UNL     1     -12.016  44.460 -26.010  1.00  0.00     0.003 C 
HETATM    9  C19 UNL     1     -11.106  43.380 -26.595  1.00  0.00     0.157 C 
HETATM   10  O7  UNL     1     -10.875  42.340 -25.982  1.00  0.00    -0.293 OA
HETATM   11  C20 UNL     1     -10.465  43.575 -27.979  1.00  0.00     0.094 C 
HETATM   12  C21 UNL     1     -10.924  44.855 -28.688  1.00  0.00    -0.019 C 
HETATM   13  C22 UNL     1     -12.332  44.562 -29.293  1.00  0.00     0.017 C 
HETATM   14  C23 UNL     1     -10.884  46.005 -27.615  1.00  0.00     0.026 C 
HETATM   15  C24 UNL     1      -9.525  46.096 -26.826  1.00  0.00     0.025 C 
HETATM   16  C25 UNL     1     -12.890  44.129 -24.777  1.00  0.00    -0.007 C 
HETATM   17  C26 UNL     1     -13.630  42.775 -24.978  1.00  0.00     0.021 C 
HETATM   18  C27 UNL     1     -11.916  43.975 -23.575  1.00  0.00     0.022 C 
HETATM   19  C28 UNL     1     -11.412  45.311 -23.053  1.00  0.00     0.080 C 
HETATM   20  C29 UNL     1     -12.543  46.130 -22.495  1.00  0.00     0.135 C 
HETATM   21  O8  UNL     1     -12.321  46.940 -21.584  1.00  0.00    -0.297 OA
HETATM   22  C30 UNL     1     -13.966  45.876 -23.012  1.00  0.00     0.018 C 
HETATM   23  C31 UNL     1     -14.747  47.203 -22.912  1.00  0.00     0.023 C 
HETATM   24  C32 UNL     1     -14.650  44.928 -21.987  1.00  0.00     0.023 C 
HETATM   25  C33 UNL     1     -14.020  45.222 -24.456  1.00  0.00     0.025 C 
HETATM   26  C34 UNL     1     -14.258  46.202 -25.652  1.00  0.00     0.057 C 
ENDROOT
BRANCH   1  27
HETATM   27  C9  UNL     1      -9.907  44.764 -31.195  1.00  0.00    -0.011 C 
HETATM   28  C10 UNL     1     -11.303  44.547 -31.789  1.00  0.00     0.010 C 
BRANCH  27  29
HETATM   29  C8  UNL     1      -9.102  43.434 -31.090  1.00  0.00     0.044 C 
BRANCH  29  30
HETATM   30  C7  UNL     1      -7.574  43.495 -31.275  1.00  0.00     0.188 C 
BRANCH  30  31
HETATM   31  C6  UNL     1      -6.862  44.349 -30.208  1.00  0.00     0.169 C 
HETATM   32  O3  UNL     1      -6.965  44.085 -29.006  1.00  0.00    -0.294 OA
BRANCH  31  33
HETATM   33  C4  UNL     1      -6.112  45.573 -30.699  1.00  0.00     0.157 C 
BRANCH  33  34
HETATM   34  C3  UNL     1      -5.885  45.480 -32.221  1.00  0.00     0.053 C 
BRANCH  34  35
HETATM   35  C2  UNL     1      -4.502  45.997 -32.639  1.00  0.00     0.270 C 
BRANCH  35  36
HETATM   36  N1  UNL     1      -4.415  47.461 -32.673  1.00  0.00     0.079 N 
HETATM   37  C1  UNL     1      -4.286  47.981 -34.035  1.00  0.00     0.306 C 
HETATM   38  H4  UNL     1      -3.592  47.755 -32.143  1.00  0.00     0.315 HD
ENDBRANCH  35  36
ENDBRANCH  34  35
ENDBRANCH  33  34
BRANCH  33  39
HETATM   39  C5  UNL     1      -6.848  46.833 -30.319  1.00  0.00     0.151 C 
HETATM   40  O1  UNL     1      -7.033  47.283 -29.205  1.00  0.00    -0.649 OA
BRANCH  39  41
HETATM   41  O2  UNL     1      -7.322  47.491 -31.401  1.00  0.00    -0.776 OA
HETATM   42  H10 UNL     1      -7.711  48.310 -31.029  1.00  0.00     0.167 HD
ENDBRANCH  39  41
ENDBRANCH  33  39
ENDBRANCH  31  33
ENDBRANCH  30  31
BRANCH  30  43
HETATM   43  O4  UNL     1      -7.040  42.197 -31.463  1.00  0.00    -0.388 OA
HETATM   44  H12 UNL     1      -7.132  41.694 -30.636  1.00  0.00     0.210 HD
ENDBRANCH  30  43
ENDBRANCH  29  30
ENDBRANCH  27  29
ENDBRANCH   1  27
BRANCH   3  45
HETATM   45  O5  UNL     1     -10.212  48.361 -27.953  1.00  0.00    -0.385 OA
HETATM   46  H22 UNL     1     -10.249  49.112 -28.566  1.00  0.00     0.211 HD
ENDBRANCH   3  45
BRANCH   6  47
HETATM   47  O6  UNL     1     -12.324  47.613 -25.250  1.00  0.00    -0.380 OA
HETATM   48  H25 UNL     1     -11.547  48.027 -25.674  1.00  0.00     0.211 HD
ENDBRANCH   6  47
BRANCH  26  49
HETATM   49  C35 UNL     1     -15.141  45.532 -26.711  1.00  0.00    -0.017 C 
HETATM   50  C36 UNL     1     -16.324  44.961 -26.431  1.00  0.00     0.008 C 
BRANCH  50  51
HETATM   51  C37 UNL     1     -17.210  44.350 -27.436  1.00  0.00    -0.036 A 
HETATM   52  C38 UNL     1     -18.586  44.321 -27.191  1.00  0.00     0.011 A 
HETATM   53  C39 UNL     1     -19.469  43.790 -28.136  1.00  0.00     0.001 A 
HETATM   54  C40 UNL     1     -18.977  43.304 -29.346  1.00  0.00     0.000 A 
HETATM   55  C41 UNL     1     -17.608  43.347 -29.614  1.00  0.00     0.001 A 
HETATM   56  C42 UNL     1     -16.731  43.865 -28.659  1.00  0.00     0.011 A 
ENDBRANCH  50  51
ENDBRANCH  26  49
TORSDOF 15
ENDMDL
MODEL 8
REMARK minimizedAffinity -8.82124996
REMARK CNNscore 0.295378327
REMARK CNNaffinity 6.29745102
REMARK  15 active torsions:
REMARK  status: ('A' for Active; 'I' for Inactive)
REMARK    1  A    between atoms: N1_2  and  C2_3 
REMARK    2  A    between atoms: C2_3  and  C3_4 
REMARK    3  A    between atoms: C3_4  and  C4_5 
REMARK    4  A    between atoms: C4_5  and  C5_6 
REMARK    5  A    between atoms: C4_5  and  C6_9 
REMARK    6  A    between atoms: C5_6  and  O2_8 
REMARK    7  A    between atoms: C6_9  and  C7_11 
REMARK    8  A    between atoms: C7_11  and  O4_12 
REMARK    9  A    between atoms: C7_11  and  C8_13 
REMARK   10  A    between atoms: C8_13  and  C9_14 
REMARK   11  A    between atoms: C9_14  and  C11_16 
REMARK   12  A    between atoms: C13_18  and  O5_19 
REMARK   13  A    between atoms: C16_22  and  O6_23 
REMARK   14  A    between atoms: C34_43  and  C35_44 
REMARK   15  A    between atoms: C36_45  and  C37_46 
ROOT
HETATM    1  C11 UNL     1     -14.189  45.899 -27.769  1.00  0.00     0.002 C 
HETATM    2  C12 UNL     1     -13.742  46.843 -26.617  1.00  0.00     0.049 C 
HETATM    3  C13 UNL     1     -12.401  47.486 -27.043  1.00  0.00     0.088 C 
HETATM    4  C14 UNL     1     -11.313  47.401 -26.021  1.00  0.00     0.011 C 
HETATM    5  C15 UNL     1     -10.026  47.271 -26.378  1.00  0.00     0.015 C 
HETATM    6  C16 UNL     1      -9.538  47.106 -27.802  1.00  0.00     0.108 C 
HETATM    7  C17 UNL     1     -10.578  46.491 -28.705  1.00  0.00    -0.018 C 
HETATM    8  C18 UNL     1     -10.252  45.670 -29.732  1.00  0.00     0.003 C 
HETATM    9  C19 UNL     1     -11.400  44.945 -30.434  1.00  0.00     0.157 C 
HETATM   10  O7  UNL     1     -11.245  44.423 -31.536  1.00  0.00    -0.293 OA
HETATM   11  C20 UNL     1     -12.779  44.846 -29.763  1.00  0.00     0.094 C 
HETATM   12  C21 UNL     1     -12.810  45.433 -28.346  1.00  0.00    -0.019 C 
HETATM   13  C22 UNL     1     -12.184  44.365 -27.397  1.00  0.00     0.017 C 
HETATM   14  C23 UNL     1     -12.042  46.804 -28.408  1.00  0.00     0.026 C 
HETATM   15  C24 UNL     1     -12.525  47.756 -29.565  1.00  0.00     0.025 C 
HETATM   16  C25 UNL     1      -8.809  45.499 -30.264  1.00  0.00    -0.007 C 
HETATM   17  C26 UNL     1      -8.493  43.997 -30.518  1.00  0.00     0.021 C 
HETATM   18  C27 UNL     1      -8.750  46.246 -31.627  1.00  0.00     0.022 C 
HETATM   19  C28 UNL     1      -8.679  47.755 -31.468  1.00  0.00     0.080 C 
HETATM   20  C29 UNL     1      -7.404  48.163 -30.782  1.00  0.00     0.135 C 
HETATM   21  O8  UNL     1      -6.905  49.270 -31.024  1.00  0.00    -0.297 OA
HETATM   22  C30 UNL     1      -6.706  47.154 -29.859  1.00  0.00     0.018 C 
HETATM   23  C31 UNL     1      -5.957  47.952 -28.771  1.00  0.00     0.023 C 
HETATM   24  C32 UNL     1      -5.589  46.478 -30.703  1.00  0.00     0.023 C 
HETATM   25  C33 UNL     1      -7.672  46.042 -29.270  1.00  0.00     0.025 C 
HETATM   26  C34 UNL     1      -8.212  46.289 -27.823  1.00  0.00     0.057 C 
ENDROOT
BRANCH   1  27
HETATM   27  C9  UNL     1     -15.235  44.830 -27.307  1.00  0.00    -0.011 C 
HETATM   28  C10 UNL     1     -15.865  44.121 -28.510  1.00  0.00     0.010 C 
BRANCH  27  29
HETATM   29  C8  UNL     1     -16.308  45.483 -26.385  1.00  0.00     0.044 C 
BRANCH  29  30
HETATM   30  C7  UNL     1     -17.706  44.839 -26.331  1.00  0.00     0.188 C 
BRANCH  30  31
HETATM   31  C6  UNL     1     -18.119  44.389 -24.916  1.00  0.00     0.169 C 
HETATM   32  O3  UNL     1     -18.117  43.196 -24.600  1.00  0.00    -0.294 OA
BRANCH  31  33
HETATM   33  C4  UNL     1     -18.615  45.470 -23.972  1.00  0.00     0.157 C 
BRANCH  33  34
HETATM   34  C3  UNL     1     -17.423  46.126 -23.246  1.00  0.00     0.053 C 
BRANCH  34  35
HETATM   35  C2  UNL     1     -17.424  45.835 -21.740  1.00  0.00     0.270 C 
BRANCH  35  36
HETATM   36  N1  UNL     1     -18.297  46.732 -20.975  1.00  0.00     0.079 N 
HETATM   37  C1  UNL     1     -18.465  46.300 -19.588  1.00  0.00     0.306 C 
HETATM   38  H4  UNL     1     -19.220  46.748 -21.416  1.00  0.00     0.315 HD
ENDBRANCH  35  36
ENDBRANCH  34  35
ENDBRANCH  33  34
BRANCH  33  39
HETATM   39  C5  UNL     1     -19.445  46.484 -24.716  1.00  0.00     0.151 C 
HETATM   40  O1  UNL     1     -20.556  46.339 -25.189  1.00  0.00    -0.649 OA
BRANCH  39  41
HETATM   41  O2  UNL     1     -18.816  47.676 -24.823  1.00  0.00    -0.776 OA
HETATM   42  H10 UNL     1     -19.476  48.256 -25.257  1.00  0.00     0.167 HD
ENDBRANCH  39  41
ENDBRANCH  33  39
ENDBRANCH  31  33
ENDBRANCH  30  31
BRANCH  30  43
HETATM   43  O4  UNL     1     -18.654  45.644 -27.008  1.00  0.00    -0.388 OA
HETATM   44  H12 UNL     1     -18.783  46.469 -26.510  1.00  0.00     0.210 HD
ENDBRANCH  30  43
ENDBRANCH  29  30
ENDBRANCH  27  29
ENDBRANCH   1  27
BRANCH   3  45
HETATM   45  O5  UNL     1     -12.588  48.895 -27.205  1.00  0.00    -0.385 OA
HETATM   46  H22 UNL     1     -12.910  49.262 -26.366  1.00  0.00     0.211 HD
ENDBRANCH   3  45
BRANCH   6  47
HETATM   47  O6  UNL     1      -9.280  48.421 -28.281  1.00  0.00    -0.380 OA
HETATM   48  H25 UNL     1     -10.109  48.927 -28.174  1.00  0.00     0.211 HD
ENDBRANCH   6  47
BRANCH  26  49
HETATM   49  C35 UNL     1      -8.306  44.961 -27.065  1.00  0.00    -0.017 C 
HETATM   50  C36 UNL     1      -8.113  44.852 -25.739  1.00  0.00     0.008 C 
BRANCH  50  51
HETATM   51  C37 UNL     1      -8.241  43.596 -24.982  1.00  0.00    -0.036 A 
HETATM   52  C38 UNL     1      -9.037  42.573 -25.504  1.00  0.00     0.011 A 
HETATM   53  C39 UNL     1      -9.152  41.348 -24.841  1.00  0.00     0.001 A 
HETATM   54  C40 UNL     1      -8.448  41.132 -23.657  1.00  0.00     0.000 A 
HETATM   55  C41 UNL     1      -7.632  42.137 -23.136  1.00  0.00     0.001 A 
HETATM   56  C42 UNL     1      -7.533  43.363 -23.796  1.00  0.00     0.011 A 
ENDBRANCH  50  51
ENDBRANCH  26  49
TORSDOF 15
ENDMDL
MODEL 9
REMARK minimizedAffinity -8.01100159
REMARK CNNscore 0.263217568
REMARK CNNaffinity 6.15761375
REMARK  15 active torsions:
REMARK  status: ('A' for Active; 'I' for Inactive)
REMARK    1  A    between atoms: N1_2  and  C2_3 
REMARK    2  A    between atoms: C2_3  and  C3_4 
REMARK    3  A    between atoms: C3_4  and  C4_5 
REMARK    4  A    between atoms: C4_5  and  C5_6 
REMARK    5  A    between atoms: C4_5  and  C6_9 
REMARK    6  A    between atoms: C5_6  and  O2_8 
REMARK    7  A    between atoms: C6_9  and  C7_11 
REMARK    8  A    between atoms: C7_11  and  O4_12 
REMARK    9  A    between atoms: C7_11  and  C8_13 
REMARK   10  A    between atoms: C8_13  and  C9_14 
REMARK   11  A    between atoms: C9_14  and  C11_16 
REMARK   12  A    between atoms: C13_18  and  O5_19 
REMARK   13  A    between atoms: C16_22  and  O6_23 
REMARK   14  A    between atoms: C34_43  and  C35_44 
REMARK   15  A    between atoms: C36_45  and  C37_46 
ROOT
HETATM    1  C11 UNL     1     -13.288  45.756 -26.407  1.00  0.00     0.002 C 
HETATM    2  C12 UNL     1     -13.133  47.275 -26.109  1.00  0.00     0.049 C 
HETATM    3  C13 UNL     1     -12.075  47.831 -27.091  1.00  0.00     0.088 C 
HETATM    4  C14 UNL     1     -10.991  48.638 -26.452  1.00  0.00     0.011 C 
HETATM    5  C15 UNL     1      -9.739  48.633 -26.934  1.00  0.00     0.015 C 
HETATM    6  C16 UNL     1      -9.260  47.771 -28.082  1.00  0.00     0.108 C 
HETATM    7  C17 UNL     1     -10.074  46.511 -28.242  1.00  0.00    -0.018 C 
HETATM    8  C18 UNL     1      -9.532  45.347 -28.671  1.00  0.00     0.003 C 
HETATM    9  C19 UNL     1     -10.408  44.097 -28.586  1.00  0.00     0.157 C 
HETATM   10  O7  UNL     1     -10.123  43.075 -29.208  1.00  0.00    -0.293 OA
HETATM   11  C20 UNL     1     -11.668  44.094 -27.706  1.00  0.00     0.094 C 
HETATM   12  C21 UNL     1     -11.847  45.384 -26.895  1.00  0.00    -0.019 C 
HETATM   13  C22 UNL     1     -10.892  45.286 -25.666  1.00  0.00     0.017 C 
HETATM   14  C23 UNL     1     -11.554  46.578 -27.875  1.00  0.00     0.026 C 
HETATM   15  C24 UNL     1     -12.342  46.497 -29.235  1.00  0.00     0.025 C 
HETATM   16  C25 UNL     1      -8.122  45.243 -29.302  1.00  0.00    -0.007 C 
HETATM   17  C26 UNL     1      -7.354  44.018 -28.728  1.00  0.00     0.021 C 
HETATM   18  C27 UNL     1      -8.337  45.010 -30.825  1.00  0.00     0.022 C 
HETATM   19  C28 UNL     1      -8.743  46.277 -31.561  1.00  0.00     0.080 C 
HETATM   20  C29 UNL     1      -7.646  47.304 -31.506  1.00  0.00     0.135 C 
HETATM   21  O8  UNL     1      -7.529  48.124 -32.427  1.00  0.00    -0.297 OA
HETATM   22  C30 UNL     1      -6.641  47.253 -30.348  1.00  0.00     0.018 C 
HETATM   23  C31 UNL     1      -6.156  48.693 -30.081  1.00  0.00     0.023 C 
HETATM   24  C32 UNL     1      -5.389  46.497 -30.876  1.00  0.00     0.023 C 
HETATM   25  C33 UNL     1      -7.191  46.524 -29.049  1.00  0.00     0.025 C 
HETATM   26  C34 UNL     1      -7.745  47.451 -27.917  1.00  0.00     0.057 C 
ENDROOT
BRANCH   1  27
HETATM   27  C9  UNL     1     -13.930  44.965 -25.218  1.00  0.00    -0.011 C 
HETATM   28  C10 UNL     1     -14.238  43.520 -25.622  1.00  0.00     0.010 C 
BRANCH  27  29
HETATM   29  C8  UNL     1     -15.194  45.709 -24.692  1.00  0.00     0.044 C 
BRANCH  29  30
HETATM   30  C7  UNL     1     -16.563  45.024 -24.870  1.00  0.00     0.188 C 
BRANCH  30  31
HETATM   31  C6  UNL     1     -17.157  45.201 -26.281  1.00  0.00     0.169 C 
HETATM   32  O3  UNL     1     -16.432  45.425 -27.255  1.00  0.00    -0.294 OA
BRANCH  31  33
HETATM   33  C4  UNL     1     -18.670  45.179 -26.395  1.00  0.00     0.157 C 
BRANCH  33  34
HETATM   34  C3  UNL     1     -19.170  43.728 -26.543  1.00  0.00     0.053 C 
BRANCH  34  35
HETATM   35  C2  UNL     1     -19.630  43.410 -27.972  1.00  0.00     0.270 C 
BRANCH  35  36
HETATM   36  N1  UNL     1     -18.810  44.056 -29.003  1.00  0.00     0.079 N 
HETATM   37  C1  UNL     1     -17.829  43.142 -29.589  1.00  0.00     0.306 C 
HETATM   38  H4  UNL     1     -18.303  44.837 -28.580  1.00  0.00     0.315 HD
ENDBRANCH  35  36
ENDBRANCH  34  35
ENDBRANCH  33  34
BRANCH  33  39
HETATM   39  C5  UNL     1     -19.300  45.870 -25.213  1.00  0.00     0.151 C 
HETATM   40  O1  UNL     1     -19.308  47.060 -24.959  1.00  0.00    -0.649 OA
BRANCH  39  41
HETATM   41  O2  UNL     1     -19.920  44.999 -24.385  1.00  0.00    -0.776 OA
HETATM   42  H10 UNL     1     -20.339  45.571 -23.708  1.00  0.00     0.167 HD
ENDBRANCH  39  41
ENDBRANCH  33  39
ENDBRANCH  31  33
ENDBRANCH  30  31
BRANCH  30  43
HETATM   43  O4  UNL     1     -16.521  43.690 -24.396  1.00  0.00    -0.388 OA
HETATM   44  H12 UNL     1     -15.946  43.165 -24.978  1.00  0.00     0.210 HD
ENDBRANCH  30  43
ENDBRANCH  29  30
ENDBRANCH  27  29
ENDBRANCH   1  27
BRANCH   3  45
HETATM   45  O5  UNL     1     -12.703  48.767 -27.973  1.00  0.00    -0.385 OA
HETATM   46  H22 UNL     1     -13.103  49.472 -27.440  1.00  0.00     0.211 HD
ENDBRANCH   3  45
BRANCH   6  47
HETATM   47  O6  UNL     1      -9.443  48.550 -29.258  1.00  0.00    -0.380 OA
HETATM   48  H25 UNL     1     -10.387  48.803 -29.284  1.00  0.00     0.211 HD
ENDBRANCH   6  47
BRANCH  26  49
HETATM   49  C35 UNL     1      -7.394  46.867 -26.544  1.00  0.00    -0.017 C 
HETATM   50  C36 UNL     1      -7.157  47.623 -25.459  1.00  0.00     0.008 C 
BRANCH  50  51
HETATM   51  C37 UNL     1      -6.862  47.086 -24.120  1.00  0.00    -0.036 A 
HETATM   52  C38 UNL     1      -7.578  45.974 -23.668  1.00  0.00     0.011 A 
HETATM   53  C39 UNL     1      -7.301  45.404 -22.422  1.00  0.00     0.001 A 
HETATM   54  C40 UNL     1      -6.285  45.934 -21.629  1.00  0.00     0.000 A 
HETATM   55  C41 UNL     1      -5.546  47.030 -22.077  1.00  0.00     0.001 A 
HETATM   56  C42 UNL     1      -5.838  47.603 -23.316  1.00  0.00     0.011 A 
ENDBRANCH  50  51
ENDBRANCH  26  49
TORSDOF 15
ENDMDL
