MODEL 1
REMARK minimizedAffinity -7.38984823
REMARK CNNscore 0.583011508
REMARK CNNaffinity 7.07002211
REMARK  4 active torsions:
REMARK  status: ('A' for Active; 'I' for Inactive)
REMARK    1  A    between atoms: C2_2  and  C4_4 
REMARK    2  A    between atoms: C4_4  and  C5_5 
REMARK    3  A    between atoms: C5_5  and  O1_6 
REMARK    4  A    between atoms: C8_9  and  C9_10 
ROOT
HETATM    1  C9  UNL     1      -1.153  52.872 -11.677  1.00  0.00     0.001 C 
HETATM    2  C10 UNL     1      -2.302  52.605 -10.668  1.00  0.00     0.007 C 
HETATM    3  C11 UNL     1      -1.884  53.241  -9.329  1.00  0.00     0.011 C 
HETATM    4  C12 UNL     1      -0.698  54.165  -9.673  1.00  0.00    -0.032 C 
HETATM    5  C13 UNL     1      -1.322  55.504 -10.181  1.00  0.00     0.016 C 
HETATM    6  C14 UNL     1       0.276  54.435  -8.496  1.00  0.00     0.004 C 
HETATM    7  C15 UNL     1      -0.301  55.335  -7.392  1.00  0.00     0.007 C 
HETATM    8  C16 UNL     1       0.697  55.463  -6.241  1.00  0.00     0.007 C 
HETATM    9  C17 UNL     1       1.919  56.279  -6.688  1.00  0.00     0.010 C 
HETATM   10  C18 UNL     1       3.038  56.442  -5.606  1.00  0.00     0.018 C 
HETATM   11  C19 UNL     1       3.412  55.129  -4.898  1.00  0.00     0.023 C 
HETATM   12  C20 UNL     1       2.596  57.463  -4.541  1.00  0.00     0.023 C 
HETATM   13  C21 UNL     1       4.299  57.015  -6.276  1.00  0.00     0.135 C 
HETATM   14  O2  UNL     1       5.416  56.947  -5.761  1.00  0.00    -0.297 OA
HETATM   15  C22 UNL     1       4.094  57.761  -7.571  1.00  0.00     0.080 C 
HETATM   16  C23 UNL     1       3.478  56.844  -8.619  1.00  0.00     0.018 C 
HETATM   17  C24 UNL     1       2.510  55.820  -8.027  1.00  0.00    -0.026 A 
HETATM   18  C25 UNL     1       2.851  54.366  -8.249  1.00  0.00     0.021 A 
HETATM   19  C26 UNL     1       1.656  54.944  -8.986  1.00  0.00    -0.027 A 
HETATM   20  C27 UNL     1       1.825  55.171 -10.491  1.00  0.00     0.011 C 
HETATM   21  C28 UNL     1       1.097  54.203 -11.442  1.00  0.00     0.011 C 
HETATM   22  C29 UNL     1       0.041  53.313 -10.773  1.00  0.00    -0.032 C 
HETATM   23  C30 UNL     1       0.770  52.059 -10.211  1.00  0.00     0.016 C 
ENDROOT
BRANCH   1  24
HETATM   24  C8  UNL     1      -1.011  51.782 -12.773  1.00  0.00     0.014 C 
HETATM   25  C7  UNL     1      -2.274  51.572 -13.610  1.00  0.00     0.010 C 
HETATM   26  C6  UNL     1      -2.106  50.322 -14.468  1.00  0.00     0.041 C 
HETATM   27  C4  UNL     1      -0.794  50.342 -15.304  1.00  0.00     0.085 C 
HETATM   28  O3  UNL     1      -0.027  51.535 -15.039  1.00  0.00    -0.377 OA
HETATM   29  C31 UNL     1       0.237  51.837 -13.666  1.00  0.00     0.174 C 
BRANCH  27  30
HETATM   30  C2  UNL     1      -1.144  50.365 -16.837  1.00  0.00     0.014 C 
HETATM   31  C1  UNL     1      -0.251  51.285 -17.683  1.00  0.00     0.012 C 
HETATM   32  C3  UNL     1      -2.605  50.780 -17.094  1.00  0.00     0.012 C 
ENDBRANCH  27  30
BRANCH  27  33
HETATM   33  C5  UNL     1       0.059  49.097 -14.927  1.00  0.00     0.202 C 
BRANCH  33  34
HETATM   34  O1  UNL     1       0.321  48.261 -16.052  1.00  0.00    -0.398 OA
HETATM   35  H10 UNL     1       0.326  48.853 -16.828  1.00  0.00     0.209 HD
ENDBRANCH  33  34
ENDBRANCH  27  33
ENDBRANCH   1  24
TORSDOF 4
ENDMDL
MODEL 2
REMARK minimizedAffinity -9.52740765
REMARK CNNscore 0.528165579
REMARK CNNaffinity 7.12932777
REMARK  4 active torsions:
REMARK  status: ('A' for Active; 'I' for Inactive)
REMARK    1  A    between atoms: C2_2  and  C4_4 
REMARK    2  A    between atoms: C4_4  and  C5_5 
REMARK    3  A    between atoms: C5_5  and  O1_6 
REMARK    4  A    between atoms: C8_9  and  C9_10 
ROOT
HETATM    1  C9  UNL     1      -2.052  49.850 -23.091  1.00  0.00     0.001 C 
HETATM    2  C10 UNL     1      -1.218  49.905 -21.782  1.00  0.00     0.007 C 
HETATM    3  C11 UNL     1      -2.171  49.553 -20.624  1.00  0.00     0.011 C 
HETATM    4  C12 UNL     1      -3.421  48.951 -21.298  1.00  0.00    -0.032 C 
HETATM    5  C13 UNL     1      -3.092  47.447 -21.563  1.00  0.00     0.016 C 
HETATM    6  C14 UNL     1      -4.729  49.081 -20.474  1.00  0.00     0.004 C 
HETATM    7  C15 UNL     1      -4.782  48.184 -19.228  1.00  0.00     0.007 C 
HETATM    8  C16 UNL     1      -6.062  48.454 -18.438  1.00  0.00     0.007 C 
HETATM    9  C17 UNL     1      -7.284  47.954 -19.223  1.00  0.00     0.010 C 
HETATM   10  C18 UNL     1      -8.666  48.216 -18.535  1.00  0.00     0.018 C 
HETATM   11  C19 UNL     1      -8.832  49.650 -18.004  1.00  0.00     0.023 C 
HETATM   12  C20 UNL     1      -8.867  47.235 -17.365  1.00  0.00     0.023 C 
HETATM   13  C21 UNL     1      -9.788  47.935 -19.550  1.00  0.00     0.135 C 
HETATM   14  O2  UNL     1     -10.937  48.357 -19.406  1.00  0.00    -0.297 OA
HETATM   15  C22 UNL     1      -9.443  47.026 -20.703  1.00  0.00     0.080 C 
HETATM   16  C23 UNL     1      -8.312  47.626 -21.529  1.00  0.00     0.018 C 
HETATM   17  C24 UNL     1      -7.304  48.409 -20.688  1.00  0.00    -0.026 A 
HETATM   18  C25 UNL     1      -7.129  49.868 -21.034  1.00  0.00     0.021 A 
HETATM   19  C26 UNL     1      -5.993  48.914 -21.355  1.00  0.00    -0.027 A 
HETATM   20  C27 UNL     1      -5.777  48.580 -22.834  1.00  0.00     0.011 C 
HETATM   21  C28 UNL     1      -4.558  49.208 -23.534  1.00  0.00     0.011 C 
HETATM   22  C29 UNL     1      -3.531  49.847 -22.590  1.00  0.00    -0.032 C 
HETATM   23  C30 UNL     1      -3.995  51.304 -22.305  1.00  0.00     0.016 C 
ENDROOT
BRANCH   1  24
HETATM   24  C8  UNL     1      -1.548  50.813 -24.199  1.00  0.00     0.014 C 
HETATM   25  C7  UNL     1      -0.212  51.485 -23.880  1.00  0.00     0.010 C 
HETATM   26  C6  UNL     1       0.054  52.585 -24.904  1.00  0.00     0.041 C 
HETATM   27  C4  UNL     1      -0.061  52.080 -26.370  1.00  0.00     0.085 C 
HETATM   28  O3  UNL     1      -0.429  50.685 -26.411  1.00  0.00    -0.377 OA
HETATM   29  C31 UNL     1      -1.574  50.299 -25.646  1.00  0.00     0.174 C 
BRANCH  27  30
HETATM   30  C2  UNL     1       1.336  52.197 -27.082  1.00  0.00     0.014 C 
HETATM   31  C1  UNL     1       1.335  51.789 -28.563  1.00  0.00     0.012 C 
HETATM   32  C3  UNL     1       2.420  51.360 -26.376  1.00  0.00     0.012 C 
ENDBRANCH  27  30
BRANCH  27  33
HETATM   33  C5  UNL     1      -1.152  52.913 -27.103  1.00  0.00     0.202 C 
BRANCH  33  34
HETATM   34  O1  UNL     1      -0.709  54.233 -27.408  1.00  0.00    -0.398 OA
HETATM   35  H10 UNL     1       0.258  54.169 -27.522  1.00  0.00     0.209 HD
ENDBRANCH  33  34
ENDBRANCH  27  33
ENDBRANCH   1  24
TORSDOF 4
ENDMDL
MODEL 3
REMARK minimizedAffinity -8.12574196
REMARK CNNscore 0.476679027
REMARK CNNaffinity 5.78854036
REMARK  4 active torsions:
REMARK  status: ('A' for Active; 'I' for Inactive)
REMARK    1  A    between atoms: C2_2  and  C4_4 
REMARK    2  A    between atoms: C4_4  and  C5_5 
REMARK    3  A    between atoms: C5_5  and  O1_6 
REMARK    4  A    between atoms: C8_9  and  C9_10 
ROOT
HETATM    1  C9  UNL     1       5.391  67.301 -37.189  1.00  0.00     0.001 C 
HETATM    2  C10 UNL     1       6.161  67.149 -38.529  1.00  0.00     0.007 C 
HETATM    3  C11 UNL     1       5.213  67.612 -39.651  1.00  0.00     0.011 C 
HETATM    4  C12 UNL     1       4.071  68.358 -38.931  1.00  0.00    -0.032 C 
HETATM    5  C13 UNL     1       4.586  69.812 -38.685  1.00  0.00     0.016 C 
HETATM    6  C14 UNL     1       2.726  68.385 -39.704  1.00  0.00     0.004 C 
HETATM    7  C15 UNL     1       2.732  69.284 -40.951  1.00  0.00     0.007 C 
HETATM    8  C16 UNL     1       1.399  69.169 -41.690  1.00  0.00     0.007 C 
HETATM    9  C17 UNL     1       0.277  69.810 -40.861  1.00  0.00     0.010 C 
HETATM   10  C18 UNL     1      -1.151  69.715 -41.494  1.00  0.00     0.018 C 
HETATM   11  C19 UNL     1      -1.508  68.312 -42.014  1.00  0.00     0.023 C 
HETATM   12  C20 UNL     1      -1.279  70.714 -42.659  1.00  0.00     0.023 C 
HETATM   13  C21 UNL     1      -2.193  70.126 -40.438  1.00  0.00     0.135 C 
HETATM   14  O2  UNL     1      -3.388  69.844 -40.537  1.00  0.00    -0.297 OA
HETATM   15  C22 UNL     1      -1.698  70.986 -39.303  1.00  0.00     0.080 C 
HETATM   16  C23 UNL     1      -0.615  70.256 -38.518  1.00  0.00     0.018 C 
HETATM   17  C24 UNL     1       0.260  69.360 -39.394  1.00  0.00    -0.026 A 
HETATM   18  C25 UNL     1       0.272  67.889 -39.051  1.00  0.00     0.021 A 
HETATM   19  C26 UNL     1       1.525  68.701 -38.777  1.00  0.00    -0.027 A 
HETATM   20  C27 UNL     1       1.837  69.006 -37.308  1.00  0.00     0.011 C 
HETATM   21  C28 UNL     1       2.998  68.236 -36.653  1.00  0.00     0.011 C 
HETATM   22  C29 UNL     1       3.905  67.480 -37.634  1.00  0.00    -0.032 C 
HETATM   23  C30 UNL     1       3.260  66.089 -37.895  1.00  0.00     0.016 C 
ENDROOT
BRANCH   1  24
HETATM   24  C8  UNL     1       5.819  66.283 -36.098  1.00  0.00     0.014 C 
HETATM   25  C7  UNL     1       5.315  66.626 -34.695  1.00  0.00     0.010 C 
HETATM   26  C6  UNL     1       5.999  65.715 -33.680  1.00  0.00     0.041 C 
HETATM   27  C4  UNL     1       5.868  64.209 -34.043  1.00  0.00     0.085 C 
HETATM   28  O3  UNL     1       5.154  64.034 -35.285  1.00  0.00    -0.377 OA
HETATM   29  C31 UNL     1       5.617  64.792 -36.405  1.00  0.00     0.174 C 
BRANCH  27  30
HETATM   30  C2  UNL     1       5.033  63.467 -32.936  1.00  0.00     0.014 C 
HETATM   31  C1  UNL     1       4.062  62.404 -33.472  1.00  0.00     0.012 C 
HETATM   32  C3  UNL     1       4.212  64.445 -32.075  1.00  0.00     0.012 C 
ENDBRANCH  27  30
BRANCH  27  33
HETATM   33  C5  UNL     1       7.294  63.603 -34.191  1.00  0.00     0.202 C 
BRANCH  33  34
HETATM   34  O1  UNL     1       8.257  64.291 -33.396  1.00  0.00    -0.398 OA
HETATM   35  H10 UNL     1       7.767  64.643 -32.629  1.00  0.00     0.209 HD
ENDBRANCH  33  34
ENDBRANCH  27  33
ENDBRANCH   1  24
TORSDOF 4
ENDMDL
MODEL 4
REMARK minimizedAffinity -8.88718796
REMARK CNNscore 0.471277714
REMARK CNNaffinity 7.34064293
REMARK  4 active torsions:
REMARK  status: ('A' for Active; 'I' for Inactive)
REMARK    1  A    between atoms: C2_2  and  C4_4 
REMARK    2  A    between atoms: C4_4  and  C5_5 
REMARK    3  A    between atoms: C5_5  and  O1_6 
REMARK    4  A    between atoms: C8_9  and  C9_10 
ROOT
HETATM    1  C9  UNL     1      -3.175  49.950 -23.080  1.00  0.00     0.001 C 
HETATM    2  C10 UNL     1      -3.215  48.417 -23.323  1.00  0.00     0.007 C 
HETATM    3  C11 UNL     1      -3.033  47.738 -21.952  1.00  0.00     0.011 C 
HETATM    4  C12 UNL     1      -3.258  48.856 -20.914  1.00  0.00    -0.032 C 
HETATM    5  C13 UNL     1      -4.804  48.967 -20.720  1.00  0.00     0.016 C 
HETATM    6  C14 UNL     1      -2.557  48.626 -19.549  1.00  0.00     0.004 C 
HETATM    7  C15 UNL     1      -3.179  47.505 -18.701  1.00  0.00     0.007 C 
HETATM    8  C16 UNL     1      -2.364  47.295 -17.426  1.00  0.00     0.007 C 
HETATM    9  C17 UNL     1      -2.521  48.503 -16.492  1.00  0.00     0.010 C 
HETATM   10  C18 UNL     1      -1.693  48.427 -15.165  1.00  0.00     0.018 C 
HETATM   11  C19 UNL     1      -0.228  48.007 -15.371  1.00  0.00     0.023 C 
HETATM   12  C20 UNL     1      -2.353  47.436 -14.189  1.00  0.00     0.023 C 
HETATM   13  C21 UNL     1      -1.717  49.807 -14.483  1.00  0.00     0.135 C 
HETATM   14  O2  UNL     1      -0.906  50.135 -13.617  1.00  0.00    -0.297 OA
HETATM   15  C22 UNL     1      -2.853  50.724 -14.859  1.00  0.00     0.080 C 
HETATM   16  C23 UNL     1      -2.818  51.028 -16.351  1.00  0.00     0.018 C 
HETATM   17  C24 UNL     1      -2.316  49.854 -17.191  1.00  0.00    -0.026 A 
HETATM   18  C25 UNL     1      -1.079  50.100 -18.021  1.00  0.00     0.021 A 
HETATM   19  C26 UNL     1      -2.406  49.939 -18.741  1.00  0.00    -0.027 A 
HETATM   20  C27 UNL     1      -3.016  51.207 -19.346  1.00  0.00     0.011 C 
HETATM   21  C28 UNL     1      -2.965  51.360 -20.877  1.00  0.00     0.011 C 
HETATM   22  C29 UNL     1      -2.587  50.083 -21.640  1.00  0.00    -0.032 C 
HETATM   23  C30 UNL     1      -1.035  50.009 -21.694  1.00  0.00     0.016 C 
ENDROOT
BRANCH   1  24
HETATM   24  C8  UNL     1      -2.628  50.764 -24.284  1.00  0.00     0.014 C 
HETATM   25  C7  UNL     1      -1.591  51.820 -23.901  1.00  0.00     0.010 C 
HETATM   26  C6  UNL     1      -1.319  52.716 -25.106  1.00  0.00     0.041 C 
HETATM   27  C4  UNL     1      -0.951  51.907 -26.383  1.00  0.00     0.085 C 
HETATM   28  O3  UNL     1      -0.988  50.487 -26.127  1.00  0.00    -0.377 OA
HETATM   29  C31 UNL     1      -2.178  49.975 -25.523  1.00  0.00     0.174 C 
BRANCH  27  30
HETATM   30  C2  UNL     1       0.522  52.247 -26.818  1.00  0.00     0.014 C 
HETATM   31  C1  UNL     1       0.910  51.737 -28.214  1.00  0.00     0.012 C 
HETATM   32  C3  UNL     1       1.563  51.698 -25.824  1.00  0.00     0.012 C 
ENDBRANCH  27  30
BRANCH  27  33
HETATM   33  C5  UNL     1      -1.975  52.247 -27.504  1.00  0.00     0.202 C 
BRANCH  33  34
HETATM   34  O1  UNL     1      -1.948  53.627 -27.859  1.00  0.00    -0.398 OA
HETATM   35  H10 UNL     1      -1.037  53.929 -27.686  1.00  0.00     0.209 HD
ENDBRANCH  33  34
ENDBRANCH  27  33
ENDBRANCH   1  24
TORSDOF 4
ENDMDL
MODEL 5
REMARK minimizedAffinity -7.71953773
REMARK CNNscore 0.469868302
REMARK CNNaffinity 5.96300697
REMARK  4 active torsions:
REMARK  status: ('A' for Active; 'I' for Inactive)
REMARK    1  A    between atoms: C2_2  and  C4_4 
REMARK    2  A    between atoms: C4_4  and  C5_5 
REMARK    3  A    between atoms: C5_5  and  O1_6 
REMARK    4  A    between atoms: C8_9  and  C9_10 
ROOT
HETATM    1  C9  UNL     1      -8.458  46.733 -30.158  1.00  0.00     0.001 C 
HETATM    2  C10 UNL     1      -7.073  47.114 -29.569  1.00  0.00     0.007 C 
HETATM    3  C11 UNL     1      -6.034  46.182 -30.221  1.00  0.00     0.011 C 
HETATM    4  C12 UNL     1      -6.760  45.543 -31.421  1.00  0.00    -0.032 C 
HETATM    5  C13 UNL     1      -6.657  46.572 -32.592  1.00  0.00     0.016 C 
HETATM    6  C14 UNL     1      -6.196  44.166 -31.862  1.00  0.00     0.004 C 
HETATM    7  C15 UNL     1      -4.818  44.235 -32.537  1.00  0.00     0.007 C 
HETATM    8  C16 UNL     1      -4.312  42.827 -32.847  1.00  0.00     0.007 C 
HETATM    9  C17 UNL     1      -5.162  42.190 -33.957  1.00  0.00     0.010 C 
HETATM   10  C18 UNL     1      -4.769  40.723 -34.333  1.00  0.00     0.018 C 
HETATM   11  C19 UNL     1      -4.573  39.802 -33.118  1.00  0.00     0.023 C 
HETATM   12  C20 UNL     1      -3.470  40.721 -35.162  1.00  0.00     0.023 C 
HETATM   13  C21 UNL     1      -5.870  40.127 -35.229  1.00  0.00     0.135 C 
HETATM   14  O2  UNL     1      -5.997  38.915 -35.409  1.00  0.00    -0.297 OA
HETATM   15  C22 UNL     1      -6.744  41.109 -35.967  1.00  0.00     0.080 C 
HETATM   16  C23 UNL     1      -7.485  42.003 -34.980  1.00  0.00     0.018 C 
HETATM   17  C24 UNL     1      -6.673  42.313 -33.723  1.00  0.00    -0.026 A 
HETATM   18  C25 UNL     1      -7.276  41.879 -32.409  1.00  0.00     0.021 A 
HETATM   19  C26 UNL     1      -7.213  43.365 -32.714  1.00  0.00    -0.027 A 
HETATM   20  C27 UNL     1      -8.540  44.052 -33.050  1.00  0.00     0.011 C 
HETATM   21  C28 UNL     1      -9.152  44.978 -31.983  1.00  0.00     0.011 C 
HETATM   22  C29 UNL     1      -8.207  45.346 -30.831  1.00  0.00    -0.032 C 
HETATM   23  C30 UNL     1      -8.302  44.217 -29.765  1.00  0.00     0.016 C 
ENDROOT
BRANCH   1  24
HETATM   24  C8  UNL     1      -9.646  46.988 -29.191  1.00  0.00     0.014 C 
HETATM   25  C7  UNL     1     -11.008  47.055 -29.882  1.00  0.00     0.010 C 
HETATM   26  C6  UNL     1     -12.051  47.557 -28.888  1.00  0.00     0.041 C 
HETATM   27  C4  UNL     1     -12.057  46.742 -27.563  1.00  0.00     0.085 C 
HETATM   28  O3  UNL     1     -11.042  45.717 -27.579  1.00  0.00    -0.377 OA
HETATM   29  C31 UNL     1      -9.716  46.132 -27.918  1.00  0.00     0.174 C 
BRANCH  27  30
HETATM   30  C2  UNL     1     -13.437  46.005 -27.402  1.00  0.00     0.014 C 
HETATM   31  C1  UNL     1     -14.259  45.896 -28.695  1.00  0.00     0.012 C 
HETATM   32  C3  UNL     1     -14.334  46.675 -26.343  1.00  0.00     0.012 C 
ENDBRANCH  27  30
BRANCH  27  33
HETATM   33  C5  UNL     1     -11.780  47.710 -26.377  1.00  0.00     0.202 C 
BRANCH  33  34
HETATM   34  O1  UNL     1     -11.726  49.073 -26.794  1.00  0.00    -0.398 OA
HETATM   35  H10 UNL     1     -12.310  49.136 -27.573  1.00  0.00     0.209 HD
ENDBRANCH  33  34
ENDBRANCH  27  33
ENDBRANCH   1  24
TORSDOF 4
ENDMDL
MODEL 6
REMARK minimizedAffinity -8.21148777
REMARK CNNscore 0.439531922
REMARK CNNaffinity 6.92449808
REMARK  4 active torsions:
REMARK  status: ('A' for Active; 'I' for Inactive)
REMARK    1  A    between atoms: C2_2  and  C4_4 
REMARK    2  A    between atoms: C4_4  and  C5_5 
REMARK    3  A    between atoms: C5_5  and  O1_6 
REMARK    4  A    between atoms: C8_9  and  C9_10 
ROOT
HETATM    1  C9  UNL     1      -0.609  49.887 -13.679  1.00  0.00     0.001 C 
HETATM    2  C10 UNL     1      -1.380  48.540 -13.645  1.00  0.00     0.007 C 
HETATM    3  C11 UNL     1      -1.806  48.228 -15.092  1.00  0.00     0.011 C 
HETATM    4  C12 UNL     1      -0.976  49.183 -15.973  1.00  0.00    -0.032 C 
HETATM    5  C13 UNL     1       0.413  48.497 -16.172  1.00  0.00     0.016 C 
HETATM    6  C14 UNL     1      -1.615  49.518 -17.347  1.00  0.00     0.004 C 
HETATM    7  C15 UNL     1      -1.613  48.351 -18.346  1.00  0.00     0.007 C 
HETATM    8  C16 UNL     1      -2.343  48.751 -19.627  1.00  0.00     0.007 C 
HETATM    9  C17 UNL     1      -1.531  49.805 -20.393  1.00  0.00     0.010 C 
HETATM   10  C18 UNL     1      -2.200  50.332 -21.706  1.00  0.00     0.018 C 
HETATM   11  C19 UNL     1      -3.680  50.713 -21.539  1.00  0.00     0.023 C 
HETATM   12  C20 UNL     1      -2.091  49.270 -22.815  1.00  0.00     0.023 C 
HETATM   13  C21 UNL     1      -1.427  51.570 -22.197  1.00  0.00     0.135 C 
HETATM   14  O2  UNL     1      -1.901  52.374 -23.000  1.00  0.00    -0.297 OA
HETATM   15  C22 UNL     1      -0.004  51.710 -21.717  1.00  0.00     0.080 C 
HETATM   16  C23 UNL     1       0.035  51.803 -20.197  1.00  0.00     0.018 C 
HETATM   17  C24 UNL     1      -1.049  50.969 -19.516  1.00  0.00    -0.026 A 
HETATM   18  C25 UNL     1      -2.027  51.719 -18.643  1.00  0.00     0.021 A 
HETATM   19  C26 UNL     1      -1.018  50.806 -17.970  1.00  0.00    -0.027 A 
HETATM   20  C27 UNL     1       0.122  51.488 -17.208  1.00  0.00     0.011 C 
HETATM   21  C28 UNL     1       0.069  51.458 -15.670  1.00  0.00     0.011 C 
HETATM   22  C29 UNL     1      -0.958  50.481 -15.080  1.00  0.00    -0.032 C 
HETATM   23  C30 UNL     1      -2.326  51.218 -15.016  1.00  0.00     0.016 C 
ENDROOT
BRANCH   1  24
HETATM   24  C8  UNL     1      -0.726  50.713 -12.369  1.00  0.00     0.014 C 
HETATM   25  C7  UNL     1      -0.489  52.212 -12.555  1.00  0.00     0.010 C 
HETATM   26  C6  UNL     1      -0.377  52.876 -11.186  1.00  0.00     0.041 C 
HETATM   27  C4  UNL     1      -1.578  52.541 -10.258  1.00  0.00     0.085 C 
HETATM   28  O3  UNL     1      -2.504  51.645 -10.909  1.00  0.00    -0.377 OA
HETATM   29  C31 UNL     1      -1.953  50.457 -11.481  1.00  0.00     0.174 C 
BRANCH  27  30
HETATM   30  C2  UNL     1      -2.379  53.855  -9.932  1.00  0.00     0.014 C 
HETATM   31  C1  UNL     1      -3.710  53.997 -10.686  1.00  0.00     0.012 C 
HETATM   32  C3  UNL     1      -1.553  55.124 -10.217  1.00  0.00     0.012 C 
ENDBRANCH  27  30
BRANCH  27  33
HETATM   33  C5  UNL     1      -1.040  51.861  -8.966  1.00  0.00     0.202 C 
BRANCH  33  34
HETATM   34  O1  UNL     1      -1.781  52.238  -7.808  1.00  0.00    -0.398 OA
HETATM   35  H10 UNL     1      -2.684  52.434  -8.122  1.00  0.00     0.209 HD
ENDBRANCH  33  34
ENDBRANCH  27  33
ENDBRANCH   1  24
TORSDOF 4
ENDMDL
MODEL 7
REMARK minimizedAffinity -7.18398285
REMARK CNNscore 0.398503363
REMARK CNNaffinity 5.62825012
REMARK  4 active torsions:
REMARK  status: ('A' for Active; 'I' for Inactive)
REMARK    1  A    between atoms: C2_2  and  C4_4 
REMARK    2  A    between atoms: C4_4  and  C5_5 
REMARK    3  A    between atoms: C5_5  and  O1_6 
REMARK    4  A    between atoms: C8_9  and  C9_10 
ROOT
HETATM    1  C9  UNL     1     -11.077  44.975 -27.790  1.00  0.00     0.001 C 
HETATM    2  C10 UNL     1     -10.509  44.052 -26.679  1.00  0.00     0.007 C 
HETATM    3  C11 UNL     1     -11.694  43.635 -25.788  1.00  0.00     0.011 C 
HETATM    4  C12 UNL     1     -12.955  44.010 -26.592  1.00  0.00    -0.032 C 
HETATM    5  C13 UNL     1     -13.208  42.829 -27.583  1.00  0.00     0.016 C 
HETATM    6  C14 UNL     1     -14.219  44.273 -25.731  1.00  0.00     0.004 C 
HETATM    7  C15 UNL     1     -14.819  43.014 -25.088  1.00  0.00     0.007 C 
HETATM    8  C16 UNL     1     -15.997  43.389 -24.190  1.00  0.00     0.007 C 
HETATM    9  C17 UNL     1     -17.175  43.884 -25.041  1.00  0.00     0.010 C 
HETATM   10  C18 UNL     1     -18.431  44.345 -24.230  1.00  0.00     0.018 C 
HETATM   11  C19 UNL     1     -18.102  45.277 -23.052  1.00  0.00     0.023 C 
HETATM   12  C20 UNL     1     -19.186  43.118 -23.685  1.00  0.00     0.023 C 
HETATM   13  C21 UNL     1     -19.397  45.076 -25.179  1.00  0.00     0.135 C 
HETATM   14  O2  UNL     1     -20.293  45.818 -24.775  1.00  0.00    -0.297 OA
HETATM   15  C22 UNL     1     -19.260  44.768 -26.649  1.00  0.00     0.080 C 
HETATM   16  C23 UNL     1     -17.868  45.146 -27.141  1.00  0.00     0.018 C 
HETATM   17  C24 UNL     1     -16.781  44.934 -26.088  1.00  0.00    -0.026 A 
HETATM   18  C25 UNL     1     -15.993  46.156 -25.680  1.00  0.00     0.021 A 
HETATM   19  C26 UNL     1     -15.290  45.089 -26.499  1.00  0.00    -0.027 A 
HETATM   20  C27 UNL     1     -14.990  45.434 -27.961  1.00  0.00     0.011 C 
HETATM   21  C28 UNL     1     -13.528  45.739 -28.336  1.00  0.00     0.011 C 
HETATM   22  C29 UNL     1     -12.496  45.359 -27.265  1.00  0.00    -0.032 C 
HETATM   23  C30 UNL     1     -12.388  46.551 -26.272  1.00  0.00     0.016 C 
ENDROOT
BRANCH   1  24
HETATM   24  C8  UNL     1     -10.065  46.032 -28.309  1.00  0.00     0.014 C 
HETATM   25  C7  UNL     1      -8.845  46.222 -27.407  1.00  0.00     0.010 C 
HETATM   26  C6  UNL     1      -8.062  47.445 -27.873  1.00  0.00     0.041 C 
HETATM   27  C4  UNL     1      -7.720  47.396 -29.390  1.00  0.00     0.085 C 
HETATM   28  O3  UNL     1      -8.262  46.208 -30.006  1.00  0.00    -0.377 OA
HETATM   29  C31 UNL     1      -9.650  45.946 -29.785  1.00  0.00     0.174 C 
BRANCH  27  30
HETATM   30  C2  UNL     1      -6.161  47.329 -29.580  1.00  0.00     0.014 C 
HETATM   31  C1  UNL     1      -5.349  47.900 -28.407  1.00  0.00     0.012 C 
HETATM   32  C3  UNL     1      -5.698  48.058 -30.856  1.00  0.00     0.012 C 
ENDBRANCH  27  30
BRANCH  27  33
HETATM   33  C5  UNL     1      -8.331  48.648 -30.082  1.00  0.00     0.202 C 
BRANCH  33  34
HETATM   34  O1  UNL     1      -8.636  49.685 -29.152  1.00  0.00    -0.398 OA
HETATM   35  H10 UNL     1      -7.998  49.582 -28.421  1.00  0.00     0.209 HD
ENDBRANCH  33  34
ENDBRANCH  27  33
ENDBRANCH   1  24
TORSDOF 4
ENDMDL
MODEL 8
REMARK minimizedAffinity -9.63329506
REMARK CNNscore 0.359531343
REMARK CNNaffinity 6.87116623
REMARK  4 active torsions:
REMARK  status: ('A' for Active; 'I' for Inactive)
REMARK    1  A    between atoms: C2_2  and  C4_4 
REMARK    2  A    between atoms: C4_4  and  C5_5 
REMARK    3  A    between atoms: C5_5  and  O1_6 
REMARK    4  A    between atoms: C8_9  and  C9_10 
ROOT
HETATM    1  C9  UNL     1      -2.953  52.112 -23.422  1.00  0.00     0.001 C 
HETATM    2  C10 UNL     1      -4.415  52.255 -23.924  1.00  0.00     0.007 C 
HETATM    3  C11 UNL     1      -5.222  51.101 -23.300  1.00  0.00     0.011 C 
HETATM    4  C12 UNL     1      -4.324  50.540 -22.179  1.00  0.00    -0.032 C 
HETATM    5  C13 UNL     1      -4.556  51.454 -20.934  1.00  0.00     0.016 C 
HETATM    6  C14 UNL     1      -4.591  49.055 -21.816  1.00  0.00     0.004 C 
HETATM    7  C15 UNL     1      -5.918  48.814 -21.081  1.00  0.00     0.007 C 
HETATM    8  C16 UNL     1      -6.131  47.318 -20.853  1.00  0.00     0.007 C 
HETATM    9  C17 UNL     1      -5.117  46.789 -19.828  1.00  0.00     0.010 C 
HETATM   10  C18 UNL     1      -5.204  45.253 -19.543  1.00  0.00     0.018 C 
HETATM   11  C19 UNL     1      -5.287  44.389 -20.813  1.00  0.00     0.023 C 
HETATM   12  C20 UNL     1      -6.431  44.948 -18.664  1.00  0.00     0.023 C 
HETATM   13  C21 UNL     1      -3.963  44.825 -18.739  1.00  0.00     0.135 C 
HETATM   14  O2  UNL     1      -3.598  43.651 -18.652  1.00  0.00    -0.297 OA
HETATM   15  C22 UNL     1      -3.252  45.909 -17.969  1.00  0.00     0.080 C 
HETATM   16  C23 UNL     1      -2.748  46.989 -18.918  1.00  0.00     0.018 C 
HETATM   17  C24 UNL     1      -3.671  47.215 -20.115  1.00  0.00    -0.026 A 
HETATM   18  C25 UNL     1      -3.070  46.990 -21.481  1.00  0.00     0.021 A 
HETATM   19  C26 UNL     1      -3.397  48.413 -21.067  1.00  0.00    -0.027 A 
HETATM   20  C27 UNL     1      -2.208  49.321 -20.737  1.00  0.00     0.011 C 
HETATM   21  C28 UNL     1      -1.841  50.412 -21.759  1.00  0.00     0.011 C 
HETATM   22  C29 UNL     1      -2.900  50.663 -22.842  1.00  0.00    -0.032 C 
HETATM   23  C30 UNL     1      -2.650  49.642 -23.989  1.00  0.00     0.016 C 
ENDROOT
BRANCH   1  24
HETATM   24  C8  UNL     1      -1.889  52.652 -24.417  1.00  0.00     0.014 C 
HETATM   25  C7  UNL     1      -0.446  52.355 -24.007  1.00  0.00     0.010 C 
HETATM   26  C6  UNL     1       0.502  53.141 -24.907  1.00  0.00     0.041 C 
HETATM   27  C4  UNL     1       0.219  52.914 -26.419  1.00  0.00     0.085 C 
HETATM   28  O3  UNL     1      -0.907  52.032 -26.610  1.00  0.00    -0.377 OA
HETATM   29  C31 UNL     1      -2.108  52.363 -25.909  1.00  0.00     0.174 C 
BRANCH  27  30
HETATM   30  C2  UNL     1       1.457  52.215 -27.091  1.00  0.00     0.014 C 
HETATM   31  C1  UNL     1       1.147  51.496 -28.412  1.00  0.00     0.012 C 
HETATM   32  C3  UNL     1       2.123  51.187 -26.155  1.00  0.00     0.012 C 
ENDBRANCH  27  30
BRANCH  27  33
HETATM   33  C5  UNL     1      -0.095  54.287 -27.082  1.00  0.00     0.202 C 
BRANCH  33  34
HETATM   34  O1  UNL     1       0.199  55.383 -26.219  1.00  0.00    -0.398 OA
HETATM   35  H10 UNL     1       0.926  55.080 -25.643  1.00  0.00     0.209 HD
ENDBRANCH  33  34
ENDBRANCH  27  33
ENDBRANCH   1  24
TORSDOF 4
ENDMDL
MODEL 9
REMARK minimizedAffinity -7.51316357
REMARK CNNscore 0.35014841
REMARK CNNaffinity 5.52265692
REMARK  4 active torsions:
REMARK  status: ('A' for Active; 'I' for Inactive)
REMARK    1  A    between atoms: C2_2  and  C4_4 
REMARK    2  A    between atoms: C4_4  and  C5_5 
REMARK    3  A    between atoms: C5_5  and  O1_6 
REMARK    4  A    between atoms: C8_9  and  C9_10 
ROOT
HETATM    1  C9  UNL     1     -11.832  45.670 -28.452  1.00  0.00     0.001 C 
HETATM    2  C10 UNL     1     -11.430  47.084 -27.952  1.00  0.00     0.007 C 
HETATM    3  C11 UNL     1     -12.431  47.473 -26.848  1.00  0.00     0.011 C 
HETATM    4  C12 UNL     1     -13.152  46.162 -26.475  1.00  0.00    -0.032 C 
HETATM    5  C13 UNL     1     -12.223  45.428 -25.456  1.00  0.00     0.016 C 
HETATM    6  C14 UNL     1     -14.571  46.350 -25.875  1.00  0.00     0.004 C 
HETATM    7  C15 UNL     1     -14.584  46.938 -24.456  1.00  0.00     0.007 C 
HETATM    8  C16 UNL     1     -16.022  47.170 -23.994  1.00  0.00     0.007 C 
HETATM    9  C17 UNL     1     -16.730  45.826 -23.770  1.00  0.00     0.010 C 
HETATM   10  C18 UNL     1     -18.230  45.931 -23.338  1.00  0.00     0.018 C 
HETATM   11  C19 UNL     1     -19.053  46.915 -24.186  1.00  0.00     0.023 C 
HETATM   12  C20 UNL     1     -18.324  46.362 -21.862  1.00  0.00     0.023 C 
HETATM   13  C21 UNL     1     -18.876  44.538 -23.437  1.00  0.00     0.135 C 
HETATM   14  O2  UNL     1     -20.096  44.371 -23.476  1.00  0.00    -0.297 OA
HETATM   15  C22 UNL     1     -17.940  43.356 -23.389  1.00  0.00     0.080 C 
HETATM   16  C23 UNL     1     -16.956  43.413 -24.550  1.00  0.00     0.018 C 
HETATM   17  C24 UNL     1     -16.560  44.839 -24.933  1.00  0.00    -0.026 A 
HETATM   18  C25 UNL     1     -16.873  45.268 -26.346  1.00  0.00     0.021 A 
HETATM   19  C26 UNL     1     -15.419  45.056 -25.966  1.00  0.00    -0.027 A 
HETATM   20  C27 UNL     1     -14.736  43.810 -26.539  1.00  0.00     0.011 C 
HETATM   21  C28 UNL     1     -13.715  44.016 -27.673  1.00  0.00     0.011 C 
HETATM   22  C29 UNL     1     -13.273  45.471 -27.886  1.00  0.00    -0.032 C 
HETATM   23  C30 UNL     1     -14.310  46.145 -28.828  1.00  0.00     0.016 C 
ENDROOT
BRANCH   1  24
HETATM   24  C8  UNL     1     -11.476  45.404 -29.940  1.00  0.00     0.014 C 
HETATM   25  C7  UNL     1     -11.058  46.655 -30.714  1.00  0.00     0.010 C 
HETATM   26  C6  UNL     1     -10.982  46.324 -32.201  1.00  0.00     0.041 C 
HETATM   27  C4  UNL     1     -10.097  45.079 -32.493  1.00  0.00     0.085 C 
HETATM   28  O3  UNL     1      -9.581  44.510 -31.271  1.00  0.00    -0.377 OA
HETATM   29  C31 UNL     1     -10.533  44.231 -30.241  1.00  0.00     0.174 C 
BRANCH  27  30
HETATM   30  C2  UNL     1      -8.850  45.506 -33.351  1.00  0.00     0.014 C 
HETATM   31  C1  UNL     1      -7.505  44.970 -32.837  1.00  0.00     0.012 C 
HETATM   32  C3  UNL     1      -8.719  47.037 -33.465  1.00  0.00     0.012 C 
ENDBRANCH  27  30
BRANCH  27  33
HETATM   33  C5  UNL     1     -10.959  44.010 -33.224  1.00  0.00     0.202 C 
BRANCH  33  34
HETATM   34  O1  UNL     1     -12.184  44.549 -33.716  1.00  0.00    -0.398 OA
HETATM   35  H10 UNL     1     -12.005  45.490 -33.901  1.00  0.00     0.209 HD
ENDBRANCH  33  34
ENDBRANCH  27  33
ENDBRANCH   1  24
TORSDOF 4
ENDMDL
