MODEL 1
REMARK minimizedAffinity -7.31344604
REMARK CNNscore 0.661990404
REMARK CNNaffinity 7.00692511
REMARK  14 active torsions:
REMARK  status: ('A' for Active; 'I' for Inactive)
REMARK    1  A    between atoms: C3_3  and  O1_4 
REMARK    2  A    between atoms: O1_4  and  C4_5 
REMARK    3  A    between atoms: C5_7  and  C6_8 
REMARK    4  A    between atoms: C6_8  and  O3_9 
REMARK    5  A    between atoms: C7_10  and  O4_11 
REMARK    6  A    between atoms: C9_13  and  O5_14 
REMARK    7  A    between atoms: C10_15  and  O6_16 
REMARK    8  A    between atoms: C20_26  and  C21_27 
REMARK    9  A    between atoms: C21_27  and  O8_29 
REMARK   10  A    between atoms: C22_30  and  O9_31 
REMARK   11  A    between atoms: C24_33  and  C25_34 
REMARK   12  A    between atoms: C25_34  and  C27_36 
REMARK   13  A    between atoms: C27_36  and  C28_37 
REMARK   14  A    between atoms: C28_37  and  C29_38 
ROOT
HETATM    1  C1  UNL     1     -10.358  10.160  14.816  1.00  0.00     0.017 C 
HETATM    2  C2  UNL     1     -11.045   9.181  14.198  1.00  0.00    -0.055 C 
HETATM    3  C3  UNL     1     -10.529   7.755  14.044  1.00  0.00     0.153 C 
HETATM    4  C11 UNL     1     -11.547   6.739  14.583  1.00  0.00     0.037 C 
HETATM    5  C12 UNL     1     -12.981   6.975  14.092  1.00  0.00     0.017 C 
HETATM    6  C13 UNL     1     -13.479   8.438  14.296  1.00  0.00    -0.013 C 
HETATM    7  C14 UNL     1     -13.577   8.745  15.817  1.00  0.00     0.021 C 
HETATM    8  C15 UNL     1     -14.900   8.661  13.714  1.00  0.00    -0.067 C 
HETATM    9  C16 UNL     1     -15.233   9.785  13.022  1.00  0.00    -0.054 C 
HETATM   10  C17 UNL     1     -14.220  10.847  12.655  1.00  0.00     0.036 C 
HETATM   11  C18 UNL     1     -12.947  10.807  13.492  1.00  0.00     0.014 C 
HETATM   12  C19 UNL     1     -12.434   9.366  13.589  1.00  0.00     0.029 C 
HETATM   13  C20 UNL     1     -16.671   9.995  12.518  1.00  0.00     0.102 C 
HETATM   14  C22 UNL     1     -17.258  11.429  12.403  1.00  0.00     0.142 C 
HETATM   15  C23 UNL     1     -18.792  11.229  12.446  1.00  0.00     0.039 C 
HETATM   16  C24 UNL     1     -19.065   9.745  12.840  1.00  0.00     0.001 C 
HETATM   17  C33 UNL     1     -17.713   9.318  13.498  1.00  0.00    -0.016 C 
HETATM   18  C34 UNL     1     -17.661   9.861  14.961  1.00  0.00     0.017 C 
HETATM   19  C35 UNL     1     -17.389   7.819  13.545  1.00  0.00     0.015 C 
HETATM   20  C36 UNL     1     -15.934   7.566  14.002  1.00  0.00     0.036 C 
ENDROOT
BRANCH   3  21
HETATM   21  O1  UNL     1      -9.316   7.620  14.787  1.00  0.00    -0.349 OA
BRANCH  21  22
HETATM   22  C4  UNL     1      -8.730   6.310  14.744  1.00  0.00     0.292 C 
HETATM   23  O2  UNL     1      -8.256   6.057  13.422  1.00  0.00    -0.348 OA
HETATM   24  C5  UNL     1      -7.132   5.180  13.300  1.00  0.00     0.179 C 
HETATM   25  C7  UNL     1      -5.904   5.669  14.112  1.00  0.00     0.183 C 
HETATM   26  C9  UNL     1      -6.303   6.720  15.161  1.00  0.00     0.183 C 
HETATM   27  C10 UNL     1      -7.617   6.313  15.822  1.00  0.00     0.204 C 
BRANCH  24  28
HETATM   28  C6  UNL     1      -7.527   3.733  13.640  1.00  0.00     0.198 C 
BRANCH  28  29
HETATM   29  O3  UNL     1      -8.698   3.350  12.933  1.00  0.00    -0.398 OA
HETATM   30  H8  UNL     1      -8.871   2.408  13.155  1.00  0.00     0.209 HD
ENDBRANCH  28  29
ENDBRANCH  24  28
BRANCH  25  31
HETATM   31  O4  UNL     1      -4.909   6.295  13.272  1.00  0.00    -0.385 OA
HETATM   32  C8  UNL     1      -5.136   7.692  13.117  1.00  0.00     0.202 C 
ENDBRANCH  25  31
BRANCH  26  33
HETATM   33  O5  UNL     1      -5.241   6.814  16.119  1.00  0.00    -0.390 OA
HETATM   34  H14 UNL     1      -4.462   7.124  15.622  1.00  0.00     0.210 HD
ENDBRANCH  26  33
BRANCH  27  35
HETATM   35  O6  UNL     1      -7.972   7.183  16.908  1.00  0.00    -0.388 OA
HETATM   36  H16 UNL     1      -8.517   7.890  16.504  1.00  0.00     0.210 HD
ENDBRANCH  27  35
ENDBRANCH  21  22
ENDBRANCH   3  21
BRANCH  13  37
HETATM   37  C21 UNL     1     -16.657   9.343  11.094  1.00  0.00     0.156 C 
HETATM   38  O7  UNL     1     -17.314   9.674  10.115  1.00  0.00    -0.649 OA
BRANCH  37  39
HETATM   39  O8  UNL     1     -15.804   8.307  10.946  1.00  0.00    -0.775 OA
HETATM   40  H29 UNL     1     -15.942   8.031  10.013  1.00  0.00     0.167 HD
ENDBRANCH  37  39
ENDBRANCH  13  37
BRANCH  14  41
HETATM   41  O9  UNL     1     -16.877  12.281  13.492  1.00  0.00    -0.394 OA
HETATM   42  H31 UNL     1     -17.303  13.146  13.351  1.00  0.00     0.210 HD
ENDBRANCH  14  41
BRANCH  16  43
HETATM   43  C25 UNL     1     -20.393   9.584  13.638  1.00  0.00    -0.013 C 
HETATM   44  C26 UNL     1     -20.695  10.799  14.524  1.00  0.00     0.010 C 
BRANCH  43  45
HETATM   45  C27 UNL     1     -20.378   8.320  14.546  1.00  0.00     0.008 C 
BRANCH  45  46
HETATM   46  C28 UNL     1     -21.730   7.594  14.576  1.00  0.00     0.028 C 
BRANCH  46  47
HETATM   47  C29 UNL     1     -21.565   6.147  14.199  1.00  0.00    -0.025 C 
HETATM   48  C30 UNL     1     -21.500   5.615  12.962  1.00  0.00    -0.091 C 
HETATM   49  C31 UNL     1     -21.565   6.396  11.677  1.00  0.00     0.042 C 
HETATM   50  C32 UNL     1     -21.350   4.128  12.771  1.00  0.00     0.042 C 
ENDBRANCH  46  47
ENDBRANCH  45  46
ENDBRANCH  43  45
ENDBRANCH  16  43
TORSDOF 14
ENDMDL
MODEL 2
REMARK minimizedAffinity -7.78185654
REMARK CNNscore 0.457188576
REMARK CNNaffinity 6.8930316
REMARK  14 active torsions:
REMARK  status: ('A' for Active; 'I' for Inactive)
REMARK    1  A    between atoms: C3_3  and  O1_4 
REMARK    2  A    between atoms: O1_4  and  C4_5 
REMARK    3  A    between atoms: C5_7  and  C6_8 
REMARK    4  A    between atoms: C6_8  and  O3_9 
REMARK    5  A    between atoms: C7_10  and  O4_11 
REMARK    6  A    between atoms: C9_13  and  O5_14 
REMARK    7  A    between atoms: C10_15  and  O6_16 
REMARK    8  A    between atoms: C20_26  and  C21_27 
REMARK    9  A    between atoms: C21_27  and  O8_29 
REMARK   10  A    between atoms: C22_30  and  O9_31 
REMARK   11  A    between atoms: C24_33  and  C25_34 
REMARK   12  A    between atoms: C25_34  and  C27_36 
REMARK   13  A    between atoms: C27_36  and  C28_37 
REMARK   14  A    between atoms: C28_37  and  C29_38 
ROOT
HETATM    1  C1  UNL     1     -10.296  10.058  14.799  1.00  0.00     0.017 C 
HETATM    2  C2  UNL     1     -10.975   9.096  14.146  1.00  0.00    -0.055 C 
HETATM    3  C3  UNL     1     -10.440   7.686  13.925  1.00  0.00     0.153 C 
HETATM    4  C11 UNL     1     -11.436   6.632  14.431  1.00  0.00     0.037 C 
HETATM    5  C12 UNL     1     -12.879   6.866  13.966  1.00  0.00     0.017 C 
HETATM    6  C13 UNL     1     -13.397   8.312  14.238  1.00  0.00    -0.013 C 
HETATM    7  C14 UNL     1     -13.482   8.551  15.771  1.00  0.00     0.021 C 
HETATM    8  C15 UNL     1     -14.827   8.537  13.680  1.00  0.00    -0.067 C 
HETATM    9  C16 UNL     1     -15.185   9.684  13.041  1.00  0.00    -0.054 C 
HETATM   10  C17 UNL     1     -14.192  10.777  12.710  1.00  0.00     0.036 C 
HETATM   11  C18 UNL     1     -12.909  10.721  13.531  1.00  0.00     0.014 C 
HETATM   12  C19 UNL     1     -12.373   9.285  13.560  1.00  0.00     0.029 C 
HETATM   13  C20 UNL     1     -16.631   9.893  12.562  1.00  0.00     0.102 C 
HETATM   14  C22 UNL     1     -17.241  11.321  12.514  1.00  0.00     0.142 C 
HETATM   15  C23 UNL     1     -18.772  11.095  12.564  1.00  0.00     0.039 C 
HETATM   16  C24 UNL     1     -19.017   9.592  12.897  1.00  0.00     0.001 C 
HETATM   17  C33 UNL     1     -17.652   9.159  13.522  1.00  0.00    -0.016 C 
HETATM   18  C34 UNL     1     -17.593   9.638  15.006  1.00  0.00     0.017 C 
HETATM   19  C35 UNL     1     -17.304   7.664  13.501  1.00  0.00     0.015 C 
HETATM   20  C36 UNL     1     -15.842   7.414  13.932  1.00  0.00     0.036 C 
ENDROOT
BRANCH   3  21
HETATM   21  O1  UNL     1      -9.216   7.538  14.650  1.00  0.00    -0.349 OA
BRANCH  21  22
HETATM   22  C4  UNL     1      -8.673   6.209  14.642  1.00  0.00     0.292 C 
HETATM   23  O2  UNL     1      -8.197   5.910  13.330  1.00  0.00    -0.348 OA
HETATM   24  C5  UNL     1      -7.102   4.995  13.238  1.00  0.00     0.179 C 
HETATM   25  C7  UNL     1      -5.865   5.463  14.049  1.00  0.00     0.183 C 
HETATM   26  C9  UNL     1      -6.237   6.551  15.070  1.00  0.00     0.183 C 
HETATM   27  C10 UNL     1      -7.569   6.202  15.729  1.00  0.00     0.204 C 
BRANCH  24  28
HETATM   28  C6  UNL     1      -7.546   3.570  13.609  1.00  0.00     0.198 C 
BRANCH  28  29
HETATM   29  O3  UNL     1      -8.738   3.218  12.921  1.00  0.00    -0.398 OA
HETATM   30  H8  UNL     1      -8.944   2.287  13.161  1.00  0.00     0.209 HD
ENDBRANCH  28  29
ENDBRANCH  24  28
BRANCH  25  31
HETATM   31  O4  UNL     1      -4.843   6.037  13.203  1.00  0.00    -0.385 OA
HETATM   32  C8  UNL     1      -3.736   5.161  13.026  1.00  0.00     0.202 C 
ENDBRANCH  25  31
BRANCH  26  33
HETATM   33  O5  UNL     1      -5.180   6.633  16.035  1.00  0.00    -0.390 OA
HETATM   34  H14 UNL     1      -4.388   6.906  15.537  1.00  0.00     0.210 HD
ENDBRANCH  26  33
BRANCH  27  35
HETATM   35  O6  UNL     1      -7.904   7.109  16.792  1.00  0.00    -0.388 OA
HETATM   36  H16 UNL     1      -8.423   7.823  16.366  1.00  0.00     0.210 HD
ENDBRANCH  27  35
ENDBRANCH  21  22
ENDBRANCH   3  21
BRANCH  13  37
HETATM   37  C21 UNL     1     -16.623   9.303  11.111  1.00  0.00     0.156 C 
HETATM   38  O7  UNL     1     -17.285   9.675  10.150  1.00  0.00    -0.649 OA
BRANCH  37  39
HETATM   39  O8  UNL     1     -15.770   8.276  10.914  1.00  0.00    -0.775 OA
HETATM   40  H29 UNL     1     -15.912   8.041   9.971  1.00  0.00     0.167 HD
ENDBRANCH  37  39
ENDBRANCH  13  37
BRANCH  14  41
HETATM   41  O9  UNL     1     -16.862  12.132  13.635  1.00  0.00    -0.394 OA
HETATM   42  H31 UNL     1     -17.302  12.995  13.536  1.00  0.00     0.210 HD
ENDBRANCH  14  41
BRANCH  16  43
HETATM   43  C25 UNL     1     -20.334   9.376  13.701  1.00  0.00    -0.013 C 
HETATM   44  C26 UNL     1     -20.180   8.329  14.811  1.00  0.00     0.010 C 
BRANCH  43  45
HETATM   45  C27 UNL     1     -21.511   8.933  12.784  1.00  0.00     0.008 C 
BRANCH  45  46
HETATM   46  C28 UNL     1     -21.069   7.974  11.671  1.00  0.00     0.028 C 
BRANCH  46  47
HETATM   47  C29 UNL     1     -20.749   8.732  10.412  1.00  0.00    -0.025 C 
HETATM   48  C30 UNL     1     -20.916   8.328   9.136  1.00  0.00    -0.091 C 
HETATM   49  C31 UNL     1     -21.491   7.002   8.714  1.00  0.00     0.042 C 
HETATM   50  C32 UNL     1     -20.521   9.220   7.988  1.00  0.00     0.042 C 
ENDBRANCH  46  47
ENDBRANCH  45  46
ENDBRANCH  43  45
ENDBRANCH  16  43
TORSDOF 14
ENDMDL
MODEL 3
REMARK minimizedAffinity -8.10218048
REMARK CNNscore 0.446920276
REMARK CNNaffinity 6.39019203
REMARK  14 active torsions:
REMARK  status: ('A' for Active; 'I' for Inactive)
REMARK    1  A    between atoms: C3_3  and  O1_4 
REMARK    2  A    between atoms: O1_4  and  C4_5 
REMARK    3  A    between atoms: C5_7  and  C6_8 
REMARK    4  A    between atoms: C6_8  and  O3_9 
REMARK    5  A    between atoms: C7_10  and  O4_11 
REMARK    6  A    between atoms: C9_13  and  O5_14 
REMARK    7  A    between atoms: C10_15  and  O6_16 
REMARK    8  A    between atoms: C20_26  and  C21_27 
REMARK    9  A    between atoms: C21_27  and  O8_29 
REMARK   10  A    between atoms: C22_30  and  O9_31 
REMARK   11  A    between atoms: C24_33  and  C25_34 
REMARK   12  A    between atoms: C25_34  and  C27_36 
REMARK   13  A    between atoms: C27_36  and  C28_37 
REMARK   14  A    between atoms: C28_37  and  C29_38 
ROOT
HETATM    1  C1  UNL     1       0.044   5.398  13.722  1.00  0.00     0.017 C 
HETATM    2  C2  UNL     1       0.122   6.696  13.370  1.00  0.00    -0.055 C 
HETATM    3  C3  UNL     1       0.505   7.170  11.973  1.00  0.00     0.153 C 
HETATM    4  C11 UNL     1      -0.554   8.129  11.406  1.00  0.00     0.037 C 
HETATM    5  C12 UNL     1      -0.977   9.234  12.382  1.00  0.00     0.017 C 
HETATM    6  C13 UNL     1      -1.389   8.703  13.789  1.00  0.00    -0.013 C 
HETATM    7  C14 UNL     1      -2.676   7.840  13.660  1.00  0.00     0.021 C 
HETATM    8  C15 UNL     1      -1.730   9.852  14.774  1.00  0.00    -0.067 C 
HETATM    9  C16 UNL     1      -1.327   9.839  16.073  1.00  0.00    -0.054 C 
HETATM   10  C17 UNL     1      -0.410   8.773  16.631  1.00  0.00     0.036 C 
HETATM   11  C18 UNL     1      -0.356   7.499  15.795  1.00  0.00     0.014 C 
HETATM   12  C19 UNL     1      -0.180   7.857  14.315  1.00  0.00     0.029 C 
HETATM   13  C20 UNL     1      -1.742  10.967  17.032  1.00  0.00     0.102 C 
HETATM   14  C22 UNL     1      -1.946  10.673  18.544  1.00  0.00     0.142 C 
HETATM   15  C23 UNL     1      -2.875  11.807  19.042  1.00  0.00     0.039 C 
HETATM   16  C24 UNL     1      -3.397  12.575  17.789  1.00  0.00     0.001 C 
HETATM   17  C33 UNL     1      -3.163  11.541  16.640  1.00  0.00    -0.016 C 
HETATM   18  C34 UNL     1      -4.310  10.482  16.663  1.00  0.00     0.017 C 
HETATM   19  C35 UNL     1      -3.058  12.084  15.208  1.00  0.00     0.015 C 
HETATM   20  C36 UNL     1      -2.596  10.991  14.219  1.00  0.00     0.036 C 
ENDROOT
BRANCH   3  21
HETATM   21  O1  UNL     1       0.597   6.035  11.108  1.00  0.00    -0.349 OA
BRANCH  21  22
HETATM   22  C4  UNL     1       1.262   6.285   9.861  1.00  0.00     0.292 C 
HETATM   23  O2  UNL     1       1.494   7.688   9.732  1.00  0.00    -0.348 OA
HETATM   24  C5  UNL     1       2.638   8.081   8.967  1.00  0.00     0.179 C 
HETATM   25  C7  UNL     1       3.957   7.475   9.514  1.00  0.00     0.183 C 
HETATM   26  C9  UNL     1       3.685   6.293  10.460  1.00  0.00     0.183 C 
HETATM   27  C10 UNL     1       2.556   5.434   9.899  1.00  0.00     0.204 C 
BRANCH  24  28
HETATM   28  C6  UNL     1       2.427   7.785   7.473  1.00  0.00     0.198 C 
BRANCH  28  29
HETATM   29  O3  UNL     1       1.044   7.805   7.145  1.00  0.00    -0.398 OA
HETATM   30  H8  UNL     1       0.977   7.657   6.176  1.00  0.00     0.209 HD
ENDBRANCH  28  29
ENDBRANCH  24  28
BRANCH  25  31
HETATM   31  O4  UNL     1       4.723   8.434  10.276  1.00  0.00    -0.385 OA
HETATM   32  C8  UNL     1       4.366   8.436  11.654  1.00  0.00     0.202 C 
ENDBRANCH  25  31
BRANCH  26  33
HETATM   33  O5  UNL     1       4.900   5.543  10.590  1.00  0.00    -0.390 OA
HETATM   34  H14 UNL     1       5.544   6.150  10.998  1.00  0.00     0.210 HD
ENDBRANCH  26  33
BRANCH  27  35
HETATM   35  O6  UNL     1       2.348   4.238  10.667  1.00  0.00    -0.388 OA
HETATM   36  H16 UNL     1       1.684   4.480  11.345  1.00  0.00     0.210 HD
ENDBRANCH  27  35
ENDBRANCH  21  22
ENDBRANCH   3  21
BRANCH  13  37
HETATM   37  C21 UNL     1      -0.593  12.020  16.876  1.00  0.00     0.156 C 
HETATM   38  O7  UNL     1      -0.444  13.061  17.504  1.00  0.00    -0.649 OA
BRANCH  37  39
HETATM   39  O8  UNL     1       0.339  11.718  15.948  1.00  0.00    -0.775 OA
HETATM   40  H29 UNL     1       0.955  12.483  15.988  1.00  0.00     0.167 HD
ENDBRANCH  37  39
ENDBRANCH  13  37
BRANCH  14  41
HETATM   41  O9  UNL     1      -2.588   9.415  18.791  1.00  0.00    -0.394 OA
HETATM   42  H31 UNL     1      -2.694   9.322  19.754  1.00  0.00     0.210 HD
ENDBRANCH  14  41
BRANCH  16  43
HETATM   43  C25 UNL     1      -4.822  13.165  18.014  1.00  0.00    -0.013 C 
HETATM   44  C26 UNL     1      -4.963  14.587  17.455  1.00  0.00     0.010 C 
BRANCH  43  45
HETATM   45  C27 UNL     1      -5.205  13.203  19.522  1.00  0.00     0.008 C 
BRANCH  45  46
HETATM   46  C28 UNL     1      -6.243  14.286  19.845  1.00  0.00     0.028 C 
BRANCH  46  47
HETATM   47  C29 UNL     1      -7.549  13.665  20.257  1.00  0.00    -0.025 C 
HETATM   48  C30 UNL     1      -7.902  13.205  21.474  1.00  0.00    -0.091 C 
HETATM   49  C31 UNL     1      -7.031  13.241  22.701  1.00  0.00     0.042 C 
HETATM   50  C32 UNL     1      -9.259  12.592  21.702  1.00  0.00     0.042 C 
ENDBRANCH  46  47
ENDBRANCH  45  46
ENDBRANCH  43  45
ENDBRANCH  16  43
TORSDOF 14
ENDMDL
MODEL 4
REMARK minimizedAffinity -8.51229858
REMARK CNNscore 0.326419175
REMARK CNNaffinity 6.6851716
REMARK  14 active torsions:
REMARK  status: ('A' for Active; 'I' for Inactive)
REMARK    1  A    between atoms: C3_3  and  O1_4 
REMARK    2  A    between atoms: O1_4  and  C4_5 
REMARK    3  A    between atoms: C5_7  and  C6_8 
REMARK    4  A    between atoms: C6_8  and  O3_9 
REMARK    5  A    between atoms: C7_10  and  O4_11 
REMARK    6  A    between atoms: C9_13  and  O5_14 
REMARK    7  A    between atoms: C10_15  and  O6_16 
REMARK    8  A    between atoms: C20_26  and  C21_27 
REMARK    9  A    between atoms: C21_27  and  O8_29 
REMARK   10  A    between atoms: C22_30  and  O9_31 
REMARK   11  A    between atoms: C24_33  and  C25_34 
REMARK   12  A    between atoms: C25_34  and  C27_36 
REMARK   13  A    between atoms: C27_36  and  C28_37 
REMARK   14  A    between atoms: C28_37  and  C29_38 
ROOT
HETATM    1  C1  UNL     1      -2.172   5.903  13.952  1.00  0.00     0.017 C 
HETATM    2  C2  UNL     1      -2.387   7.225  13.815  1.00  0.00    -0.055 C 
HETATM    3  C3  UNL     1      -3.631   7.814  13.162  1.00  0.00     0.153 C 
HETATM    4  C11 UNL     1      -4.315   8.828  14.092  1.00  0.00     0.037 C 
HETATM    5  C12 UNL     1      -3.353   9.849  14.714  1.00  0.00     0.017 C 
HETATM    6  C13 UNL     1      -2.110   9.202  15.397  1.00  0.00    -0.013 C 
HETATM    7  C14 UNL     1      -2.570   8.366  16.624  1.00  0.00     0.021 C 
HETATM    8  C15 UNL     1      -1.119  10.265  15.940  1.00  0.00    -0.067 C 
HETATM    9  C16 UNL     1       0.229  10.136  15.808  1.00  0.00    -0.054 C 
HETATM   10  C17 UNL     1       0.867   9.017  15.015  1.00  0.00     0.036 C 
HETATM   11  C18 UNL     1      -0.048   7.820  14.782  1.00  0.00     0.014 C 
HETATM   12  C19 UNL     1      -1.425   8.303  14.313  1.00  0.00     0.029 C 
HETATM   13  C20 UNL     1       1.178  11.181  16.418  1.00  0.00     0.102 C 
HETATM   14  C22 UNL     1       2.586  10.760  16.921  1.00  0.00     0.142 C 
HETATM   15  C23 UNL     1       2.982  11.855  17.941  1.00  0.00     0.039 C 
HETATM   16  C24 UNL     1       1.720  12.733  18.206  1.00  0.00     0.001 C 
HETATM   17  C33 UNL     1       0.558  11.800  17.736  1.00  0.00    -0.016 C 
HETATM   18  C34 UNL     1       0.256  10.754  18.854  1.00  0.00     0.017 C 
HETATM   19  C35 UNL     1      -0.771  12.463  17.347  1.00  0.00     0.015 C 
HETATM   20  C36 UNL     1      -1.737  11.455  16.685  1.00  0.00     0.036 C 
ENDROOT
BRANCH   3  21
HETATM   21  O1  UNL     1      -4.554   6.758  12.888  1.00  0.00    -0.349 OA
BRANCH  21  22
HETATM   22  C4  UNL     1      -5.437   6.437  13.973  1.00  0.00     0.292 C 
HETATM   23  O2  UNL     1      -6.483   7.407  14.023  1.00  0.00    -0.348 OA
HETATM   24  C5  UNL     1      -7.743   6.966  14.537  1.00  0.00     0.179 C 
HETATM   25  C7  UNL     1      -8.316   5.756  13.753  1.00  0.00     0.183 C 
HETATM   26  C9  UNL     1      -7.232   5.069  12.906  1.00  0.00     0.183 C 
HETATM   27  C10 UNL     1      -5.930   4.993  13.698  1.00  0.00     0.204 C 
BRANCH  24  28
HETATM   28  C6  UNL     1      -7.656   6.702  16.050  1.00  0.00     0.198 C 
BRANCH  28  29
HETATM   29  O3  UNL     1      -8.658   7.429  16.747  1.00  0.00    -0.398 OA
HETATM   30  H8  UNL     1      -8.582   7.184  17.695  1.00  0.00     0.209 HD
ENDBRANCH  28  29
ENDBRANCH  24  28
BRANCH  25  31
HETATM   31  O4  UNL     1      -9.360   6.147  12.834  1.00  0.00    -0.385 OA
HETATM   32  C8  UNL     1     -10.391   6.890  13.474  1.00  0.00     0.202 C 
ENDBRANCH  25  31
BRANCH  26  33
HETATM   33  O5  UNL     1      -7.708   3.763  12.554  1.00  0.00    -0.390 OA
HETATM   34  H14 UNL     1      -8.506   3.909  12.013  1.00  0.00     0.210 HD
ENDBRANCH  26  33
BRANCH  27  35
HETATM   35  O6  UNL     1      -4.918   4.239  13.013  1.00  0.00    -0.388 OA
HETATM   36  H16 UNL     1      -4.429   4.894  12.475  1.00  0.00     0.210 HD
ENDBRANCH  27  35
ENDBRANCH  21  22
ENDBRANCH   3  21
BRANCH  13  37
HETATM   37  C21 UNL     1       1.349  12.232  15.270  1.00  0.00     0.156 C 
HETATM   38  O7  UNL     1       2.281  13.009  15.103  1.00  0.00    -0.649 OA
BRANCH  37  39
HETATM   39  O8  UNL     1       0.351  12.259  14.363  1.00  0.00    -0.775 OA
HETATM   40  H29 UNL     1       0.626  12.970  13.743  1.00  0.00     0.167 HD
ENDBRANCH  37  39
ENDBRANCH  13  37
BRANCH  14  41
HETATM   41  O9  UNL     1       2.588   9.491  17.589  1.00  0.00    -0.394 OA
HETATM   42  H31 UNL     1       3.499   9.316  17.888  1.00  0.00     0.210 HD
ENDBRANCH  14  41
BRANCH  16  43
HETATM   43  C25 UNL     1       1.703  13.315  19.651  1.00  0.00    -0.013 C 
HETATM   44  C26 UNL     1       2.984  14.088  19.987  1.00  0.00     0.010 C 
BRANCH  43  45
HETATM   45  C27 UNL     1       1.519  12.203  20.725  1.00  0.00     0.008 C 
BRANCH  45  46
HETATM   46  C28 UNL     1       2.849  11.577  21.167  1.00  0.00     0.028 C 
BRANCH  46  47
HETATM   47  C29 UNL     1       2.666  10.125  21.510  1.00  0.00    -0.025 C 
HETATM   48  C30 UNL     1       2.717   9.547  22.728  1.00  0.00    -0.091 C 
HETATM   49  C31 UNL     1       2.959  10.274  24.023  1.00  0.00     0.042 C 
HETATM   50  C32 UNL     1       2.526   8.061  22.883  1.00  0.00     0.042 C 
ENDBRANCH  46  47
ENDBRANCH  45  46
ENDBRANCH  43  45
ENDBRANCH  16  43
TORSDOF 14
ENDMDL
MODEL 5
REMARK minimizedAffinity -7.67013979
REMARK CNNscore 0.24220562
REMARK CNNaffinity 6.13188601
REMARK  14 active torsions:
REMARK  status: ('A' for Active; 'I' for Inactive)
REMARK    1  A    between atoms: C3_3  and  O1_4 
REMARK    2  A    between atoms: O1_4  and  C4_5 
REMARK    3  A    between atoms: C5_7  and  C6_8 
REMARK    4  A    between atoms: C6_8  and  O3_9 
REMARK    5  A    between atoms: C7_10  and  O4_11 
REMARK    6  A    between atoms: C9_13  and  O5_14 
REMARK    7  A    between atoms: C10_15  and  O6_16 
REMARK    8  A    between atoms: C20_26  and  C21_27 
REMARK    9  A    between atoms: C21_27  and  O8_29 
REMARK   10  A    between atoms: C22_30  and  O9_31 
REMARK   11  A    between atoms: C24_33  and  C25_34 
REMARK   12  A    between atoms: C25_34  and  C27_36 
REMARK   13  A    between atoms: C27_36  and  C28_37 
REMARK   14  A    between atoms: C28_37  and  C29_38 
ROOT
HETATM    1  C1  UNL     1      13.355  10.653  14.293  1.00  0.00     0.017 C 
HETATM    2  C2  UNL     1      12.237  10.962  14.976  1.00  0.00    -0.055 C 
HETATM    3  C3  UNL     1      12.149  12.106  15.979  1.00  0.00     0.153 C 
HETATM    4  C11 UNL     1      10.986  13.050  15.638  1.00  0.00     0.037 C 
HETATM    5  C12 UNL     1       9.663  12.328  15.348  1.00  0.00     0.017 C 
HETATM    6  C13 UNL     1       9.792  11.186  14.295  1.00  0.00    -0.013 C 
HETATM    7  C14 UNL     1      10.167  11.794  12.914  1.00  0.00     0.021 C 
HETATM    8  C15 UNL     1       8.457  10.424  14.088  1.00  0.00    -0.067 C 
HETATM    9  C16 UNL     1       8.404   9.070  13.966  1.00  0.00    -0.054 C 
HETATM   10  C17 UNL     1       9.619   8.187  14.146  1.00  0.00     0.036 C 
HETATM   11  C18 UNL     1      10.948   8.922  14.008  1.00  0.00     0.014 C 
HETATM   12  C19 UNL     1      10.909  10.221  14.821  1.00  0.00     0.029 C 
HETATM   13  C20 UNL     1       7.066   8.360  13.696  1.00  0.00     0.102 C 
HETATM   14  C22 UNL     1       7.031   7.043  12.874  1.00  0.00     0.142 C 
HETATM   15  C23 UNL     1       5.583   6.959  12.332  1.00  0.00     0.039 C 
HETATM   16  C24 UNL     1       4.889   8.325  12.622  1.00  0.00     0.001 C 
HETATM   17  C33 UNL     1       6.106   9.281  12.839  1.00  0.00    -0.016 C 
HETATM   18  C34 UNL     1       6.688   9.693  11.450  1.00  0.00     0.017 C 
HETATM   19  C35 UNL     1       5.865  10.566  13.643  1.00  0.00     0.015 C 
HETATM   20  C36 UNL     1       7.192  11.285  13.976  1.00  0.00     0.036 C 
ENDROOT
BRANCH   3  21
HETATM   21  O1  UNL     1      13.366  12.853  15.935  1.00  0.00    -0.349 OA
BRANCH  21  22
HETATM   22  C4  UNL     1      13.983  13.067  17.213  1.00  0.00     0.292 C 
HETATM   23  O2  UNL     1      15.015  12.098  17.399  1.00  0.00    -0.348 OA
HETATM   24  C5  UNL     1      16.122  12.488  18.217  1.00  0.00     0.179 C 
HETATM   25  C7  UNL     1      16.824  13.770  17.697  1.00  0.00     0.183 C 
HETATM   26  C9  UNL     1      15.936  14.536  16.702  1.00  0.00     0.183 C 
HETATM   27  C10 UNL     1      14.492  14.531  17.193  1.00  0.00     0.204 C 
BRANCH  24  28
HETATM   28  C6  UNL     1      15.701  12.602  19.692  1.00  0.00     0.198 C 
BRANCH  28  29
HETATM   29  O3  UNL     1      16.563  11.838  20.523  1.00  0.00    -0.398 OA
HETATM   30  H8  UNL     1      16.274  11.988  21.450  1.00  0.00     0.209 HD
ENDBRANCH  28  29
ENDBRANCH  24  28
BRANCH  25  31
HETATM   31  O4  UNL     1      18.053  13.473  16.997  1.00  0.00    -0.385 OA
HETATM   32  C8  UNL     1      19.188  14.049  17.633  1.00  0.00     0.202 C 
ENDBRANCH  25  31
BRANCH  26  33
HETATM   33  O5  UNL     1      16.448  15.870  16.590  1.00  0.00    -0.390 OA
HETATM   34  H14 UNL     1      17.348  15.780  16.226  1.00  0.00     0.210 HD
ENDBRANCH  26  33
BRANCH  27  35
HETATM   35  O6  UNL     1      13.637  15.348  16.378  1.00  0.00    -0.388 OA
HETATM   36  H16 UNL     1      13.292  14.748  15.685  1.00  0.00     0.210 HD
ENDBRANCH  27  35
ENDBRANCH  21  22
ENDBRANCH   3  21
BRANCH  13  37
HETATM   37  C21 UNL     1       6.513   8.070  15.133  1.00  0.00     0.156 C 
HETATM   38  O7  UNL     1       6.683   8.736  16.147  1.00  0.00    -0.649 OA
BRANCH  37  39
HETATM   39  O8  UNL     1       5.749   6.963  15.241  1.00  0.00    -0.775 OA
HETATM   40  H29 UNL     1       5.510   6.944  16.193  1.00  0.00     0.167 HD
ENDBRANCH  37  39
ENDBRANCH  13  37
BRANCH  14  41
HETATM   41  O9  UNL     1       7.935   7.051  11.761  1.00  0.00    -0.394 OA
HETATM   42  H31 UNL     1       7.833   6.204  11.292  1.00  0.00     0.210 HD
ENDBRANCH  14  41
BRANCH  16  43
HETATM   43  C25 UNL     1       3.816   8.678  11.548  1.00  0.00    -0.013 C 
HETATM   44  C26 UNL     1       2.385   8.544  12.083  1.00  0.00     0.010 C 
BRANCH  43  45
HETATM   45  C27 UNL     1       3.941   7.779  10.283  1.00  0.00     0.008 C 
BRANCH  45  46
HETATM   46  C28 UNL     1       2.806   6.754  10.167  1.00  0.00     0.028 C 
BRANCH  46  47
HETATM   47  C29 UNL     1       1.514   7.430   9.799  1.00  0.00    -0.025 C 
HETATM   48  C30 UNL     1       1.077   7.770   8.569  1.00  0.00    -0.091 C 
HETATM   49  C31 UNL     1       1.817   7.513   7.284  1.00  0.00     0.042 C 
HETATM   50  C32 UNL     1      -0.248   8.463   8.388  1.00  0.00     0.042 C 
ENDBRANCH  46  47
ENDBRANCH  45  46
ENDBRANCH  43  45
ENDBRANCH  16  43
TORSDOF 14
ENDMDL
MODEL 6
REMARK minimizedAffinity -7.17575407
REMARK CNNscore 0.230054036
REMARK CNNaffinity 6.1915803
REMARK  14 active torsions:
REMARK  status: ('A' for Active; 'I' for Inactive)
REMARK    1  A    between atoms: C3_3  and  O1_4 
REMARK    2  A    between atoms: O1_4  and  C4_5 
REMARK    3  A    between atoms: C5_7  and  C6_8 
REMARK    4  A    between atoms: C6_8  and  O3_9 
REMARK    5  A    between atoms: C7_10  and  O4_11 
REMARK    6  A    between atoms: C9_13  and  O5_14 
REMARK    7  A    between atoms: C10_15  and  O6_16 
REMARK    8  A    between atoms: C20_26  and  C21_27 
REMARK    9  A    between atoms: C21_27  and  O8_29 
REMARK   10  A    between atoms: C22_30  and  O9_31 
REMARK   11  A    between atoms: C24_33  and  C25_34 
REMARK   12  A    between atoms: C25_34  and  C27_36 
REMARK   13  A    between atoms: C27_36  and  C28_37 
REMARK   14  A    between atoms: C28_37  and  C29_38 
ROOT
HETATM    1  C1  UNL     1      -2.213  14.556  17.267  1.00  0.00     0.017 C 
HETATM    2  C2  UNL     1      -2.139  13.331  17.822  1.00  0.00    -0.055 C 
HETATM    3  C3  UNL     1      -3.003  12.883  18.995  1.00  0.00     0.153 C 
HETATM    4  C11 UNL     1      -3.744  11.578  18.667  1.00  0.00     0.037 C 
HETATM    5  C12 UNL     1      -2.850  10.491  18.057  1.00  0.00     0.017 C 
HETATM    6  C13 UNL     1      -2.006  10.984  16.842  1.00  0.00    -0.013 C 
HETATM    7  C14 UNL     1      -2.956  11.353  15.668  1.00  0.00     0.021 C 
HETATM    8  C15 UNL     1      -1.053   9.884  16.304  1.00  0.00    -0.067 C 
HETATM    9  C16 UNL     1       0.227  10.152  15.928  1.00  0.00    -0.054 C 
HETATM   10  C17 UNL     1       0.865  11.511  16.120  1.00  0.00     0.036 C 
HETATM   11  C18 UNL     1      -0.134  12.645  16.317  1.00  0.00     0.014 C 
HETATM   12  C19 UNL     1      -1.197  12.230  17.340  1.00  0.00     0.029 C 
HETATM   13  C20 UNL     1       1.117   9.046  15.338  1.00  0.00     0.102 C 
HETATM   14  C22 UNL     1       2.210   9.395  14.291  1.00  0.00     0.142 C 
HETATM   15  C23 UNL     1       2.467   8.068  13.536  1.00  0.00     0.039 C 
HETATM   16  C24 UNL     1       1.361   7.057  13.967  1.00  0.00     0.001 C 
HETATM   17  C33 UNL     1       0.248   7.997  14.533  1.00  0.00    -0.016 C 
HETATM   18  C34 UNL     1      -0.557   8.611  13.345  1.00  0.00     0.017 C 
HETATM   19  C35 UNL     1      -0.762   7.389  15.516  1.00  0.00     0.015 C 
HETATM   20  C36 UNL     1      -1.646   8.476  16.167  1.00  0.00     0.036 C 
ENDROOT
BRANCH   3  21
HETATM   21  O1  UNL     1      -3.972  13.897  19.270  1.00  0.00    -0.349 OA
BRANCH  21  22
HETATM   22  C4  UNL     1      -5.060  13.475  20.106  1.00  0.00     0.292 C 
HETATM   23  O2  UNL     1      -4.906  14.060  21.399  1.00  0.00    -0.348 OA
HETATM   24  C5  UNL     1      -6.106  14.317  22.134  1.00  0.00     0.179 C 
HETATM   25  C7  UNL     1      -7.093  15.232  21.362  1.00  0.00     0.183 C 
HETATM   26  C9  UNL     1      -6.748  15.299  19.865  1.00  0.00     0.183 C 
HETATM   27  C10 UNL     1      -6.350  13.913  19.366  1.00  0.00     0.204 C 
BRANCH  24  28
HETATM   28  C6  UNL     1      -6.757  13.003  22.596  1.00  0.00     0.198 C 
BRANCH  28  29
HETATM   29  O3  UNL     1      -8.147  12.997  22.301  1.00  0.00    -0.398 OA
HETATM   30  H8  UNL     1      -8.495  12.120  22.575  1.00  0.00     0.209 HD
ENDBRANCH  28  29
ENDBRANCH  24  28
BRANCH  25  31
HETATM   31  O4  UNL     1      -7.066  16.594  21.845  1.00  0.00    -0.385 OA
HETATM   32  C8  UNL     1      -8.053  16.832  22.842  1.00  0.00     0.202 C 
ENDBRANCH  25  31
BRANCH  26  33
HETATM   33  O5  UNL     1      -7.897  15.798  19.168  1.00  0.00    -0.390 OA
HETATM   34  H14 UNL     1      -8.046  16.697  19.513  1.00  0.00     0.210 HD
ENDBRANCH  26  33
BRANCH  27  35
HETATM   35  O6  UNL     1      -6.149  13.883  17.945  1.00  0.00    -0.388 OA
HETATM   36  H16 UNL     1      -5.199  14.086  17.815  1.00  0.00     0.210 HD
ENDBRANCH  27  35
ENDBRANCH  21  22
ENDBRANCH   3  21
BRANCH  13  37
HETATM   37  C21 UNL     1       1.810   8.426  16.599  1.00  0.00     0.156 C 
HETATM   38  O7  UNL     1       2.021   7.241  16.827  1.00  0.00    -0.649 OA
BRANCH  37  39
HETATM   39  O8  UNL     1       2.229   9.318  17.520  1.00  0.00    -0.775 OA
HETATM   40  H29 UNL     1       2.619   8.753  18.223  1.00  0.00     0.167 HD
ENDBRANCH  37  39
ENDBRANCH  13  37
BRANCH  14  41
HETATM   41  O9  UNL     1       1.785  10.385  13.344  1.00  0.00    -0.394 OA
HETATM   42  H31 UNL     1       2.517  10.527  12.718  1.00  0.00     0.210 HD
ENDBRANCH  14  41
BRANCH  16  43
HETATM   43  C25 UNL     1       1.012   6.050  12.830  1.00  0.00    -0.013 C 
HETATM   44  C26 UNL     1       0.747   6.747  11.490  1.00  0.00     0.010 C 
BRANCH  43  45
HETATM   45  C27 UNL     1      -0.238   5.189  13.177  1.00  0.00     0.008 C 
BRANCH  45  46
HETATM   46  C28 UNL     1      -1.340   5.284  12.114  1.00  0.00     0.028 C 
BRANCH  46  47
HETATM   47  C29 UNL     1      -2.662   5.619  12.747  1.00  0.00    -0.025 C 
HETATM   48  C30 UNL     1      -3.774   4.858  12.798  1.00  0.00    -0.091 C 
HETATM   49  C31 UNL     1      -3.903   3.471  12.226  1.00  0.00     0.042 C 
HETATM   50  C32 UNL     1      -5.026   5.367  13.464  1.00  0.00     0.042 C 
ENDBRANCH  46  47
ENDBRANCH  45  46
ENDBRANCH  43  45
ENDBRANCH  16  43
TORSDOF 14
ENDMDL
MODEL 7
REMARK minimizedAffinity -7.70555639
REMARK CNNscore 0.222741231
REMARK CNNaffinity 6.06130075
REMARK  14 active torsions:
REMARK  status: ('A' for Active; 'I' for Inactive)
REMARK    1  A    between atoms: C3_3  and  O1_4 
REMARK    2  A    between atoms: O1_4  and  C4_5 
REMARK    3  A    between atoms: C5_7  and  C6_8 
REMARK    4  A    between atoms: C6_8  and  O3_9 
REMARK    5  A    between atoms: C7_10  and  O4_11 
REMARK    6  A    between atoms: C9_13  and  O5_14 
REMARK    7  A    between atoms: C10_15  and  O6_16 
REMARK    8  A    between atoms: C20_26  and  C21_27 
REMARK    9  A    between atoms: C21_27  and  O8_29 
REMARK   10  A    between atoms: C22_30  and  O9_31 
REMARK   11  A    between atoms: C24_33  and  C25_34 
REMARK   12  A    between atoms: C25_34  and  C27_36 
REMARK   13  A    between atoms: C27_36  and  C28_37 
REMARK   14  A    between atoms: C28_37  and  C29_38 
ROOT
HETATM    1  C1  UNL     1      -1.641  13.966  16.953  1.00  0.00     0.017 C 
HETATM    2  C2  UNL     1      -1.541  12.735  17.491  1.00  0.00    -0.055 C 
HETATM    3  C3  UNL     1      -2.274  12.305  18.756  1.00  0.00     0.153 C 
HETATM    4  C11 UNL     1      -3.091  11.028  18.514  1.00  0.00     0.037 C 
HETATM    5  C12 UNL     1      -2.312   9.918  17.798  1.00  0.00     0.017 C 
HETATM    6  C13 UNL     1      -1.602  10.393  16.493  1.00  0.00    -0.013 C 
HETATM    7  C14 UNL     1      -2.673  10.801  15.441  1.00  0.00     0.021 C 
HETATM    8  C15 UNL     1      -0.757   9.267  15.841  1.00  0.00    -0.067 C 
HETATM    9  C16 UNL     1       0.478   9.497  15.316  1.00  0.00    -0.054 C 
HETATM   10  C17 UNL     1       1.178  10.833  15.436  1.00  0.00     0.036 C 
HETATM   11  C18 UNL     1       0.247  11.997  15.755  1.00  0.00     0.014 C 
HETATM   12  C19 UNL     1      -0.700  11.608  16.896  1.00  0.00     0.029 C 
HETATM   13  C20 UNL     1       1.255   8.367  14.621  1.00  0.00     0.102 C 
HETATM   14  C22 UNL     1       2.226   8.690  13.452  1.00  0.00     0.142 C 
HETATM   15  C23 UNL     1       2.348   7.361  12.667  1.00  0.00     0.039 C 
HETATM   16  C24 UNL     1       1.269   6.382  13.222  1.00  0.00     0.001 C 
HETATM   17  C33 UNL     1       0.263   7.353  13.921  1.00  0.00    -0.016 C 
HETATM   18  C34 UNL     1      -0.658   8.002  12.839  1.00  0.00     0.017 C 
HETATM   19  C35 UNL     1      -0.643   6.770  15.014  1.00  0.00     0.015 C 
HETATM   20  C36 UNL     1      -1.407   7.880  15.771  1.00  0.00     0.036 C 
ENDROOT
BRANCH   3  21
HETATM   21  O1  UNL     1      -3.170  13.348  19.148  1.00  0.00    -0.349 OA
BRANCH  21  22
HETATM   22  C4  UNL     1      -3.885  13.962  18.065  1.00  0.00     0.292 C 
HETATM   23  O2  UNL     1      -4.952  13.102  17.667  1.00  0.00    -0.348 OA
HETATM   24  C5  UNL     1      -6.112  13.732  17.117  1.00  0.00     0.179 C 
HETATM   25  C7  UNL     1      -6.737  14.775  18.081  1.00  0.00     0.183 C 
HETATM   26  C9  UNL     1      -5.751  15.181  19.189  1.00  0.00     0.183 C 
HETATM   27  C10 UNL     1      -4.352  15.340  18.600  1.00  0.00     0.204 C 
BRANCH  24  28
HETATM   28  C6  UNL     1      -5.812  14.318  15.727  1.00  0.00     0.198 C 
BRANCH  28  29
HETATM   29  O3  UNL     1      -5.030  13.415  14.958  1.00  0.00    -0.398 OA
HETATM   30  H8  UNL     1      -4.912  13.821  14.071  1.00  0.00     0.209 HD
ENDBRANCH  28  29
ENDBRANCH  24  28
BRANCH  25  31
HETATM   31  O4  UNL     1      -7.911  14.265  18.751  1.00  0.00    -0.385 OA
HETATM   32  C8  UNL     1      -9.099  14.484  17.999  1.00  0.00     0.202 C 
ENDBRANCH  25  31
BRANCH  26  33
HETATM   33  O5  UNL     1      -6.218  16.407  19.769  1.00  0.00    -0.390 OA
HETATM   34  H14 UNL     1      -7.087  16.201  20.160  1.00  0.00     0.210 HD
ENDBRANCH  26  33
BRANCH  27  35
HETATM   35  O6  UNL     1      -3.413  15.852  19.558  1.00  0.00    -0.388 OA
HETATM   36  H16 UNL     1      -3.027  15.060  19.988  1.00  0.00     0.210 HD
ENDBRANCH  27  35
ENDBRANCH  21  22
ENDBRANCH   3  21
BRANCH  13  37
HETATM   37  C21 UNL     1       2.072   7.716  15.788  1.00  0.00     0.156 C 
HETATM   38  O7  UNL     1       3.259   7.876  16.047  1.00  0.00    -0.649 OA
BRANCH  37  39
HETATM   39  O8  UNL     1       1.366   6.900  16.598  1.00  0.00    -0.775 OA
HETATM   40  H29 UNL     1       2.035   6.588  17.245  1.00  0.00     0.167 HD
ENDBRANCH  37  39
ENDBRANCH  13  37
BRANCH  14  41
HETATM   41  O9  UNL     1       1.724   9.700  12.567  1.00  0.00    -0.394 OA
HETATM   42  H31 UNL     1       2.381   9.823  11.858  1.00  0.00     0.210 HD
ENDBRANCH  14  41
BRANCH  16  43
HETATM   43  C25 UNL     1       0.755   5.396  12.131  1.00  0.00    -0.013 C 
HETATM   44  C26 UNL     1       0.329   6.114  10.845  1.00  0.00     0.010 C 
BRANCH  43  45
HETATM   45  C27 UNL     1      -0.454   4.552  12.632  1.00  0.00     0.008 C 
BRANCH  45  46
HETATM   46  C28 UNL     1      -1.657   4.614  11.681  1.00  0.00     0.028 C 
BRANCH  46  47
HETATM   47  C29 UNL     1      -2.933   4.817  12.450  1.00  0.00    -0.025 C 
HETATM   48  C30 UNL     1      -4.148   4.288  12.195  1.00  0.00    -0.091 C 
HETATM   49  C31 UNL     1      -4.465   3.349  11.063  1.00  0.00     0.042 C 
HETATM   50  C32 UNL     1      -5.329   4.617  13.070  1.00  0.00     0.042 C 
ENDBRANCH  46  47
ENDBRANCH  45  46
ENDBRANCH  43  45
ENDBRANCH  16  43
TORSDOF 14
ENDMDL
MODEL 8
REMARK minimizedAffinity -9.17802811
REMARK CNNscore 0.217402264
REMARK CNNaffinity 6.46876955
REMARK  14 active torsions:
REMARK  status: ('A' for Active; 'I' for Inactive)
REMARK    1  A    between atoms: C3_3  and  O1_4 
REMARK    2  A    between atoms: O1_4  and  C4_5 
REMARK    3  A    between atoms: C5_7  and  C6_8 
REMARK    4  A    between atoms: C6_8  and  O3_9 
REMARK    5  A    between atoms: C7_10  and  O4_11 
REMARK    6  A    between atoms: C9_13  and  O5_14 
REMARK    7  A    between atoms: C10_15  and  O6_16 
REMARK    8  A    between atoms: C20_26  and  C21_27 
REMARK    9  A    between atoms: C21_27  and  O8_29 
REMARK   10  A    between atoms: C22_30  and  O9_31 
REMARK   11  A    between atoms: C24_33  and  C25_34 
REMARK   12  A    between atoms: C25_34  and  C27_36 
REMARK   13  A    between atoms: C27_36  and  C28_37 
REMARK   14  A    between atoms: C28_37  and  C29_38 
ROOT
HETATM    1  C1  UNL     1      -4.441   8.604  13.511  1.00  0.00     0.017 C 
HETATM    2  C2  UNL     1      -3.553   7.670  13.902  1.00  0.00    -0.055 C 
HETATM    3  C3  UNL     1      -3.872   6.182  13.981  1.00  0.00     0.153 C 
HETATM    4  C11 UNL     1      -2.856   5.356  13.179  1.00  0.00     0.037 C 
HETATM    5  C12 UNL     1      -1.394   5.729  13.456  1.00  0.00     0.017 C 
HETATM    6  C13 UNL     1      -1.104   7.256  13.334  1.00  0.00    -0.013 C 
HETATM    7  C14 UNL     1      -1.305   7.705  11.859  1.00  0.00     0.021 C 
HETATM    8  C15 UNL     1       0.361   7.606  13.701  1.00  0.00    -0.067 C 
HETATM    9  C16 UNL     1       0.682   8.698  14.449  1.00  0.00    -0.054 C 
HETATM   10  C17 UNL     1      -0.364   9.585  15.086  1.00  0.00     0.036 C 
HETATM   11  C18 UNL     1      -1.751   9.457  14.465  1.00  0.00     0.014 C 
HETATM   12  C19 UNL     1      -2.109   7.976  14.297  1.00  0.00     0.029 C 
HETATM   13  C20 UNL     1       2.153   9.045  14.735  1.00  0.00     0.102 C 
HETATM   14  C22 UNL     1       2.588  10.526  14.910  1.00  0.00     0.142 C 
HETATM   15  C23 UNL     1       4.104  10.528  14.599  1.00  0.00     0.039 C 
HETATM   16  C24 UNL     1       4.468   9.131  14.008  1.00  0.00     0.001 C 
HETATM   17  C33 UNL     1       3.079   8.596  13.533  1.00  0.00    -0.016 C 
HETATM   18  C34 UNL     1       2.716   9.254  12.165  1.00  0.00     0.017 C 
HETATM   19  C35 UNL     1       2.920   7.077  13.376  1.00  0.00     0.015 C 
HETATM   20  C36 UNL     1       1.446   6.682  13.134  1.00  0.00     0.036 C 
ENDROOT
BRANCH   3  21
HETATM   21  O1  UNL     1      -5.173   5.959  13.431  1.00  0.00    -0.349 OA
BRANCH  21  22
HETATM   22  C4  UNL     1      -6.221   5.838  14.405  1.00  0.00     0.292 C 
HETATM   23  O2  UNL     1      -6.985   7.044  14.417  1.00  0.00    -0.348 OA
HETATM   24  C5  UNL     1      -8.364   6.926  14.778  1.00  0.00     0.179 C 
HETATM   25  C7  UNL     1      -9.137   5.936  13.867  1.00  0.00     0.183 C 
HETATM   26  C9  UNL     1      -8.178   5.023  13.085  1.00  0.00     0.183 C 
HETATM   27  C10 UNL     1      -7.032   4.583  13.991  1.00  0.00     0.204 C 
BRANCH  24  28
HETATM   28  C6  UNL     1      -8.513   6.592  16.272  1.00  0.00     0.198 C 
BRANCH  28  29
HETATM   29  O3  UNL     1      -7.440   7.144  17.022  1.00  0.00    -0.398 OA
HETATM   30  H8  UNL     1      -7.614   6.939  17.967  1.00  0.00     0.209 HD
ENDBRANCH  28  29
ENDBRANCH  24  28
BRANCH  25  31
HETATM   31  O4  UNL     1      -9.941   6.619  12.879  1.00  0.00    -0.385 OA
HETATM   32  C8  UNL     1     -11.172   7.087  13.417  1.00  0.00     0.202 C 
ENDBRANCH  25  31
BRANCH  26  33
HETATM   33  O5  UNL     1      -8.929   3.900  12.606  1.00  0.00    -0.390 OA
HETATM   34  H14 UNL     1      -9.600   4.268  12.002  1.00  0.00     0.210 HD
ENDBRANCH  26  33
BRANCH  27  35
HETATM   35  O6  UNL     1      -6.177   3.618  13.359  1.00  0.00    -0.388 OA
HETATM   36  H16 UNL     1      -5.481   4.144  12.913  1.00  0.00     0.210 HD
ENDBRANCH  27  35
ENDBRANCH  21  22
ENDBRANCH   3  21
BRANCH  13  37
HETATM   37  C21 UNL     1       2.457   8.273  16.063  1.00  0.00     0.156 C 
HETATM   38  O7  UNL     1       2.332   8.684  17.211  1.00  0.00    -0.649 OA
BRANCH  37  39
HETATM   39  O8  UNL     1       2.891   7.005  15.904  1.00  0.00    -0.775 OA
HETATM   40  H29 UNL     1       3.033   6.696  16.825  1.00  0.00     0.167 HD
ENDBRANCH  37  39
ENDBRANCH  13  37
BRANCH  14  41
HETATM   41  O9  UNL     1       1.933  11.415  13.995  1.00  0.00    -0.394 OA
HETATM   42  H31 UNL     1       2.277  12.312  14.158  1.00  0.00     0.210 HD
ENDBRANCH  14  41
BRANCH  16  43
HETATM   43  C25 UNL     1       5.649   9.213  12.995  1.00  0.00    -0.013 C 
HETATM   44  C26 UNL     1       5.312  10.073  11.770  1.00  0.00     0.010 C 
BRANCH  43  45
HETATM   45  C27 UNL     1       6.080   7.806  12.488  1.00  0.00     0.008 C 
BRANCH  45  46
HETATM   46  C28 UNL     1       5.906   7.641  10.972  1.00  0.00     0.028 C 
BRANCH  46  47
HETATM   47  C29 UNL     1       4.952   6.519  10.665  1.00  0.00    -0.025 C 
HETATM   48  C30 UNL     1       3.871   6.546   9.860  1.00  0.00    -0.091 C 
HETATM   49  C31 UNL     1       3.405   7.742   9.074  1.00  0.00     0.042 C 
HETATM   50  C32 UNL     1       3.012   5.321   9.683  1.00  0.00     0.042 C 
ENDBRANCH  46  47
ENDBRANCH  45  46
ENDBRANCH  43  45
ENDBRANCH  16  43
TORSDOF 14
ENDMDL
MODEL 9
REMARK minimizedAffinity -8.70877171
REMARK CNNscore 0.197514266
REMARK CNNaffinity 5.89570618
REMARK  14 active torsions:
REMARK  status: ('A' for Active; 'I' for Inactive)
REMARK    1  A    between atoms: C3_3  and  O1_4 
REMARK    2  A    between atoms: O1_4  and  C4_5 
REMARK    3  A    between atoms: C5_7  and  C6_8 
REMARK    4  A    between atoms: C6_8  and  O3_9 
REMARK    5  A    between atoms: C7_10  and  O4_11 
REMARK    6  A    between atoms: C9_13  and  O5_14 
REMARK    7  A    between atoms: C10_15  and  O6_16 
REMARK    8  A    between atoms: C20_26  and  C21_27 
REMARK    9  A    between atoms: C21_27  and  O8_29 
REMARK   10  A    between atoms: C22_30  and  O9_31 
REMARK   11  A    between atoms: C24_33  and  C25_34 
REMARK   12  A    between atoms: C25_34  and  C27_36 
REMARK   13  A    between atoms: C27_36  and  C28_37 
REMARK   14  A    between atoms: C28_37  and  C29_38 
ROOT
HETATM    1  C1  UNL     1       1.715   8.157  14.516  1.00  0.00     0.017 C 
HETATM    2  C2  UNL     1       0.703   8.864  13.981  1.00  0.00    -0.055 C 
HETATM    3  C3  UNL     1       0.089   8.561  12.619  1.00  0.00     0.153 C 
HETATM    4  C11 UNL     1      -1.434   8.386  12.727  1.00  0.00     0.037 C 
HETATM    5  C12 UNL     1      -2.131   9.491  13.530  1.00  0.00     0.017 C 
HETATM    6  C13 UNL     1      -1.491   9.748  14.928  1.00  0.00    -0.013 C 
HETATM    7  C14 UNL     1      -1.682   8.492  15.824  1.00  0.00     0.021 C 
HETATM    8  C15 UNL     1      -2.168  10.926  15.677  1.00  0.00    -0.067 C 
HETATM    9  C16 UNL     1      -1.453  11.852  16.373  1.00  0.00    -0.054 C 
HETATM   10  C17 UNL     1       0.060  11.883  16.371  1.00  0.00     0.036 C 
HETATM   11  C18 UNL     1       0.709  10.572  15.941  1.00  0.00     0.014 C 
HETATM   12  C19 UNL     1       0.026  10.046  14.673  1.00  0.00     0.029 C 
HETATM   13  C20 UNL     1      -2.168  12.966  17.155  1.00  0.00     0.102 C 
HETATM   14  C22 UNL     1      -1.536  13.540  18.453  1.00  0.00     0.142 C 
HETATM   15  C23 UNL     1      -2.727  14.153  19.230  1.00  0.00     0.039 C 
HETATM   16  C24 UNL     1      -4.039  13.707  18.514  1.00  0.00     0.001 C 
HETATM   17  C33 UNL     1      -3.567  12.462  17.695  1.00  0.00    -0.016 C 
HETATM   18  C34 UNL     1      -3.480  11.226  18.645  1.00  0.00     0.017 C 
HETATM   19  C35 UNL     1      -4.408  12.055  16.477  1.00  0.00     0.015 C 
HETATM   20  C36 UNL     1      -3.701  10.969  15.636  1.00  0.00     0.036 C 
ENDROOT
BRANCH   3  21
HETATM   21  O1  UNL     1       0.650   7.345  12.119  1.00  0.00    -0.349 OA
BRANCH  21  22
HETATM   22  C4  UNL     1       1.044   7.391  10.740  1.00  0.00     0.292 C 
HETATM   23  O2  UNL     1       2.265   8.123  10.629  1.00  0.00    -0.348 OA
HETATM   24  C5  UNL     1       3.134   7.761   9.553  1.00  0.00     0.179 C 
HETATM   25  C7  UNL     1       3.533   6.262   9.586  1.00  0.00     0.183 C 
HETATM   26  C9  UNL     1       2.593   5.448  10.491  1.00  0.00     0.183 C 
HETATM   27  C10 UNL     1       1.154   5.912  10.287  1.00  0.00     0.204 C 
BRANCH  24  28
HETATM   28  C6  UNL     1       2.537   8.184   8.200  1.00  0.00     0.198 C 
BRANCH  28  29
HETATM   29  O3  UNL     1       3.310   9.219   7.608  1.00  0.00    -0.398 OA
HETATM   30  H8  UNL     1       2.908   9.411   6.732  1.00  0.00     0.209 HD
ENDBRANCH  28  29
ENDBRANCH  24  28
BRANCH  25  31
HETATM   31  O4  UNL     1       4.866   6.064  10.106  1.00  0.00    -0.385 OA
HETATM   32  C8  UNL     1       5.115   6.850  11.266  1.00  0.00     0.202 C 
ENDBRANCH  25  31
BRANCH  26  33
HETATM   33  O5  UNL     1       2.749   4.063  10.158  1.00  0.00    -0.390 OA
HETATM   34  H14 UNL     1       3.677   3.844  10.364  1.00  0.00     0.210 HD
ENDBRANCH  26  33
BRANCH  27  35
HETATM   35  O6  UNL     1       0.212   5.097  11.003  1.00  0.00    -0.388 OA
HETATM   36  H16 UNL     1       0.114   5.525  11.878  1.00  0.00     0.210 HD
ENDBRANCH  27  35
ENDBRANCH  21  22
ENDBRANCH   3  21
BRANCH  13  37
HETATM   37  C21 UNL     1      -2.297  14.122  16.106  1.00  0.00     0.156 C 
HETATM   38  O7  UNL     1      -3.140  14.238  15.225  1.00  0.00    -0.649 OA
BRANCH  37  39
HETATM   39  O8  UNL     1      -1.373  15.099  16.213  1.00  0.00    -0.775 OA
HETATM   40  H29 UNL     1      -1.606  15.713  15.481  1.00  0.00     0.167 HD
ENDBRANCH  37  39
ENDBRANCH  13  37
BRANCH  14  41
HETATM   41  O9  UNL     1      -0.925  12.534  19.273  1.00  0.00    -0.394 OA
HETATM   42  H31 UNL     1      -0.577  12.975  20.069  1.00  0.00     0.210 HD
ENDBRANCH  14  41
BRANCH  16  43
HETATM   43  C25 UNL     1      -5.230  13.567  19.508  1.00  0.00    -0.013 C 
HETATM   44  C26 UNL     1      -6.588  13.791  18.832  1.00  0.00     0.010 C 
BRANCH  43  45
HETATM   45  C27 UNL     1      -5.117  14.565  20.698  1.00  0.00     0.008 C 
BRANCH  45  46
HETATM   46  C28 UNL     1      -5.149  13.867  22.064  1.00  0.00     0.028 C 
BRANCH  46  47
HETATM   47  C29 UNL     1      -6.462  13.163  22.272  1.00  0.00    -0.025 C 
HETATM   48  C30 UNL     1      -7.472  13.517  23.092  1.00  0.00    -0.091 C 
HETATM   49  C31 UNL     1      -7.487  14.737  23.974  1.00  0.00     0.042 C 
HETATM   50  C32 UNL     1      -8.719  12.676  23.185  1.00  0.00     0.042 C 
ENDBRANCH  46  47
ENDBRANCH  45  46
ENDBRANCH  43  45
ENDBRANCH  16  43
TORSDOF 14
ENDMDL
