MODEL 1
REMARK minimizedAffinity -7.3933506
REMARK CNNscore 0.870298028
REMARK CNNaffinity 7.31480074
REMARK  7 active torsions:
REMARK  status: ('A' for Active; 'I' for Inactive)
REMARK    1  A    between atoms: C2_2  and  C30_33 
REMARK    2  A    between atoms: C3_3  and  C4_4 
REMARK    3  A    between atoms: C4_4  and  O1_5 
REMARK    4  A    between atoms: C4_4  and  C5_6 
REMARK    5  A    between atoms: C5_6  and  C6_7 
REMARK    6  A    between atoms: C6_7  and  C8_9 
REMARK    7  A    between atoms: C30_33  and  O5_35 
ROOT
HETATM    1  C8  UNL     1      -1.449  52.154 -10.075  1.00  0.00    -0.002 C 
HETATM    2  C9  UNL     1      -0.636  50.849 -10.320  1.00  0.00     0.007 C 
HETATM    3  C10 UNL     1       0.850  51.174 -10.085  1.00  0.00     0.015 C 
HETATM    4  C11 UNL     1       0.854  52.541  -9.377  1.00  0.00    -0.005 C 
HETATM    5  C12 UNL     1       0.614  52.271  -7.860  1.00  0.00     0.021 C 
HETATM    6  C13 UNL     1       2.093  53.422  -9.428  1.00  0.00    -0.000 C 
HETATM    7  C14 UNL     1       2.005  54.776  -9.368  1.00  0.00    -0.060 C 
HETATM    8  C15 UNL     1       0.630  55.460  -9.323  1.00  0.00     0.036 C 
HETATM    9  C16 UNL     1      -0.623  54.562  -9.389  1.00  0.00     0.015 C 
HETATM   10  C17 UNL     1      -0.341  53.249 -10.132  1.00  0.00    -0.028 C 
HETATM   11  C18 UNL     1      -0.020  53.573 -11.627  1.00  0.00     0.016 C 
HETATM   12  C19 UNL     1       3.234  55.718  -9.374  1.00  0.00    -0.014 C 
HETATM   13  C20 UNL     1       3.310  56.365 -10.785  1.00  0.00     0.020 C 
HETATM   14  C21 UNL     1       3.055  56.859  -8.328  1.00  0.00     0.021 C 
HETATM   15  C22 UNL     1       4.375  57.432  -7.845  1.00  0.00     0.080 C 
HETATM   16  C23 UNL     1       5.121  56.366  -7.077  1.00  0.00     0.135 C 
HETATM   17  O2  UNL     1       5.758  56.665  -6.066  1.00  0.00    -0.297 OA
HETATM   18  C24 UNL     1       5.061  54.924  -7.616  1.00  0.00     0.018 C 
HETATM   19  C25 UNL     1       6.493  54.351  -7.509  1.00  0.00     0.023 C 
HETATM   20  C26 UNL     1       4.154  54.112  -6.680  1.00  0.00     0.023 C 
HETATM   21  C27 UNL     1       4.597  54.968  -9.118  1.00  0.00     0.020 C 
HETATM   22  C28 UNL     1       4.615  53.622  -9.849  1.00  0.00     0.090 C 
HETATM   23  C29 UNL     1       3.433  52.766  -9.494  1.00  0.00     0.157 C 
HETATM   24  O3  UNL     1       3.568  51.563  -9.290  1.00  0.00    -0.293 OA
ENDROOT
BRANCH   1  25
HETATM   25  C6  UNL     1      -2.705  52.241 -11.002  1.00  0.00    -0.011 C 
HETATM   26  C7  UNL     1      -3.759  53.209 -10.463  1.00  0.00     0.010 C 
BRANCH  25  27
HETATM   27  C5  UNL     1      -3.296  50.811 -11.218  1.00  0.00     0.040 C 
BRANCH  27  28
HETATM   28  C4  UNL     1      -4.541  50.477 -10.374  1.00  0.00     0.142 C 
BRANCH  28  29
HETATM   29  C3  UNL     1      -5.382  49.399 -10.997  1.00  0.00     0.018 C 
HETATM   30  C2  UNL     1      -6.662  49.108 -10.680  1.00  0.00     0.010 C 
HETATM   31  C1  UNL     1      -7.476  49.798  -9.625  1.00  0.00     0.055 C 
BRANCH  30  32
HETATM   32  C30 UNL     1      -7.293  47.991 -11.424  1.00  0.00     0.171 C 
HETATM   33  O4  UNL     1      -8.400  47.520 -11.229  1.00  0.00    -0.646 OA
BRANCH  32  34
HETATM   34  O5  UNL     1      -6.499  47.508 -12.394  1.00  0.00    -0.773 OA
HETATM   35  H44 UNL     1      -7.035  46.795 -12.795  1.00  0.00     0.167 HD
ENDBRANCH  32  34
ENDBRANCH  30  32
ENDBRANCH  28  29
BRANCH  28  36
HETATM   36  O1  UNL     1      -4.138  49.995  -9.097  1.00  0.00    -0.392 OA
HETATM   37  H6  UNL     1      -3.771  49.102  -9.219  1.00  0.00     0.210 HD
ENDBRANCH  28  36
ENDBRANCH  27  28
ENDBRANCH  25  27
ENDBRANCH   1  25
TORSDOF 7
ENDMDL
MODEL 2
REMARK minimizedAffinity -7.14065456
REMARK CNNscore 0.608182609
REMARK CNNaffinity 6.88604212
REMARK  7 active torsions:
REMARK  status: ('A' for Active; 'I' for Inactive)
REMARK    1  A    between atoms: C2_2  and  C30_33 
REMARK    2  A    between atoms: C3_3  and  C4_4 
REMARK    3  A    between atoms: C4_4  and  O1_5 
REMARK    4  A    between atoms: C4_4  and  C5_6 
REMARK    5  A    between atoms: C5_6  and  C6_7 
REMARK    6  A    between atoms: C6_7  and  C8_9 
REMARK    7  A    between atoms: C30_33  and  O5_35 
ROOT
HETATM    1  C8  UNL     1      -1.384  52.444 -10.178  1.00  0.00    -0.002 C 
HETATM    2  C9  UNL     1      -0.644  51.090 -10.391  1.00  0.00     0.007 C 
HETATM    3  C10 UNL     1       0.846  51.318 -10.078  1.00  0.00     0.015 C 
HETATM    4  C11 UNL     1       0.901  52.679  -9.362  1.00  0.00    -0.005 C 
HETATM    5  C12 UNL     1       0.567  52.420  -7.860  1.00  0.00     0.021 C 
HETATM    6  C13 UNL     1       2.195  53.479  -9.343  1.00  0.00    -0.000 C 
HETATM    7  C14 UNL     1       2.191  54.835  -9.279  1.00  0.00    -0.060 C 
HETATM    8  C15 UNL     1       0.861  55.606  -9.299  1.00  0.00     0.036 C 
HETATM    9  C16 UNL     1      -0.441  54.791  -9.435  1.00  0.00     0.015 C 
HETATM   10  C17 UNL     1      -0.206  53.466 -10.172  1.00  0.00    -0.028 C 
HETATM   11  C18 UNL     1       0.212  53.774 -11.645  1.00  0.00     0.016 C 
HETATM   12  C19 UNL     1       3.476  55.697  -9.215  1.00  0.00    -0.014 C 
HETATM   13  C20 UNL     1       3.665  56.343 -10.617  1.00  0.00     0.020 C 
HETATM   14  C21 UNL     1       3.318  56.843  -8.172  1.00  0.00     0.021 C 
HETATM   15  C22 UNL     1       4.644  57.329  -7.618  1.00  0.00     0.080 C 
HETATM   16  C23 UNL     1       5.281  56.215  -6.821  1.00  0.00     0.135 C 
HETATM   17  O2  UNL     1       5.883  56.469  -5.777  1.00  0.00    -0.297 OA
HETATM   18  C24 UNL     1       5.156  54.781  -7.372  1.00  0.00     0.018 C 
HETATM   19  C25 UNL     1       6.542  54.117  -7.196  1.00  0.00     0.023 C 
HETATM   20  C26 UNL     1       4.152  54.026  -6.490  1.00  0.00     0.023 C 
HETATM   21  C27 UNL     1       4.774  54.860  -8.896  1.00  0.00     0.020 C 
HETATM   22  C28 UNL     1       4.743  53.518  -9.635  1.00  0.00     0.090 C 
HETATM   23  C29 UNL     1       3.492  52.739  -9.346  1.00  0.00     0.157 C 
HETATM   24  O3  UNL     1       3.539  51.529  -9.143  1.00  0.00    -0.293 OA
ENDROOT
BRANCH   1  25
HETATM   25  C6  UNL     1      -2.582  52.614 -11.167  1.00  0.00    -0.011 C 
HETATM   26  C7  UNL     1      -3.812  53.220 -10.490  1.00  0.00     0.010 C 
BRANCH  25  27
HETATM   27  C5  UNL     1      -2.912  51.239 -11.832  1.00  0.00     0.040 C 
BRANCH  27  28
HETATM   28  C4  UNL     1      -2.995  51.254 -13.370  1.00  0.00     0.142 C 
BRANCH  28  29
HETATM   29  C3  UNL     1      -1.673  51.568 -14.012  1.00  0.00     0.018 C 
HETATM   30  C2  UNL     1      -0.627  50.722 -14.130  1.00  0.00     0.010 C 
HETATM   31  C1  UNL     1      -0.586  49.312 -13.619  1.00  0.00     0.055 C 
BRANCH  30  32
HETATM   32  C30 UNL     1       0.586  51.255 -14.796  1.00  0.00     0.171 C 
HETATM   33  O4  UNL     1       1.449  50.608 -15.363  1.00  0.00    -0.646 OA
BRANCH  32  34
HETATM   34  O5  UNL     1       0.664  52.595 -14.722  1.00  0.00    -0.773 OA
HETATM   35  H44 UNL     1       1.494  52.802 -15.197  1.00  0.00     0.167 HD
ENDBRANCH  32  34
ENDBRANCH  30  32
ENDBRANCH  28  29
BRANCH  28  36
HETATM   36  O1  UNL     1      -3.383  49.968 -13.842  1.00  0.00    -0.392 OA
HETATM   37  H6  UNL     1      -2.629  49.367 -13.717  1.00  0.00     0.210 HD
ENDBRANCH  28  36
ENDBRANCH  27  28
ENDBRANCH  25  27
ENDBRANCH   1  25
TORSDOF 7
ENDMDL
MODEL 3
REMARK minimizedAffinity -7.94423771
REMARK CNNscore 0.56259495
REMARK CNNaffinity 5.99248695
REMARK  7 active torsions:
REMARK  status: ('A' for Active; 'I' for Inactive)
REMARK    1  A    between atoms: C2_2  and  C30_33 
REMARK    2  A    between atoms: C3_3  and  C4_4 
REMARK    3  A    between atoms: C4_4  and  O1_5 
REMARK    4  A    between atoms: C4_4  and  C5_6 
REMARK    5  A    between atoms: C5_6  and  C6_7 
REMARK    6  A    between atoms: C6_7  and  C8_9 
REMARK    7  A    between atoms: C30_33  and  O5_35 
ROOT
HETATM    1  C8  UNL     1     -13.518  46.295 -27.958  1.00  0.00    -0.002 C 
HETATM    2  C9  UNL     1     -13.238  47.535 -27.058  1.00  0.00     0.007 C 
HETATM    3  C10 UNL     1     -11.737  47.860 -27.165  1.00  0.00     0.015 C 
HETATM    4  C11 UNL     1     -11.236  47.045 -28.371  1.00  0.00    -0.005 C 
HETATM    5  C12 UNL     1     -11.564  47.874 -29.651  1.00  0.00     0.021 C 
HETATM    6  C13 UNL     1      -9.760  46.698 -28.496  1.00  0.00    -0.000 C 
HETATM    7  C14 UNL     1      -9.347  45.572 -29.133  1.00  0.00    -0.060 C 
HETATM    8  C15 UNL     1     -10.376  44.572 -29.683  1.00  0.00     0.036 C 
HETATM    9  C16 UNL     1     -11.870  44.876 -29.448  1.00  0.00     0.015 C 
HETATM   10  C17 UNL     1     -12.086  45.724 -28.188  1.00  0.00    -0.028 C 
HETATM   11  C18 UNL     1     -11.662  44.888 -26.938  1.00  0.00     0.016 C 
HETATM   12  C19 UNL     1      -7.858  45.191 -29.325  1.00  0.00    -0.014 C 
HETATM   13  C20 UNL     1      -7.545  44.043 -28.325  1.00  0.00     0.020 C 
HETATM   14  C21 UNL     1      -7.611  44.656 -30.768  1.00  0.00     0.021 C 
HETATM   15  C22 UNL     1      -6.176  44.832 -31.228  1.00  0.00     0.080 C 
HETATM   16  C23 UNL     1      -5.874  46.307 -31.345  1.00  0.00     0.135 C 
HETATM   17  O2  UNL     1      -5.177  46.723 -32.270  1.00  0.00    -0.297 OA
HETATM   18  C24 UNL     1      -6.456  47.242 -30.266  1.00  0.00     0.018 C 
HETATM   19  C25 UNL     1      -5.333  48.237 -29.890  1.00  0.00     0.023 C 
HETATM   20  C26 UNL     1      -7.602  48.040 -30.907  1.00  0.00     0.023 C 
HETATM   21  C27 UNL     1      -6.865  46.377 -29.018  1.00  0.00     0.020 C 
HETATM   22  C28 UNL     1      -7.338  47.171 -27.797  1.00  0.00     0.090 C 
HETATM   23  C29 UNL     1      -8.753  47.653 -27.945  1.00  0.00     0.157 C 
HETATM   24  O3  UNL     1      -9.069  48.788 -27.600  1.00  0.00    -0.293 OA
ENDROOT
BRANCH   1  25
HETATM   25  C6  UNL     1     -14.652  45.392 -27.369  1.00  0.00    -0.011 C 
HETATM   26  C7  UNL     1     -15.595  44.866 -28.451  1.00  0.00     0.010 C 
BRANCH  25  27
HETATM   27  C5  UNL     1     -15.426  46.179 -26.264  1.00  0.00     0.040 C 
BRANCH  27  28
HETATM   28  C4  UNL     1     -16.021  45.318 -25.134  1.00  0.00     0.142 C 
BRANCH  28  29
HETATM   29  C3  UNL     1     -17.523  45.366 -25.107  1.00  0.00     0.018 C 
HETATM   30  C2  UNL     1     -18.286  45.755 -24.064  1.00  0.00     0.010 C 
HETATM   31  C1  UNL     1     -17.771  46.193 -22.724  1.00  0.00     0.055 C 
BRANCH  30  32
HETATM   32  C30 UNL     1     -19.755  45.713 -24.264  1.00  0.00     0.171 C 
HETATM   33  O4  UNL     1     -20.549  44.998 -23.678  1.00  0.00    -0.646 OA
BRANCH  32  34
HETATM   34  O5  UNL     1     -20.170  46.583 -25.200  1.00  0.00    -0.773 OA
HETATM   35  H44 UNL     1     -21.139  46.450 -25.221  1.00  0.00     0.167 HD
ENDBRANCH  32  34
ENDBRANCH  30  32
ENDBRANCH  28  29
BRANCH  28  36
HETATM   36  O1  UNL     1     -15.659  43.955 -25.329  1.00  0.00    -0.392 OA
HETATM   37  H6  UNL     1     -16.169  43.619 -26.086  1.00  0.00     0.210 HD
ENDBRANCH  28  36
ENDBRANCH  27  28
ENDBRANCH  25  27
ENDBRANCH   1  25
TORSDOF 7
ENDMDL
MODEL 4
REMARK minimizedAffinity -9.84859943
REMARK CNNscore 0.516950071
REMARK CNNaffinity 7.28380585
REMARK  7 active torsions:
REMARK  status: ('A' for Active; 'I' for Inactive)
REMARK    1  A    between atoms: C2_2  and  C30_33 
REMARK    2  A    between atoms: C3_3  and  C4_4 
REMARK    3  A    between atoms: C4_4  and  O1_5 
REMARK    4  A    between atoms: C4_4  and  C5_6 
REMARK    5  A    between atoms: C5_6  and  C6_7 
REMARK    6  A    between atoms: C6_7  and  C8_9 
REMARK    7  A    between atoms: C30_33  and  O5_35 
ROOT
HETATM    1  C8  UNL     1      -0.521  49.745 -18.294  1.00  0.00    -0.002 C 
HETATM    2  C9  UNL     1      -1.418  48.526 -17.924  1.00  0.00     0.007 C 
HETATM    3  C10 UNL     1      -2.428  48.325 -19.069  1.00  0.00     0.015 C 
HETATM    4  C11 UNL     1      -1.894  49.185 -20.229  1.00  0.00    -0.005 C 
HETATM    5  C12 UNL     1      -0.808  48.340 -20.963  1.00  0.00     0.021 C 
HETATM    6  C13 UNL     1      -2.837  49.652 -21.328  1.00  0.00    -0.000 C 
HETATM    7  C14 UNL     1      -2.624  50.811 -22.001  1.00  0.00    -0.060 C 
HETATM    8  C15 UNL     1      -1.453  51.727 -21.613  1.00  0.00     0.036 C 
HETATM    9  C16 UNL     1      -0.572  51.302 -20.421  1.00  0.00     0.015 C 
HETATM   10  C17 UNL     1      -1.348  50.432 -19.423  1.00  0.00    -0.028 C 
HETATM   11  C18 UNL     1      -2.481  51.292 -18.777  1.00  0.00     0.016 C 
HETATM   12  C19 UNL     1      -3.527  51.313 -23.155  1.00  0.00    -0.014 C 
HETATM   13  C20 UNL     1      -4.389  52.477 -22.590  1.00  0.00     0.020 C 
HETATM   14  C21 UNL     1      -2.663  51.875 -24.323  1.00  0.00     0.021 C 
HETATM   15  C22 UNL     1      -3.370  51.820 -25.664  1.00  0.00     0.080 C 
HETATM   16  C23 UNL     1      -3.582  50.374 -26.049  1.00  0.00     0.135 C 
HETATM   17  O2  UNL     1      -3.451  50.022 -27.221  1.00  0.00    -0.297 OA
HETATM   18  C24 UNL     1      -3.974  49.388 -24.931  1.00  0.00     0.018 C 
HETATM   19  C25 UNL     1      -5.090  48.486 -25.508  1.00  0.00     0.023 C 
HETATM   20  C26 UNL     1      -2.753  48.505 -24.636  1.00  0.00     0.023 C 
HETATM   21  C27 UNL     1      -4.512  50.210 -23.702  1.00  0.00     0.020 C 
HETATM   22  C28 UNL     1      -5.075  49.373 -22.550  1.00  0.00     0.090 C 
HETATM   23  C29 UNL     1      -3.991  48.778 -21.697  1.00  0.00     0.157 C 
HETATM   24  O3  UNL     1      -4.069  47.620 -21.300  1.00  0.00    -0.293 OA
ENDROOT
BRANCH   1  25
HETATM   25  C6  UNL     1      -0.080  50.548 -17.027  1.00  0.00    -0.011 C 
HETATM   26  C7  UNL     1      -1.255  50.857 -16.098  1.00  0.00     0.010 C 
BRANCH  25  27
HETATM   27  C5  UNL     1       0.664  51.850 -17.465  1.00  0.00     0.040 C 
BRANCH  27  28
HETATM   28  C4  UNL     1       1.387  52.608 -16.336  1.00  0.00     0.142 C 
BRANCH  28  29
HETATM   29  C3  UNL     1       2.028  51.680 -15.342  1.00  0.00     0.018 C 
HETATM   30  C2  UNL     1       3.354  51.516 -15.150  1.00  0.00     0.010 C 
HETATM   31  C1  UNL     1       4.438  52.218 -15.914  1.00  0.00     0.055 C 
BRANCH  30  32
HETATM   32  C30 UNL     1       3.758  50.534 -14.115  1.00  0.00     0.171 C 
HETATM   33  O4  UNL     1       4.795  49.895 -14.084  1.00  0.00    -0.646 OA
BRANCH  32  34
HETATM   34  O5  UNL     1       2.832  50.396 -13.151  1.00  0.00    -0.773 OA
HETATM   35  H44 UNL     1       3.228  49.734 -12.548  1.00  0.00     0.167 HD
ENDBRANCH  32  34
ENDBRANCH  30  32
ENDBRANCH  28  29
BRANCH  28  36
HETATM   36  O1  UNL     1       2.431  53.404 -16.885  1.00  0.00    -0.392 OA
HETATM   37  H6  UNL     1       3.142  52.804 -17.170  1.00  0.00     0.210 HD
ENDBRANCH  28  36
ENDBRANCH  27  28
ENDBRANCH  25  27
ENDBRANCH   1  25
TORSDOF 7
ENDMDL
MODEL 5
REMARK minimizedAffinity -7.77923584
REMARK CNNscore 0.396821827
REMARK CNNaffinity 6.32394218
REMARK  7 active torsions:
REMARK  status: ('A' for Active; 'I' for Inactive)
REMARK    1  A    between atoms: C2_2  and  C30_33 
REMARK    2  A    between atoms: C3_3  and  C4_4 
REMARK    3  A    between atoms: C4_4  and  O1_5 
REMARK    4  A    between atoms: C4_4  and  C5_6 
REMARK    5  A    between atoms: C5_6  and  C6_7 
REMARK    6  A    between atoms: C6_7  and  C8_9 
REMARK    7  A    between atoms: C30_33  and  O5_35 
ROOT
HETATM    1  C8  UNL     1     -10.911  46.077 -34.735  1.00  0.00    -0.002 C 
HETATM    2  C9  UNL     1     -11.741  44.874 -34.198  1.00  0.00     0.007 C 
HETATM    3  C10 UNL     1     -11.185  44.504 -32.811  1.00  0.00     0.015 C 
HETATM    4  C11 UNL     1     -10.291  45.691 -32.409  1.00  0.00    -0.005 C 
HETATM    5  C12 UNL     1     -11.226  46.785 -31.806  1.00  0.00     0.021 C 
HETATM    6  C13 UNL     1      -9.191  45.502 -31.376  1.00  0.00    -0.000 C 
HETATM    7  C14 UNL     1      -8.058  46.250 -31.398  1.00  0.00    -0.060 C 
HETATM    8  C15 UNL     1      -7.826  47.267 -32.526  1.00  0.00     0.036 C 
HETATM    9  C16 UNL     1      -8.894  47.369 -33.634  1.00  0.00     0.015 C 
HETATM   10  C17 UNL     1      -9.655  46.049 -33.812  1.00  0.00    -0.028 C 
HETATM   11  C18 UNL     1      -8.662  44.960 -34.333  1.00  0.00     0.016 C 
HETATM   12  C19 UNL     1      -6.927  46.128 -30.348  1.00  0.00    -0.014 C 
HETATM   13  C20 UNL     1      -5.749  45.374 -31.028  1.00  0.00     0.020 C 
HETATM   14  C21 UNL     1      -6.418  47.538 -29.924  1.00  0.00     0.021 C 
HETATM   15  C22 UNL     1      -5.791  47.551 -28.542  1.00  0.00     0.080 C 
HETATM   16  C23 UNL     1      -6.856  47.240 -27.516  1.00  0.00     0.135 C 
HETATM   17  O2  UNL     1      -6.862  47.828 -26.434  1.00  0.00    -0.297 OA
HETATM   18  C24 UNL     1      -7.902  46.167 -27.877  1.00  0.00     0.018 C 
HETATM   19  C25 UNL     1      -8.087  45.289 -26.617  1.00  0.00     0.023 C 
HETATM   20  C26 UNL     1      -9.231  46.883 -28.157  1.00  0.00     0.023 C 
HETATM   21  C27 UNL     1      -7.346  45.305 -29.070  1.00  0.00     0.020 C 
HETATM   22  C28 UNL     1      -8.207  44.101 -29.465  1.00  0.00     0.090 C 
HETATM   23  C29 UNL     1      -9.399  44.500 -30.288  1.00  0.00     0.157 C 
HETATM   24  O3  UNL     1     -10.500  43.997 -30.083  1.00  0.00    -0.293 OA
ENDROOT
BRANCH   1  25
HETATM   25  C6  UNL     1     -10.760  46.032 -36.291  1.00  0.00    -0.011 C 
HETATM   26  C7  UNL     1     -11.200  44.689 -36.877  1.00  0.00     0.010 C 
BRANCH  25  27
HETATM   27  C5  UNL     1      -9.288  46.375 -36.684  1.00  0.00     0.040 C 
BRANCH  27  28
HETATM   28  C4  UNL     1      -9.114  47.637 -37.551  1.00  0.00     0.142 C 
BRANCH  28  29
HETATM   29  C3  UNL     1     -10.409  48.372 -37.758  1.00  0.00     0.018 C 
HETATM   30  C2  UNL     1     -11.028  48.571 -38.940  1.00  0.00     0.010 C 
HETATM   31  C1  UNL     1     -10.523  48.111 -40.276  1.00  0.00     0.055 C 
BRANCH  30  32
HETATM   32  C30 UNL     1     -12.298  49.336 -38.904  1.00  0.00     0.171 C 
HETATM   33  O4  UNL     1     -13.061  49.436 -37.959  1.00  0.00    -0.646 OA
BRANCH  32  34
HETATM   34  O5  UNL     1     -12.559  49.951 -40.070  1.00  0.00    -0.773 OA
HETATM   35  H44 UNL     1     -13.406  50.411 -39.901  1.00  0.00     0.167 HD
ENDBRANCH  32  34
ENDBRANCH  30  32
ENDBRANCH  28  29
BRANCH  28  36
HETATM   36  O1  UNL     1      -8.227  48.544 -36.906  1.00  0.00    -0.392 OA
HETATM   37  H6  UNL     1      -8.697  48.924 -36.143  1.00  0.00     0.210 HD
ENDBRANCH  28  36
ENDBRANCH  27  28
ENDBRANCH  25  27
ENDBRANCH   1  25
TORSDOF 7
ENDMDL
MODEL 6
REMARK minimizedAffinity -8.13090229
REMARK CNNscore 0.352703273
REMARK CNNaffinity 5.6987977
REMARK  7 active torsions:
REMARK  status: ('A' for Active; 'I' for Inactive)
REMARK    1  A    between atoms: C2_2  and  C30_33 
REMARK    2  A    between atoms: C3_3  and  C4_4 
REMARK    3  A    between atoms: C4_4  and  O1_5 
REMARK    4  A    between atoms: C4_4  and  C5_6 
REMARK    5  A    between atoms: C5_6  and  C6_7 
REMARK    6  A    between atoms: C6_7  and  C8_9 
REMARK    7  A    between atoms: C30_33  and  O5_35 
ROOT
HETATM    1  C8  UNL     1       5.161  67.330 -35.638  1.00  0.00    -0.002 C 
HETATM    2  C9  UNL     1       6.327  67.372 -36.670  1.00  0.00     0.007 C 
HETATM    3  C10 UNL     1       5.722  67.711 -38.045  1.00  0.00     0.015 C 
HETATM    4  C11 UNL     1       4.293  68.200 -37.744  1.00  0.00    -0.005 C 
HETATM    5  C12 UNL     1       4.398  69.707 -37.355  1.00  0.00     0.021 C 
HETATM    6  C13 UNL     1       3.226  68.147 -38.826  1.00  0.00    -0.000 C 
HETATM    7  C14 UNL     1       1.912  67.990 -38.521  1.00  0.00    -0.060 C 
HETATM    8  C15 UNL     1       1.476  67.786 -37.062  1.00  0.00     0.036 C 
HETATM    9  C16 UNL     1       2.577  67.725 -35.984  1.00  0.00     0.015 C 
HETATM   10  C17 UNL     1       3.908  67.224 -36.560  1.00  0.00    -0.028 C 
HETATM   11  C18 UNL     1       3.734  65.740 -37.017  1.00  0.00     0.016 C 
HETATM   12  C19 UNL     1       0.781  67.971 -39.578  1.00  0.00    -0.014 C 
HETATM   13  C20 UNL     1       0.322  66.493 -39.733  1.00  0.00     0.020 C 
HETATM   14  C21 UNL     1      -0.441  68.807 -39.090  1.00  0.00     0.021 C 
HETATM   15  C22 UNL     1      -1.292  69.334 -40.230  1.00  0.00     0.080 C 
HETATM   16  C23 UNL     1      -0.483  70.329 -41.029  1.00  0.00     0.135 C 
HETATM   17  O2  UNL     1      -1.019  71.344 -41.475  1.00  0.00    -0.297 OA
HETATM   18  C24 UNL     1       1.007  70.012 -41.264  1.00  0.00     0.018 C 
HETATM   19  C25 UNL     1       1.304  70.355 -42.742  1.00  0.00     0.023 C 
HETATM   20  C26 UNL     1       1.832  70.959 -40.382  1.00  0.00     0.023 C 
HETATM   21  C27 UNL     1       1.243  68.480 -40.997  1.00  0.00     0.020 C 
HETATM   22  C28 UNL     1       2.650  67.968 -41.319  1.00  0.00     0.090 C 
HETATM   23  C29 UNL     1       3.642  68.322 -40.249  1.00  0.00     0.157 C 
HETATM   24  O3  UNL     1       4.766  68.720 -40.543  1.00  0.00    -0.293 OA
ENDROOT
BRANCH   1  25
HETATM   25  C6  UNL     1       5.417  66.273 -34.515  1.00  0.00    -0.011 C 
HETATM   26  C7  UNL     1       6.665  66.593 -33.691  1.00  0.00     0.010 C 
BRANCH  25  27
HETATM   27  C5  UNL     1       5.494  64.846 -35.146  1.00  0.00     0.040 C 
BRANCH  27  28
HETATM   28  C4  UNL     1       6.916  64.330 -35.436  1.00  0.00     0.142 C 
BRANCH  28  29
HETATM   29  C3  UNL     1       7.304  63.188 -34.539  1.00  0.00     0.018 C 
HETATM   30  C2  UNL     1       8.560  62.744 -34.318  1.00  0.00     0.010 C 
HETATM   31  C1  UNL     1       9.803  63.299 -34.948  1.00  0.00     0.055 C 
BRANCH  30  32
HETATM   32  C30 UNL     1       8.703  61.591 -33.395  1.00  0.00     0.171 C 
HETATM   33  O4  UNL     1       9.250  61.594 -32.307  1.00  0.00    -0.646 OA
BRANCH  32  34
HETATM   34  O5  UNL     1       8.146  60.471 -33.886  1.00  0.00    -0.773 OA
HETATM   35  H44 UNL     1       8.310  59.809 -33.184  1.00  0.00     0.167 HD
ENDBRANCH  32  34
ENDBRANCH  30  32
ENDBRANCH  28  29
BRANCH  28  36
HETATM   36  O1  UNL     1       6.986  63.843 -36.772  1.00  0.00    -0.392 OA
HETATM   37  H6  UNL     1       6.490  63.007 -36.808  1.00  0.00     0.210 HD
ENDBRANCH  28  36
ENDBRANCH  27  28
ENDBRANCH  25  27
ENDBRANCH   1  25
TORSDOF 7
ENDMDL
MODEL 7
REMARK minimizedAffinity -7.7707653
REMARK CNNscore 0.308125615
REMARK CNNaffinity 5.70458603
REMARK  7 active torsions:
REMARK  status: ('A' for Active; 'I' for Inactive)
REMARK    1  A    between atoms: C2_2  and  C30_33 
REMARK    2  A    between atoms: C3_3  and  C4_4 
REMARK    3  A    between atoms: C4_4  and  O1_5 
REMARK    4  A    between atoms: C4_4  and  C5_6 
REMARK    5  A    between atoms: C5_6  and  C6_7 
REMARK    6  A    between atoms: C6_7  and  C8_9 
REMARK    7  A    between atoms: C30_33  and  O5_35 
ROOT
HETATM    1  C8  UNL     1     -13.689  46.487 -28.073  1.00  0.00    -0.002 C 
HETATM    2  C9  UNL     1     -13.393  47.600 -27.025  1.00  0.00     0.007 C 
HETATM    3  C10 UNL     1     -11.871  47.835 -27.011  1.00  0.00     0.015 C 
HETATM    4  C11 UNL     1     -11.345  47.126 -28.272  1.00  0.00    -0.005 C 
HETATM    5  C12 UNL     1     -11.543  48.110 -29.466  1.00  0.00     0.021 C 
HETATM    6  C13 UNL     1      -9.888  46.698 -28.353  1.00  0.00    -0.000 C 
HETATM    7  C14 UNL     1      -9.503  45.624 -29.089  1.00  0.00    -0.060 C 
HETATM    8  C15 UNL     1     -10.554  44.761 -29.806  1.00  0.00     0.036 C 
HETATM    9  C16 UNL     1     -12.039  45.135 -29.621  1.00  0.00     0.015 C 
HETATM   10  C17 UNL     1     -12.282  45.852 -28.287  1.00  0.00    -0.028 C 
HETATM   11  C18 UNL     1     -11.987  44.858 -27.118  1.00  0.00     0.016 C 
HETATM   12  C19 UNL     1      -8.031  45.169 -29.241  1.00  0.00    -0.014 C 
HETATM   13  C20 UNL     1      -7.849  43.900 -28.361  1.00  0.00     0.020 C 
HETATM   14  C21 UNL     1      -7.726  44.780 -30.719  1.00  0.00     0.021 C 
HETATM   15  C22 UNL     1      -6.257  44.909 -31.075  1.00  0.00     0.080 C 
HETATM   16  C23 UNL     1      -5.861  46.366 -31.008  1.00  0.00     0.135 C 
HETATM   17  O2  UNL     1      -5.084  46.834 -31.840  1.00  0.00    -0.297 OA
HETATM   18  C24 UNL     1      -6.453  47.214 -29.864  1.00  0.00     0.018 C 
HETATM   19  C25 UNL     1      -5.299  48.085 -29.317  1.00  0.00     0.023 C 
HETATM   20  C26 UNL     1      -7.507  48.150 -30.473  1.00  0.00     0.023 C 
HETATM   21  C27 UNL     1      -6.990  46.246 -28.747  1.00  0.00     0.020 C 
HETATM   22  C28 UNL     1      -7.490  46.931 -27.472  1.00  0.00     0.090 C 
HETATM   23  C29 UNL     1      -8.862  47.518 -27.643  1.00  0.00     0.157 C 
HETATM   24  O3  UNL     1      -9.131  48.627 -27.189  1.00  0.00    -0.293 OA
ENDROOT
BRANCH   1  25
HETATM   25  C6  UNL     1     -14.909  45.603 -27.654  1.00  0.00    -0.011 C 
HETATM   26  C7  UNL     1     -14.847  45.189 -26.183  1.00  0.00     0.010 C 
BRANCH  25  27
HETATM   27  C5  UNL     1     -15.004  44.361 -28.597  1.00  0.00     0.040 C 
BRANCH  27  28
HETATM   28  C4  UNL     1     -16.082  43.327 -28.219  1.00  0.00     0.142 C 
BRANCH  28  29
HETATM   29  C3  UNL     1     -17.235  43.324 -29.183  1.00  0.00     0.018 C 
HETATM   30  C2  UNL     1     -18.513  43.649 -28.893  1.00  0.00     0.010 C 
HETATM   31  C1  UNL     1     -19.023  44.053 -27.541  1.00  0.00     0.055 C 
BRANCH  30  32
HETATM   32  C30 UNL     1     -19.489  43.565 -30.007  1.00  0.00     0.171 C 
HETATM   33  O4  UNL     1     -20.567  42.999 -29.989  1.00  0.00    -0.646 OA
BRANCH  32  34
HETATM   34  O5  UNL     1     -19.064  44.206 -31.109  1.00  0.00    -0.773 OA
HETATM   35  H44 UNL     1     -19.795  44.073 -31.746  1.00  0.00     0.167 HD
ENDBRANCH  32  34
ENDBRANCH  30  32
ENDBRANCH  28  29
BRANCH  28  36
HETATM   36  O1  UNL     1     -15.522  42.019 -28.247  1.00  0.00    -0.392 OA
HETATM   37  H6  UNL     1     -15.375  41.780 -29.179  1.00  0.00     0.210 HD
ENDBRANCH  28  36
ENDBRANCH  27  28
ENDBRANCH  25  27
ENDBRANCH   1  25
TORSDOF 7
ENDMDL
MODEL 8
REMARK minimizedAffinity -8.58211708
REMARK CNNscore 0.307363003
REMARK CNNaffinity 5.68154907
REMARK  7 active torsions:
REMARK  status: ('A' for Active; 'I' for Inactive)
REMARK    1  A    between atoms: C2_2  and  C30_33 
REMARK    2  A    between atoms: C3_3  and  C4_4 
REMARK    3  A    between atoms: C4_4  and  O1_5 
REMARK    4  A    between atoms: C4_4  and  C5_6 
REMARK    5  A    between atoms: C5_6  and  C6_7 
REMARK    6  A    between atoms: C6_7  and  C8_9 
REMARK    7  A    between atoms: C30_33  and  O5_35 
ROOT
HETATM    1  C8  UNL     1       3.394  66.085 -37.055  1.00  0.00    -0.002 C 
HETATM    2  C9  UNL     1       2.167  66.185 -36.102  1.00  0.00     0.007 C 
HETATM    3  C10 UNL     1       1.170  67.179 -36.725  1.00  0.00     0.015 C 
HETATM    4  C11 UNL     1       1.654  67.377 -38.173  1.00  0.00    -0.005 C 
HETATM    5  C12 UNL     1       1.083  66.192 -39.012  1.00  0.00     0.021 C 
HETATM    6  C13 UNL     1       1.262  68.628 -38.943  1.00  0.00    -0.000 C 
HETATM    7  C14 UNL     1       2.061  69.145 -39.913  1.00  0.00    -0.060 C 
HETATM    8  C15 UNL     1       3.430  68.511 -40.206  1.00  0.00     0.036 C 
HETATM    9  C16 UNL     1       3.868  67.313 -39.340  1.00  0.00     0.015 C 
HETATM   10  C17 UNL     1       3.220  67.350 -37.950  1.00  0.00    -0.028 C 
HETATM   11  C18 UNL     1       3.753  68.600 -37.177  1.00  0.00     0.016 C 
HETATM   12  C19 UNL     1       1.692  70.390 -40.756  1.00  0.00    -0.014 C 
HETATM   13  C20 UNL     1       2.553  71.573 -40.228  1.00  0.00     0.020 C 
HETATM   14  C21 UNL     1       2.051  70.163 -42.255  1.00  0.00     0.021 C 
HETATM   15  C22 UNL     1       1.218  71.012 -43.199  1.00  0.00     0.080 C 
HETATM   16  C23 UNL     1      -0.224  70.571 -43.113  1.00  0.00     0.135 C 
HETATM   17  O2  UNL     1      -0.918  70.527 -44.129  1.00  0.00    -0.297 OA
HETATM   18  C24 UNL     1      -0.775  70.201 -41.722  1.00  0.00     0.018 C 
HETATM   19  C25 UNL     1      -2.184  70.832 -41.622  1.00  0.00     0.023 C 
HETATM   20  C26 UNL     1      -0.934  68.675 -41.672  1.00  0.00     0.023 C 
HETATM   21  C27 UNL     1       0.177  70.807 -40.627  1.00  0.00     0.020 C 
HETATM   22  C28 UNL     1      -0.302  70.647 -39.180  1.00  0.00     0.090 C 
HETATM   23  C29 UNL     1      -0.057  69.264 -38.650  1.00  0.00     0.157 C 
HETATM   24  O3  UNL     1      -0.908  68.689 -37.977  1.00  0.00    -0.293 OA
ENDROOT
BRANCH   1  25
HETATM   25  C6  UNL     1       4.723  65.841 -36.269  1.00  0.00    -0.011 C 
HETATM   26  C7  UNL     1       5.655  64.867 -36.993  1.00  0.00     0.010 C 
BRANCH  25  27
HETATM   27  C5  UNL     1       4.394  65.353 -34.822  1.00  0.00     0.040 C 
BRANCH  27  28
HETATM   28  C4  UNL     1       4.562  63.841 -34.581  1.00  0.00     0.142 C 
BRANCH  28  29
HETATM   29  C3  UNL     1       5.950  63.485 -34.125  1.00  0.00     0.018 C 
HETATM   30  C2  UNL     1       6.555  62.289 -34.284  1.00  0.00     0.010 C 
HETATM   31  C1  UNL     1       5.941  61.082 -34.929  1.00  0.00     0.055 C 
BRANCH  30  32
HETATM   32  C30 UNL     1       7.931  62.164 -33.744  1.00  0.00     0.171 C 
HETATM   33  O4  UNL     1       8.731  63.068 -33.574  1.00  0.00    -0.646 OA
BRANCH  32  34
HETATM   34  O5  UNL     1       8.245  60.895 -33.434  1.00  0.00    -0.773 OA
HETATM   35  H44 UNL     1       9.160  60.964 -33.092  1.00  0.00     0.167 HD
ENDBRANCH  32  34
ENDBRANCH  30  32
ENDBRANCH  28  29
BRANCH  28  36
HETATM   36  O1  UNL     1       3.673  63.417 -33.554  1.00  0.00    -0.392 OA
HETATM   37  H6  UNL     1       4.010  63.763 -32.709  1.00  0.00     0.210 HD
ENDBRANCH  28  36
ENDBRANCH  27  28
ENDBRANCH  25  27
ENDBRANCH   1  25
TORSDOF 7
ENDMDL
MODEL 9
REMARK minimizedAffinity -9.21833515
REMARK CNNscore 0.305722833
REMARK CNNaffinity 6.69772863
REMARK  7 active torsions:
REMARK  status: ('A' for Active; 'I' for Inactive)
REMARK    1  A    between atoms: C2_2  and  C30_33 
REMARK    2  A    between atoms: C3_3  and  C4_4 
REMARK    3  A    between atoms: C4_4  and  O1_5 
REMARK    4  A    between atoms: C4_4  and  C5_6 
REMARK    5  A    between atoms: C5_6  and  C6_7 
REMARK    6  A    between atoms: C6_7  and  C8_9 
REMARK    7  A    between atoms: C30_33  and  O5_35 
ROOT
HETATM    1  C8  UNL     1      -0.497  50.870 -18.696  1.00  0.00    -0.002 C 
HETATM    2  C9  UNL     1      -2.051  50.849 -18.613  1.00  0.00     0.007 C 
HETATM    3  C10 UNL     1      -2.599  51.188 -20.011  1.00  0.00     0.015 C 
HETATM    4  C11 UNL     1      -1.391  51.059 -20.956  1.00  0.00    -0.005 C 
HETATM    5  C12 UNL     1      -1.251  49.547 -21.315  1.00  0.00     0.021 C 
HETATM    6  C13 UNL     1      -1.389  51.782 -22.294  1.00  0.00    -0.000 C 
HETATM    7  C14 UNL     1      -0.235  52.195 -22.877  1.00  0.00    -0.060 C 
HETATM    8  C15 UNL     1       1.108  52.006 -22.153  1.00  0.00     0.036 C 
HETATM    9  C16 UNL     1       1.083  51.377 -20.745  1.00  0.00     0.015 C 
HETATM   10  C17 UNL     1      -0.248  51.639 -20.029  1.00  0.00    -0.028 C 
HETATM   11  C18 UNL     1      -0.388  53.173 -19.768  1.00  0.00     0.016 C 
HETATM   12  C19 UNL     1      -0.171  52.898 -24.255  1.00  0.00    -0.014 C 
HETATM   13  C20 UNL     1       0.103  54.405 -23.990  1.00  0.00     0.020 C 
HETATM   14  C21 UNL     1       1.007  52.334 -25.105  1.00  0.00     0.021 C 
HETATM   15  C22 UNL     1       0.793  52.496 -26.598  1.00  0.00     0.080 C 
HETATM   16  C23 UNL     1      -0.382  51.645 -27.020  1.00  0.00     0.135 C 
HETATM   17  O2  UNL     1      -0.353  51.042 -28.093  1.00  0.00    -0.297 OA
HETATM   18  C24 UNL     1      -1.595  51.580 -26.071  1.00  0.00     0.018 C 
HETATM   19  C25 UNL     1      -2.857  51.691 -26.958  1.00  0.00     0.023 C 
HETATM   20  C26 UNL     1      -1.599  50.194 -25.410  1.00  0.00     0.023 C 
HETATM   21  C27 UNL     1      -1.516  52.793 -25.072  1.00  0.00     0.020 C 
HETATM   22  C28 UNL     1      -2.723  52.957 -24.144  1.00  0.00     0.090 C 
HETATM   23  C29 UNL     1      -2.691  51.989 -22.995  1.00  0.00     0.157 C 
HETATM   24  O3  UNL     1      -3.712  51.410 -22.634  1.00  0.00    -0.293 OA
ENDROOT
BRANCH   1  25
HETATM   25  C6  UNL     1       0.151  51.360 -17.360  1.00  0.00    -0.011 C 
HETATM   26  C7  UNL     1       1.259  52.388 -17.595  1.00  0.00     0.010 C 
BRANCH  25  27
HETATM   27  C5  UNL     1       0.672  50.130 -16.549  1.00  0.00     0.040 C 
BRANCH  27  28
HETATM   28  C4  UNL     1       0.440  50.198 -15.027  1.00  0.00     0.142 C 
BRANCH  28  29
HETATM   29  C3  UNL     1       1.601  49.647 -14.247  1.00  0.00     0.018 C 
HETATM   30  C2  UNL     1       2.775  50.275 -14.022  1.00  0.00     0.010 C 
HETATM   31  C1  UNL     1       3.146  51.637 -14.531  1.00  0.00     0.055 C 
BRANCH  30  32
HETATM   32  C30 UNL     1       3.784  49.532 -13.228  1.00  0.00     0.171 C 
HETATM   33  O4  UNL     1       3.585  48.908 -12.200  1.00  0.00    -0.646 OA
BRANCH  32  34
HETATM   34  O5  UNL     1       5.013  49.603 -13.767  1.00  0.00    -0.773 OA
HETATM   35  H44 UNL     1       5.562  49.075 -13.153  1.00  0.00     0.167 HD
ENDBRANCH  32  34
ENDBRANCH  30  32
ENDBRANCH  28  29
BRANCH  28  36
HETATM   36  O1  UNL     1       0.284  51.554 -14.626  1.00  0.00    -0.392 OA
HETATM   37  H6  UNL     1       1.155  51.983 -14.685  1.00  0.00     0.210 HD
ENDBRANCH  28  36
ENDBRANCH  27  28
ENDBRANCH  25  27
ENDBRANCH   1  25
TORSDOF 7
ENDMDL
