MODEL 1
REMARK minimizedAffinity -7.52968407
REMARK CNNscore 0.417027622
REMARK CNNaffinity 7.47182083
REMARK  10 active torsions:
REMARK  status: ('A' for Active; 'I' for Inactive)
REMARK    1  A    between atoms: C15_16  and  C16_17 
REMARK    2  A    between atoms: C16_17  and  O2_18 
REMARK    3  A    between atoms: C29_32  and  C30_33 
REMARK    4  A    between atoms: C30_33  and  O5_35 
REMARK    5  A    between atoms: O5_35  and  C31_36 
REMARK    6  A    between atoms: C32_38  and  C33_39 
REMARK    7  A    between atoms: C33_39  and  O7_40 
REMARK    8  A    between atoms: C34_41  and  O8_42 
REMARK    9  A    between atoms: C35_43  and  O9_44 
REMARK   10  A    between atoms: C36_45  and  O10_46 
ROOT
HETATM    1  C1  UNL     1      -5.380   2.694  12.512  1.00  0.00     0.043 C 
HETATM    2  C2  UNL     1      -5.561   4.126  12.945  1.00  0.00    -0.081 C 
HETATM    3  C3  UNL     1      -6.753   4.773  12.987  1.00  0.00    -0.072 C 
HETATM    4  C4  UNL     1      -8.034   4.100  12.551  1.00  0.00     0.044 C 
HETATM    5  C5  UNL     1      -6.771   6.287  13.329  1.00  0.00     0.062 C 
HETATM    6  C6  UNL     1      -8.182   6.875  13.551  1.00  0.00    -0.065 C 
HETATM    7  C7  UNL     1      -8.940   7.157  12.470  1.00  0.00    -0.022 C 
HETATM    8  C8  UNL     1     -10.363   7.637  12.485  1.00  0.00     0.033 C 
HETATM    9  C9  UNL     1     -11.019   7.539  13.880  1.00  0.00     0.007 C 
HETATM   10  C10 UNL     1     -12.542   8.013  13.942  1.00  0.00    -0.035 C 
HETATM   11  C11 UNL     1     -12.737   9.457  13.417  1.00  0.00     0.016 C 
HETATM   12  C12 UNL     1     -13.393   7.072  13.026  1.00  0.00     0.012 C 
HETATM   13  C13 UNL     1     -14.907   7.142  13.266  1.00  0.00     0.034 C 
HETATM   14  C14 UNL     1     -15.244   6.906  14.735  1.00  0.00     0.135 C 
HETATM   15  O1  UNL     1     -16.652   6.916  14.942  1.00  0.00    -0.353 OA
HETATM   16  C15 UNL     1     -16.952   6.482  16.273  1.00  0.00     0.283 C 
HETATM   17  O3  UNL     1     -16.372   7.351  17.250  1.00  0.00    -0.358 OA
HETATM   18  C17 UNL     1     -14.950   7.445  17.108  1.00  0.00     0.183 C 
HETATM   19  C18 UNL     1     -14.560   7.920  15.681  1.00  0.00     0.008 C 
HETATM   20  C19 UNL     1     -15.126   9.350  15.521  1.00  0.00     0.020 C 
HETATM   21  C20 UNL     1     -13.017   7.818  15.434  1.00  0.00     0.007 C 
HETATM   22  C21 UNL     1     -12.141   8.630  16.401  1.00  0.00     0.007 C 
HETATM   23  C22 UNL     1     -10.710   8.089  16.381  1.00  0.00     0.011 C 
HETATM   24  C23 UNL     1     -10.027   8.092  14.980  1.00  0.00    -0.028 C 
HETATM   25  C24 UNL     1      -9.632   9.569  14.673  1.00  0.00     0.016 C 
HETATM   26  C25 UNL     1      -8.688   7.142  14.979  1.00  0.00    -0.012 C 
HETATM   27  C26 UNL     1      -8.974   5.762  15.642  1.00  0.00     0.021 C 
HETATM   28  C27 UNL     1      -7.546   7.831  15.771  1.00  0.00     0.016 C 
HETATM   29  C28 UNL     1      -6.243   7.042  15.782  1.00  0.00     0.022 C 
HETATM   30  C29 UNL     1      -5.679   6.753  14.369  1.00  0.00     0.059 C 
HETATM   31  C37 UNL     1      -4.555   5.688  14.557  1.00  0.00     0.025 C 
HETATM   32  C38 UNL     1      -4.299   4.860  13.311  1.00  0.00     0.035 C 
ENDROOT
BRANCH  30  33
HETATM   33  C30 UNL     1      -5.082   8.085  13.859  1.00  0.00     0.271 C 
HETATM   34  O4  UNL     1      -5.161   8.499  12.710  1.00  0.00    -0.264 OA
BRANCH  33  35
HETATM   35  O5  UNL     1      -4.548   8.823  14.873  1.00  0.00    -0.286 OA
BRANCH  35  36
HETATM   36  C31 UNL     1      -3.714   9.916  14.468  1.00  0.00     0.301 C 
HETATM   37  O6  UNL     1      -2.416   9.431  14.106  1.00  0.00    -0.348 OA
HETATM   38  C32 UNL     1      -1.567   9.027  15.182  1.00  0.00     0.179 C 
HETATM   39  C34 UNL     1      -1.507  10.045  16.335  1.00  0.00     0.180 C 
HETATM   40  C35 UNL     1      -2.237  11.344  15.975  1.00  0.00     0.183 C 
HETATM   41  C36 UNL     1      -3.672  11.026  15.549  1.00  0.00     0.205 C 
BRANCH  38  42
HETATM   42  C33 UNL     1      -1.879   7.601  15.672  1.00  0.00     0.198 C 
BRANCH  42  43
HETATM   43  O7  UNL     1      -2.603   7.572  16.894  1.00  0.00    -0.398 OA
HETATM   44  H48 UNL     1      -2.395   8.373  17.410  1.00  0.00     0.209 HD
ENDBRANCH  42  43
ENDBRANCH  38  42
BRANCH  39  45
HETATM   45  O8  UNL     1      -0.129  10.302  16.663  1.00  0.00    -0.390 OA
HETATM   46  H50 UNL     1       0.248  10.869  15.968  1.00  0.00     0.210 HD
ENDBRANCH  39  45
BRANCH  40  47
HETATM   47  O9  UNL     1      -2.274  12.188  17.136  1.00  0.00    -0.390 OA
HETATM   48  H52 UNL     1      -1.869  13.037  16.889  1.00  0.00     0.210 HD
ENDBRANCH  40  47
BRANCH  41  49
HETATM   49  O10 UNL     1      -4.296  12.224  15.047  1.00  0.00    -0.388 OA
HETATM   50  H54 UNL     1      -5.253  12.012  14.964  1.00  0.00     0.210 HD
ENDBRANCH  41  49
ENDBRANCH  35  36
ENDBRANCH  33  35
ENDBRANCH  30  33
BRANCH  16  51
HETATM   51  C16 UNL     1     -18.479   6.499  16.478  1.00  0.00     0.224 C 
BRANCH  51  52
HETATM   52  O2  UNL     1     -19.181   6.325  15.240  1.00  0.00    -0.396 OA
HETATM   53  H23 UNL     1     -18.618   6.754  14.564  1.00  0.00     0.209 HD
ENDBRANCH  51  52
ENDBRANCH  16  51
TORSDOF 10
ENDMDL
MODEL 2
REMARK minimizedAffinity -8.65248489
REMARK CNNscore 0.380814731
REMARK CNNaffinity 7.37660789
REMARK  10 active torsions:
REMARK  status: ('A' for Active; 'I' for Inactive)
REMARK    1  A    between atoms: C15_16  and  C16_17 
REMARK    2  A    between atoms: C16_17  and  O2_18 
REMARK    3  A    between atoms: C29_32  and  C30_33 
REMARK    4  A    between atoms: C30_33  and  O5_35 
REMARK    5  A    between atoms: O5_35  and  C31_36 
REMARK    6  A    between atoms: C32_38  and  C33_39 
REMARK    7  A    between atoms: C33_39  and  O7_40 
REMARK    8  A    between atoms: C34_41  and  O8_42 
REMARK    9  A    between atoms: C35_43  and  O9_44 
REMARK   10  A    between atoms: C36_45  and  O10_46 
ROOT
HETATM    1  C1  UNL     1      -6.397   1.947  12.336  1.00  0.00     0.043 C 
HETATM    2  C2  UNL     1      -6.202   3.397  12.697  1.00  0.00    -0.081 C 
HETATM    3  C3  UNL     1      -7.207   4.267  12.964  1.00  0.00    -0.072 C 
HETATM    4  C4  UNL     1      -8.658   3.851  12.878  1.00  0.00     0.044 C 
HETATM    5  C5  UNL     1      -6.862   5.763  13.195  1.00  0.00     0.062 C 
HETATM    6  C6  UNL     1      -8.046   6.623  13.690  1.00  0.00    -0.065 C 
HETATM    7  C7  UNL     1      -8.972   7.024  12.792  1.00  0.00    -0.022 C 
HETATM    8  C8  UNL     1     -10.235   7.774  13.097  1.00  0.00     0.033 C 
HETATM    9  C9  UNL     1     -10.550   7.842  14.607  1.00  0.00     0.007 C 
HETATM   10  C10 UNL     1     -11.900   8.608  14.980  1.00  0.00    -0.035 C 
HETATM   11  C11 UNL     1     -11.941  10.049  14.414  1.00  0.00     0.016 C 
HETATM   12  C12 UNL     1     -13.103   7.831  14.349  1.00  0.00     0.012 C 
HETATM   13  C13 UNL     1     -14.477   8.205  14.921  1.00  0.00     0.034 C 
HETATM   14  C14 UNL     1     -14.496   8.076  16.441  1.00  0.00     0.135 C 
HETATM   15  O1  UNL     1     -15.788   8.369  16.961  1.00  0.00    -0.353 OA
HETATM   16  C15 UNL     1     -15.841   8.034  18.351  1.00  0.00     0.283 C 
HETATM   17  O3  UNL     1     -14.894   8.795  19.109  1.00  0.00    -0.358 OA
HETATM   18  C17 UNL     1     -13.555   8.603  18.641  1.00  0.00     0.183 C 
HETATM   19  C18 UNL     1     -13.431   8.956  17.134  1.00  0.00     0.008 C 
HETATM   20  C19 UNL     1     -13.742  10.466  17.007  1.00  0.00     0.020 C 
HETATM   21  C20 UNL     1     -12.037   8.546  16.550  1.00  0.00     0.007 C 
HETATM   22  C21 UNL     1     -10.822   9.193  17.235  1.00  0.00     0.007 C 
HETATM   23  C22 UNL     1      -9.563   8.380  16.928  1.00  0.00     0.011 C 
HETATM   24  C23 UNL     1      -9.242   8.214  15.412  1.00  0.00    -0.028 C 
HETATM   25  C24 UNL     1      -8.662   9.577  14.922  1.00  0.00     0.016 C 
HETATM   26  C25 UNL     1      -8.142   7.019  15.173  1.00  0.00    -0.012 C 
HETATM   27  C26 UNL     1      -8.515   5.738  15.978  1.00  0.00     0.021 C 
HETATM   28  C27 UNL     1      -6.737   7.487  15.636  1.00  0.00     0.016 C 
HETATM   29  C28 UNL     1      -5.639   6.457  15.406  1.00  0.00     0.022 C 
HETATM   30  C29 UNL     1      -5.488   6.029  13.926  1.00  0.00     0.059 C 
HETATM   31  C37 UNL     1      -4.570   4.768  13.927  1.00  0.00     0.025 C 
HETATM   32  C38 UNL     1      -4.775   3.876  12.716  1.00  0.00     0.035 C 
ENDROOT
BRANCH  30  33
HETATM   33  C30 UNL     1      -4.791   7.205  13.202  1.00  0.00     0.271 C 
HETATM   34  O4  UNL     1      -5.243   8.338  13.102  1.00  0.00    -0.264 OA
BRANCH  33  35
HETATM   35  O5  UNL     1      -3.539   6.870  12.781  1.00  0.00    -0.286 OA
BRANCH  35  36
HETATM   36  C31 UNL     1      -2.486   7.736  13.226  1.00  0.00     0.301 C 
HETATM   37  O6  UNL     1      -1.371   7.646  12.331  1.00  0.00    -0.348 OA
HETATM   38  C32 UNL     1      -0.587   6.454  12.414  1.00  0.00     0.179 C 
HETATM   39  C34 UNL     1      -0.211   6.061  13.855  1.00  0.00     0.180 C 
HETATM   40  C35 UNL     1      -0.619   7.148  14.856  1.00  0.00     0.183 C 
HETATM   41  C36 UNL     1      -2.109   7.456  14.703  1.00  0.00     0.205 C 
BRANCH  38  42
HETATM   42  C33 UNL     1      -1.211   5.285  11.630  1.00  0.00     0.198 C 
BRANCH  42  43
HETATM   43  O7  UNL     1      -0.249   4.460  10.989  1.00  0.00    -0.398 OA
HETATM   44  H48 UNL     1       0.543   4.991  10.784  1.00  0.00     0.209 HD
ENDBRANCH  42  43
ENDBRANCH  38  42
BRANCH  39  45
HETATM   45  O8  UNL     1       1.204   5.806  13.918  1.00  0.00    -0.390 OA
HETATM   46  H50 UNL     1       1.668   6.661  13.889  1.00  0.00     0.210 HD
ENDBRANCH  39  45
BRANCH  40  47
HETATM   47  O9  UNL     1      -0.380   6.662  16.186  1.00  0.00    -0.390 OA
HETATM   48  H52 UNL     1       0.207   7.301  16.626  1.00  0.00     0.210 HD
ENDBRANCH  40  47
BRANCH  41  49
HETATM   49  O10 UNL     1      -2.447   8.594  15.519  1.00  0.00    -0.388 OA
HETATM   50  H54 UNL     1      -3.430   8.633  15.530  1.00  0.00     0.210 HD
ENDBRANCH  41  49
ENDBRANCH  35  36
ENDBRANCH  33  35
ENDBRANCH  30  33
BRANCH  16  51
HETATM   51  C16 UNL     1     -17.245   8.357  18.896  1.00  0.00     0.224 C 
BRANCH  51  52
HETATM   52  O2  UNL     1     -17.570   7.546  20.034  1.00  0.00    -0.396 OA
HETATM   53  H23 UNL     1     -17.122   6.691  19.875  1.00  0.00     0.209 HD
ENDBRANCH  51  52
ENDBRANCH  16  51
TORSDOF 10
ENDMDL
MODEL 3
REMARK minimizedAffinity -7.91422558
REMARK CNNscore 0.347117424
REMARK CNNaffinity 6.74054575
REMARK  10 active torsions:
REMARK  status: ('A' for Active; 'I' for Inactive)
REMARK    1  A    between atoms: C15_16  and  C16_17 
REMARK    2  A    between atoms: C16_17  and  O2_18 
REMARK    3  A    between atoms: C29_32  and  C30_33 
REMARK    4  A    between atoms: C30_33  and  O5_35 
REMARK    5  A    between atoms: O5_35  and  C31_36 
REMARK    6  A    between atoms: C32_38  and  C33_39 
REMARK    7  A    between atoms: C33_39  and  O7_40 
REMARK    8  A    between atoms: C34_41  and  O8_42 
REMARK    9  A    between atoms: C35_43  and  O9_44 
REMARK   10  A    between atoms: C36_45  and  O10_46 
ROOT
HETATM    1  C1  UNL     1      -5.283  -9.660   7.994  1.00  0.00     0.043 C 
HETATM    2  C2  UNL     1      -5.012 -10.567   6.822  1.00  0.00    -0.081 C 
HETATM    3  C3  UNL     1      -5.707 -10.550   5.658  1.00  0.00    -0.072 C 
HETATM    4  C4  UNL     1      -6.877  -9.616   5.448  1.00  0.00     0.044 C 
HETATM    5  C5  UNL     1      -5.401 -11.632   4.586  1.00  0.00     0.062 C 
HETATM    6  C6  UNL     1      -6.098 -11.400   3.227  1.00  0.00    -0.065 C 
HETATM    7  C7  UNL     1      -7.404 -11.721   3.110  1.00  0.00    -0.022 C 
HETATM    8  C8  UNL     1      -8.272 -11.478   1.910  1.00  0.00     0.033 C 
HETATM    9  C9  UNL     1      -7.608 -10.563   0.857  1.00  0.00     0.007 C 
HETATM   10  C10 UNL     1      -8.503 -10.253  -0.427  1.00  0.00    -0.035 C 
HETATM   11  C11 UNL     1      -8.983 -11.541  -1.142  1.00  0.00     0.016 C 
HETATM   12  C12 UNL     1      -9.783  -9.479   0.034  1.00  0.00     0.012 C 
HETATM   13  C13 UNL     1     -10.548  -8.777  -1.095  1.00  0.00     0.034 C 
HETATM   14  C14 UNL     1      -9.630  -7.861  -1.898  1.00  0.00     0.135 C 
HETATM   15  O1  UNL     1     -10.357  -7.170  -2.908  1.00  0.00    -0.353 OA
HETATM   16  C15 UNL     1      -9.529  -6.165  -3.502  1.00  0.00     0.283 C 
HETATM   17  O3  UNL     1      -8.374  -6.737  -4.125  1.00  0.00    -0.358 OA
HETATM   18  C17 UNL     1      -7.586  -7.493  -3.199  1.00  0.00     0.183 C 
HETATM   19  C18 UNL     1      -8.429  -8.608  -2.523  1.00  0.00     0.008 C 
HETATM   20  C19 UNL     1      -8.861  -9.579  -3.648  1.00  0.00     0.020 C 
HETATM   21  C20 UNL     1      -7.653  -9.300  -1.353  1.00  0.00     0.007 C 
HETATM   22  C21 UNL     1      -6.322  -9.961  -1.748  1.00  0.00     0.007 C 
HETATM   23  C22 UNL     1      -5.454 -10.160  -0.504  1.00  0.00     0.011 C 
HETATM   24  C23 UNL     1      -6.110 -11.012   0.624  1.00  0.00    -0.028 C 
HETATM   25  C24 UNL     1      -6.048 -12.500   0.160  1.00  0.00     0.016 C 
HETATM   26  C25 UNL     1      -5.300 -10.833   2.041  1.00  0.00    -0.012 C 
HETATM   27  C26 UNL     1      -5.014  -9.332   2.342  1.00  0.00     0.021 C 
HETATM   28  C27 UNL     1      -3.941 -11.579   1.976  1.00  0.00     0.016 C 
HETATM   29  C28 UNL     1      -3.139 -11.509   3.269  1.00  0.00     0.022 C 
HETATM   30  C29 UNL     1      -3.889 -12.078   4.498  1.00  0.00     0.059 C 
HETATM   31  C37 UNL     1      -3.072 -11.638   5.751  1.00  0.00     0.025 C 
HETATM   32  C38 UNL     1      -3.907 -11.570   7.018  1.00  0.00     0.035 C 
ENDROOT
BRANCH  30  33
HETATM   33  C30 UNL     1      -3.862 -13.618   4.348  1.00  0.00     0.271 C 
HETATM   34  O4  UNL     1      -4.654 -14.275   3.686  1.00  0.00    -0.264 OA
BRANCH  33  35
HETATM   35  O5  UNL     1      -2.769 -14.166   4.950  1.00  0.00    -0.286 OA
BRANCH  35  36
HETATM   36  C31 UNL     1      -1.859 -14.845   4.075  1.00  0.00     0.301 C 
HETATM   37  O6  UNL     1      -1.236 -15.933   4.769  1.00  0.00    -0.348 OA
HETATM   38  C32 UNL     1      -0.238 -15.583   5.730  1.00  0.00     0.179 C 
HETATM   39  C34 UNL     1       0.788 -14.561   5.210  1.00  0.00     0.180 C 
HETATM   40  C35 UNL     1       0.601 -14.292   3.712  1.00  0.00     0.183 C 
HETATM   41  C36 UNL     1      -0.842 -13.862   3.443  1.00  0.00     0.205 C 
BRANCH  38  42
HETATM   42  C33 UNL     1      -0.846 -15.169   7.083  1.00  0.00     0.198 C 
BRANCH  42  43
HETATM   43  O7  UNL     1      -0.846 -13.764   7.293  1.00  0.00    -0.398 OA
HETATM   44  H48 UNL     1      -0.107 -13.366   6.798  1.00  0.00     0.209 HD
ENDBRANCH  42  43
ENDBRANCH  38  42
BRANCH  39  45
HETATM   45  O8  UNL     1       2.115 -15.046   5.484  1.00  0.00    -0.390 OA
HETATM   46  H50 UNL     1       2.313 -15.763   4.856  1.00  0.00     0.210 HD
ENDBRANCH  39  45
BRANCH  40  47
HETATM   47  O9  UNL     1       1.483 -13.228   3.322  1.00  0.00    -0.390 OA
HETATM   48  H52 UNL     1       2.035 -13.563   2.595  1.00  0.00     0.210 HD
ENDBRANCH  40  47
BRANCH  41  49
HETATM   49  O10 UNL     1      -1.057 -13.780   2.021  1.00  0.00    -0.388 OA
HETATM   50  H54 UNL     1      -1.924 -13.328   1.907  1.00  0.00     0.210 HD
ENDBRANCH  41  49
ENDBRANCH  35  36
ENDBRANCH  33  35
ENDBRANCH  30  33
BRANCH  16  51
HETATM   51  C16 UNL     1     -10.331  -5.427  -4.592  1.00  0.00     0.224 C 
BRANCH  51  52
HETATM   52  O2  UNL     1     -10.484  -4.035  -4.285  1.00  0.00    -0.396 OA
HETATM   53  H23 UNL     1     -10.534  -3.992  -3.308  1.00  0.00     0.209 HD
ENDBRANCH  51  52
ENDBRANCH  16  51
TORSDOF 10
ENDMDL
MODEL 4
REMARK minimizedAffinity -8.11873531
REMARK CNNscore 0.288661301
REMARK CNNaffinity 6.43390083
REMARK  10 active torsions:
REMARK  status: ('A' for Active; 'I' for Inactive)
REMARK    1  A    between atoms: C15_16  and  C16_17 
REMARK    2  A    between atoms: C16_17  and  O2_18 
REMARK    3  A    between atoms: C29_32  and  C30_33 
REMARK    4  A    between atoms: C30_33  and  O5_35 
REMARK    5  A    between atoms: O5_35  and  C31_36 
REMARK    6  A    between atoms: C32_38  and  C33_39 
REMARK    7  A    between atoms: C33_39  and  O7_40 
REMARK    8  A    between atoms: C34_41  and  O8_42 
REMARK    9  A    between atoms: C35_43  and  O9_44 
REMARK   10  A    between atoms: C36_45  and  O10_46 
ROOT
HETATM    1  C1  UNL     1       2.293   7.412   8.043  1.00  0.00     0.043 C 
HETATM    2  C2  UNL     1       2.192   7.633   9.530  1.00  0.00    -0.081 C 
HETATM    3  C3  UNL     1       3.253   7.705  10.372  1.00  0.00    -0.072 C 
HETATM    4  C4  UNL     1       4.670   7.521   9.879  1.00  0.00     0.044 C 
HETATM    5  C5  UNL     1       2.991   7.806  11.900  1.00  0.00     0.062 C 
HETATM    6  C6  UNL     1       4.252   8.087  12.746  1.00  0.00    -0.065 C 
HETATM    7  C7  UNL     1       5.095   7.065  13.006  1.00  0.00    -0.022 C 
HETATM    8  C8  UNL     1       6.411   7.161  13.721  1.00  0.00     0.033 C 
HETATM    9  C9  UNL     1       6.883   8.617  13.929  1.00  0.00     0.007 C 
HETATM   10  C10 UNL     1       8.292   8.771  14.662  1.00  0.00    -0.035 C 
HETATM   11  C11 UNL     1       8.330   8.052  16.033  1.00  0.00     0.016 C 
HETATM   12  C12 UNL     1       9.393   8.112  13.766  1.00  0.00     0.012 C 
HETATM   13  C13 UNL     1      10.831   8.502  14.128  1.00  0.00     0.034 C 
HETATM   14  C14 UNL     1      11.002  10.018  14.156  1.00  0.00     0.135 C 
HETATM   15  O1  UNL     1      12.351  10.374  14.437  1.00  0.00    -0.353 OA
HETATM   16  C15 UNL     1      12.534  11.780  14.245  1.00  0.00     0.283 C 
HETATM   17  O3  UNL     1      11.700  12.541  15.125  1.00  0.00    -0.358 OA
HETATM   18  C17 UNL     1      10.313  12.231  14.952  1.00  0.00     0.183 C 
HETATM   19  C18 UNL     1      10.049  10.714  15.155  1.00  0.00     0.008 C 
HETATM   20  C19 UNL     1      10.404  10.396  16.626  1.00  0.00     0.020 C 
HETATM   21  C20 UNL     1       8.587  10.318  14.755  1.00  0.00     0.007 C 
HETATM   22  C21 UNL     1       7.475  11.045  15.528  1.00  0.00     0.007 C 
HETATM   23  C22 UNL     1       6.161  10.952  14.751  1.00  0.00     0.011 C 
HETATM   24  C23 UNL     1       5.679   9.502  14.446  1.00  0.00    -0.028 C 
HETATM   25  C24 UNL     1       5.105   8.927  15.778  1.00  0.00     0.016 C 
HETATM   26  C25 UNL     1       4.515   9.502  13.288  1.00  0.00    -0.012 C 
HETATM   27  C26 UNL     1       4.919  10.399  12.081  1.00  0.00     0.021 C 
HETATM   28  C27 UNL     1       3.184  10.048  13.870  1.00  0.00     0.016 C 
HETATM   29  C28 UNL     1       2.029  10.039  12.877  1.00  0.00     0.022 C 
HETATM   30  C29 UNL     1       1.711   8.635  12.307  1.00  0.00     0.059 C 
HETATM   31  C37 UNL     1       0.750   8.862  11.100  1.00  0.00     0.025 C 
HETATM   32  C38 UNL     1       0.794   7.740  10.078  1.00  0.00     0.035 C 
ENDROOT
BRANCH  30  33
HETATM   33  C30 UNL     1       0.989   7.862  13.435  1.00  0.00     0.271 C 
HETATM   34  O4  UNL     1       0.350   8.376  14.344  1.00  0.00    -0.264 OA
BRANCH  33  35
HETATM   35  O5  UNL     1       1.040   6.514  13.239  1.00  0.00    -0.286 OA
BRANCH  35  36
HETATM   36  C31 UNL     1       0.390   6.038  12.053  1.00  0.00     0.301 C 
HETATM   37  O6  UNL     1      -1.011   6.335  12.112  1.00  0.00    -0.348 OA
HETATM   38  C32 UNL     1      -1.791   5.536  13.004  1.00  0.00     0.179 C 
HETATM   39  C34 UNL     1      -1.521   4.026  12.875  1.00  0.00     0.180 C 
HETATM   40  C35 UNL     1      -0.602   3.720  11.687  1.00  0.00     0.183 C 
HETATM   41  C36 UNL     1       0.686   4.537  11.809  1.00  0.00     0.205 C 
BRANCH  38  42
HETATM   42  C33 UNL     1      -1.703   6.027  14.461  1.00  0.00     0.198 C 
BRANCH  42  43
HETATM   43  O7  UNL     1      -0.685   5.381  15.212  1.00  0.00    -0.398 OA
HETATM   44  H48 UNL     1      -0.535   4.489  14.849  1.00  0.00     0.209 HD
ENDBRANCH  42  43
ENDBRANCH  38  42
BRANCH  39  45
HETATM   45  O8  UNL     1      -2.776   3.334  12.748  1.00  0.00    -0.390 OA
HETATM   46  H50 UNL     1      -3.116   3.484  11.848  1.00  0.00     0.210 HD
ENDBRANCH  39  45
BRANCH  40  47
HETATM   47  O9  UNL     1      -0.269   2.323  11.709  1.00  0.00    -0.390 OA
HETATM   48  H52 UNL     1      -0.530   1.951  10.850  1.00  0.00     0.210 HD
ENDBRANCH  40  47
BRANCH  41  49
HETATM   49  O10 UNL     1       1.465   4.380  10.608  1.00  0.00    -0.388 OA
HETATM   50  H54 UNL     1       2.348   4.765  10.809  1.00  0.00     0.210 HD
ENDBRANCH  41  49
ENDBRANCH  35  36
ENDBRANCH  33  35
ENDBRANCH  30  33
BRANCH  16  51
HETATM   51  C16 UNL     1      13.998  12.147  14.552  1.00  0.00     0.224 C 
BRANCH  51  52
HETATM   52  O2  UNL     1      14.601  11.208  15.453  1.00  0.00    -0.396 OA
HETATM   53  H23 UNL     1      13.874  10.913  16.039  1.00  0.00     0.209 HD
ENDBRANCH  51  52
ENDBRANCH  16  51
TORSDOF 10
ENDMDL
MODEL 5
REMARK minimizedAffinity -7.14233303
REMARK CNNscore 0.221090615
REMARK CNNaffinity 6.55172968
REMARK  10 active torsions:
REMARK  status: ('A' for Active; 'I' for Inactive)
REMARK    1  A    between atoms: C15_16  and  C16_17 
REMARK    2  A    between atoms: C16_17  and  O2_18 
REMARK    3  A    between atoms: C29_32  and  C30_33 
REMARK    4  A    between atoms: C30_33  and  O5_35 
REMARK    5  A    between atoms: O5_35  and  C31_36 
REMARK    6  A    between atoms: C32_38  and  C33_39 
REMARK    7  A    between atoms: C33_39  and  O7_40 
REMARK    8  A    between atoms: C34_41  and  O8_42 
REMARK    9  A    between atoms: C35_43  and  O9_44 
REMARK   10  A    between atoms: C36_45  and  O10_46 
ROOT
HETATM    1  C1  UNL     1       9.492  18.218  -0.163  1.00  0.00     0.043 C 
HETATM    2  C2  UNL     1       8.256  17.744  -0.882  1.00  0.00    -0.081 C 
HETATM    3  C3  UNL     1       7.172  17.200  -0.275  1.00  0.00    -0.072 C 
HETATM    4  C4  UNL     1       7.130  16.980   1.220  1.00  0.00     0.044 C 
HETATM    5  C5  UNL     1       6.024  16.636  -1.155  1.00  0.00     0.062 C 
HETATM    6  C6  UNL     1       4.757  16.230  -0.370  1.00  0.00    -0.065 C 
HETATM    7  C7  UNL     1       4.760  15.055   0.295  1.00  0.00    -0.022 C 
HETATM    8  C8  UNL     1       3.669  14.539   1.188  1.00  0.00     0.033 C 
HETATM    9  C9  UNL     1       2.599  15.604   1.514  1.00  0.00     0.007 C 
HETATM   10  C10 UNL     1       1.431  15.110   2.483  1.00  0.00    -0.035 C 
HETATM   11  C11 UNL     1       0.708  13.849   1.948  1.00  0.00     0.016 C 
HETATM   12  C12 UNL     1       2.059  14.729   3.865  1.00  0.00     0.012 C 
HETATM   13  C13 UNL     1       1.051  14.605   5.014  1.00  0.00     0.034 C 
HETATM   14  C14 UNL     1       0.202  15.866   5.143  1.00  0.00     0.135 C 
HETATM   15  O1  UNL     1      -0.693  15.768   6.245  1.00  0.00    -0.353 OA
HETATM   16  C15 UNL     1      -1.321  17.033   6.478  1.00  0.00     0.283 C 
HETATM   17  O3  UNL     1      -2.086  17.454   5.344  1.00  0.00    -0.358 OA
HETATM   18  C17 UNL     1      -1.284  17.550   4.161  1.00  0.00     0.183 C 
HETATM   19  C18 UNL     1      -0.580  16.201   3.851  1.00  0.00     0.008 C 
HETATM   20  C19 UNL     1      -1.699  15.175   3.557  1.00  0.00     0.020 C 
HETATM   21  C20 UNL     1       0.469  16.342   2.697  1.00  0.00     0.007 C 
HETATM   22  C21 UNL     1      -0.093  16.841   1.355  1.00  0.00     0.007 C 
HETATM   23  C22 UNL     1       1.044  17.389   0.491  1.00  0.00     0.011 C 
HETATM   24  C23 UNL     1       2.191  16.376   0.196  1.00  0.00    -0.028 C 
HETATM   25  C24 UNL     1       1.652  15.383  -0.879  1.00  0.00     0.016 C 
HETATM   26  C25 UNL     1       3.523  17.149  -0.373  1.00  0.00    -0.012 C 
HETATM   27  C26 UNL     1       3.865  18.397   0.493  1.00  0.00     0.021 C 
HETATM   28  C27 UNL     1       3.282  17.624  -1.830  1.00  0.00     0.016 C 
HETATM   29  C28 UNL     1       4.487  18.310  -2.460  1.00  0.00     0.022 C 
HETATM   30  C29 UNL     1       5.758  17.427  -2.496  1.00  0.00     0.059 C 
HETATM   31  C37 UNL     1       6.940  18.376  -2.862  1.00  0.00     0.025 C 
HETATM   32  C38 UNL     1       8.288  17.869  -2.382  1.00  0.00     0.035 C 
ENDROOT
BRANCH  30  33
HETATM   33  C30 UNL     1       5.532  16.386  -3.618  1.00  0.00     0.271 C 
HETATM   34  O4  UNL     1       6.059  16.417  -4.723  1.00  0.00    -0.264 OA
BRANCH  33  35
HETATM   35  O5  UNL     1       4.761  15.345  -3.197  1.00  0.00    -0.286 OA
BRANCH  35  36
HETATM   36  C31 UNL     1       3.917  14.759  -4.197  1.00  0.00     0.301 C 
HETATM   37  O6  UNL     1       3.233  13.624  -3.652  1.00  0.00    -0.348 OA
HETATM   38  C32 UNL     1       4.018  12.446  -3.453  1.00  0.00     0.179 C 
HETATM   39  C34 UNL     1       4.889  12.074  -4.667  1.00  0.00     0.180 C 
HETATM   40  C35 UNL     1       4.572  12.960  -5.877  1.00  0.00     0.183 C 
HETATM   41  C36 UNL     1       4.711  14.433  -5.487  1.00  0.00     0.205 C 
BRANCH  38  42
HETATM   42  C33 UNL     1       4.824  12.492  -2.142  1.00  0.00     0.198 C 
BRANCH  42  43
HETATM   43  O7  UNL     1       5.823  11.485  -2.061  1.00  0.00    -0.398 OA
HETATM   44  H48 UNL     1       5.546  10.715  -2.591  1.00  0.00     0.209 HD
ENDBRANCH  42  43
ENDBRANCH  38  42
BRANCH  39  45
HETATM   45  O8  UNL     1       4.689  10.683  -4.980  1.00  0.00    -0.390 OA
HETATM   46  H50 UNL     1       3.821  10.590  -5.408  1.00  0.00     0.210 HD
ENDBRANCH  39  45
BRANCH  40  47
HETATM   47  O9  UNL     1       5.514  12.666  -6.921  1.00  0.00    -0.390 OA
HETATM   48  H52 UNL     1       5.002  12.417  -7.710  1.00  0.00     0.210 HD
ENDBRANCH  40  47
BRANCH  41  49
HETATM   49  O10 UNL     1       4.245  15.259  -6.571  1.00  0.00    -0.388 OA
HETATM   50  H54 UNL     1       4.524  16.176  -6.348  1.00  0.00     0.210 HD
ENDBRANCH  41  49
ENDBRANCH  35  36
ENDBRANCH  33  35
ENDBRANCH  30  33
BRANCH  16  51
HETATM   51  C16 UNL     1      -2.284  16.908   7.674  1.00  0.00     0.224 C 
BRANCH  51  52
HETATM   52  O2  UNL     1      -3.600  17.370   7.343  1.00  0.00    -0.396 OA
HETATM   53  H23 UNL     1      -3.463  18.095   6.700  1.00  0.00     0.209 HD
ENDBRANCH  51  52
ENDBRANCH  16  51
TORSDOF 10
ENDMDL
MODEL 6
REMARK minimizedAffinity -7.92509174
REMARK CNNscore 0.194220439
REMARK CNNaffinity 5.88170385
REMARK  10 active torsions:
REMARK  status: ('A' for Active; 'I' for Inactive)
REMARK    1  A    between atoms: C15_16  and  C16_17 
REMARK    2  A    between atoms: C16_17  and  O2_18 
REMARK    3  A    between atoms: C29_32  and  C30_33 
REMARK    4  A    between atoms: C30_33  and  O5_35 
REMARK    5  A    between atoms: O5_35  and  C31_36 
REMARK    6  A    between atoms: C32_38  and  C33_39 
REMARK    7  A    between atoms: C33_39  and  O7_40 
REMARK    8  A    between atoms: C34_41  and  O8_42 
REMARK    9  A    between atoms: C35_43  and  O9_44 
REMARK   10  A    between atoms: C36_45  and  O10_46 
ROOT
HETATM    1  C1  UNL     1       3.247   9.617  23.985  1.00  0.00     0.043 C 
HETATM    2  C2  UNL     1       3.793  10.252  22.732  1.00  0.00    -0.081 C 
HETATM    3  C3  UNL     1       3.076  10.468  21.601  1.00  0.00    -0.072 C 
HETATM    4  C4  UNL     1       1.631  10.037  21.486  1.00  0.00     0.044 C 
HETATM    5  C5  UNL     1       3.805  11.012  20.343  1.00  0.00     0.062 C 
HETATM    6  C6  UNL     1       2.866  11.413  19.184  1.00  0.00    -0.065 C 
HETATM    7  C7  UNL     1       2.351  10.438  18.405  1.00  0.00    -0.022 C 
HETATM    8  C8  UNL     1       1.350  10.620  17.302  1.00  0.00     0.033 C 
HETATM    9  C9  UNL     1       0.725  12.032  17.279  1.00  0.00     0.007 C 
HETATM   10  C10 UNL     1      -0.367  12.268  16.139  1.00  0.00    -0.035 C 
HETATM   11  C11 UNL     1       0.178  11.959  14.722  1.00  0.00     0.016 C 
HETATM   12  C12 UNL     1      -1.567  11.296  16.392  1.00  0.00     0.012 C 
HETATM   13  C13 UNL     1      -2.850  11.652  15.630  1.00  0.00     0.034 C 
HETATM   14  C14 UNL     1      -3.267  13.096  15.893  1.00  0.00     0.135 C 
HETATM   15  O1  UNL     1      -4.488  13.403  15.229  1.00  0.00    -0.353 OA
HETATM   16  C15 UNL     1      -4.968  14.680  15.660  1.00  0.00     0.283 C 
HETATM   17  O3  UNL     1      -4.039  15.723  15.347  1.00  0.00    -0.358 OA
HETATM   18  C17 UNL     1      -2.755  15.492  15.938  1.00  0.00     0.183 C 
HETATM   19  C18 UNL     1      -2.176  14.119  15.502  1.00  0.00     0.008 C 
HETATM   20  C19 UNL     1      -1.962  14.196  13.972  1.00  0.00     0.020 C 
HETATM   21  C20 UNL     1      -0.883  13.749  16.304  1.00  0.00     0.007 C 
HETATM   22  C21 UNL     1       0.276  14.753  16.182  1.00  0.00     0.007 C 
HETATM   23  C22 UNL     1       1.254  14.556  17.342  1.00  0.00     0.011 C 
HETATM   24  C23 UNL     1       1.855  13.123  17.458  1.00  0.00    -0.028 C 
HETATM   25  C24 UNL     1       2.929  12.992  16.334  1.00  0.00     0.016 C 
HETATM   26  C25 UNL     1       2.552  12.896  18.927  1.00  0.00    -0.012 C 
HETATM   27  C26 UNL     1       1.620  13.385  20.075  1.00  0.00     0.021 C 
HETATM   28  C27 UNL     1       3.882  13.691  19.015  1.00  0.00     0.016 C 
HETATM   29  C28 UNL     1       4.626  13.500  20.330  1.00  0.00     0.022 C 
HETATM   30  C29 UNL     1       4.980  12.025  20.636  1.00  0.00     0.059 C 
HETATM   31  C37 UNL     1       5.432  11.985  22.128  1.00  0.00     0.025 C 
HETATM   32  C38 UNL     1       5.252  10.622  22.773  1.00  0.00     0.035 C 
ENDROOT
BRANCH  30  33
HETATM   33  C30 UNL     1       6.159  11.659  19.704  1.00  0.00     0.271 C 
HETATM   34  O4  UNL     1       6.068  10.991  18.682  1.00  0.00    -0.264 OA
BRANCH  33  35
HETATM   35  O5  UNL     1       7.316  12.271  20.085  1.00  0.00    -0.286 OA
BRANCH  35  36
HETATM   36  C31 UNL     1       8.475  11.428  20.126  1.00  0.00     0.301 C 
HETATM   37  O6  UNL     1       9.349  11.853  21.179  1.00  0.00    -0.348 OA
HETATM   38  C32 UNL     1      10.084  13.056  20.946  1.00  0.00     0.179 C 
HETATM   39  C34 UNL     1      10.768  13.104  19.567  1.00  0.00     0.180 C 
HETATM   40  C35 UNL     1      10.645  11.763  18.834  1.00  0.00     0.183 C 
HETATM   41  C36 UNL     1       9.172  11.359  18.744  1.00  0.00     0.205 C 
BRANCH  38  42
HETATM   42  C33 UNL     1       9.251  14.319  21.233  1.00  0.00     0.198 C 
BRANCH  42  43
HETATM   43  O7  UNL     1       9.873  15.206  22.151  1.00  0.00    -0.398 OA
HETATM   44  H48 UNL     1      10.452  14.698  22.747  1.00  0.00     0.209 HD
ENDBRANCH  42  43
ENDBRANCH  38  42
BRANCH  39  45
HETATM   45  O8  UNL     1      12.148  13.473  19.740  1.00  0.00    -0.390 OA
HETATM   46  H50 UNL     1      12.626  12.703  20.097  1.00  0.00     0.210 HD
ENDBRANCH  39  45
BRANCH  40  47
HETATM   47  O9  UNL     1      11.167  11.915  17.505  1.00  0.00    -0.390 OA
HETATM   48  H52 UNL     1      11.863  11.247  17.389  1.00  0.00     0.210 HD
ENDBRANCH  40  47
BRANCH  41  49
HETATM   49  O10 UNL     1       9.077  10.023  18.213  1.00  0.00    -0.388 OA
HETATM   50  H54 UNL     1       8.125   9.886  18.004  1.00  0.00     0.210 HD
ENDBRANCH  41  49
ENDBRANCH  35  36
ENDBRANCH  33  35
ENDBRANCH  30  33
BRANCH  16  51
HETATM   51  C16 UNL     1      -6.289  14.996  14.933  1.00  0.00     0.224 C 
BRANCH  51  52
HETATM   52  O2  UNL     1      -7.323  14.067  15.286  1.00  0.00    -0.396 OA
HETATM   53  H23 UNL     1      -6.861  13.218  15.444  1.00  0.00     0.209 HD
ENDBRANCH  51  52
ENDBRANCH  16  51
TORSDOF 10
ENDMDL
MODEL 7
REMARK minimizedAffinity -7.81175041
REMARK CNNscore 0.190450177
REMARK CNNaffinity 5.97984171
REMARK  10 active torsions:
REMARK  status: ('A' for Active; 'I' for Inactive)
REMARK    1  A    between atoms: C15_16  and  C16_17 
REMARK    2  A    between atoms: C16_17  and  O2_18 
REMARK    3  A    between atoms: C29_32  and  C30_33 
REMARK    4  A    between atoms: C30_33  and  O5_35 
REMARK    5  A    between atoms: O5_35  and  C31_36 
REMARK    6  A    between atoms: C32_38  and  C33_39 
REMARK    7  A    between atoms: C33_39  and  O7_40 
REMARK    8  A    between atoms: C34_41  and  O8_42 
REMARK    9  A    between atoms: C35_43  and  O9_44 
REMARK   10  A    between atoms: C36_45  and  O10_46 
ROOT
HETATM    1  C1  UNL     1      -7.791 -15.633  14.510  1.00  0.00     0.043 C 
HETATM    2  C2  UNL     1      -7.985 -14.418  13.639  1.00  0.00    -0.081 C 
HETATM    3  C3  UNL     1      -9.096 -13.640  13.640  1.00  0.00    -0.072 C 
HETATM    4  C4  UNL     1     -10.287 -13.961  14.513  1.00  0.00     0.044 C 
HETATM    5  C5  UNL     1      -9.210 -12.496  12.596  1.00  0.00     0.062 C 
HETATM    6  C6  UNL     1     -10.410 -11.549  12.815  1.00  0.00    -0.065 C 
HETATM    7  C7  UNL     1     -11.636 -11.962  12.426  1.00  0.00    -0.022 C 
HETATM    8  C8  UNL     1     -12.928 -11.230  12.644  1.00  0.00     0.033 C 
HETATM    9  C9  UNL     1     -12.791 -10.034  13.612  1.00  0.00     0.007 C 
HETATM   10  C10 UNL     1     -14.145  -9.239  13.897  1.00  0.00    -0.035 C 
HETATM   11  C11 UNL     1     -14.821  -8.733  12.598  1.00  0.00     0.016 C 
HETATM   12  C12 UNL     1     -15.155 -10.211  14.593  1.00  0.00     0.012 C 
HETATM   13  C13 UNL     1     -16.344  -9.520  15.273  1.00  0.00     0.034 C 
HETATM   14  C14 UNL     1     -15.873  -8.448  16.251  1.00  0.00     0.135 C 
HETATM   15  O1  UNL     1     -16.977  -7.849  16.921  1.00  0.00    -0.353 OA
HETATM   16  C15 UNL     1     -16.507  -7.008  17.979  1.00  0.00     0.283 C 
HETATM   17  O3  UNL     1     -15.685  -5.948  17.481  1.00  0.00    -0.358 OA
HETATM   18  C17 UNL     1     -14.556  -6.442  16.752  1.00  0.00     0.183 C 
HETATM   19  C18 UNL     1     -15.003  -7.359  15.581  1.00  0.00     0.008 C 
HETATM   20  C19 UNL     1     -15.816  -6.472  14.610  1.00  0.00     0.020 C 
HETATM   21  C20 UNL     1     -13.788  -8.084  14.911  1.00  0.00     0.007 C 
HETATM   22  C21 UNL     1     -12.708  -7.156  14.329  1.00  0.00     0.007 C 
HETATM   23  C22 UNL     1     -11.401  -7.931  14.155  1.00  0.00     0.011 C 
HETATM   24  C23 UNL     1     -11.502  -9.194  13.248  1.00  0.00    -0.028 C 
HETATM   25  C24 UNL     1     -11.573  -8.688  11.775  1.00  0.00     0.016 C 
HETATM   26  C25 UNL     1     -10.191 -10.163  13.445  1.00  0.00    -0.012 C 
HETATM   27  C26 UNL     1      -9.870 -10.379  14.954  1.00  0.00     0.021 C 
HETATM   28  C27 UNL     1      -8.948  -9.522  12.774  1.00  0.00     0.016 C 
HETATM   29  C28 UNL     1      -7.691 -10.378  12.864  1.00  0.00     0.022 C 
HETATM   30  C29 UNL     1      -7.849 -11.782  12.233  1.00  0.00     0.059 C 
HETATM   31  C37 UNL     1      -6.610 -12.610  12.694  1.00  0.00     0.025 C 
HETATM   32  C38 UNL     1      -6.856 -14.108  12.693  1.00  0.00     0.035 C 
ENDROOT
BRANCH  30  33
HETATM   33  C30 UNL     1      -7.821 -11.576  10.700  1.00  0.00     0.271 C 
HETATM   34  O4  UNL     1      -8.810 -11.487   9.983  1.00  0.00    -0.264 OA
BRANCH  33  35
HETATM   35  O5  UNL     1      -6.554 -11.380  10.238  1.00  0.00    -0.286 OA
BRANCH  35  36
HETATM   36  C31 UNL     1      -6.078 -10.029  10.298  1.00  0.00     0.301 C 
HETATM   37  O6  UNL     1      -6.720  -9.241   9.288  1.00  0.00    -0.348 OA
HETATM   38  C32 UNL     1      -6.290  -9.460   7.944  1.00  0.00     0.179 C 
HETATM   39  C34 UNL     1      -4.759  -9.477   7.781  1.00  0.00     0.180 C 
HETATM   40  C35 UNL     1      -4.053  -9.075   9.081  1.00  0.00     0.183 C 
HETATM   41  C36 UNL     1      -4.531  -9.972  10.225  1.00  0.00     0.205 C 
BRANCH  38  42
HETATM   42  C33 UNL     1      -6.963 -10.688   7.304  1.00  0.00     0.198 C 
BRANCH  42  43
HETATM   43  O7  UNL     1      -6.104 -11.409   6.431  1.00  0.00    -0.398 OA
HETATM   44  H48 UNL     1      -5.443 -10.799   6.056  1.00  0.00     0.209 HD
ENDBRANCH  42  43
ENDBRANCH  38  42
BRANCH  39  45
HETATM   45  O8  UNL     1      -4.390  -8.600   6.702  1.00  0.00    -0.390 OA
HETATM   46  H50 UNL     1      -4.479  -7.682   7.013  1.00  0.00     0.210 HD
ENDBRANCH  39  45
BRANCH  40  47
HETATM   47  O9  UNL     1      -2.638  -9.254   8.912  1.00  0.00    -0.390 OA
HETATM   48  H52 UNL     1      -2.213  -8.402   9.106  1.00  0.00     0.210 HD
ENDBRANCH  40  47
BRANCH  41  49
HETATM   49  O10 UNL     1      -3.999  -9.479  11.470  1.00  0.00    -0.388 OA
HETATM   50  H54 UNL     1      -4.178 -10.183  12.135  1.00  0.00     0.210 HD
ENDBRANCH  41  49
ENDBRANCH  35  36
ENDBRANCH  33  35
ENDBRANCH  30  33
BRANCH  16  51
HETATM   51  C16 UNL     1     -17.715  -6.370  18.692  1.00  0.00     0.224 C 
BRANCH  51  52
HETATM   52  O2  UNL     1     -18.183  -7.187  19.773  1.00  0.00    -0.396 OA
HETATM   53  H23 UNL     1     -18.017  -8.109  19.488  1.00  0.00     0.209 HD
ENDBRANCH  51  52
ENDBRANCH  16  51
TORSDOF 10
ENDMDL
MODEL 8
REMARK minimizedAffinity -7.81128788
REMARK CNNscore 0.179130793
REMARK CNNaffinity 6.12835121
REMARK  10 active torsions:
REMARK  status: ('A' for Active; 'I' for Inactive)
REMARK    1  A    between atoms: C15_16  and  C16_17 
REMARK    2  A    between atoms: C16_17  and  O2_18 
REMARK    3  A    between atoms: C29_32  and  C30_33 
REMARK    4  A    between atoms: C30_33  and  O5_35 
REMARK    5  A    between atoms: O5_35  and  C31_36 
REMARK    6  A    between atoms: C32_38  and  C33_39 
REMARK    7  A    between atoms: C33_39  and  O7_40 
REMARK    8  A    between atoms: C34_41  and  O8_42 
REMARK    9  A    between atoms: C35_43  and  O9_44 
REMARK   10  A    between atoms: C36_45  and  O10_46 
ROOT
HETATM    1  C1  UNL     1     -16.220   4.379  15.074  1.00  0.00     0.043 C 
HETATM    2  C2  UNL     1     -16.891   3.231  14.365  1.00  0.00    -0.081 C 
HETATM    3  C3  UNL     1     -16.326   2.016  14.159  1.00  0.00    -0.072 C 
HETATM    4  C4  UNL     1     -14.912   1.715  14.603  1.00  0.00     0.044 C 
HETATM    5  C5  UNL     1     -17.086   0.971  13.298  1.00  0.00     0.062 C 
HETATM    6  C6  UNL     1     -16.454  -0.438  13.297  1.00  0.00    -0.065 C 
HETATM    7  C7  UNL     1     -15.371  -0.659  12.522  1.00  0.00    -0.022 C 
HETATM    8  C8  UNL     1     -14.565  -1.923  12.464  1.00  0.00     0.033 C 
HETATM    9  C9  UNL     1     -14.919  -2.919  13.590  1.00  0.00     0.007 C 
HETATM   10  C10 UNL     1     -14.069  -4.270  13.586  1.00  0.00    -0.035 C 
HETATM   11  C11 UNL     1     -14.152  -5.021  12.234  1.00  0.00     0.016 C 
HETATM   12  C12 UNL     1     -12.564  -3.910  13.821  1.00  0.00     0.012 C 
HETATM   13  C13 UNL     1     -11.678  -5.096  14.226  1.00  0.00     0.034 C 
HETATM   14  C14 UNL     1     -12.249  -5.824  15.438  1.00  0.00     0.135 C 
HETATM   15  O1  UNL     1     -11.394  -6.888  15.843  1.00  0.00    -0.353 OA
HETATM   16  C15 UNL     1     -11.834  -7.414  17.099  1.00  0.00     0.283 C 
HETATM   17  O3  UNL     1     -13.160  -7.944  17.011  1.00  0.00    -0.358 OA
HETATM   18  C17 UNL     1     -14.103  -6.960  16.571  1.00  0.00     0.183 C 
HETATM   19  C18 UNL     1     -13.683  -6.353  15.204  1.00  0.00     0.008 C 
HETATM   20  C19 UNL     1     -13.724  -7.509  14.177  1.00  0.00     0.020 C 
HETATM   21  C20 UNL     1     -14.573  -5.126  14.812  1.00  0.00     0.007 C 
HETATM   22  C21 UNL     1     -16.079  -5.415  14.699  1.00  0.00     0.007 C 
HETATM   23  C22 UNL     1     -16.865  -4.106  14.797  1.00  0.00     0.011 C 
HETATM   24  C23 UNL     1     -16.490  -3.034  13.730  1.00  0.00    -0.028 C 
HETATM   25  C24 UNL     1     -17.130  -3.493  12.384  1.00  0.00     0.016 C 
HETATM   26  C25 UNL     1     -17.071  -1.558  14.153  1.00  0.00    -0.012 C 
HETATM   27  C26 UNL     1     -16.759  -1.235  15.644  1.00  0.00     0.021 C 
HETATM   28  C27 UNL     1     -18.610  -1.516  13.962  1.00  0.00     0.016 C 
HETATM   29  C28 UNL     1     -19.233  -0.164  14.283  1.00  0.00     0.022 C 
HETATM   30  C29 UNL     1     -18.658   1.002  13.442  1.00  0.00     0.059 C 
HETATM   31  C37 UNL     1     -19.161   2.315  14.115  1.00  0.00     0.025 C 
HETATM   32  C38 UNL     1     -18.271   3.513  13.833  1.00  0.00     0.035 C 
ENDROOT
BRANCH  30  33
HETATM   33  C30 UNL     1     -19.263   0.854  12.026  1.00  0.00     0.271 C 
HETATM   34  O4  UNL     1     -18.619   0.670  11.001  1.00  0.00    -0.264 OA
BRANCH  33  35
HETATM   35  O5  UNL     1     -20.625   0.833  12.056  1.00  0.00    -0.286 OA
BRANCH  35  36
HETATM   36  C31 UNL     1     -21.277   1.637  11.064  1.00  0.00     0.301 C 
HETATM   37  O6  UNL     1     -22.518   2.134  11.579  1.00  0.00    -0.348 OA
HETATM   38  C32 UNL     1     -23.584   1.190  11.685  1.00  0.00     0.179 C 
HETATM   39  C34 UNL     1     -23.780   0.335  10.420  1.00  0.00     0.180 C 
HETATM   40  C35 UNL     1     -22.893   0.826   9.269  1.00  0.00     0.183 C 
HETATM   41  C36 UNL     1     -21.434   0.869   9.727  1.00  0.00     0.205 C 
BRANCH  38  42
HETATM   42  C33 UNL     1     -23.486   0.335  12.962  1.00  0.00     0.198 C 
BRANCH  42  43
HETATM   43  O7  UNL     1     -23.879   1.031  14.136  1.00  0.00    -0.398 OA
HETATM   44  H48 UNL     1     -23.714   1.984  14.015  1.00  0.00     0.209 HD
ENDBRANCH  42  43
ENDBRANCH  38  42
BRANCH  39  45
HETATM   45  O8  UNL     1     -25.170   0.361  10.046  1.00  0.00    -0.390 OA
HETATM   46  H50 UNL     1     -25.362   1.229   9.650  1.00  0.00     0.210 HD
ENDBRANCH  39  45
BRANCH  40  47
HETATM   47  O9  UNL     1     -23.009  -0.095   8.174  1.00  0.00    -0.390 OA
HETATM   48  H52 UNL     1     -23.291   0.415   7.396  1.00  0.00     0.210 HD
ENDBRANCH  40  47
BRANCH  41  49
HETATM   49  O10 UNL     1     -20.633   1.492   8.706  1.00  0.00    -0.388 OA
HETATM   50  H54 UNL     1     -19.697   1.329   8.963  1.00  0.00     0.210 HD
ENDBRANCH  41  49
ENDBRANCH  35  36
ENDBRANCH  33  35
ENDBRANCH  30  33
BRANCH  16  51
HETATM   51  C16 UNL     1     -10.897  -8.563  17.522  1.00  0.00     0.224 C 
BRANCH  51  52
HETATM   52  O2  UNL     1      -9.523  -8.154  17.515  1.00  0.00    -0.396 OA
HETATM   53  H23 UNL     1      -9.454  -7.501  16.790  1.00  0.00     0.209 HD
ENDBRANCH  51  52
ENDBRANCH  16  51
TORSDOF 10
ENDMDL
MODEL 9
REMARK minimizedAffinity -7.46842861
REMARK CNNscore 0.165851504
REMARK CNNaffinity 5.71496391
REMARK  10 active torsions:
REMARK  status: ('A' for Active; 'I' for Inactive)
REMARK    1  A    between atoms: C15_16  and  C16_17 
REMARK    2  A    between atoms: C16_17  and  O2_18 
REMARK    3  A    between atoms: C29_32  and  C30_33 
REMARK    4  A    between atoms: C30_33  and  O5_35 
REMARK    5  A    between atoms: O5_35  and  C31_36 
REMARK    6  A    between atoms: C32_38  and  C33_39 
REMARK    7  A    between atoms: C33_39  and  O7_40 
REMARK    8  A    between atoms: C34_41  and  O8_42 
REMARK    9  A    between atoms: C35_43  and  O9_44 
REMARK   10  A    between atoms: C36_45  and  O10_46 
ROOT
HETATM    1  C1  UNL     1       4.849  15.627  23.838  1.00  0.00     0.043 C 
HETATM    2  C2  UNL     1       5.013  14.746  22.626  1.00  0.00    -0.081 C 
HETATM    3  C3  UNL     1       3.987  14.206  21.922  1.00  0.00    -0.072 C 
HETATM    4  C4  UNL     1       2.548  14.417  22.332  1.00  0.00     0.044 C 
HETATM    5  C5  UNL     1       4.308  13.211  20.773  1.00  0.00     0.062 C 
HETATM    6  C6  UNL     1       3.090  12.818  19.910  1.00  0.00    -0.065 C 
HETATM    7  C7  UNL     1       2.224  11.903  20.396  1.00  0.00    -0.022 C 
HETATM    8  C8  UNL     1       0.939  11.469  19.753  1.00  0.00     0.033 C 
HETATM    9  C9  UNL     1       0.524  12.364  18.565  1.00  0.00     0.007 C 
HETATM   10  C10 UNL     1      -0.851  11.959  17.864  1.00  0.00    -0.035 C 
HETATM   11  C11 UNL     1      -0.862  10.486  17.385  1.00  0.00     0.016 C 
HETATM   12  C12 UNL     1      -2.006  12.111  18.910  1.00  0.00     0.012 C 
HETATM   13  C13 UNL     1      -3.417  12.134  18.307  1.00  0.00     0.034 C 
HETATM   14  C14 UNL     1      -3.536  13.198  17.221  1.00  0.00     0.135 C 
HETATM   15  O1  UNL     1      -4.861  13.253  16.705  1.00  0.00    -0.353 OA
HETATM   16  C15 UNL     1      -5.004  14.392  15.850  1.00  0.00     0.283 C 
HETATM   17  O3  UNL     1      -4.114  14.323  14.732  1.00  0.00    -0.358 OA
HETATM   18  C17 UNL     1      -2.745  14.225  15.141  1.00  0.00     0.183 C 
HETATM   19  C18 UNL     1      -2.524  13.000  16.068  1.00  0.00     0.008 C 
HETATM   20  C19 UNL     1      -2.834  11.743  15.222  1.00  0.00     0.020 C 
HETATM   21  C20 UNL     1      -1.092  12.999  16.703  1.00  0.00     0.007 C 
HETATM   22  C21 UNL     1       0.072  12.981  15.698  1.00  0.00     0.007 C 
HETATM   23  C22 UNL     1       1.352  13.461  16.383  1.00  0.00     0.011 C 
HETATM   24  C23 UNL     1       1.774  12.639  17.637  1.00  0.00    -0.028 C 
HETATM   25  C24 UNL     1       2.378  11.298  17.116  1.00  0.00     0.016 C 
HETATM   26  C25 UNL     1       2.894  13.451  18.522  1.00  0.00    -0.012 C 
HETATM   27  C26 UNL     1       2.475  14.935  18.738  1.00  0.00     0.021 C 
HETATM   28  C27 UNL     1       4.263  13.437  17.791  1.00  0.00     0.016 C 
HETATM   29  C28 UNL     1       5.379  14.127  18.564  1.00  0.00     0.022 C 
HETATM   30  C29 UNL     1       5.629  13.523  19.967  1.00  0.00     0.059 C 
HETATM   31  C37 UNL     1       6.552  14.531  20.718  1.00  0.00     0.025 C 
HETATM   32  C38 UNL     1       6.433  14.442  22.229  1.00  0.00     0.035 C 
ENDROOT
BRANCH  30  33
HETATM   33  C30 UNL     1       6.367  12.183  19.737  1.00  0.00     0.271 C 
HETATM   34  O4  UNL     1       5.828  11.087  19.659  1.00  0.00    -0.264 OA
BRANCH  33  35
HETATM   35  O5  UNL     1       7.698  12.369  19.509  1.00  0.00    -0.286 OA
BRANCH  35  36
HETATM   36  C31 UNL     1       8.535  11.239  19.786  1.00  0.00     0.301 C 
HETATM   37  O6  UNL     1       9.239  11.445  21.017  1.00  0.00    -0.348 OA
HETATM   38  C32 UNL     1      10.315  12.384  20.983  1.00  0.00     0.179 C 
HETATM   39  C34 UNL     1      11.270  12.185  19.792  1.00  0.00     0.180 C 
HETATM   40  C35 UNL     1      10.941  10.903  19.017  1.00  0.00     0.183 C 
HETATM   41  C36 UNL     1       9.471  10.923  18.592  1.00  0.00     0.205 C 
BRANCH  38  42
HETATM   42  C33 UNL     1       9.828  13.840  21.108  1.00  0.00     0.198 C 
BRANCH  42  43
HETATM   43  O7  UNL     1      10.712  14.781  20.517  1.00  0.00    -0.398 OA
HETATM   44  H48 UNL     1      11.620  14.428  20.540  1.00  0.00     0.209 HD
ENDBRANCH  42  43
ENDBRANCH  38  42
BRANCH  39  45
HETATM   45  O8  UNL     1      12.626  12.160  20.276  1.00  0.00    -0.390 OA
HETATM   46  H50 UNL     1      12.777  11.303  20.711  1.00  0.00     0.210 HD
ENDBRANCH  39  45
BRANCH  40  47
HETATM   47  O9  UNL     1      11.764  10.852  17.842  1.00  0.00    -0.390 OA
HETATM   48  H52 UNL     1      12.252  10.011  17.867  1.00  0.00     0.210 HD
ENDBRANCH  40  47
BRANCH  41  49
HETATM   49  O10 UNL     1       9.124   9.647  18.021  1.00  0.00    -0.388 OA
HETATM   50  H54 UNL     1       8.242   9.773  17.602  1.00  0.00     0.210 HD
ENDBRANCH  41  49
ENDBRANCH  35  36
ENDBRANCH  33  35
ENDBRANCH  30  33
BRANCH  16  51
HETATM   51  C16 UNL     1      -6.444  14.436  15.302  1.00  0.00     0.224 C 
BRANCH  51  52
HETATM   52  O2  UNL     1      -7.063  15.707  15.544  1.00  0.00    -0.396 OA
HETATM   53  H23 UNL     1      -6.687  16.017  16.393  1.00  0.00     0.209 HD
ENDBRANCH  51  52
ENDBRANCH  16  51
TORSDOF 10
ENDMDL
