MODEL 1
REMARK minimizedAffinity -8.46601391
REMARK CNNscore 0.560196877
REMARK CNNaffinity 7.24086428
REMARK  5 active torsions:
REMARK  status: ('A' for Active; 'I' for Inactive)
REMARK    1  A    between atoms: C4_4  and  C5_5 
REMARK    2  A    between atoms: C5_5  and  C6_6 
REMARK    3  A    between atoms: C6_6  and  C7_7 
REMARK    4  A    between atoms: C7_7  and  C9_9 
REMARK    5  A    between atoms: C24_24  and  O1_26 
ROOT
HETATM    1  C9  UNL     1      -6.680   7.272  14.475  1.00  0.00    -0.002 C 
HETATM    2  C10 UNL     1      -6.477   8.666  15.125  1.00  0.00     0.007 C 
HETATM    3  C11 UNL     1      -4.982   9.023  14.961  1.00  0.00     0.015 C 
HETATM    4  C12 UNL     1      -4.442   8.009  13.934  1.00  0.00    -0.013 C 
HETATM    5  C13 UNL     1      -4.782   8.574  12.518  1.00  0.00     0.021 C 
HETATM    6  C14 UNL     1      -2.952   7.703  13.883  1.00  0.00    -0.068 C 
HETATM    7  C15 UNL     1      -2.530   6.497  13.414  1.00  0.00    -0.068 C 
HETATM    8  C16 UNL     1      -3.513   5.386  13.039  1.00  0.00     0.036 C 
HETATM    9  C17 UNL     1      -5.016   5.651  13.281  1.00  0.00     0.015 C 
HETATM   10  C18 UNL     1      -5.231   6.719  14.360  1.00  0.00    -0.029 C 
HETATM   11  C19 UNL     1      -4.764   6.127  15.723  1.00  0.00     0.016 C 
HETATM   12  C20 UNL     1      -1.014   6.186  13.337  1.00  0.00    -0.016 C 
HETATM   13  C21 UNL     1      -0.652   5.671  14.758  1.00  0.00     0.020 C 
HETATM   14  C22 UNL     1      -0.596   5.069  12.338  1.00  0.00     0.017 C 
HETATM   15  C23 UNL     1      -0.278   5.607  10.953  1.00  0.00     0.039 C 
HETATM   16  C24 UNL     1       0.951   6.558  10.941  1.00  0.00     0.061 C 
HETATM   17  C25 UNL     1       0.830   7.418   9.666  1.00  0.00     0.046 C 
HETATM   18  C26 UNL     1       1.105   7.401  12.289  1.00  0.00    -0.012 C 
HETATM   19  C27 UNL     1       2.116   6.752  13.264  1.00  0.00     0.018 C 
HETATM   20  C28 UNL     1       1.701   8.805  11.997  1.00  0.00     0.018 C 
HETATM   21  C29 UNL     1      -0.325   7.544  12.918  1.00  0.00     0.009 C 
HETATM   22  C30 UNL     1      -0.512   8.580  14.035  1.00  0.00     0.011 C 
HETATM   23  C31 UNL     1      -2.008   8.815  14.306  1.00  0.00     0.036 C 
ENDROOT
BRANCH   1  24
HETATM   24  C7  UNL     1      -7.776   6.357  15.098  1.00  0.00    -0.014 C 
HETATM   25  C8  UNL     1      -8.376   6.860  16.418  1.00  0.00     0.010 C 
BRANCH  24  26
HETATM   26  C6  UNL     1      -8.904   6.133  14.054  1.00  0.00     0.008 C 
BRANCH  26  27
HETATM   27  C5  UNL     1      -9.866   7.317  13.908  1.00  0.00     0.028 C 
BRANCH  27  28
HETATM   28  C4  UNL     1     -11.290   6.842  13.796  1.00  0.00    -0.025 C 
HETATM   29  C2  UNL     1     -12.340   7.493  13.258  1.00  0.00    -0.091 C 
HETATM   30  C1  UNL     1     -13.697   6.838  13.198  1.00  0.00     0.042 C 
HETATM   31  C3  UNL     1     -12.297   8.881  12.683  1.00  0.00     0.042 C 
ENDBRANCH  27  28
ENDBRANCH  26  27
ENDBRANCH  24  26
ENDBRANCH   1  24
BRANCH  16  32
HETATM   32  O1  UNL     1       2.131   5.756  10.766  1.00  0.00    -0.389 OA
HETATM   33  H41 UNL     1       2.051   5.277   9.925  1.00  0.00     0.210 HD
ENDBRANCH  16  32
TORSDOF 5
ENDMDL
MODEL 2
REMARK minimizedAffinity -6.18066502
REMARK CNNscore 0.459497511
REMARK CNNaffinity 6.49266863
REMARK  5 active torsions:
REMARK  status: ('A' for Active; 'I' for Inactive)
REMARK    1  A    between atoms: C4_4  and  C5_5 
REMARK    2  A    between atoms: C5_5  and  C6_6 
REMARK    3  A    between atoms: C6_6  and  C7_7 
REMARK    4  A    between atoms: C7_7  and  C9_9 
REMARK    5  A    between atoms: C24_24  and  O1_26 
ROOT
HETATM    1  C9  UNL     1      -1.769   9.326  15.770  1.00  0.00    -0.002 C 
HETATM    2  C10 UNL     1      -0.379   9.491  16.440  1.00  0.00     0.007 C 
HETATM    3  C11 UNL     1      -0.492  10.683  17.418  1.00  0.00     0.015 C 
HETATM    4  C12 UNL     1      -2.004  10.949  17.546  1.00  0.00    -0.013 C 
HETATM    5  C13 UNL     1      -2.550   9.955  18.620  1.00  0.00     0.021 C 
HETATM    6  C14 UNL     1      -2.498  12.317  17.997  1.00  0.00    -0.068 C 
HETATM    7  C15 UNL     1      -3.732  12.745  17.616  1.00  0.00    -0.068 C 
HETATM    8  C16 UNL     1      -4.604  11.940  16.649  1.00  0.00     0.036 C 
HETATM    9  C17 UNL     1      -4.004  10.647  16.054  1.00  0.00     0.015 C 
HETATM   10  C18 UNL     1      -2.471  10.681  16.071  1.00  0.00    -0.029 C 
HETATM   11  C19 UNL     1      -2.002  11.772  15.062  1.00  0.00     0.016 C 
HETATM   12  C20 UNL     1      -4.251  14.126  18.089  1.00  0.00    -0.016 C 
HETATM   13  C21 UNL     1      -3.671  15.131  17.056  1.00  0.00     0.020 C 
HETATM   14  C22 UNL     1      -5.795  14.316  18.078  1.00  0.00     0.017 C 
HETATM   15  C23 UNL     1      -6.446  13.926  19.395  1.00  0.00     0.039 C 
HETATM   16  C24 UNL     1      -5.996  14.823  20.581  1.00  0.00     0.061 C 
HETATM   17  C25 UNL     1      -6.274  14.022  21.870  1.00  0.00     0.046 C 
HETATM   18  C26 UNL     1      -4.491  15.340  20.441  1.00  0.00    -0.012 C 
HETATM   19  C27 UNL     1      -4.423  16.769  19.852  1.00  0.00     0.018 C 
HETATM   20  C28 UNL     1      -3.820  15.469  21.836  1.00  0.00     0.018 C 
HETATM   21  C29 UNL     1      -3.716  14.295  19.566  1.00  0.00     0.009 C 
HETATM   22  C30 UNL     1      -2.184  14.375  19.550  1.00  0.00     0.011 C 
HETATM   23  C31 UNL     1      -1.584  13.107  18.919  1.00  0.00     0.036 C 
ENDROOT
BRANCH   1  24
HETATM   24  C7  UNL     1      -1.786   8.788  14.309  1.00  0.00    -0.014 C 
HETATM   25  C8  UNL     1      -0.728   9.393  13.376  1.00  0.00     0.010 C 
BRANCH  24  26
HETATM   26  C6  UNL     1      -1.649   7.242  14.335  1.00  0.00     0.008 C 
BRANCH  26  27
HETATM   27  C5  UNL     1      -2.732   6.530  15.153  1.00  0.00     0.028 C 
BRANCH  27  28
HETATM   28  C4  UNL     1      -3.502   5.560  14.297  1.00  0.00    -0.025 C 
HETATM   29  C2  UNL     1      -4.605   5.800  13.561  1.00  0.00    -0.091 C 
HETATM   30  C1  UNL     1      -5.222   4.706  12.728  1.00  0.00     0.042 C 
HETATM   31  C3  UNL     1      -5.325   7.118  13.482  1.00  0.00     0.042 C 
ENDBRANCH  27  28
ENDBRANCH  26  27
ENDBRANCH  24  26
ENDBRANCH   1  24
BRANCH  16  32
HETATM   32  O1  UNL     1      -6.868  15.964  20.630  1.00  0.00    -0.389 OA
HETATM   33  H41 UNL     1      -7.778  15.646  20.756  1.00  0.00     0.210 HD
ENDBRANCH  16  32
TORSDOF 5
ENDMDL
MODEL 3
REMARK minimizedAffinity -8.68683052
REMARK CNNscore 0.438553303
REMARK CNNaffinity 7.14136887
REMARK  5 active torsions:
REMARK  status: ('A' for Active; 'I' for Inactive)
REMARK    1  A    between atoms: C4_4  and  C5_5 
REMARK    2  A    between atoms: C5_5  and  C6_6 
REMARK    3  A    between atoms: C6_6  and  C7_7 
REMARK    4  A    between atoms: C7_7  and  C9_9 
REMARK    5  A    between atoms: C24_24  and  O1_26 
ROOT
HETATM    1  C9  UNL     1      -6.307   6.923  14.350  1.00  0.00    -0.002 C 
HETATM    2  C10 UNL     1      -6.297   8.285  15.093  1.00  0.00     0.007 C 
HETATM    3  C11 UNL     1      -4.839   8.800  15.066  1.00  0.00     0.015 C 
HETATM    4  C12 UNL     1      -4.125   7.914  14.027  1.00  0.00    -0.013 C 
HETATM    5  C13 UNL     1      -4.420   8.533  12.624  1.00  0.00     0.021 C 
HETATM    6  C14 UNL     1      -2.611   7.761  14.073  1.00  0.00    -0.068 C 
HETATM    7  C15 UNL     1      -2.033   6.636  13.570  1.00  0.00    -0.068 C 
HETATM    8  C16 UNL     1      -2.867   5.460  13.057  1.00  0.00     0.036 C 
HETATM    9  C17 UNL     1      -4.402   5.558  13.197  1.00  0.00     0.015 C 
HETATM   10  C18 UNL     1      -4.803   6.526  14.315  1.00  0.00    -0.029 C 
HETATM   11  C19 UNL     1      -4.375   5.896  15.674  1.00  0.00     0.016 C 
HETATM   12  C20 UNL     1      -0.491   6.484  13.592  1.00  0.00    -0.016 C 
HETATM   13  C21 UNL     1      -0.180   5.916  15.005  1.00  0.00     0.020 C 
HETATM   14  C22 UNL     1       0.110   5.481  12.566  1.00  0.00     0.017 C 
HETATM   15  C23 UNL     1       0.469   6.138  11.243  1.00  0.00     0.039 C 
HETATM   16  C24 UNL     1       1.589   7.206  11.381  1.00  0.00     0.061 C 
HETATM   17  C25 UNL     1       1.470   8.131  10.152  1.00  0.00     0.046 C 
HETATM   18  C26 UNL     1       1.558   7.970  12.784  1.00  0.00    -0.012 C 
HETATM   19  C27 UNL     1       2.560   7.363  13.795  1.00  0.00     0.018 C 
HETATM   20  C28 UNL     1       2.024   9.442  12.620  1.00  0.00     0.018 C 
HETATM   21  C29 UNL     1       0.080   7.928  13.307  1.00  0.00     0.009 C 
HETATM   22  C30 UNL     1      -0.293   8.865  14.464  1.00  0.00     0.011 C 
HETATM   23  C31 UNL     1      -1.820   8.932  14.632  1.00  0.00     0.036 C 
ENDROOT
BRANCH   1  24
HETATM   24  C7  UNL     1      -7.343   5.865  14.832  1.00  0.00    -0.014 C 
HETATM   25  C8  UNL     1      -8.351   6.365  15.876  1.00  0.00     0.010 C 
BRANCH  24  26
HETATM   26  C6  UNL     1      -8.094   5.292  13.600  1.00  0.00     0.008 C 
BRANCH  26  27
HETATM   27  C5  UNL     1      -7.675   3.867  13.219  1.00  0.00     0.028 C 
BRANCH  27  28
HETATM   28  C4  UNL     1      -6.655   3.884  12.112  1.00  0.00    -0.025 C 
HETATM   29  C2  UNL     1      -6.118   2.832  11.466  1.00  0.00    -0.091 C 
HETATM   30  C1  UNL     1      -5.131   3.044  10.346  1.00  0.00     0.042 C 
HETATM   31  C3  UNL     1      -6.414   1.388  11.763  1.00  0.00     0.042 C 
ENDBRANCH  27  28
ENDBRANCH  26  27
ENDBRANCH  24  26
ENDBRANCH   1  24
BRANCH  16  32
HETATM   32  O1  UNL     1       2.855   6.539  11.252  1.00  0.00    -0.389 OA
HETATM   33  H41 UNL     1       2.886   6.109  10.380  1.00  0.00     0.210 HD
ENDBRANCH  16  32
TORSDOF 5
ENDMDL
MODEL 4
REMARK minimizedAffinity -6.07209444
REMARK CNNscore 0.435816228
REMARK CNNaffinity 5.39879179
REMARK  5 active torsions:
REMARK  status: ('A' for Active; 'I' for Inactive)
REMARK    1  A    between atoms: C4_4  and  C5_5 
REMARK    2  A    between atoms: C5_5  and  C6_6 
REMARK    3  A    between atoms: C6_6  and  C7_7 
REMARK    4  A    between atoms: C7_7  and  C9_9 
REMARK    5  A    between atoms: C24_24  and  O1_26 
ROOT
HETATM    1  C9  UNL     1      -3.745 -11.480   5.016  1.00  0.00    -0.002 C 
HETATM    2  C10 UNL     1      -4.787 -12.509   5.531  1.00  0.00     0.007 C 
HETATM    3  C11 UNL     1      -5.674 -12.889   4.324  1.00  0.00     0.015 C 
HETATM    4  C12 UNL     1      -4.921 -12.351   3.092  1.00  0.00    -0.013 C 
HETATM    5  C13 UNL     1      -3.855 -13.425   2.708  1.00  0.00     0.021 C 
HETATM    6  C14 UNL     1      -5.679 -12.076   1.800  1.00  0.00    -0.068 C 
HETATM    7  C15 UNL     1      -5.204 -11.144   0.929  1.00  0.00    -0.068 C 
HETATM    8  C16 UNL     1      -3.988 -10.276   1.256  1.00  0.00     0.036 C 
HETATM    9  C17 UNL     1      -3.350 -10.439   2.654  1.00  0.00     0.015 C 
HETATM   10  C18 UNL     1      -4.353 -11.004   3.666  1.00  0.00    -0.029 C 
HETATM   11  C19 UNL     1      -5.448  -9.923   3.914  1.00  0.00     0.016 C 
HETATM   12  C20 UNL     1      -5.957 -10.875  -0.399  1.00  0.00    -0.016 C 
HETATM   13  C21 UNL     1      -7.056  -9.844  -0.017  1.00  0.00     0.020 C 
HETATM   14  C22 UNL     1      -5.119 -10.232  -1.540  1.00  0.00     0.017 C 
HETATM   15  C23 UNL     1      -4.461 -11.264  -2.441  1.00  0.00     0.039 C 
HETATM   16  C24 UNL     1      -5.490 -12.134  -3.216  1.00  0.00     0.061 C 
HETATM   17  C25 UNL     1      -4.752 -13.424  -3.630  1.00  0.00     0.046 C 
HETATM   18  C26 UNL     1      -6.840 -12.384  -2.400  1.00  0.00    -0.012 C 
HETATM   19  C27 UNL     1      -7.958 -11.398  -2.817  1.00  0.00     0.018 C 
HETATM   20  C28 UNL     1      -7.427 -13.785  -2.721  1.00  0.00     0.018 C 
HETATM   21  C29 UNL     1      -6.492 -12.283  -0.874  1.00  0.00     0.009 C 
HETATM   22  C30 UNL     1      -7.529 -12.803   0.130  1.00  0.00     0.011 C 
HETATM   23  C31 UNL     1      -6.908 -12.927   1.531  1.00  0.00     0.036 C 
ENDROOT
BRANCH   1  24
HETATM   24  C7  UNL     1      -3.257 -10.405   6.032  1.00  0.00    -0.014 C 
HETATM   25  C8  UNL     1      -2.587  -9.172   5.409  1.00  0.00     0.010 C 
BRANCH  24  26
HETATM   26  C6  UNL     1      -4.453  -9.966   6.920  1.00  0.00     0.008 C 
BRANCH  26  27
HETATM   27  C5  UNL     1      -4.137  -9.926   8.420  1.00  0.00     0.028 C 
BRANCH  27  28
HETATM   28  C4  UNL     1      -5.154 -10.711   9.205  1.00  0.00    -0.025 C 
HETATM   29  C2  UNL     1      -5.656 -10.430  10.423  1.00  0.00    -0.091 C 
HETATM   30  C1  UNL     1      -6.707 -11.317  11.041  1.00  0.00     0.042 C 
HETATM   31  C3  UNL     1      -5.253  -9.260  11.278  1.00  0.00     0.042 C 
ENDBRANCH  27  28
ENDBRANCH  26  27
ENDBRANCH  24  26
ENDBRANCH   1  24
BRANCH  16  32
HETATM   32  O1  UNL     1      -5.813 -11.454  -4.439  1.00  0.00    -0.389 OA
HETATM   33  H41 UNL     1      -4.994 -11.341  -4.950  1.00  0.00     0.210 HD
ENDBRANCH  16  32
TORSDOF 5
ENDMDL
MODEL 5
REMARK minimizedAffinity -6.32178688
REMARK CNNscore 0.418008804
REMARK CNNaffinity 5.86639023
REMARK  5 active torsions:
REMARK  status: ('A' for Active; 'I' for Inactive)
REMARK    1  A    between atoms: C4_4  and  C5_5 
REMARK    2  A    between atoms: C5_5  and  C6_6 
REMARK    3  A    between atoms: C6_6  and  C7_7 
REMARK    4  A    between atoms: C7_7  and  C9_9 
REMARK    5  A    between atoms: C24_24  and  O1_26 
ROOT
HETATM    1  C9  UNL     1      -7.309 -10.734  -1.214  1.00  0.00    -0.002 C 
HETATM    2  C10 UNL     1      -8.607 -11.353  -0.631  1.00  0.00     0.007 C 
HETATM    3  C11 UNL     1      -8.306 -11.722   0.839  1.00  0.00     0.015 C 
HETATM    4  C12 UNL     1      -6.983 -11.003   1.166  1.00  0.00    -0.013 C 
HETATM    5  C13 UNL     1      -7.350  -9.536   1.559  1.00  0.00     0.021 C 
HETATM    6  C14 UNL     1      -6.109 -11.503   2.308  1.00  0.00    -0.068 C 
HETATM    7  C15 UNL     1      -4.769 -11.270   2.280  1.00  0.00    -0.068 C 
HETATM    8  C16 UNL     1      -4.087 -10.615   1.077  1.00  0.00     0.036 C 
HETATM    9  C17 UNL     1      -4.965 -10.289  -0.151  1.00  0.00     0.015 C 
HETATM   10  C18 UNL     1      -6.218 -11.171  -0.195  1.00  0.00    -0.029 C 
HETATM   11  C19 UNL     1      -5.766 -12.635  -0.477  1.00  0.00     0.016 C 
HETATM   12  C20 UNL     1      -3.876 -11.756   3.450  1.00  0.00    -0.016 C 
HETATM   13  C21 UNL     1      -3.546 -13.233   3.095  1.00  0.00     0.020 C 
HETATM   14  C22 UNL     1      -2.514 -11.023   3.619  1.00  0.00     0.017 C 
HETATM   15  C23 UNL     1      -2.604  -9.823   4.548  1.00  0.00     0.039 C 
HETATM   16  C24 UNL     1      -2.970 -10.213   6.007  1.00  0.00     0.061 C 
HETATM   17  C25 UNL     1      -3.544  -8.944   6.671  1.00  0.00     0.046 C 
HETATM   18  C26 UNL     1      -3.928 -11.489   6.093  1.00  0.00    -0.012 C 
HETATM   19  C27 UNL     1      -3.135 -12.790   6.367  1.00  0.00     0.018 C 
HETATM   20  C28 UNL     1      -4.897 -11.371   7.302  1.00  0.00     0.018 C 
HETATM   21  C29 UNL     1      -4.743 -11.555   4.755  1.00  0.00     0.009 C 
HETATM   22  C30 UNL     1      -5.963 -12.484   4.708  1.00  0.00     0.011 C 
HETATM   23  C31 UNL     1      -6.817 -12.190   3.463  1.00  0.00     0.036 C 
ENDROOT
BRANCH   1  24
HETATM   24  C7  UNL     1      -7.041 -10.960  -2.732  1.00  0.00    -0.014 C 
HETATM   25  C8  UNL     1      -8.100 -11.792  -3.467  1.00  0.00     0.010 C 
BRANCH  24  26
HETATM   26  C6  UNL     1      -6.871  -9.582  -3.428  1.00  0.00     0.008 C 
BRANCH  26  27
HETATM   27  C5  UNL     1      -7.773  -8.480  -2.862  1.00  0.00     0.028 C 
BRANCH  27  28
HETATM   28  C4  UNL     1      -8.282  -7.584  -3.961  1.00  0.00    -0.025 C 
HETATM   29  C2  UNL     1      -8.347  -7.849  -5.280  1.00  0.00    -0.091 C 
HETATM   30  C1  UNL     1      -8.928  -6.838  -6.236  1.00  0.00     0.042 C 
HETATM   31  C3  UNL     1      -7.871  -9.116  -5.935  1.00  0.00     0.042 C 
ENDBRANCH  27  28
ENDBRANCH  26  27
ENDBRANCH  24  26
ENDBRANCH   1  24
BRANCH  16  32
HETATM   32  O1  UNL     1      -1.751 -10.509   6.707  1.00  0.00    -0.389 OA
HETATM   33  H41 UNL     1      -1.189  -9.716   6.687  1.00  0.00     0.210 HD
ENDBRANCH  16  32
TORSDOF 5
ENDMDL
MODEL 6
REMARK minimizedAffinity -6.83320904
REMARK CNNscore 0.415307701
REMARK CNNaffinity 6.27640152
REMARK  5 active torsions:
REMARK  status: ('A' for Active; 'I' for Inactive)
REMARK    1  A    between atoms: C4_4  and  C5_5 
REMARK    2  A    between atoms: C5_5  and  C6_6 
REMARK    3  A    between atoms: C6_6  and  C7_7 
REMARK    4  A    between atoms: C7_7  and  C9_9 
REMARK    5  A    between atoms: C24_24  and  O1_26 
ROOT
HETATM    1  C9  UNL     1       1.012   7.933  12.782  1.00  0.00    -0.002 C 
HETATM    2  C10 UNL     1       0.918   7.218  14.156  1.00  0.00     0.007 C 
HETATM    3  C11 UNL     1       2.325   7.284  14.792  1.00  0.00     0.015 C 
HETATM    4  C12 UNL     1       3.095   8.318  13.948  1.00  0.00    -0.013 C 
HETATM    5  C13 UNL     1       2.723   9.727  14.508  1.00  0.00     0.021 C 
HETATM    6  C14 UNL     1       4.617   8.297  13.926  1.00  0.00    -0.068 C 
HETATM    7  C15 UNL     1       5.280   8.789  12.844  1.00  0.00    -0.068 C 
HETATM    8  C16 UNL     1       4.542   9.261  11.589  1.00  0.00     0.036 C 
HETATM    9  C17 UNL     1       3.007   9.094  11.559  1.00  0.00     0.015 C 
HETATM   10  C18 UNL     1       2.543   7.989  12.514  1.00  0.00    -0.029 C 
HETATM   11  C19 UNL     1       3.047   6.625  11.953  1.00  0.00     0.016 C 
HETATM   12  C20 UNL     1       6.829   8.793  12.824  1.00  0.00    -0.016 C 
HETATM   13  C21 UNL     1       7.212   7.375  12.316  1.00  0.00     0.020 C 
HETATM   14  C22 UNL     1       7.497   9.809  11.854  1.00  0.00     0.017 C 
HETATM   15  C23 UNL     1       7.775  11.152  12.509  1.00  0.00     0.039 C 
HETATM   16  C24 UNL     1       8.802  11.058  13.672  1.00  0.00     0.061 C 
HETATM   17  C25 UNL     1       8.582  12.303  14.556  1.00  0.00     0.046 C 
HETATM   18  C26 UNL     1       8.730   9.671  14.462  1.00  0.00    -0.012 C 
HETATM   19  C27 UNL     1       9.797   8.666  13.965  1.00  0.00     0.018 C 
HETATM   20  C28 UNL     1       9.065   9.874  15.964  1.00  0.00     0.018 C 
HETATM   21  C29 UNL     1       7.270   9.118  14.305  1.00  0.00     0.009 C 
HETATM   22  C30 UNL     1       6.838   7.974  15.232  1.00  0.00     0.011 C 
HETATM   23  C31 UNL     1       5.314   7.778  15.172  1.00  0.00     0.036 C 
ENDROOT
BRANCH   1  24
HETATM   24  C7  UNL     1       0.079   7.409  11.650  1.00  0.00    -0.014 C 
HETATM   25  C8  UNL     1      -1.124   6.583  12.124  1.00  0.00     0.010 C 
BRANCH  24  26
HETATM   26  C6  UNL     1      -0.406   8.611  10.795  1.00  0.00     0.008 C 
BRANCH  26  27
HETATM   27  C5  UNL     1      -0.029   8.518   9.312  1.00  0.00     0.028 C 
BRANCH  27  28
HETATM   28  C4  UNL     1       0.855   7.326   9.057  1.00  0.00    -0.025 C 
HETATM   29  C2  UNL     1       2.062   7.303   8.459  1.00  0.00    -0.091 C 
HETATM   30  C1  UNL     1       2.826   6.010   8.325  1.00  0.00     0.042 C 
HETATM   31  C3  UNL     1       2.764   8.499   7.877  1.00  0.00     0.042 C 
ENDBRANCH  27  28
ENDBRANCH  26  27
ENDBRANCH  24  26
ENDBRANCH   1  24
BRANCH  16  32
HETATM   32  O1  UNL     1      10.118  11.197  13.113  1.00  0.00    -0.389 OA
HETATM   33  H41 UNL     1      10.170  12.060  12.668  1.00  0.00     0.210 HD
ENDBRANCH  16  32
TORSDOF 5
ENDMDL
MODEL 7
REMARK minimizedAffinity -8.61904621
REMARK CNNscore 0.377488822
REMARK CNNaffinity 6.97265244
REMARK  5 active torsions:
REMARK  status: ('A' for Active; 'I' for Inactive)
REMARK    1  A    between atoms: C4_4  and  C5_5 
REMARK    2  A    between atoms: C5_5  and  C6_6 
REMARK    3  A    between atoms: C6_6  and  C7_7 
REMARK    4  A    between atoms: C7_7  and  C9_9 
REMARK    5  A    between atoms: C24_24  and  O1_26 
ROOT
HETATM    1  C9  UNL     1      -3.342   6.721  14.908  1.00  0.00    -0.002 C 
HETATM    2  C10 UNL     1      -3.661   5.325  14.310  1.00  0.00     0.007 C 
HETATM    3  C11 UNL     1      -2.561   5.023  13.266  1.00  0.00     0.015 C 
HETATM    4  C12 UNL     1      -1.463   6.072  13.531  1.00  0.00    -0.013 C 
HETATM    5  C13 UNL     1      -0.579   5.517  14.693  1.00  0.00     0.021 C 
HETATM    6  C14 UNL     1      -0.477   6.431  12.429  1.00  0.00    -0.068 C 
HETATM    7  C15 UNL     1       0.112   7.659  12.429  1.00  0.00    -0.068 C 
HETATM    8  C16 UNL     1      -0.272   8.740  13.441  1.00  0.00     0.036 C 
HETATM    9  C17 UNL     1      -1.414   8.418  14.430  1.00  0.00     0.015 C 
HETATM   10  C18 UNL     1      -2.341   7.326  13.883  1.00  0.00    -0.029 C 
HETATM   11  C19 UNL     1      -3.105   7.914  12.658  1.00  0.00     0.016 C 
HETATM   12  C20 UNL     1       1.135   8.024  11.324  1.00  0.00    -0.016 C 
HETATM   13  C21 UNL     1       0.262   8.529  10.141  1.00  0.00     0.020 C 
HETATM   14  C22 UNL     1       2.129   9.170  11.666  1.00  0.00     0.017 C 
HETATM   15  C23 UNL     1       3.412   8.666  12.305  1.00  0.00     0.039 C 
HETATM   16  C24 UNL     1       4.244   7.759  11.356  1.00  0.00     0.061 C 
HETATM   17  C25 UNL     1       5.171   6.915  12.255  1.00  0.00     0.046 C 
HETATM   18  C26 UNL     1       3.340   6.901  10.356  1.00  0.00    -0.012 C 
HETATM   19  C27 UNL     1       3.222   7.569   8.966  1.00  0.00     0.018 C 
HETATM   20  C28 UNL     1       3.996   5.524  10.064  1.00  0.00     0.018 C 
HETATM   21  C29 UNL     1       1.945   6.698  11.043  1.00  0.00     0.009 C 
HETATM   22  C30 UNL     1       1.006   5.639  10.450  1.00  0.00     0.011 C 
HETATM   23  C31 UNL     1      -0.155   5.347  11.415  1.00  0.00     0.036 C 
ENDROOT
BRANCH   1  24
HETATM   24  C7  UNL     1      -4.554   7.586  15.361  1.00  0.00    -0.014 C 
HETATM   25  C8  UNL     1      -4.963   8.701  14.388  1.00  0.00     0.010 C 
BRANCH  24  26
HETATM   26  C6  UNL     1      -5.766   6.656  15.641  1.00  0.00     0.008 C 
BRANCH  26  27
HETATM   27  C5  UNL     1      -6.767   6.567  14.484  1.00  0.00     0.028 C 
BRANCH  27  28
HETATM   28  C4  UNL     1      -7.026   5.132  14.106  1.00  0.00    -0.025 C 
HETATM   29  C2  UNL     1      -7.778   4.667  13.090  1.00  0.00    -0.091 C 
HETATM   30  C1  UNL     1      -7.891   3.185  12.838  1.00  0.00     0.042 C 
HETATM   31  C3  UNL     1      -8.562   5.519  12.130  1.00  0.00     0.042 C 
ENDBRANCH  27  28
ENDBRANCH  26  27
ENDBRANCH  24  26
ENDBRANCH   1  24
BRANCH  16  32
HETATM   32  O1  UNL     1       5.109   8.604  10.580  1.00  0.00    -0.389 OA
HETATM   33  H41 UNL     1       5.684   9.094  11.191  1.00  0.00     0.210 HD
ENDBRANCH  16  32
TORSDOF 5
ENDMDL
MODEL 8
REMARK minimizedAffinity -6.65854788
REMARK CNNscore 0.358378232
REMARK CNNaffinity 6.2754097
REMARK  5 active torsions:
REMARK  status: ('A' for Active; 'I' for Inactive)
REMARK    1  A    between atoms: C4_4  and  C5_5 
REMARK    2  A    between atoms: C5_5  and  C6_6 
REMARK    3  A    between atoms: C6_6  and  C7_7 
REMARK    4  A    between atoms: C7_7  and  C9_9 
REMARK    5  A    between atoms: C24_24  and  O1_26 
ROOT
HETATM    1  C9  UNL     1     -13.548   6.769  22.967  1.00  0.00    -0.002 C 
HETATM    2  C10 UNL     1     -14.839   7.186  22.213  1.00  0.00     0.007 C 
HETATM    3  C11 UNL     1     -14.711   8.696  21.908  1.00  0.00     0.015 C 
HETATM    4  C12 UNL     1     -13.232   9.032  22.177  1.00  0.00    -0.013 C 
HETATM    5  C13 UNL     1     -12.440   8.656  20.884  1.00  0.00     0.021 C 
HETATM    6  C14 UNL     1     -12.822  10.467  22.479  1.00  0.00    -0.068 C 
HETATM    7  C15 UNL     1     -11.705  10.705  23.219  1.00  0.00    -0.068 C 
HETATM    8  C16 UNL     1     -10.901   9.570  23.858  1.00  0.00     0.036 C 
HETATM    9  C17 UNL     1     -11.444   8.133  23.697  1.00  0.00     0.015 C 
HETATM   10  C18 UNL     1     -12.954   8.130  23.432  1.00  0.00    -0.029 C 
HETATM   11  C19 UNL     1     -13.671   8.624  24.724  1.00  0.00     0.016 C 
HETATM   12  C20 UNL     1     -11.269  12.163  23.512  1.00  0.00    -0.016 C 
HETATM   13  C21 UNL     1     -12.090  12.567  24.768  1.00  0.00     0.020 C 
HETATM   14  C22 UNL     1      -9.770  12.367  23.874  1.00  0.00     0.017 C 
HETATM   15  C23 UNL     1      -8.902  12.642  22.657  1.00  0.00     0.039 C 
HETATM   16  C24 UNL     1      -9.269  13.972  21.940  1.00  0.00     0.061 C 
HETATM   17  C25 UNL     1      -8.730  13.858  20.499  1.00  0.00     0.046 C 
HETATM   18  C26 UNL     1     -10.824  14.326  22.034  1.00  0.00    -0.012 C 
HETATM   19  C27 UNL     1     -11.121  15.324  23.179  1.00  0.00     0.018 C 
HETATM   20  C28 UNL     1     -11.300  15.063  20.752  1.00  0.00     0.018 C 
HETATM   21  C29 UNL     1     -11.604  12.975  22.200  1.00  0.00     0.009 C 
HETATM   22  C30 UNL     1     -13.123  12.998  21.984  1.00  0.00     0.011 C 
HETATM   23  C31 UNL     1     -13.672  11.567  21.866  1.00  0.00     0.036 C 
ENDROOT
BRANCH   1  24
HETATM   24  C7  UNL     1     -13.683   5.622  24.012  1.00  0.00    -0.014 C 
HETATM   25  C8  UNL     1     -14.597   5.929  25.206  1.00  0.00     0.010 C 
BRANCH  24  26
HETATM   26  C6  UNL     1     -14.166   4.334  23.292  1.00  0.00     0.008 C 
BRANCH  26  27
HETATM   27  C5  UNL     1     -13.264   3.115  23.518  1.00  0.00     0.028 C 
BRANCH  27  28
HETATM   28  C4  UNL     1     -13.155   2.791  24.984  1.00  0.00    -0.025 C 
HETATM   29  C2  UNL     1     -12.273   1.971  25.587  1.00  0.00    -0.091 C 
HETATM   30  C1  UNL     1     -12.289   1.798  27.085  1.00  0.00     0.042 C 
HETATM   31  C3  UNL     1     -11.217   1.164  24.883  1.00  0.00     0.042 C 
ENDBRANCH  27  28
ENDBRANCH  26  27
ENDBRANCH  24  26
ENDBRANCH   1  24
BRANCH  16  32
HETATM   32  O1  UNL     1      -8.520  15.030  22.559  1.00  0.00    -0.389 OA
HETATM   33  H41 UNL     1      -7.574  14.830  22.464  1.00  0.00     0.210 HD
ENDBRANCH  16  32
TORSDOF 5
ENDMDL
MODEL 9
REMARK minimizedAffinity -7.47554398
REMARK CNNscore 0.343642235
REMARK CNNaffinity 5.51520729
REMARK  5 active torsions:
REMARK  status: ('A' for Active; 'I' for Inactive)
REMARK    1  A    between atoms: C4_4  and  C5_5 
REMARK    2  A    between atoms: C5_5  and  C6_6 
REMARK    3  A    between atoms: C6_6  and  C7_7 
REMARK    4  A    between atoms: C7_7  and  C9_9 
REMARK    5  A    between atoms: C24_24  and  O1_26 
ROOT
HETATM    1  C9  UNL     1       3.380   7.905  12.100  1.00  0.00    -0.002 C 
HETATM    2  C10 UNL     1       2.715   9.306  12.145  1.00  0.00     0.007 C 
HETATM    3  C11 UNL     1       3.762  10.280  12.732  1.00  0.00     0.015 C 
HETATM    4  C12 UNL     1       5.094   9.507  12.686  1.00  0.00    -0.013 C 
HETATM    5  C13 UNL     1       5.669   9.681  11.244  1.00  0.00     0.021 C 
HETATM    6  C14 UNL     1       6.236   9.905  13.610  1.00  0.00    -0.068 C 
HETATM    7  C15 UNL     1       7.159   8.975  13.977  1.00  0.00    -0.068 C 
HETATM    8  C16 UNL     1       7.026   7.503  13.580  1.00  0.00     0.036 C 
HETATM    9  C17 UNL     1       5.758   7.086  12.803  1.00  0.00     0.015 C 
HETATM   10  C18 UNL     1       4.601   8.061  13.051  1.00  0.00    -0.029 C 
HETATM   11  C19 UNL     1       4.156   7.912  14.537  1.00  0.00     0.016 C 
HETATM   12  C20 UNL     1       8.338   9.379  14.899  1.00  0.00    -0.016 C 
HETATM   13  C21 UNL     1       7.761   9.258  16.337  1.00  0.00     0.020 C 
HETATM   14  C22 UNL     1       9.593   8.462  14.843  1.00  0.00     0.017 C 
HETATM   15  C23 UNL     1      10.608   8.916  13.806  1.00  0.00     0.039 C 
HETATM   16  C24 UNL     1      11.213  10.312  14.123  1.00  0.00     0.061 C 
HETATM   17  C25 UNL     1      11.765  10.864  12.792  1.00  0.00     0.046 C 
HETATM   18  C26 UNL     1      10.186  11.288  14.862  1.00  0.00    -0.012 C 
HETATM   19  C27 UNL     1      10.394  11.290  16.396  1.00  0.00     0.018 C 
HETATM   20  C28 UNL     1      10.427  12.763  14.441  1.00  0.00     0.018 C 
HETATM   21  C29 UNL     1       8.739  10.841  14.456  1.00  0.00     0.009 C 
HETATM   22  C30 UNL     1       7.584  11.804  14.759  1.00  0.00     0.011 C 
HETATM   23  C31 UNL     1       6.309  11.366  14.019  1.00  0.00     0.036 C 
ENDROOT
BRANCH   1  24
HETATM   24  C7  UNL     1       2.444   6.675  12.289  1.00  0.00    -0.014 C 
HETATM   25  C8  UNL     1       0.976   7.009  12.586  1.00  0.00     0.010 C 
BRANCH  24  26
HETATM   26  C6  UNL     1       2.537   5.768  11.032  1.00  0.00     0.008 C 
BRANCH  26  27
HETATM   27  C5  UNL     1       3.433   6.327   9.921  1.00  0.00     0.028 C 
BRANCH  27  28
HETATM   28  C4  UNL     1       2.709   6.339   8.601  1.00  0.00    -0.025 C 
HETATM   29  C2  UNL     1       2.545   7.376   7.757  1.00  0.00    -0.091 C 
HETATM   30  C1  UNL     1       1.819   7.190   6.449  1.00  0.00     0.042 C 
HETATM   31  C3  UNL     1       3.034   8.777   7.998  1.00  0.00     0.042 C 
ENDBRANCH  27  28
ENDBRANCH  26  27
ENDBRANCH  24  26
ENDBRANCH   1  24
BRANCH  16  32
HETATM   32  O1  UNL     1      12.354  10.118  14.974  1.00  0.00    -0.389 OA
HETATM   33  H41 UNL     1      12.993   9.557  14.504  1.00  0.00     0.210 HD
ENDBRANCH  16  32
TORSDOF 5
ENDMDL
