MODEL 1
REMARK minimizedAffinity -7.13182354
REMARK CNNscore 0.577286065
REMARK CNNaffinity 6.34888458
REMARK  6 active torsions:
REMARK  status: ('A' for Active; 'I' for Inactive)
REMARK    1  A    between atoms: C2_2  and  C3_3 
REMARK    2  A    between atoms: C2_2  and  C9_11 
REMARK    3  A    between atoms: C3_3  and  C4_4 
REMARK    4  A    between atoms: C5_5  and  C6_6 
REMARK    5  A    between atoms: C6_6  and  O1_9 
REMARK    6  A    between atoms: O1_9  and  O2_10 
ROOT
HETATM    1  C9  UNL     1     -17.063   2.310  14.937  1.00  0.00    -0.001 C 
HETATM    2  C10 UNL     1     -17.961   2.149  16.197  1.00  0.00     0.007 C 
HETATM    3  C11 UNL     1     -18.061   0.643  16.503  1.00  0.00     0.024 C 
HETATM    4  C12 UNL     1     -17.072  -0.002  15.560  1.00  0.00     0.092 C 
HETATM    5  C13 UNL     1     -15.646  -0.049  16.170  1.00  0.00     0.272 C 
HETATM    6  O3  UNL     1     -15.163   0.700  17.000  1.00  0.00    -0.264 OA
HETATM    7  O4  UNL     1     -14.965  -1.109  15.599  1.00  0.00    -0.305 OA
HETATM    8  C14 UNL     1     -15.834  -1.767  14.645  1.00  0.00     0.113 C 
HETATM    9  C15 UNL     1     -15.659  -1.009  13.290  1.00  0.00     0.043 C 
HETATM   10  C16 UNL     1     -15.852   0.529  13.409  1.00  0.00     0.014 C 
HETATM   11  C17 UNL     1     -17.084   0.896  14.277  1.00  0.00    -0.020 C 
HETATM   12  C18 UNL     1     -18.351   0.698  13.415  1.00  0.00     0.017 C 
HETATM   13  C19 UNL     1     -17.173  -1.437  15.219  1.00  0.00     0.137 A 
HETATM   14  O5  UNL     1     -18.362  -2.022  14.729  1.00  0.00    -0.364 OA
HETATM   15  C20 UNL     1     -17.945  -2.427  16.051  1.00  0.00     0.162 A 
HETATM   16  C21 UNL     1     -17.491  -3.845  16.152  1.00  0.00     0.041 C 
HETATM   17  C22 UNL     1     -15.967  -3.989  15.944  1.00  0.00     0.010 C 
HETATM   18  C23 UNL     1     -15.520  -5.473  16.067  1.00  0.00     0.056 C 
HETATM   19  C24 UNL     1     -15.865  -6.089  17.427  1.00  0.00     0.018 C 
HETATM   20  C25 UNL     1     -14.020  -5.583  15.811  1.00  0.00     0.131 C 
HETATM   21  O6  UNL     1     -13.259  -6.208  16.547  1.00  0.00    -0.298 OA
HETATM   22  C26 UNL     1     -13.512  -4.956  14.537  1.00  0.00     0.079 C 
HETATM   23  C27 UNL     1     -13.961  -3.503  14.465  1.00  0.00     0.020 C 
HETATM   24  C28 UNL     1     -15.503  -3.308  14.595  1.00  0.00    -0.004 C 
HETATM   25  C29 UNL     1     -16.185  -3.968  13.368  1.00  0.00     0.019 C 
ENDROOT
BRANCH   1  26
HETATM   26  C2  UNL     1     -17.328   3.623  14.143  1.00  0.00    -0.010 C 
HETATM   27  C1  UNL     1     -17.698   3.476  12.659  1.00  0.00     0.010 C 
BRANCH  26  28
HETATM   28  C3  UNL     1     -16.175   4.636  14.321  1.00  0.00     0.031 C 
BRANCH  28  29
HETATM   29  C4  UNL     1     -16.434   5.953  13.636  1.00  0.00    -0.027 C 
HETATM   30  C5  UNL     1     -15.464   6.753  13.164  1.00  0.00     0.009 C 
BRANCH  30  31
HETATM   31  C6  UNL     1     -15.628   8.090  12.460  1.00  0.00     0.106 C 
HETATM   32  C7  UNL     1     -14.470   9.087  12.625  1.00  0.00     0.053 C 
HETATM   33  C8  UNL     1     -16.913   8.751  12.983  1.00  0.00     0.053 C 
BRANCH  31  34
HETATM   34  O1  UNL     1     -15.865   7.834  11.059  1.00  0.00    -0.229 OA
BRANCH  34  35
HETATM   35  O2  UNL     1     -16.310   9.083  10.441  1.00  0.00    -0.249 OA
HETATM   36  H15 UNL     1     -15.441   9.350  10.093  1.00  0.00     0.253 HD
ENDBRANCH  34  35
ENDBRANCH  31  34
ENDBRANCH  30  31
ENDBRANCH  28  29
ENDBRANCH  26  28
ENDBRANCH   1  26
TORSDOF 6
ENDMDL
MODEL 2
REMARK minimizedAffinity -7.84081841
REMARK CNNscore 0.249248073
REMARK CNNaffinity 5.60793686
REMARK  6 active torsions:
REMARK  status: ('A' for Active; 'I' for Inactive)
REMARK    1  A    between atoms: C2_2  and  C3_3 
REMARK    2  A    between atoms: C2_2  and  C9_11 
REMARK    3  A    between atoms: C3_3  and  C4_4 
REMARK    4  A    between atoms: C5_5  and  C6_6 
REMARK    5  A    between atoms: C6_6  and  O1_9 
REMARK    6  A    between atoms: O1_9  and  O2_10 
ROOT
HETATM    1  C9  UNL     1       5.524  11.800  21.725  1.00  0.00    -0.001 C 
HETATM    2  C10 UNL     1       4.564  12.003  22.933  1.00  0.00     0.007 C 
HETATM    3  C11 UNL     1       3.131  12.074  22.378  1.00  0.00     0.024 C 
HETATM    4  C12 UNL     1       3.272  11.710  20.918  1.00  0.00     0.092 C 
HETATM    5  C13 UNL     1       3.199  10.176  20.700  1.00  0.00     0.272 C 
HETATM    6  O3  UNL     1       3.493   9.294  21.488  1.00  0.00    -0.264 OA
HETATM    7  O4  UNL     1       2.742   9.941  19.416  1.00  0.00    -0.305 OA
HETATM    8  C14 UNL     1       2.511  11.211  18.759  1.00  0.00     0.113 C 
HETATM    9  C15 UNL     1       3.875  11.635  18.126  1.00  0.00     0.043 C 
HETATM   10  C16 UNL     1       5.061  11.617  19.132  1.00  0.00     0.014 C 
HETATM   11  C17 UNL     1       4.678  12.253  20.495  1.00  0.00    -0.020 C 
HETATM   12  C18 UNL     1       4.706  13.788  20.329  1.00  0.00     0.017 C 
HETATM   13  C19 UNL     1       2.229  12.083  19.938  1.00  0.00     0.137 A 
HETATM   14  O5  UNL     1       1.759  13.408  19.793  1.00  0.00    -0.364 OA
HETATM   15  C20 UNL     1       0.823  12.449  20.334  1.00  0.00     0.162 A 
HETATM   16  C21 UNL     1      -0.324  12.125  19.435  1.00  0.00     0.041 C 
HETATM   17  C22 UNL     1      -0.037  10.901  18.538  1.00  0.00     0.010 C 
HETATM   18  C23 UNL     1      -1.251  10.578  17.622  1.00  0.00     0.056 C 
HETATM   19  C24 UNL     1      -2.532  10.287  18.410  1.00  0.00     0.018 C 
HETATM   20  C25 UNL     1      -0.916   9.394  16.719  1.00  0.00     0.131 C 
HETATM   21  O6  UNL     1      -1.667   8.432  16.570  1.00  0.00    -0.298 OA
HETATM   22  C26 UNL     1       0.362   9.500  15.926  1.00  0.00     0.079 C 
HETATM   23  C27 UNL     1       1.524   9.804  16.862  1.00  0.00     0.020 C 
HETATM   24  C28 UNL     1       1.316  11.077  17.740  1.00  0.00    -0.004 C 
HETATM   25  C29 UNL     1       1.262  12.312  16.804  1.00  0.00     0.019 C 
ENDROOT
BRANCH   1  26
HETATM   26  C2  UNL     1       6.976  12.297  21.989  1.00  0.00    -0.010 C 
HETATM   27  C1  UNL     1       7.156  13.385  23.058  1.00  0.00     0.010 C 
BRANCH  26  28
HETATM   28  C3  UNL     1       7.685  12.699  20.676  1.00  0.00     0.031 C 
BRANCH  28  29
HETATM   29  C4  UNL     1       9.062  12.105  20.543  1.00  0.00    -0.027 C 
HETATM   30  C5  UNL     1      10.067  12.693  19.873  1.00  0.00     0.009 C 
BRANCH  30  31
HETATM   31  C6  UNL     1      11.485  12.175  19.687  1.00  0.00     0.106 C 
HETATM   32  C7  UNL     1      12.407  13.030  18.805  1.00  0.00     0.053 C 
HETATM   33  C8  UNL     1      11.402  10.767  19.078  1.00  0.00     0.053 C 
BRANCH  31  34
HETATM   34  O1  UNL     1      12.073  11.998  20.994  1.00  0.00    -0.229 OA
BRANCH  34  35
HETATM   35  O2  UNL     1      13.526  12.060  20.847  1.00  0.00    -0.249 OA
HETATM   36  H15 UNL     1      13.624  12.997  21.093  1.00  0.00     0.253 HD
ENDBRANCH  34  35
ENDBRANCH  31  34
ENDBRANCH  30  31
ENDBRANCH  28  29
ENDBRANCH  26  28
ENDBRANCH   1  26
TORSDOF 6
ENDMDL
MODEL 3
REMARK minimizedAffinity -7.82722569
REMARK CNNscore 0.23992838
REMARK CNNaffinity 5.64281607
REMARK  6 active torsions:
REMARK  status: ('A' for Active; 'I' for Inactive)
REMARK    1  A    between atoms: C2_2  and  C3_3 
REMARK    2  A    between atoms: C2_2  and  C9_11 
REMARK    3  A    between atoms: C3_3  and  C4_4 
REMARK    4  A    between atoms: C5_5  and  C6_6 
REMARK    5  A    between atoms: C6_6  and  O1_9 
REMARK    6  A    between atoms: O1_9  and  O2_10 
ROOT
HETATM    1  C9  UNL     1      10.284  13.142  18.702  1.00  0.00    -0.001 C 
HETATM    2  C10 UNL     1      10.968  12.277  19.799  1.00  0.00     0.007 C 
HETATM    3  C11 UNL     1       9.897  11.929  20.848  1.00  0.00     0.024 C 
HETATM    4  C12 UNL     1       8.601  12.414  20.241  1.00  0.00     0.092 C 
HETATM    5  C13 UNL     1       7.954  11.335  19.334  1.00  0.00     0.272 C 
HETATM    6  O3  UNL     1       8.511  10.437  18.726  1.00  0.00    -0.264 OA
HETATM    7  O4  UNL     1       6.590  11.556  19.302  1.00  0.00    -0.305 OA
HETATM    8  C14 UNL     1       6.281  12.712  20.119  1.00  0.00     0.113 C 
HETATM    9  C15 UNL     1       6.439  13.961  19.194  1.00  0.00     0.043 C 
HETATM   10  C16 UNL     1       7.806  14.020  18.456  1.00  0.00     0.014 C 
HETATM   11  C17 UNL     1       8.991  13.673  19.395  1.00  0.00    -0.020 C 
HETATM   12  C18 UNL     1       9.289  14.914  20.265  1.00  0.00     0.017 C 
HETATM   13  C19 UNL     1       7.416  12.675  21.087  1.00  0.00     0.137 A 
HETATM   14  O5  UNL     1       7.461  13.518  22.221  1.00  0.00    -0.364 OA
HETATM   15  C20 UNL     1       7.258  12.110  22.474  1.00  0.00     0.162 A 
HETATM   16  C21 UNL     1       5.903  11.763  22.997  1.00  0.00     0.041 C 
HETATM   17  C22 UNL     1       4.913  11.405  21.868  1.00  0.00     0.010 C 
HETATM   18  C23 UNL     1       3.516  11.035  22.441  1.00  0.00     0.056 C 
HETATM   19  C24 UNL     1       3.564   9.849  23.411  1.00  0.00     0.018 C 
HETATM   20  C25 UNL     1       2.552  10.731  21.297  1.00  0.00     0.131 C 
HETATM   21  O6  UNL     1       1.834   9.733  21.272  1.00  0.00    -0.298 OA
HETATM   22  C26 UNL     1       2.448  11.779  20.217  1.00  0.00     0.079 C 
HETATM   23  C27 UNL     1       3.834  12.100  19.677  1.00  0.00     0.020 C 
HETATM   24  C28 UNL     1       4.855  12.541  20.771  1.00  0.00    -0.004 C 
HETATM   25  C29 UNL     1       4.373  13.885  21.377  1.00  0.00     0.019 C 
ENDROOT
BRANCH   1  26
HETATM   26  C2  UNL     1      11.271  14.062  17.924  1.00  0.00    -0.010 C 
HETATM   27  C1  UNL     1      10.706  14.824  16.716  1.00  0.00     0.010 C 
BRANCH  26  28
HETATM   28  C3  UNL     1      12.565  13.309  17.540  1.00  0.00     0.031 C 
BRANCH  28  29
HETATM   29  C4  UNL     1      13.731  13.647  18.431  1.00  0.00    -0.027 C 
HETATM   30  C5  UNL     1      14.515  12.727  19.016  1.00  0.00     0.009 C 
BRANCH  30  31
HETATM   31  C6  UNL     1      15.710  12.970  19.924  1.00  0.00     0.106 C 
HETATM   32  C7  UNL     1      16.273  14.399  19.931  1.00  0.00     0.053 C 
HETATM   33  C8  UNL     1      16.833  12.010  19.503  1.00  0.00     0.053 C 
BRANCH  31  34
HETATM   34  O1  UNL     1      15.343  12.575  21.264  1.00  0.00    -0.229 OA
BRANCH  34  35
HETATM   35  O2  UNL     1      15.953  13.522  22.196  1.00  0.00    -0.249 OA
HETATM   36  H15 UNL     1      15.169  14.089  22.308  1.00  0.00     0.253 HD
ENDBRANCH  34  35
ENDBRANCH  31  34
ENDBRANCH  30  31
ENDBRANCH  28  29
ENDBRANCH  26  28
ENDBRANCH   1  26
TORSDOF 6
ENDMDL
MODEL 4
REMARK minimizedAffinity -9.82640266
REMARK CNNscore 0.219635993
REMARK CNNaffinity 6.55900431
REMARK  6 active torsions:
REMARK  status: ('A' for Active; 'I' for Inactive)
REMARK    1  A    between atoms: C2_2  and  C3_3 
REMARK    2  A    between atoms: C2_2  and  C9_11 
REMARK    3  A    between atoms: C3_3  and  C4_4 
REMARK    4  A    between atoms: C5_5  and  C6_6 
REMARK    5  A    between atoms: C6_6  and  O1_9 
REMARK    6  A    between atoms: O1_9  and  O2_10 
ROOT
HETATM    1  C9  UNL     1      -2.563   7.733  14.805  1.00  0.00    -0.001 C 
HETATM    2  C10 UNL     1      -1.627   8.536  15.754  1.00  0.00     0.007 C 
HETATM    3  C11 UNL     1      -0.220   8.527  15.129  1.00  0.00     0.024 C 
HETATM    4  C12 UNL     1      -0.416   7.913  13.762  1.00  0.00     0.092 C 
HETATM    5  C13 UNL     1      -0.797   8.981  12.703  1.00  0.00     0.272 C 
HETATM    6  O3  UNL     1      -1.365  10.043  12.884  1.00  0.00    -0.264 OA
HETATM    7  O4  UNL     1      -0.390   8.525  11.463  1.00  0.00    -0.305 OA
HETATM    8  C14 UNL     1       0.231   7.226  11.619  1.00  0.00     0.113 C 
HETATM    9  C15 UNL     1      -0.924   6.175  11.552  1.00  0.00     0.043 C 
HETATM   10  C16 UNL     1      -2.092   6.472  12.534  1.00  0.00     0.014 C 
HETATM   11  C17 UNL     1      -1.582   6.883  13.940  1.00  0.00    -0.020 C 
HETATM   12  C18 UNL     1      -1.146   5.601  14.683  1.00  0.00     0.017 C 
HETATM   13  C19 UNL     1       0.722   7.322  13.025  1.00  0.00     0.137 A 
HETATM   14  O5  UNL     1       1.570   6.344  13.591  1.00  0.00    -0.364 OA
HETATM   15  C20 UNL     1       2.160   7.639  13.343  1.00  0.00     0.162 A 
HETATM   16  C21 UNL     1       3.186   7.657  12.259  1.00  0.00     0.041 C 
HETATM   17  C22 UNL     1       2.577   7.994  10.881  1.00  0.00     0.010 C 
HETATM   18  C23 UNL     1       3.668   8.019   9.774  1.00  0.00     0.056 C 
HETATM   19  C24 UNL     1       4.778   9.038  10.053  1.00  0.00     0.018 C 
HETATM   20  C25 UNL     1       3.025   8.310   8.420  1.00  0.00     0.131 C 
HETATM   21  O6  UNL     1       3.459   9.156   7.640  1.00  0.00    -0.298 OA
HETATM   22  C26 UNL     1       1.862   7.432   8.032  1.00  0.00     0.079 C 
HETATM   23  C27 UNL     1       0.815   7.447   9.136  1.00  0.00     0.020 C 
HETATM   24  C28 UNL     1       1.364   7.040  10.538  1.00  0.00    -0.004 C 
HETATM   25  C29 UNL     1       1.814   5.557  10.475  1.00  0.00     0.019 C 
ENDROOT
BRANCH   1  26
HETATM   26  C2  UNL     1      -3.809   7.130  15.519  1.00  0.00    -0.010 C 
HETATM   27  C1  UNL     1      -3.772   5.626  15.830  1.00  0.00     0.010 C 
BRANCH  26  28
HETATM   28  C3  UNL     1      -5.118   7.506  14.789  1.00  0.00     0.031 C 
BRANCH  28  29
HETATM   29  C4  UNL     1      -5.545   6.477  13.775  1.00  0.00    -0.027 C 
HETATM   30  C5  UNL     1      -6.557   5.614  13.968  1.00  0.00     0.009 C 
BRANCH  30  31
HETATM   31  C6  UNL     1      -7.059   4.548  13.008  1.00  0.00     0.106 C 
HETATM   32  C7  UNL     1      -6.006   3.921  12.082  1.00  0.00     0.053 C 
HETATM   33  C8  UNL     1      -8.160   5.171  12.136  1.00  0.00     0.053 C 
BRANCH  31  34
HETATM   34  O1  UNL     1      -7.714   3.519  13.782  1.00  0.00    -0.229 OA
BRANCH  34  35
HETATM   35  O2  UNL     1      -8.672   2.839  12.912  1.00  0.00    -0.249 OA
HETATM   36  H15 UNL     1      -8.096   2.089  12.677  1.00  0.00     0.253 HD
ENDBRANCH  34  35
ENDBRANCH  31  34
ENDBRANCH  30  31
ENDBRANCH  28  29
ENDBRANCH  26  28
ENDBRANCH   1  26
TORSDOF 6
ENDMDL
MODEL 5
REMARK minimizedAffinity -7.52712584
REMARK CNNscore 0.217513189
REMARK CNNaffinity 6.11199236
REMARK  6 active torsions:
REMARK  status: ('A' for Active; 'I' for Inactive)
REMARK    1  A    between atoms: C2_2  and  C3_3 
REMARK    2  A    between atoms: C2_2  and  C9_11 
REMARK    3  A    between atoms: C3_3  and  C4_4 
REMARK    4  A    between atoms: C5_5  and  C6_6 
REMARK    5  A    between atoms: C6_6  and  O1_9 
REMARK    6  A    between atoms: O1_9  and  O2_10 
ROOT
HETATM    1  C9  UNL     1       7.111   9.833  14.156  1.00  0.00    -0.001 C 
HETATM    2  C10 UNL     1       7.989   9.820  12.871  1.00  0.00     0.007 C 
HETATM    3  C11 UNL     1       7.159   9.166  11.751  1.00  0.00     0.024 C 
HETATM    4  C12 UNL     1       5.778   9.010  12.345  1.00  0.00     0.092 C 
HETATM    5  C13 UNL     1       4.917  10.283  12.137  1.00  0.00     0.272 C 
HETATM    6  O3  UNL     1       5.300  11.432  12.005  1.00  0.00    -0.264 OA
HETATM    7  O4  UNL     1       3.585   9.910  12.134  1.00  0.00    -0.305 OA
HETATM    8  C14 UNL     1       3.497   8.478  12.333  1.00  0.00     0.113 C 
HETATM    9  C15 UNL     1       3.491   8.246  13.878  1.00  0.00     0.043 C 
HETATM   10  C16 UNL     1       4.667   8.945  14.616  1.00  0.00     0.014 C 
HETATM   11  C17 UNL     1       6.016   8.758  13.872  1.00  0.00    -0.020 C 
HETATM   12  C18 UNL     1       6.534   7.335  14.175  1.00  0.00     0.017 C 
HETATM   13  C19 UNL     1       4.814   8.042  11.779  1.00  0.00     0.137 A 
HETATM   14  O5  UNL     1       5.129   6.678  11.584  1.00  0.00    -0.364 OA
HETATM   15  C20 UNL     1       4.940   7.472  10.391  1.00  0.00     0.162 A 
HETATM   16  C21 UNL     1       3.721   7.127   9.602  1.00  0.00     0.041 C 
HETATM   17  C22 UNL     1       2.499   7.979  10.010  1.00  0.00     0.010 C 
HETATM   18  C23 UNL     1       1.248   7.609   9.165  1.00  0.00     0.056 C 
HETATM   19  C24 UNL     1       1.467   7.800   7.660  1.00  0.00     0.018 C 
HETATM   20  C25 UNL     1       0.051   8.437   9.625  1.00  0.00     0.131 C 
HETATM   21  O6  UNL     1      -0.687   9.038   8.846  1.00  0.00    -0.298 OA
HETATM   22  C26 UNL     1      -0.251   8.409  11.102  1.00  0.00     0.079 C 
HETATM   23  C27 UNL     1       0.995   8.788  11.889  1.00  0.00     0.020 C 
HETATM   24  C28 UNL     1       2.242   7.908  11.568  1.00  0.00    -0.004 C 
HETATM   25  C29 UNL     1       1.945   6.455  12.024  1.00  0.00     0.019 C 
ENDROOT
BRANCH   1  26
HETATM   26  C2  UNL     1       7.935   9.880  15.476  1.00  0.00    -0.010 C 
HETATM   27  C1  UNL     1       7.740   8.716  16.460  1.00  0.00     0.010 C 
BRANCH  26  28
HETATM   28  C3  UNL     1       7.775  11.237  16.197  1.00  0.00     0.031 C 
BRANCH  28  29
HETATM   29  C4  UNL     1       6.737  11.208  17.288  1.00  0.00    -0.027 C 
HETATM   30  C5  UNL     1       6.799  11.961  18.398  1.00  0.00     0.009 C 
BRANCH  30  31
HETATM   31  C6  UNL     1       5.804  12.002  19.546  1.00  0.00     0.106 C 
HETATM   32  C7  UNL     1       4.637  12.990  19.395  1.00  0.00     0.053 C 
HETATM   33  C8  UNL     1       6.571  12.353  20.831  1.00  0.00     0.053 C 
BRANCH  31  34
HETATM   34  O1  UNL     1       5.298  10.665  19.750  1.00  0.00    -0.229 OA
BRANCH  34  35
HETATM   35  O2  UNL     1       3.861  10.680  19.479  1.00  0.00    -0.249 OA
HETATM   36  H15 UNL     1       3.917  10.359  18.561  1.00  0.00     0.253 HD
ENDBRANCH  34  35
ENDBRANCH  31  34
ENDBRANCH  30  31
ENDBRANCH  28  29
ENDBRANCH  26  28
ENDBRANCH   1  26
TORSDOF 6
ENDMDL
MODEL 6
REMARK minimizedAffinity -7.34624958
REMARK CNNscore 0.186494648
REMARK CNNaffinity 5.72822046
REMARK  6 active torsions:
REMARK  status: ('A' for Active; 'I' for Inactive)
REMARK    1  A    between atoms: C2_2  and  C3_3 
REMARK    2  A    between atoms: C2_2  and  C9_11 
REMARK    3  A    between atoms: C3_3  and  C4_4 
REMARK    4  A    between atoms: C5_5  and  C6_6 
REMARK    5  A    between atoms: C6_6  and  O1_9 
REMARK    6  A    between atoms: O1_9  and  O2_10 
ROOT
HETATM    1  C9  UNL     1     -13.653   7.475  24.113  1.00  0.00    -0.001 C 
HETATM    2  C10 UNL     1     -13.477   6.945  22.661  1.00  0.00     0.007 C 
HETATM    3  C11 UNL     1     -12.831   8.070  21.833  1.00  0.00     0.024 C 
HETATM    4  C12 UNL     1     -12.465   9.126  22.851  1.00  0.00     0.092 C 
HETATM    5  C13 UNL     1     -11.061   8.872  23.460  1.00  0.00     0.272 C 
HETATM    6  O3  UNL     1     -10.480   7.808  23.581  1.00  0.00    -0.264 OA
HETATM    7  O4  UNL     1     -10.544  10.084  23.880  1.00  0.00    -0.305 OA
HETATM    8  C14 UNL     1     -11.507  11.129  23.598  1.00  0.00     0.113 C 
HETATM    9  C15 UNL     1     -12.468  11.187  24.829  1.00  0.00     0.043 C 
HETATM   10  C16 UNL     1     -13.079   9.809  25.207  1.00  0.00     0.014 C 
HETATM   11  C17 UNL     1     -13.565   9.025  23.959  1.00  0.00    -0.020 C 
HETATM   12  C18 UNL     1     -14.920   9.623  23.520  1.00  0.00     0.017 C 
HETATM   13  C19 UNL     1     -12.234  10.528  22.440  1.00  0.00     0.137 A 
HETATM   14  O5  UNL     1     -13.173  11.264  21.683  1.00  0.00    -0.364 OA
HETATM   15  C20 UNL     1     -11.934  10.930  21.021  1.00  0.00     0.162 A 
HETATM   16  C21 UNL     1     -11.046  12.097  20.738  1.00  0.00     0.041 C 
HETATM   17  C22 UNL     1     -10.032  12.351  21.875  1.00  0.00     0.010 C 
HETATM   18  C23 UNL     1      -9.113  13.562  21.549  1.00  0.00     0.056 C 
HETATM   19  C24 UNL     1      -8.320  13.376  20.251  1.00  0.00     0.018 C 
HETATM   20  C25 UNL     1      -8.156  13.811  22.711  1.00  0.00     0.131 C 
HETATM   21  O6  UNL     1      -6.947  13.975  22.560  1.00  0.00    -0.298 OA
HETATM   22  C26 UNL     1      -8.784  13.944  24.076  1.00  0.00     0.079 C 
HETATM   23  C27 UNL     1      -9.663  12.734  24.358  1.00  0.00     0.020 C 
HETATM   24  C28 UNL     1     -10.756  12.476  23.274  1.00  0.00    -0.004 C 
HETATM   25  C29 UNL     1     -11.749  13.667  23.289  1.00  0.00     0.019 C 
ENDROOT
BRANCH   1  26
HETATM   26  C2  UNL     1     -14.786   6.761  24.907  1.00  0.00    -0.010 C 
HETATM   27  C1  UNL     1     -14.594   6.626  26.425  1.00  0.00     0.010 C 
BRANCH  26  28
HETATM   28  C3  UNL     1     -15.147   5.397  24.278  1.00  0.00     0.031 C 
BRANCH  28  29
HETATM   29  C4  UNL     1     -14.056   4.369  24.431  1.00  0.00    -0.027 C 
HETATM   30  C5  UNL     1     -14.180   3.253  25.169  1.00  0.00     0.009 C 
BRANCH  30  31
HETATM   31  C6  UNL     1     -13.142   2.163  25.380  1.00  0.00     0.106 C 
HETATM   32  C7  UNL     1     -12.616   2.000  26.814  1.00  0.00     0.053 C 
HETATM   33  C8  UNL     1     -11.948   2.455  24.457  1.00  0.00     0.053 C 
BRANCH  31  34
HETATM   34  O1  UNL     1     -13.699   0.916  24.912  1.00  0.00    -0.229 OA
BRANCH  34  35
HETATM   35  O2  UNL     1     -14.914   0.648  25.680  1.00  0.00    -0.249 OA
HETATM   36  H15 UNL     1     -15.540   1.003  25.023  1.00  0.00     0.253 HD
ENDBRANCH  34  35
ENDBRANCH  31  34
ENDBRANCH  30  31
ENDBRANCH  28  29
ENDBRANCH  26  28
ENDBRANCH   1  26
TORSDOF 6
ENDMDL
MODEL 7
REMARK minimizedAffinity -6.75760651
REMARK CNNscore 0.181634486
REMARK CNNaffinity 5.92232466
REMARK  6 active torsions:
REMARK  status: ('A' for Active; 'I' for Inactive)
REMARK    1  A    between atoms: C2_2  and  C3_3 
REMARK    2  A    between atoms: C2_2  and  C9_11 
REMARK    3  A    between atoms: C3_3  and  C4_4 
REMARK    4  A    between atoms: C5_5  and  C6_6 
REMARK    5  A    between atoms: C6_6  and  O1_9 
REMARK    6  A    between atoms: O1_9  and  O2_10 
ROOT
HETATM    1  C9  UNL     1      -3.525  12.791  17.251  1.00  0.00    -0.001 C 
HETATM    2  C10 UNL     1      -2.217  13.419  17.812  1.00  0.00     0.007 C 
HETATM    3  C11 UNL     1      -1.039  12.576  17.291  1.00  0.00     0.024 C 
HETATM    4  C12 UNL     1      -1.664  11.628  16.293  1.00  0.00     0.092 C 
HETATM    5  C13 UNL     1      -1.743  12.257  14.877  1.00  0.00     0.272 C 
HETATM    6  O3  UNL     1      -1.809  13.438  14.586  1.00  0.00    -0.264 OA
HETATM    7  O4  UNL     1      -1.740  11.233  13.947  1.00  0.00    -0.305 OA
HETATM    8  C14 UNL     1      -1.670   9.965  14.644  1.00  0.00     0.113 C 
HETATM    9  C15 UNL     1      -3.143   9.566  14.981  1.00  0.00     0.043 C 
HETATM   10  C16 UNL     1      -3.937  10.682  15.717  1.00  0.00     0.014 C 
HETATM   11  C17 UNL     1      -3.102  11.345  16.843  1.00  0.00    -0.020 C 
HETATM   12  C18 UNL     1      -3.105  10.396  18.062  1.00  0.00     0.017 C 
HETATM   13  C19 UNL     1      -0.977  10.379  15.900  1.00  0.00     0.137 A 
HETATM   14  O5  UNL     1      -0.513   9.435  16.844  1.00  0.00    -0.364 OA
HETATM   15  C20 UNL     1       0.498  10.153  16.103  1.00  0.00     0.162 A 
HETATM   16  C21 UNL     1       1.273   9.316  15.140  1.00  0.00     0.041 C 
HETATM   17  C22 UNL     1       0.650   9.319  13.727  1.00  0.00     0.010 C 
HETATM   18  C23 UNL     1       1.483   8.452  12.743  1.00  0.00     0.056 C 
HETATM   19  C24 UNL     1       2.934   8.926  12.612  1.00  0.00     0.018 C 
HETATM   20  C25 UNL     1       0.815   8.441  11.370  1.00  0.00     0.131 C 
HETATM   21  O6  UNL     1       1.427   8.650  10.325  1.00  0.00    -0.298 OA
HETATM   22  C26 UNL     1      -0.645   8.062  11.343  1.00  0.00     0.079 C 
HETATM   23  C27 UNL     1      -1.423   8.943  12.309  1.00  0.00     0.020 C 
HETATM   24  C28 UNL     1      -0.878   8.918  13.771  1.00  0.00    -0.004 C 
HETATM   25  C29 UNL     1      -1.068   7.487  14.339  1.00  0.00     0.019 C 
ENDROOT
BRANCH   1  26
HETATM   26  C2  UNL     1      -4.786  13.098  18.111  1.00  0.00    -0.010 C 
HETATM   27  C1  UNL     1      -5.871  13.974  17.467  1.00  0.00     0.010 C 
BRANCH  26  28
HETATM   28  C3  UNL     1      -4.402  13.640  19.506  1.00  0.00     0.031 C 
BRANCH  28  29
HETATM   29  C4  UNL     1      -5.453  13.375  20.552  1.00  0.00    -0.027 C 
HETATM   30  C5  UNL     1      -6.735  13.760  20.437  1.00  0.00     0.009 C 
BRANCH  30  31
HETATM   31  C6  UNL     1      -7.862  13.537  21.433  1.00  0.00     0.106 C 
HETATM   32  C7  UNL     1      -9.078  12.755  20.913  1.00  0.00     0.053 C 
HETATM   33  C8  UNL     1      -8.343  14.910  21.925  1.00  0.00     0.053 C 
BRANCH  31  34
HETATM   34  O1  UNL     1      -7.311  12.880  22.595  1.00  0.00    -0.229 OA
BRANCH  34  35
HETATM   35  O2  UNL     1      -7.063  13.898  23.614  1.00  0.00    -0.249 OA
HETATM   36  H15 UNL     1      -7.889  13.760  24.112  1.00  0.00     0.253 HD
ENDBRANCH  34  35
ENDBRANCH  31  34
ENDBRANCH  30  31
ENDBRANCH  28  29
ENDBRANCH  26  28
ENDBRANCH   1  26
TORSDOF 6
ENDMDL
MODEL 8
REMARK minimizedAffinity -7.21126938
REMARK CNNscore 0.175995082
REMARK CNNaffinity 5.62037897
REMARK  6 active torsions:
REMARK  status: ('A' for Active; 'I' for Inactive)
REMARK    1  A    between atoms: C2_2  and  C3_3 
REMARK    2  A    between atoms: C2_2  and  C9_11 
REMARK    3  A    between atoms: C3_3  and  C4_4 
REMARK    4  A    between atoms: C5_5  and  C6_6 
REMARK    5  A    between atoms: C6_6  and  O1_9 
REMARK    6  A    between atoms: O1_9  and  O2_10 
ROOT
HETATM    1  C9  UNL     1     -17.431   3.829  14.607  1.00  0.00    -0.001 C 
HETATM    2  C10 UNL     1     -17.364   3.539  16.134  1.00  0.00     0.007 C 
HETATM    3  C11 UNL     1     -17.174   2.021  16.308  1.00  0.00     0.024 C 
HETATM    4  C12 UNL     1     -16.932   1.507  14.907  1.00  0.00     0.092 C 
HETATM    5  C13 UNL     1     -15.430   1.574  14.524  1.00  0.00     0.272 C 
HETATM    6  O3  UNL     1     -14.582   2.337  14.954  1.00  0.00    -0.264 OA
HETATM    7  O4  UNL     1     -15.182   0.606  13.569  1.00  0.00    -0.305 OA
HETATM    8  C14 UNL     1     -16.414  -0.099  13.283  1.00  0.00     0.113 C 
HETATM    9  C15 UNL     1     -17.143   0.719  12.169  1.00  0.00     0.043 C 
HETATM   10  C16 UNL     1     -17.308   2.226  12.512  1.00  0.00     0.014 C 
HETATM   11  C17 UNL     1     -17.773   2.443  13.976  1.00  0.00    -0.020 C 
HETATM   12  C18 UNL     1     -19.289   2.155  14.043  1.00  0.00     0.017 C 
HETATM   13  C19 UNL     1     -17.141   0.081  14.575  1.00  0.00     0.137 A 
HETATM   14  O5  UNL     1     -18.348  -0.597  14.856  1.00  0.00    -0.364 OA
HETATM   15  C20 UNL     1     -17.190  -1.006  15.616  1.00  0.00     0.162 A 
HETATM   16  C21 UNL     1     -16.692  -2.378  15.299  1.00  0.00     0.041 C 
HETATM   17  C22 UNL     1     -15.606  -2.367  14.201  1.00  0.00     0.010 C 
HETATM   18  C23 UNL     1     -15.097  -3.805  13.900  1.00  0.00     0.056 C 
HETATM   19  C24 UNL     1     -14.506  -4.498  15.132  1.00  0.00     0.018 C 
HETATM   20  C25 UNL     1     -14.060  -3.762  12.781  1.00  0.00     0.131 C 
HETATM   21  O6  UNL     1     -12.975  -4.337  12.850  1.00  0.00    -0.298 OA
HETATM   22  C26 UNL     1     -14.470  -3.045  11.519  1.00  0.00     0.079 C 
HETATM   23  C27 UNL     1     -14.949  -1.641  11.858  1.00  0.00     0.020 C 
HETATM   24  C28 UNL     1     -16.099  -1.599  12.911  1.00  0.00    -0.004 C 
HETATM   25  C29 UNL     1     -17.351  -2.278  12.294  1.00  0.00     0.019 C 
ENDROOT
BRANCH   1  26
HETATM   26  C2  UNL     1     -18.197   5.137  14.252  1.00  0.00    -0.010 C 
HETATM   27  C1  UNL     1     -19.698   5.174  14.573  1.00  0.00     0.010 C 
BRANCH  26  28
HETATM   28  C3  UNL     1     -17.940   5.565  12.789  1.00  0.00     0.031 C 
BRANCH  28  29
HETATM   29  C4  UNL     1     -16.590   6.202  12.588  1.00  0.00    -0.027 C 
HETATM   30  C5  UNL     1     -16.268   7.427  13.034  1.00  0.00     0.009 C 
BRANCH  30  31
HETATM   31  C6  UNL     1     -14.939   8.148  12.882  1.00  0.00     0.106 C 
HETATM   32  C7  UNL     1     -13.684   7.262  12.889  1.00  0.00     0.053 C 
HETATM   33  C8  UNL     1     -14.816   9.169  14.024  1.00  0.00     0.053 C 
BRANCH  31  34
HETATM   34  O1  UNL     1     -14.987   8.929  11.668  1.00  0.00    -0.229 OA
BRANCH  34  35
HETATM   35  O2  UNL     1     -16.122   8.458  10.874  1.00  0.00    -0.249 OA
HETATM   36  H15 UNL     1     -16.751   9.143  11.163  1.00  0.00     0.253 HD
ENDBRANCH  34  35
ENDBRANCH  31  34
ENDBRANCH  30  31
ENDBRANCH  28  29
ENDBRANCH  26  28
ENDBRANCH   1  26
TORSDOF 6
ENDMDL
MODEL 9
REMARK minimizedAffinity -8.2400322
REMARK CNNscore 0.170261577
REMARK CNNaffinity 5.82535696
REMARK  6 active torsions:
REMARK  status: ('A' for Active; 'I' for Inactive)
REMARK    1  A    between atoms: C2_2  and  C3_3 
REMARK    2  A    between atoms: C2_2  and  C9_11 
REMARK    3  A    between atoms: C3_3  and  C4_4 
REMARK    4  A    between atoms: C5_5  and  C6_6 
REMARK    5  A    between atoms: C6_6  and  O1_9 
REMARK    6  A    between atoms: O1_9  and  O2_10 
ROOT
HETATM    1  C9  UNL     1       6.317  10.246  15.212  1.00  0.00    -0.001 C 
HETATM    2  C10 UNL     1       7.398  10.422  14.107  1.00  0.00     0.007 C 
HETATM    3  C11 UNL     1       6.862   9.754  12.827  1.00  0.00     0.024 C 
HETATM    4  C12 UNL     1       5.431   9.398  13.156  1.00  0.00     0.092 C 
HETATM    5  C13 UNL     1       4.465  10.574  12.856  1.00  0.00     0.272 C 
HETATM    6  O3  UNL     1       4.717  11.766  12.848  1.00  0.00    -0.264 OA
HETATM    7  O4  UNL     1       3.211  10.051  12.598  1.00  0.00    -0.305 OA
HETATM    8  C14 UNL     1       3.271   8.608  12.711  1.00  0.00     0.113 C 
HETATM    9  C15 UNL     1       3.028   8.273  14.217  1.00  0.00     0.043 C 
HETATM   10  C16 UNL     1       3.962   9.052  15.186  1.00  0.00     0.014 C 
HETATM   11  C17 UNL     1       5.431   9.073  14.688  1.00  0.00    -0.020 C 
HETATM   12  C18 UNL     1       6.065   7.703  15.013  1.00  0.00     0.017 C 
HETATM   13  C19 UNL     1       4.708   8.366  12.383  1.00  0.00     0.137 A 
HETATM   14  O5  UNL     1       5.221   7.064  12.184  1.00  0.00    -0.364 OA
HETATM   15  C20 UNL     1       5.143   7.909  11.015  1.00  0.00     0.162 A 
HETATM   16  C21 UNL     1       4.130   7.480  10.005  1.00  0.00     0.041 C 
HETATM   17  C22 UNL     1       2.759   8.155  10.227  1.00  0.00     0.010 C 
HETATM   18  C23 UNL     1       1.729   7.701   9.155  1.00  0.00     0.056 C 
HETATM   19  C24 UNL     1       2.178   8.017   7.724  1.00  0.00     0.018 C 
HETATM   20  C25 UNL     1       0.376   8.351   9.430  1.00  0.00     0.131 C 
HETATM   21  O6  UNL     1      -0.286   8.914   8.561  1.00  0.00    -0.298 OA
HETATM   22  C26 UNL     1      -0.170   8.188  10.826  1.00  0.00     0.079 C 
HETATM   23  C27 UNL     1       0.864   8.656  11.841  1.00  0.00     0.020 C 
HETATM   24  C28 UNL     1       2.248   7.949  11.708  1.00  0.00    -0.004 C 
HETATM   25  C29 UNL     1       2.063   6.444  12.035  1.00  0.00     0.019 C 
ENDROOT
BRANCH   1  26
HETATM   26  C2  UNL     1       6.889  10.298  16.660  1.00  0.00    -0.010 C 
HETATM   27  C1  UNL     1       6.420  11.458  17.551  1.00  0.00     0.010 C 
BRANCH  26  28
HETATM   28  C3  UNL     1       8.431  10.194  16.665  1.00  0.00     0.031 C 
BRANCH  28  29
HETATM   29  C4  UNL     1       9.084  11.146  17.632  1.00  0.00    -0.027 C 
HETATM   30  C5  UNL     1       9.822  10.754  18.683  1.00  0.00     0.009 C 
BRANCH  30  31
HETATM   31  C6  UNL     1      10.519  11.636  19.706  1.00  0.00     0.106 C 
HETATM   32  C7  UNL     1       9.695  12.013  20.947  1.00  0.00     0.053 C 
HETATM   33  C8  UNL     1      10.955  12.931  19.003  1.00  0.00     0.053 C 
BRANCH  31  34
HETATM   34  O1  UNL     1      11.743  10.981  20.105  1.00  0.00    -0.229 OA
BRANCH  34  35
HETATM   35  O2  UNL     1      12.265  10.256  18.947  1.00  0.00    -0.249 OA
HETATM   36  H15 UNL     1      12.898  10.941  18.665  1.00  0.00     0.253 HD
ENDBRANCH  34  35
ENDBRANCH  31  34
ENDBRANCH  30  31
ENDBRANCH  28  29
ENDBRANCH  26  28
ENDBRANCH   1  26
TORSDOF 6
ENDMDL
