MODEL 1
REMARK minimizedAffinity -9.40925407
REMARK  9 active torsions:
REMARK  status: ('A' for Active; 'I' for Inactive)
REMARK    1  A    between atoms: C2_2  and  C3_3 
REMARK    2  A    between atoms: C2_2  and  C9_11 
REMARK    3  A    between atoms: C3_3  and  C4_4 
REMARK    4  A    between atoms: C4_4  and  C5_5 
REMARK    5  A    between atoms: C6_6  and  C7_7 
REMARK    6  A    between atoms: C6_6  and  C8_9 
REMARK    7  A    between atoms: C7_7  and  O1_8 
REMARK    8  A    between atoms: C8_9  and  O2_10 
REMARK    9  A    between atoms: C11_13  and  O3_14 
ROOT
HETATM    1  C9  UNL     1       1.482   6.802  12.800  1.00  0.00     0.001 C 
HETATM    2  C10 UNL     1       0.766   7.935  13.584  1.00  0.00     0.038 C 
HETATM    3  C11 UNL     1      -0.719   7.515  13.727  1.00  0.00     0.131 C 
HETATM    4  C12 UNL     1      -0.755   6.016  13.297  1.00  0.00     0.014 C 
HETATM    5  C13 UNL     1      -0.355   5.201  14.574  1.00  0.00     0.023 C 
HETATM    6  C14 UNL     1      -2.032   5.331  12.808  1.00  0.00    -0.058 C 
HETATM    7  C15 UNL     1      -1.980   4.234  12.002  1.00  0.00    -0.000 C 
HETATM    8  C16 UNL     1      -0.617   3.750  11.506  1.00  0.00     0.157 C 
HETATM    9  O4  UNL     1      -0.510   2.700  10.874  1.00  0.00    -0.293 OA
HETATM   10  C17 UNL     1       0.643   4.554  11.807  1.00  0.00     0.094 C 
HETATM   11  C18 UNL     1       0.313   6.007  12.144  1.00  0.00    -0.019 C 
HETATM   12  C19 UNL     1      -0.160   6.687  10.826  1.00  0.00     0.017 C 
HETATM   13  C20 UNL     1      -3.239   3.446  11.553  1.00  0.00    -0.008 C 
HETATM   14  C21 UNL     1      -3.440   3.774  10.053  1.00  0.00     0.021 C 
HETATM   15  C22 UNL     1      -3.054   1.901  11.710  1.00  0.00     0.022 C 
HETATM   16  C23 UNL     1      -4.324   1.096  11.974  1.00  0.00     0.080 C 
HETATM   17  C24 UNL     1      -5.563   1.784  11.457  1.00  0.00     0.135 C 
HETATM   18  O5  UNL     1      -6.342   1.202  10.701  1.00  0.00    -0.297 OA
HETATM   19  C25 UNL     1      -5.842   3.188  12.004  1.00  0.00     0.018 C 
HETATM   20  C26 UNL     1      -6.746   3.004  13.242  1.00  0.00     0.023 C 
HETATM   21  C27 UNL     1      -6.640   4.003  10.970  1.00  0.00     0.023 C 
HETATM   22  C28 UNL     1      -4.484   3.843  12.435  1.00  0.00     0.014 C 
HETATM   23  C29 UNL     1      -4.572   5.360  12.618  1.00  0.00     0.011 C 
HETATM   24  C30 UNL     1      -3.335   5.881  13.340  1.00  0.00     0.036 C 
ENDROOT
BRANCH   1  25
HETATM   25  C2  UNL     1       2.705   7.218  11.924  1.00  0.00    -0.013 C 
HETATM   26  C1  UNL     1       2.515   8.679  11.476  1.00  0.00     0.010 C 
BRANCH  25  27
HETATM   27  C3  UNL     1       2.980   6.321  10.690  1.00  0.00     0.008 C 
BRANCH  27  28
HETATM   28  C4  UNL     1       2.755   7.003   9.327  1.00  0.00     0.028 C 
BRANCH  28  29
HETATM   29  C5  UNL     1       2.890   6.067   8.157  1.00  0.00    -0.020 C 
HETATM   30  C6  UNL     1       3.458   4.841   8.112  1.00  0.00    -0.037 C 
BRANCH  30  31
HETATM   31  C7  UNL     1       4.106   4.156   9.285  1.00  0.00     0.200 C 
BRANCH  31  32
HETATM   32  O1  UNL     1       3.221   3.164   9.787  1.00  0.00    -0.397 OA
HETATM   33  H12 UNL     1       3.658   2.770  10.562  1.00  0.00     0.209 HD
ENDBRANCH  31  32
ENDBRANCH  30  31
BRANCH  30  34
HETATM   34  C8  UNL     1       3.516   4.023   6.838  1.00  0.00     0.200 C 
BRANCH  34  35
HETATM   35  O2  UNL     1       4.833   3.559   6.565  1.00  0.00    -0.397 OA
HETATM   36  H15 UNL     1       4.799   3.148   5.685  1.00  0.00     0.209 HD
ENDBRANCH  34  35
ENDBRANCH  30  34
ENDBRANCH  28  29
ENDBRANCH  27  28
ENDBRANCH  25  27
ENDBRANCH   1  25
BRANCH   3  37
HETATM   37  O3  UNL     1      -1.512   8.351  12.891  1.00  0.00    -0.394 OA
HETATM   38  H20 UNL     1      -1.434   9.261  13.225  1.00  0.00     0.210 HD
ENDBRANCH   3  37
TORSDOF 9
ENDMDL
MODEL 2
REMARK minimizedAffinity -9.14646626
REMARK  9 active torsions:
REMARK  status: ('A' for Active; 'I' for Inactive)
REMARK    1  A    between atoms: C2_2  and  C3_3 
REMARK    2  A    between atoms: C2_2  and  C9_11 
REMARK    3  A    between atoms: C3_3  and  C4_4 
REMARK    4  A    between atoms: C4_4  and  C5_5 
REMARK    5  A    between atoms: C6_6  and  C7_7 
REMARK    6  A    between atoms: C6_6  and  C8_9 
REMARK    7  A    between atoms: C7_7  and  O1_8 
REMARK    8  A    between atoms: C8_9  and  O2_10 
REMARK    9  A    between atoms: C11_13  and  O3_14 
ROOT
HETATM    1  C9  UNL     1      -1.908   5.409  12.336  1.00  0.00     0.001 C 
HETATM    2  C10 UNL     1      -2.131   6.028  13.742  1.00  0.00     0.038 C 
HETATM    3  C11 UNL     1      -0.925   6.960  14.021  1.00  0.00     0.131 C 
HETATM    4  C12 UNL     1      -0.197   7.095  12.647  1.00  0.00     0.014 C 
HETATM    5  C13 UNL     1      -0.955   8.232  11.880  1.00  0.00     0.023 C 
HETATM    6  C14 UNL     1       1.276   7.492  12.532  1.00  0.00    -0.058 C 
HETATM    7  C15 UNL     1       2.015   7.148  11.441  1.00  0.00    -0.000 C 
HETATM    8  C16 UNL     1       1.377   6.266  10.369  1.00  0.00     0.157 C 
HETATM    9  O4  UNL     1       1.965   6.026   9.314  1.00  0.00    -0.293 OA
HETATM   10  C17 UNL     1      -0.016   5.683  10.577  1.00  0.00     0.094 C 
HETATM   11  C18 UNL     1      -0.394   5.653  12.058  1.00  0.00    -0.019 C 
HETATM   12  C19 UNL     1       0.485   4.559  12.732  1.00  0.00     0.017 C 
HETATM   13  C20 UNL     1       3.485   7.602  11.230  1.00  0.00    -0.008 C 
HETATM   14  C21 UNL     1       4.360   6.344  11.453  1.00  0.00     0.021 C 
HETATM   15  C22 UNL     1       3.733   8.139   9.783  1.00  0.00     0.022 C 
HETATM   16  C23 UNL     1       4.824   9.196   9.636  1.00  0.00     0.080 C 
HETATM   17  C24 UNL     1       5.858   9.115  10.732  1.00  0.00     0.135 C 
HETATM   18  O5  UNL     1       7.057   9.029  10.467  1.00  0.00    -0.297 OA
HETATM   19  C25 UNL     1       5.341   9.250  12.169  1.00  0.00     0.018 C 
HETATM   20  C26 UNL     1       5.424  10.751  12.524  1.00  0.00     0.023 C 
HETATM   21  C27 UNL     1       6.276   8.499  13.134  1.00  0.00     0.023 C 
HETATM   22  C28 UNL     1       3.846   8.778  12.216  1.00  0.00     0.014 C 
HETATM   23  C29 UNL     1       3.345   8.488  13.633  1.00  0.00     0.011 C 
HETATM   24  C30 UNL     1       1.827   8.356  13.643  1.00  0.00     0.036 C 
ENDROOT
BRANCH   1  25
HETATM   25  C2  UNL     1      -2.508   3.989  12.089  1.00  0.00    -0.013 C 
HETATM   26  C1  UNL     1      -2.811   3.839  10.585  1.00  0.00     0.010 C 
BRANCH  25  27
HETATM   27  C3  UNL     1      -3.771   3.643  12.916  1.00  0.00     0.008 C 
BRANCH  27  28
HETATM   28  C4  UNL     1      -5.064   4.346  12.457  1.00  0.00     0.028 C 
BRANCH  28  29
HETATM   29  C5  UNL     1      -5.829   4.991  13.580  1.00  0.00    -0.020 C 
HETATM   30  C6  UNL     1      -7.166   5.076  13.758  1.00  0.00    -0.037 C 
BRANCH  30  31
HETATM   31  C7  UNL     1      -8.191   4.521  12.807  1.00  0.00     0.200 C 
BRANCH  31  32
HETATM   32  O1  UNL     1      -8.592   3.234  13.258  1.00  0.00    -0.397 OA
HETATM   33  H12 UNL     1      -9.225   2.895  12.601  1.00  0.00     0.209 HD
ENDBRANCH  31  32
ENDBRANCH  30  31
BRANCH  30  34
HETATM   34  C8  UNL     1      -7.779   5.772  14.955  1.00  0.00     0.200 C 
BRANCH  34  35
HETATM   35  O2  UNL     1      -8.189   4.847  15.956  1.00  0.00    -0.397 OA
HETATM   36  H15 UNL     1      -8.666   5.365  16.625  1.00  0.00     0.209 HD
ENDBRANCH  34  35
ENDBRANCH  30  34
ENDBRANCH  28  29
ENDBRANCH  27  28
ENDBRANCH  25  27
ENDBRANCH   1  25
BRANCH   3  37
HETATM   37  O3  UNL     1      -0.109   6.363  15.023  1.00  0.00    -0.394 OA
HETATM   38  H20 UNL     1      -0.634   6.316  15.841  1.00  0.00     0.210 HD
ENDBRANCH   3  37
TORSDOF 9
ENDMDL
MODEL 3
REMARK minimizedAffinity -9.10467148
REMARK  9 active torsions:
REMARK  status: ('A' for Active; 'I' for Inactive)
REMARK    1  A    between atoms: C2_2  and  C3_3 
REMARK    2  A    between atoms: C2_2  and  C9_11 
REMARK    3  A    between atoms: C3_3  and  C4_4 
REMARK    4  A    between atoms: C4_4  and  C5_5 
REMARK    5  A    between atoms: C6_6  and  C7_7 
REMARK    6  A    between atoms: C6_6  and  C8_9 
REMARK    7  A    between atoms: C7_7  and  O1_8 
REMARK    8  A    between atoms: C8_9  and  O2_10 
REMARK    9  A    between atoms: C11_13  and  O3_14 
ROOT
HETATM    1  C9  UNL     1      -1.503   5.997  12.197  1.00  0.00     0.001 C 
HETATM    2  C10 UNL     1      -2.087   7.001  13.227  1.00  0.00     0.038 C 
HETATM    3  C11 UNL     1      -1.006   8.088  13.460  1.00  0.00     0.131 C 
HETATM    4  C12 UNL     1       0.046   7.855  12.330  1.00  0.00     0.014 C 
HETATM    5  C13 UNL     1      -0.509   8.612  11.076  1.00  0.00     0.023 C 
HETATM    6  C14 UNL     1       1.493   8.337  12.442  1.00  0.00    -0.058 C 
HETATM    7  C15 UNL     1       2.491   7.742  11.732  1.00  0.00    -0.000 C 
HETATM    8  C16 UNL     1       2.161   6.509  10.891  1.00  0.00     0.157 C 
HETATM    9  O4  UNL     1       3.002   6.008  10.144  1.00  0.00    -0.293 OA
HETATM   10  C17 UNL     1       0.770   5.888  10.945  1.00  0.00     0.094 C 
HETATM   11  C18 UNL     1       0.027   6.288  12.220  1.00  0.00    -0.019 C 
HETATM   12  C19 UNL     1       0.723   5.553  13.403  1.00  0.00     0.017 C 
HETATM   13  C20 UNL     1       3.959   8.248  11.736  1.00  0.00    -0.008 C 
HETATM   14  C21 UNL     1       4.767   7.216  12.560  1.00  0.00     0.021 C 
HETATM   15  C22 UNL     1       4.559   8.323  10.294  1.00  0.00     0.022 C 
HETATM   16  C23 UNL     1       5.636   9.382  10.070  1.00  0.00     0.080 C 
HETATM   17  C24 UNL     1       6.357   9.752  11.342  1.00  0.00     0.135 C 
HETATM   18  O5  UNL     1       7.586   9.704  11.411  1.00  0.00    -0.297 OA
HETATM   19  C25 UNL     1       5.489  10.281  12.489  1.00  0.00     0.018 C 
HETATM   20  C26 UNL     1       5.456  11.818  12.340  1.00  0.00     0.023 C 
HETATM   21  C27 UNL     1       6.158   9.966  13.840  1.00  0.00     0.023 C 
HETATM   22  C28 UNL     1       4.040   9.704  12.335  1.00  0.00     0.014 C 
HETATM   23  C29 UNL     1       3.198   9.826  13.608  1.00  0.00     0.011 C 
HETATM   24  C30 UNL     1       1.730   9.556  13.303  1.00  0.00     0.036 C 
ENDROOT
BRANCH   1  25
HETATM   25  C2  UNL     1      -1.999   4.520  12.297  1.00  0.00    -0.013 C 
HETATM   26  C1  UNL     1      -2.153   3.957  10.871  1.00  0.00     0.010 C 
BRANCH  25  27
HETATM   27  C3  UNL     1      -3.311   4.307  13.092  1.00  0.00     0.008 C 
BRANCH  27  28
HETATM   28  C4  UNL     1      -4.585   4.829  12.399  1.00  0.00     0.028 C 
BRANCH  28  29
HETATM   29  C5  UNL     1      -5.835   4.102  12.812  1.00  0.00    -0.020 C 
HETATM   30  C6  UNL     1      -6.349   2.952  12.324  1.00  0.00    -0.037 C 
BRANCH  30  31
HETATM   31  C7  UNL     1      -5.737   2.149  11.208  1.00  0.00     0.200 C 
BRANCH  31  32
HETATM   32  O1  UNL     1      -6.449   0.926  11.074  1.00  0.00    -0.397 OA
HETATM   33  H12 UNL     1      -6.004   0.422  10.370  1.00  0.00     0.209 HD
ENDBRANCH  31  32
ENDBRANCH  30  31
BRANCH  30  34
HETATM   34  C8  UNL     1      -7.635   2.351  12.854  1.00  0.00     0.200 C 
BRANCH  34  35
HETATM   35  O2  UNL     1      -8.596   3.352  13.172  1.00  0.00    -0.397 OA
HETATM   36  H15 UNL     1      -9.334   2.891  13.604  1.00  0.00     0.209 HD
ENDBRANCH  34  35
ENDBRANCH  30  34
ENDBRANCH  28  29
ENDBRANCH  27  28
ENDBRANCH  25  27
ENDBRANCH   1  25
BRANCH   3  37
HETATM   37  O3  UNL     1      -0.463   7.919  14.765  1.00  0.00    -0.394 OA
HETATM   38  H20 UNL     1      -1.179   8.080  15.404  1.00  0.00     0.210 HD
ENDBRANCH   3  37
TORSDOF 9
ENDMDL
MODEL 4
REMARK minimizedAffinity -9.04747963
REMARK  9 active torsions:
REMARK  status: ('A' for Active; 'I' for Inactive)
REMARK    1  A    between atoms: C2_2  and  C3_3 
REMARK    2  A    between atoms: C2_2  and  C9_11 
REMARK    3  A    between atoms: C3_3  and  C4_4 
REMARK    4  A    between atoms: C4_4  and  C5_5 
REMARK    5  A    between atoms: C6_6  and  C7_7 
REMARK    6  A    between atoms: C6_6  and  C8_9 
REMARK    7  A    between atoms: C7_7  and  O1_8 
REMARK    8  A    between atoms: C8_9  and  O2_10 
REMARK    9  A    between atoms: C11_13  and  O3_14 
ROOT
HETATM    1  C9  UNL     1      -2.063   7.918  13.934  1.00  0.00     0.001 C 
HETATM    2  C10 UNL     1      -1.968   7.688  15.466  1.00  0.00     0.038 C 
HETATM    3  C11 UNL     1      -0.480   7.875  15.859  1.00  0.00     0.131 C 
HETATM    4  C12 UNL     1       0.189   8.511  14.601  1.00  0.00     0.014 C 
HETATM    5  C13 UNL     1      -0.080  10.050  14.713  1.00  0.00     0.023 C 
HETATM    6  C14 UNL     1       1.693   8.418  14.334  1.00  0.00    -0.058 C 
HETATM    7  C15 UNL     1       2.192   8.524  13.072  1.00  0.00    -0.000 C 
HETATM    8  C16 UNL     1       1.216   8.636  11.901  1.00  0.00     0.157 C 
HETATM    9  O4  UNL     1       1.620   8.850  10.758  1.00  0.00    -0.293 OA
HETATM   10  C17 UNL     1      -0.285   8.508  12.134  1.00  0.00     0.094 C 
HETATM   11  C18 UNL     1      -0.589   7.785  13.445  1.00  0.00    -0.019 C 
HETATM   12  C19 UNL     1      -0.195   6.292  13.245  1.00  0.00     0.017 C 
HETATM   13  C20 UNL     1       3.712   8.530  12.754  1.00  0.00    -0.008 C 
HETATM   14  C21 UNL     1       4.020   7.161  12.099  1.00  0.00     0.021 C 
HETATM   15  C22 UNL     1       4.099   9.666  11.753  1.00  0.00     0.022 C 
HETATM   16  C23 UNL     1       5.516  10.221  11.882  1.00  0.00     0.080 C 
HETATM   17  C24 UNL     1       6.472   9.228  12.497  1.00  0.00     0.135 C 
HETATM   18  O5  UNL     1       7.526   8.932  11.934  1.00  0.00    -0.297 OA
HETATM   19  C25 UNL     1       6.105   8.700  13.888  1.00  0.00     0.018 C 
HETATM   20  C26 UNL     1       6.793   9.637  14.906  1.00  0.00     0.023 C 
HETATM   21  C27 UNL     1       6.697   7.293  14.087  1.00  0.00     0.023 C 
HETATM   22  C28 UNL     1       4.549   8.779  14.066  1.00  0.00     0.014 C 
HETATM   23  C29 UNL     1       4.027   7.929  15.227  1.00  0.00     0.011 C 
HETATM   24  C30 UNL     1       2.584   8.298  15.549  1.00  0.00     0.036 C 
ENDROOT
BRANCH   1  25
HETATM   25  C2  UNL     1      -3.188   7.147  13.175  1.00  0.00    -0.013 C 
HETATM   26  C1  UNL     1      -4.445   8.037  13.124  1.00  0.00     0.010 C 
BRANCH  25  27
HETATM   27  C3  UNL     1      -3.552   5.756  13.751  1.00  0.00     0.008 C 
BRANCH  27  28
HETATM   28  C4  UNL     1      -4.164   4.771  12.736  1.00  0.00     0.028 C 
BRANCH  28  29
HETATM   29  C5  UNL     1      -5.602   4.433  13.020  1.00  0.00    -0.020 C 
HETATM   30  C6  UNL     1      -6.351   3.421  12.526  1.00  0.00    -0.037 C 
BRANCH  30  31
HETATM   31  C7  UNL     1      -5.859   2.400  11.537  1.00  0.00     0.200 C 
BRANCH  31  32
HETATM   32  O1  UNL     1      -6.701   1.256  11.597  1.00  0.00    -0.397 OA
HETATM   33  H12 UNL     1      -6.333   0.607  10.972  1.00  0.00     0.209 HD
ENDBRANCH  31  32
ENDBRANCH  30  31
BRANCH  30  34
HETATM   34  C8  UNL     1      -7.801   3.224  12.916  1.00  0.00     0.200 C 
BRANCH  34  35
HETATM   35  O2  UNL     1      -8.226   1.880  12.717  1.00  0.00    -0.397 OA
HETATM   36  H15 UNL     1      -9.183   1.871  12.882  1.00  0.00     0.209 HD
ENDBRANCH  34  35
ENDBRANCH  30  34
ENDBRANCH  28  29
ENDBRANCH  27  28
ENDBRANCH  25  27
ENDBRANCH   1  25
BRANCH   3  37
HETATM   37  O3  UNL     1       0.066   6.604  16.194  1.00  0.00    -0.394 OA
HETATM   38  H20 UNL     1      -0.404   6.280  16.982  1.00  0.00     0.210 HD
ENDBRANCH   3  37
TORSDOF 9
ENDMDL
MODEL 5
REMARK minimizedAffinity -8.69262505
REMARK  9 active torsions:
REMARK  status: ('A' for Active; 'I' for Inactive)
REMARK    1  A    between atoms: C2_2  and  C3_3 
REMARK    2  A    between atoms: C2_2  and  C9_11 
REMARK    3  A    between atoms: C3_3  and  C4_4 
REMARK    4  A    between atoms: C4_4  and  C5_5 
REMARK    5  A    between atoms: C6_6  and  C7_7 
REMARK    6  A    between atoms: C6_6  and  C8_9 
REMARK    7  A    between atoms: C7_7  and  O1_8 
REMARK    8  A    between atoms: C8_9  and  O2_10 
REMARK    9  A    between atoms: C11_13  and  O3_14 
ROOT
HETATM    1  C9  UNL     1      -6.075   6.880  14.825  1.00  0.00     0.001 C 
HETATM    2  C10 UNL     1      -5.924   8.249  15.542  1.00  0.00     0.038 C 
HETATM    3  C11 UNL     1      -4.510   8.784  15.199  1.00  0.00     0.131 C 
HETATM    4  C12 UNL     1      -4.002   7.863  14.047  1.00  0.00     0.014 C 
HETATM    5  C13 UNL     1      -4.598   8.467  12.731  1.00  0.00     0.023 C 
HETATM    6  C14 UNL     1      -2.515   7.686  13.731  1.00  0.00    -0.058 C 
HETATM    7  C15 UNL     1      -2.057   6.570  13.099  1.00  0.00    -0.000 C 
HETATM    8  C16 UNL     1      -3.041   5.441  12.795  1.00  0.00     0.157 C 
HETATM    9  O4  UNL     1      -2.700   4.467  12.124  1.00  0.00    -0.293 OA
HETATM   10  C17 UNL     1      -4.477   5.512  13.301  1.00  0.00     0.094 C 
HETATM   11  C18 UNL     1      -4.610   6.479  14.477  1.00  0.00    -0.019 C 
HETATM   12  C19 UNL     1      -3.902   5.818  15.695  1.00  0.00     0.017 C 
HETATM   13  C20 UNL     1      -0.577   6.380  12.671  1.00  0.00    -0.008 C 
HETATM   14  C21 UNL     1       0.017   5.326  13.638  1.00  0.00     0.021 C 
HETATM   15  C22 UNL     1      -0.451   5.848  11.206  1.00  0.00     0.022 C 
HETATM   16  C23 UNL     1       0.812   6.254  10.451  1.00  0.00     0.080 C 
HETATM   17  C24 UNL     1       1.964   6.565  11.375  1.00  0.00     0.135 C 
HETATM   18  O5  UNL     1       3.054   6.010  11.236  1.00  0.00    -0.297 OA
HETATM   19  C25 UNL     1       1.728   7.669  12.411  1.00  0.00     0.018 C 
HETATM   20  C26 UNL     1       2.201   8.987  11.760  1.00  0.00     0.023 C 
HETATM   21  C27 UNL     1       2.613   7.424  13.647  1.00  0.00     0.023 C 
HETATM   22  C28 UNL     1       0.193   7.754  12.720  1.00  0.00     0.014 C 
HETATM   23  C29 UNL     1      -0.126   8.523  14.005  1.00  0.00     0.011 C 
HETATM   24  C30 UNL     1      -1.613   8.849  14.075  1.00  0.00     0.036 C 
ENDROOT
BRANCH   1  25
HETATM   25  C2  UNL     1      -7.010   5.830  15.503  1.00  0.00    -0.013 C 
HETATM   26  C1  UNL     1      -7.456   4.810  14.438  1.00  0.00     0.010 C 
BRANCH  25  27
HETATM   27  C3  UNL     1      -8.251   6.409  16.229  1.00  0.00     0.008 C 
BRANCH  27  28
HETATM   28  C4  UNL     1      -8.940   7.582  15.506  1.00  0.00     0.028 C 
BRANCH  28  29
HETATM   29  C5  UNL     1     -10.069   7.153  14.608  1.00  0.00    -0.020 C 
HETATM   30  C6  UNL     1     -10.979   7.918  13.965  1.00  0.00    -0.037 C 
BRANCH  30  31
HETATM   31  C7  UNL     1     -11.041   9.419  14.042  1.00  0.00     0.200 C 
BRANCH  31  32
HETATM   32  O1  UNL     1     -11.482   9.929  12.792  1.00  0.00    -0.397 OA
HETATM   33  H12 UNL     1     -11.476  10.899  12.869  1.00  0.00     0.209 HD
ENDBRANCH  31  32
ENDBRANCH  30  31
BRANCH  30  34
HETATM   34  C8  UNL     1     -12.066   7.321  13.095  1.00  0.00     0.200 C 
BRANCH  34  35
HETATM   35  O2  UNL     1     -13.349   7.847  13.414  1.00  0.00    -0.397 OA
HETATM   36  H15 UNL     1     -13.990   7.333  12.894  1.00  0.00     0.209 HD
ENDBRANCH  34  35
ENDBRANCH  30  34
ENDBRANCH  28  29
ENDBRANCH  27  28
ENDBRANCH  25  27
ENDBRANCH   1  25
BRANCH   3  37
HETATM   37  O3  UNL     1      -3.699   8.710  16.367  1.00  0.00    -0.394 OA
HETATM   38  H20 UNL     1      -4.083   9.309  17.031  1.00  0.00     0.210 HD
ENDBRANCH   3  37
TORSDOF 9
ENDMDL
MODEL 6
REMARK minimizedAffinity -8.57954502
REMARK  9 active torsions:
REMARK  status: ('A' for Active; 'I' for Inactive)
REMARK    1  A    between atoms: C2_2  and  C3_3 
REMARK    2  A    between atoms: C2_2  and  C9_11 
REMARK    3  A    between atoms: C3_3  and  C4_4 
REMARK    4  A    between atoms: C4_4  and  C5_5 
REMARK    5  A    between atoms: C6_6  and  C7_7 
REMARK    6  A    between atoms: C6_6  and  C8_9 
REMARK    7  A    between atoms: C7_7  and  O1_8 
REMARK    8  A    between atoms: C8_9  and  O2_10 
REMARK    9  A    between atoms: C11_13  and  O3_14 
ROOT
HETATM    1  C9  UNL     1      -5.659   6.969  14.320  1.00  0.00     0.001 C 
HETATM    2  C10 UNL     1      -5.660   8.253  15.192  1.00  0.00     0.038 C 
HETATM    3  C11 UNL     1      -4.237   8.860  15.101  1.00  0.00     0.131 C 
HETATM    4  C12 UNL     1      -3.544   8.086  13.937  1.00  0.00     0.014 C 
HETATM    5  C13 UNL     1      -3.988   8.816  12.624  1.00  0.00     0.023 C 
HETATM    6  C14 UNL     1      -2.023   7.985  13.807  1.00  0.00    -0.058 C 
HETATM    7  C15 UNL     1      -1.441   6.958  13.127  1.00  0.00    -0.000 C 
HETATM    8  C16 UNL     1      -2.330   5.844  12.576  1.00  0.00     0.157 C 
HETATM    9  O4  UNL     1      -1.863   4.959  11.857  1.00  0.00    -0.293 OA
HETATM   10  C17 UNL     1      -3.821   5.820  12.888  1.00  0.00     0.094 C 
HETATM   11  C18 UNL     1      -4.146   6.648  14.131  1.00  0.00    -0.019 C 
HETATM   12  C19 UNL     1      -3.577   5.874  15.357  1.00  0.00     0.017 C 
HETATM   13  C20 UNL     1       0.089   6.856  12.885  1.00  0.00    -0.008 C 
HETATM   14  C21 UNL     1       0.595   5.718  13.805  1.00  0.00     0.021 C 
HETATM   15  C22 UNL     1       0.427   6.493  11.402  1.00  0.00     0.022 C 
HETATM   16  C23 UNL     1       1.761   7.014  10.871  1.00  0.00     0.080 C 
HETATM   17  C24 UNL     1       2.768   7.251  11.969  1.00  0.00     0.135 C 
HETATM   18  O5  UNL     1       3.889   6.744  11.921  1.00  0.00    -0.297 OA
HETATM   19  C25 UNL     1       2.353   8.227  13.076  1.00  0.00     0.018 C 
HETATM   20  C26 UNL     1       2.853   9.621  12.638  1.00  0.00     0.023 C 
HETATM   21  C27 UNL     1       3.078   7.870  14.387  1.00  0.00     0.023 C 
HETATM   22  C28 UNL     1       0.789   8.236  13.183  1.00  0.00     0.014 C 
HETATM   23  C29 UNL     1       0.273   8.849  14.488  1.00  0.00     0.011 C 
HETATM   24  C30 UNL     1      -1.222   9.126  14.390  1.00  0.00     0.036 C 
ENDROOT
BRANCH   1  25
HETATM   25  C2  UNL     1      -6.631   5.825  14.751  1.00  0.00    -0.013 C 
HETATM   26  C1  UNL     1      -6.858   5.920  16.272  1.00  0.00     0.010 C 
BRANCH  25  27
HETATM   27  C3  UNL     1      -6.185   4.390  14.374  1.00  0.00     0.008 C 
BRANCH  27  28
HETATM   28  C4  UNL     1      -6.965   3.751  13.209  1.00  0.00     0.028 C 
BRANCH  28  29
HETATM   29  C5  UNL     1      -6.301   3.933  11.871  1.00  0.00    -0.020 C 
HETATM   30  C6  UNL     1      -5.683   3.013  11.097  1.00  0.00    -0.037 C 
BRANCH  30  31
HETATM   31  C7  UNL     1      -5.526   1.561  11.458  1.00  0.00     0.200 C 
BRANCH  31  32
HETATM   32  O1  UNL     1      -6.683   0.852  11.036  1.00  0.00    -0.397 OA
HETATM   33  H12 UNL     1      -6.560  -0.072  11.316  1.00  0.00     0.209 HD
ENDBRANCH  31  32
ENDBRANCH  30  31
BRANCH  30  34
HETATM   34  C8  UNL     1      -5.055   3.368   9.765  1.00  0.00     0.200 C 
BRANCH  34  35
HETATM   35  O2  UNL     1      -5.732   2.748   8.677  1.00  0.00    -0.397 OA
HETATM   36  H15 UNL     1      -5.201   2.935   7.885  1.00  0.00     0.209 HD
ENDBRANCH  34  35
ENDBRANCH  30  34
ENDBRANCH  28  29
ENDBRANCH  27  28
ENDBRANCH  25  27
ENDBRANCH   1  25
BRANCH   3  37
HETATM   37  O3  UNL     1      -3.583   8.679  16.353  1.00  0.00    -0.394 OA
HETATM   38  H20 UNL     1      -4.075   9.191  17.019  1.00  0.00     0.210 HD
ENDBRANCH   3  37
TORSDOF 9
ENDMDL
MODEL 7
REMARK minimizedAffinity -8.51018047
REMARK  9 active torsions:
REMARK  status: ('A' for Active; 'I' for Inactive)
REMARK    1  A    between atoms: C2_2  and  C3_3 
REMARK    2  A    between atoms: C2_2  and  C9_11 
REMARK    3  A    between atoms: C3_3  and  C4_4 
REMARK    4  A    between atoms: C4_4  and  C5_5 
REMARK    5  A    between atoms: C6_6  and  C7_7 
REMARK    6  A    between atoms: C6_6  and  C8_9 
REMARK    7  A    between atoms: C7_7  and  O1_8 
REMARK    8  A    between atoms: C8_9  and  O2_10 
REMARK    9  A    between atoms: C11_13  and  O3_14 
ROOT
HETATM    1  C9  UNL     1      -1.676   6.979  14.226  1.00  0.00     0.001 C 
HETATM    2  C10 UNL     1      -2.015   6.684  12.740  1.00  0.00     0.038 C 
HETATM    3  C11 UNL     1      -0.681   6.743  11.953  1.00  0.00     0.131 C 
HETATM    4  C12 UNL     1       0.430   6.761  13.049  1.00  0.00     0.014 C 
HETATM    5  C13 UNL     1       0.669   5.260  13.431  1.00  0.00     0.023 C 
HETATM    6  C14 UNL     1       1.837   7.302  12.785  1.00  0.00    -0.058 C 
HETATM    7  C15 UNL     1       2.617   7.762  13.803  1.00  0.00    -0.000 C 
HETATM    8  C16 UNL     1       2.027   7.824  15.211  1.00  0.00     0.157 C 
HETATM    9  O4  UNL     1       2.728   8.121  16.178  1.00  0.00    -0.293 OA
HETATM   10  C17 UNL     1       0.558   7.494  15.448  1.00  0.00     0.094 C 
HETATM   11  C18 UNL     1      -0.260   7.626  14.163  1.00  0.00    -0.019 C 
HETATM   12  C19 UNL     1      -0.350   9.145  13.833  1.00  0.00     0.017 C 
HETATM   13  C20 UNL     1       4.082   8.236  13.606  1.00  0.00    -0.008 C 
HETATM   14  C21 UNL     1       4.058   9.777  13.750  1.00  0.00     0.021 C 
HETATM   15  C22 UNL     1       5.042   7.643  14.688  1.00  0.00     0.022 C 
HETATM   16  C23 UNL     1       6.494   7.441  14.259  1.00  0.00     0.080 C 
HETATM   17  C24 UNL     1       6.898   8.363  13.135  1.00  0.00     0.135 C 
HETATM   18  O5  UNL     1       7.893   9.082  13.233  1.00  0.00    -0.297 OA
HETATM   19  C25 UNL     1       6.070   8.274  11.849  1.00  0.00     0.018 C 
HETATM   20  C26 UNL     1       6.779   7.243  10.943  1.00  0.00     0.023 C 
HETATM   21  C27 UNL     1       6.100   9.627  11.114  1.00  0.00     0.023 C 
HETATM   22  C28 UNL     1       4.632   7.763  12.206  1.00  0.00     0.014 C 
HETATM   23  C29 UNL     1       3.606   8.008  11.096  1.00  0.00     0.011 C 
HETATM   24  C30 UNL     1       2.335   7.211  11.362  1.00  0.00     0.036 C 
ENDROOT
BRANCH   1  25
HETATM   25  C2  UNL     1      -2.789   7.664  15.079  1.00  0.00    -0.013 C 
HETATM   26  C1  UNL     1      -2.203   8.016  16.460  1.00  0.00     0.010 C 
BRANCH  25  27
HETATM   27  C3  UNL     1      -4.095   6.850  15.254  1.00  0.00     0.008 C 
BRANCH  27  28
HETATM   28  C4  UNL     1      -5.113   6.998  14.107  1.00  0.00     0.028 C 
BRANCH  28  29
HETATM   29  C5  UNL     1      -5.646   5.684  13.603  1.00  0.00    -0.020 C 
HETATM   30  C6  UNL     1      -6.758   5.017  13.983  1.00  0.00    -0.037 C 
BRANCH  30  31
HETATM   31  C7  UNL     1      -7.714   5.487  15.046  1.00  0.00     0.200 C 
BRANCH  31  32
HETATM   32  O1  UNL     1      -7.901   4.444  15.993  1.00  0.00    -0.397 OA
HETATM   33  H12 UNL     1      -8.548   4.770  16.642  1.00  0.00     0.209 HD
ENDBRANCH  31  32
ENDBRANCH  30  31
BRANCH  30  34
HETATM   34  C8  UNL     1      -7.152   3.688  13.373  1.00  0.00     0.200 C 
BRANCH  34  35
HETATM   35  O2  UNL     1      -8.565   3.538  13.294  1.00  0.00    -0.397 OA
HETATM   36  H15 UNL     1      -8.725   2.626  13.000  1.00  0.00     0.209 HD
ENDBRANCH  34  35
ENDBRANCH  30  34
ENDBRANCH  28  29
ENDBRANCH  27  28
ENDBRANCH  25  27
ENDBRANCH   1  25
BRANCH   3  37
HETATM   37  O3  UNL     1      -0.679   7.913  11.144  1.00  0.00    -0.394 OA
HETATM   38  H20 UNL     1      -1.397   7.822  10.492  1.00  0.00     0.210 HD
ENDBRANCH   3  37
TORSDOF 9
ENDMDL
MODEL 8
REMARK minimizedAffinity -8.40814114
REMARK  9 active torsions:
REMARK  status: ('A' for Active; 'I' for Inactive)
REMARK    1  A    between atoms: C2_2  and  C3_3 
REMARK    2  A    between atoms: C2_2  and  C9_11 
REMARK    3  A    between atoms: C3_3  and  C4_4 
REMARK    4  A    between atoms: C4_4  and  C5_5 
REMARK    5  A    between atoms: C6_6  and  C7_7 
REMARK    6  A    between atoms: C6_6  and  C8_9 
REMARK    7  A    between atoms: C7_7  and  O1_8 
REMARK    8  A    between atoms: C8_9  and  O2_10 
REMARK    9  A    between atoms: C11_13  and  O3_14 
ROOT
HETATM    1  C9  UNL     1       0.416   8.274  13.788  1.00  0.00     0.001 C 
HETATM    2  C10 UNL     1       0.636   7.264  12.630  1.00  0.00     0.038 C 
HETATM    3  C11 UNL     1      -0.746   6.641  12.306  1.00  0.00     0.131 C 
HETATM    4  C12 UNL     1      -1.775   7.531  13.071  1.00  0.00     0.014 C 
HETATM    5  C13 UNL     1      -2.055   8.753  12.131  1.00  0.00     0.023 C 
HETATM    6  C14 UNL     1      -3.170   7.033  13.452  1.00  0.00    -0.058 C 
HETATM    7  C15 UNL     1      -3.855   7.583  14.492  1.00  0.00    -0.000 C 
HETATM    8  C16 UNL     1      -3.166   8.646  15.346  1.00  0.00     0.157 C 
HETATM    9  O4  UNL     1      -3.783   9.253  16.222  1.00  0.00    -0.293 OA
HETATM   10  C17 UNL     1      -1.700   8.993  15.112  1.00  0.00     0.094 C 
HETATM   11  C18 UNL     1      -0.970   7.870  14.376  1.00  0.00    -0.019 C 
HETATM   12  C19 UNL     1      -0.834   6.682  15.373  1.00  0.00     0.017 C 
HETATM   13  C20 UNL     1      -5.307   7.180  14.865  1.00  0.00    -0.008 C 
HETATM   14  C21 UNL     1      -5.204   6.357  16.172  1.00  0.00     0.021 C 
HETATM   15  C22 UNL     1      -6.215   8.426  15.124  1.00  0.00     0.022 C 
HETATM   16  C23 UNL     1      -7.701   8.250  14.820  1.00  0.00     0.080 C 
HETATM   17  C24 UNL     1      -8.141   6.809  14.903  1.00  0.00     0.135 C 
HETATM   18  O5  UNL     1      -9.093   6.478  15.611  1.00  0.00    -0.297 OA
HETATM   19  C25 UNL     1      -7.411   5.818  13.991  1.00  0.00     0.018 C 
HETATM   20  C26 UNL     1      -8.227   5.746  12.681  1.00  0.00     0.023 C 
HETATM   21  C27 UNL     1      -7.430   4.414  14.621  1.00  0.00     0.023 C 
HETATM   22  C28 UNL     1      -5.976   6.372  13.687  1.00  0.00     0.014 C 
HETATM   23  C29 UNL     1      -5.021   5.313  13.130  1.00  0.00     0.011 C 
HETATM   24  C30 UNL     1      -3.771   5.972  12.558  1.00  0.00     0.036 C 
ENDROOT
BRANCH   1  25
HETATM   25  C2  UNL     1       1.617   8.503  14.760  1.00  0.00    -0.013 C 
HETATM   26  C1  UNL     1       1.840  10.019  14.916  1.00  0.00     0.010 C 
BRANCH  25  27
HETATM   27  C3  UNL     1       2.945   7.814  14.356  1.00  0.00     0.008 C 
BRANCH  27  28
HETATM   28  C4  UNL     1       3.755   8.550  13.271  1.00  0.00     0.028 C 
BRANCH  28  29
HETATM   29  C5  UNL     1       4.992   7.810  12.841  1.00  0.00    -0.020 C 
HETATM   30  C6  UNL     1       5.151   6.944  11.815  1.00  0.00    -0.037 C 
BRANCH  30  31
HETATM   31  C7  UNL     1       4.056   6.530  10.870  1.00  0.00     0.200 C 
BRANCH  31  32
HETATM   32  O1  UNL     1       4.500   5.417  10.106  1.00  0.00    -0.397 OA
HETATM   33  H12 UNL     1       3.782   5.202   9.486  1.00  0.00     0.209 HD
ENDBRANCH  31  32
ENDBRANCH  30  31
BRANCH  30  34
HETATM   34  C8  UNL     1       6.477   6.275  11.520  1.00  0.00     0.200 C 
BRANCH  34  35
HETATM   35  O2  UNL     1       7.175   6.922  10.461  1.00  0.00    -0.397 OA
HETATM   36  H15 UNL     1       7.948   6.367  10.266  1.00  0.00     0.209 HD
ENDBRANCH  34  35
ENDBRANCH  30  34
ENDBRANCH  28  29
ENDBRANCH  27  28
ENDBRANCH  25  27
ENDBRANCH   1  25
BRANCH   3  37
HETATM   37  O3  UNL     1      -0.751   5.288  12.745  1.00  0.00    -0.394 OA
HETATM   38  H20 UNL     1      -0.086   4.806  12.222  1.00  0.00     0.210 HD
ENDBRANCH   3  37
TORSDOF 9
ENDMDL
MODEL 9
REMARK minimizedAffinity -8.35605526
REMARK  9 active torsions:
REMARK  status: ('A' for Active; 'I' for Inactive)
REMARK    1  A    between atoms: C2_2  and  C3_3 
REMARK    2  A    between atoms: C2_2  and  C9_11 
REMARK    3  A    between atoms: C3_3  and  C4_4 
REMARK    4  A    between atoms: C4_4  and  C5_5 
REMARK    5  A    between atoms: C6_6  and  C7_7 
REMARK    6  A    between atoms: C6_6  and  C8_9 
REMARK    7  A    between atoms: C7_7  and  O1_8 
REMARK    8  A    between atoms: C8_9  and  O2_10 
REMARK    9  A    between atoms: C11_13  and  O3_14 
ROOT
HETATM    1  C9  UNL     1      -5.815   6.721  15.205  1.00  0.00     0.001 C 
HETATM    2  C10 UNL     1      -6.146   5.374  14.507  1.00  0.00     0.038 C 
HETATM    3  C11 UNL     1      -4.904   4.988  13.663  1.00  0.00     0.131 C 
HETATM    4  C12 UNL     1      -3.778   5.958  14.139  1.00  0.00     0.014 C 
HETATM    5  C13 UNL     1      -3.168   5.297  15.422  1.00  0.00     0.023 C 
HETATM    6  C14 UNL     1      -2.557   6.287  13.278  1.00  0.00    -0.058 C 
HETATM    7  C15 UNL     1      -1.862   7.445  13.454  1.00  0.00    -0.000 C 
HETATM    8  C16 UNL     1      -2.381   8.467  14.465  1.00  0.00     0.157 C 
HETATM    9  O4  UNL     1      -1.725   9.472  14.741  1.00  0.00    -0.293 OA
HETATM   10  C17 UNL     1      -3.714   8.248  15.169  1.00  0.00     0.094 C 
HETATM   11  C18 UNL     1      -4.601   7.271  14.398  1.00  0.00    -0.019 C 
HETATM   12  C19 UNL     1      -5.069   8.001  13.105  1.00  0.00     0.017 C 
HETATM   13  C20 UNL     1      -0.565   7.787  12.673  1.00  0.00    -0.008 C 
HETATM   14  C21 UNL     1      -0.951   8.895  11.663  1.00  0.00     0.021 C 
HETATM   15  C22 UNL     1       0.561   8.330  13.612  1.00  0.00     0.022 C 
HETATM   16  C23 UNL     1       1.996   8.057  13.167  1.00  0.00     0.080 C 
HETATM   17  C24 UNL     1       2.112   7.866  11.675  1.00  0.00     0.135 C 
HETATM   18  O5  UNL     1       2.909   8.530  11.012  1.00  0.00    -0.297 OA
HETATM   19  C25 UNL     1       1.268   6.742  11.064  1.00  0.00     0.018 C 
HETATM   20  C26 UNL     1       2.159   5.480  11.058  1.00  0.00     0.023 C 
HETATM   21  C27 UNL     1       0.936   7.075   9.598  1.00  0.00     0.023 C 
HETATM   22  C28 UNL     1       0.014   6.499  11.972  1.00  0.00     0.014 C 
HETATM   23  C29 UNL     1      -1.093   5.700  11.279  1.00  0.00     0.011 C 
HETATM   24  C30 UNL     1      -2.122   5.223  12.297  1.00  0.00     0.036 C 
ENDROOT
BRANCH   1  25
HETATM   25  C2  UNL     1      -7.018   7.669  15.510  1.00  0.00    -0.013 C 
HETATM   26  C1  UNL     1      -7.682   7.212  16.823  1.00  0.00     0.010 C 
BRANCH  25  27
HETATM   27  C3  UNL     1      -8.084   7.778  14.391  1.00  0.00     0.008 C 
BRANCH  27  28
HETATM   28  C4  UNL     1      -9.449   7.146  14.729  1.00  0.00     0.028 C 
BRANCH  28  29
HETATM   29  C5  UNL     1     -10.539   7.521  13.763  1.00  0.00    -0.020 C 
HETATM   30  C6  UNL     1     -11.268   8.658  13.704  1.00  0.00    -0.037 C 
BRANCH  30  31
HETATM   31  C7  UNL     1     -11.122   9.815  14.654  1.00  0.00     0.200 C 
BRANCH  31  32
HETATM   32  O1  UNL     1     -10.895  11.002  13.906  1.00  0.00    -0.397 OA
HETATM   33  H12 UNL     1     -10.771  11.719  14.553  1.00  0.00     0.209 HD
ENDBRANCH  31  32
ENDBRANCH  30  31
BRANCH  30  34
HETATM   34  C8  UNL     1     -12.344   8.876  12.660  1.00  0.00     0.200 C 
BRANCH  34  35
HETATM   35  O2  UNL     1     -11.854   9.598  11.536  1.00  0.00    -0.397 OA
HETATM   36  H15 UNL     1     -12.627   9.788  10.978  1.00  0.00     0.209 HD
ENDBRANCH  34  35
ENDBRANCH  30  34
ENDBRANCH  28  29
ENDBRANCH  27  28
ENDBRANCH  25  27
ENDBRANCH   1  25
BRANCH   3  37
HETATM   37  O3  UNL     1      -5.223   5.143  12.285  1.00  0.00    -0.394 OA
HETATM   38  H20 UNL     1      -5.928   4.507  12.072  1.00  0.00     0.210 HD
ENDBRANCH   3  37
TORSDOF 9
ENDMDL
