MODEL 1
REMARK minimizedAffinity -9.17211628
REMARK CNNscore 0.569707751
REMARK CNNaffinity 7.80851889
REMARK  12 active torsions:
REMARK  status: ('A' for Active; 'I' for Inactive)
REMARK    1  A    between atoms: O1_2  and  C2_3 
REMARK    2  A    between atoms: C4_5  and  O2_6 
REMARK    3  A    between atoms: O2_6  and  C5_7 
REMARK    4  A    between atoms: C15_17  and  O3_18 
REMARK    5  A    between atoms: O3_18  and  C16_19 
REMARK    6  A    between atoms: C18_22  and  O5_23 
REMARK    7  A    between atoms: O5_23  and  C19_24 
REMARK    8  A    between atoms: C19_24  and  C20_26 
REMARK    9  A    between atoms: C20_26  and  C21_27 
REMARK   10  A    between atoms: C26_32  and  C27_33 
REMARK   11  A    between atoms: C31_38  and  O8_39 
REMARK   12  A    between atoms: C35_44  and  O10_45 
ROOT
HETATM    1  C5  UNL     1      -4.212   7.124  14.557  1.00  0.00     0.128 C 
HETATM    2  C6  UNL     1      -3.383   5.948  15.091  1.00  0.00     0.033 C 
HETATM    3  C7  UNL     1      -1.871   6.174  14.951  1.00  0.00     0.016 C 
HETATM    4  C8  UNL     1      -1.396   6.532  13.508  1.00  0.00    -0.014 C 
HETATM    5  C9  UNL     1      -1.697   5.329  12.587  1.00  0.00     0.020 C 
HETATM    6  C10 UNL     1      -2.267   7.716  13.073  1.00  0.00    -0.072 C 
HETATM    7  C11 UNL     1      -1.768   8.917  12.748  1.00  0.00    -0.023 C 
HETATM    8  C12 UNL     1      -0.324   9.268  12.875  1.00  0.00     0.035 C 
HETATM    9  C13 UNL     1       0.388   8.375  13.911  1.00  0.00     0.032 C 
HETATM   10  C14 UNL     1       0.173   6.873  13.577  1.00  0.00     0.037 C 
HETATM   11  C15 UNL     1       1.086   6.461  12.382  1.00  0.00     0.167 C 
HETATM   12  C18 UNL     1       2.588   6.814  12.643  1.00  0.00     0.173 C 
HETATM   13  C24 UNL     1       2.862   8.304  13.004  1.00  0.00     0.027 C 
HETATM   14  C25 UNL     1       2.837   9.195  11.744  1.00  0.00     0.022 C 
HETATM   15  C26 UNL     1       4.221   8.522  13.762  1.00  0.00     0.069 C 
HETATM   16  C29 UNL     1       3.950   8.002  15.179  1.00  0.00     0.016 C 
HETATM   17  C30 UNL     1       2.448   8.148  15.412  1.00  0.00     0.040 C 
HETATM   18  C31 UNL     1       1.869   8.759  14.116  1.00  0.00     0.073 C 
HETATM   19  C32 UNL     1      -3.768   7.516  13.137  1.00  0.00     0.066 C 
ENDROOT
BRANCH   1  20
HETATM   20  O2  UNL     1      -5.611   6.820  14.489  1.00  0.00    -0.356 OA
BRANCH  20  21
HETATM   21  C4  UNL     1      -6.077   6.419  13.204  1.00  0.00     0.263 C 
HETATM   22  C3  UNL     1      -5.789   4.920  13.036  1.00  0.00     0.095 C 
HETATM   23  C2  UNL     1      -6.865   4.277  12.168  1.00  0.00     0.156 C 
HETATM   24  C35 UNL     1      -8.236   4.431  12.867  1.00  0.00     0.175 C 
HETATM   25  C33 UNL     1      -8.313   5.760  13.639  1.00  0.00     0.151 C 
HETATM   26  O9  UNL     1      -7.461   6.727  13.022  1.00  0.00    -0.354 OA
HETATM   27  C34 UNL     1      -9.733   6.313  13.649  1.00  0.00     0.042 C 
BRANCH  23  28
HETATM   28  O1  UNL     1      -6.637   2.873  11.963  1.00  0.00    -0.388 OA
HETATM   29  C1  UNL     1      -5.378   2.586  11.369  1.00  0.00     0.202 C 
ENDBRANCH  23  28
BRANCH  24  30
HETATM   30  O10 UNL     1      -8.457   3.346  13.780  1.00  0.00    -0.390 OA
HETATM   31  H54 UNL     1      -8.017   2.576  13.363  1.00  0.00     0.210 HD
ENDBRANCH  24  30
ENDBRANCH  20  21
ENDBRANCH   1  20
BRANCH  11  32
HETATM   32  O3  UNL     1       1.048   5.011  12.268  1.00  0.00    -0.313 OA
BRANCH  32  33
HETATM   33  C16 UNL     1       0.161   4.474  11.385  1.00  0.00     0.255 C 
HETATM   34  C17 UNL     1      -0.049   3.023  11.694  1.00  0.00     0.126 C 
HETATM   35  O4  UNL     1      -0.397   5.070  10.476  1.00  0.00    -0.266 OA
ENDBRANCH  32  33
ENDBRANCH  11  32
BRANCH  18  36
HETATM   36  O8  UNL     1       1.961  10.181  14.285  1.00  0.00    -0.389 OA
HETATM   37  H46 UNL     1       1.360  10.450  15.002  1.00  0.00     0.210 HD
ENDBRANCH  18  36
BRANCH  12  38
HETATM   38  O5  UNL     1       3.323   6.466  11.446  1.00  0.00    -0.312 OA
BRANCH  38  39
HETATM   39  C19 UNL     1       2.626   6.018  10.367  1.00  0.00     0.259 C 
HETATM   40  O6  UNL     1       2.478   4.839  10.075  1.00  0.00    -0.265 OA
BRANCH  39  41
HETATM   41  C20 UNL     1       2.020   7.188   9.621  1.00  0.00     0.115 C 
BRANCH  41  42
HETATM   42  C21 UNL     1       2.643   7.411   8.234  1.00  0.00    -0.013 C 
HETATM   43  C22 UNL     1       1.625   7.228   7.107  1.00  0.00     0.010 C 
HETATM   44  C23 UNL     1       3.242   8.818   8.153  1.00  0.00     0.010 C 
ENDBRANCH  41  42
ENDBRANCH  39  41
ENDBRANCH  38  39
ENDBRANCH  12  38
BRANCH  15  45
HETATM   45  C27 UNL     1       5.506   7.975  13.133  1.00  0.00     0.128 C 
HETATM   46  C28 UNL     1       6.090   8.693  11.940  1.00  0.00     0.091 C 
HETATM   47  O7  UNL     1       6.018   6.918  13.512  1.00  0.00    -0.298 OA
ENDBRANCH  15  45
TORSDOF 12
ENDMDL
MODEL 2
REMARK minimizedAffinity -7.03992796
REMARK CNNscore 0.518148363
REMARK CNNaffinity 7.62094069
REMARK  12 active torsions:
REMARK  status: ('A' for Active; 'I' for Inactive)
REMARK    1  A    between atoms: O1_2  and  C2_3 
REMARK    2  A    between atoms: C4_5  and  O2_6 
REMARK    3  A    between atoms: O2_6  and  C5_7 
REMARK    4  A    between atoms: C15_17  and  O3_18 
REMARK    5  A    between atoms: O3_18  and  C16_19 
REMARK    6  A    between atoms: C18_22  and  O5_23 
REMARK    7  A    between atoms: O5_23  and  C19_24 
REMARK    8  A    between atoms: C19_24  and  C20_26 
REMARK    9  A    between atoms: C20_26  and  C21_27 
REMARK   10  A    between atoms: C26_32  and  C27_33 
REMARK   11  A    between atoms: C31_38  and  O8_39 
REMARK   12  A    between atoms: C35_44  and  O10_45 
ROOT
HETATM    1  C5  UNL     1      -7.690   5.003  14.281  1.00  0.00     0.128 C 
HETATM    2  C6  UNL     1      -7.774   5.696  15.648  1.00  0.00     0.033 C 
HETATM    3  C7  UNL     1      -9.032   6.561  15.800  1.00  0.00     0.016 C 
HETATM    4  C8  UNL     1      -9.238   7.617  14.669  1.00  0.00    -0.014 C 
HETATM    5  C9  UNL     1      -8.065   8.621  14.725  1.00  0.00     0.020 C 
HETATM    6  C10 UNL     1      -9.152   6.832  13.356  1.00  0.00    -0.072 C 
HETATM    7  C11 UNL     1     -10.157   6.764  12.471  1.00  0.00    -0.023 C 
HETATM    8  C12 UNL     1     -11.504   7.356  12.712  1.00  0.00     0.035 C 
HETATM    9  C13 UNL     1     -11.792   7.515  14.219  1.00  0.00     0.032 C 
HETATM   10  C14 UNL     1     -10.661   8.325  14.909  1.00  0.00     0.037 C 
HETATM   11  C15 UNL     1     -10.815   9.840  14.573  1.00  0.00     0.167 C 
HETATM   12  C18 UNL     1     -12.242  10.375  14.924  1.00  0.00     0.173 C 
HETATM   13  C24 UNL     1     -13.420   9.588  14.276  1.00  0.00     0.027 C 
HETATM   14  C25 UNL     1     -13.601   9.978  12.793  1.00  0.00     0.022 C 
HETATM   15  C26 UNL     1     -14.785   9.778  15.029  1.00  0.00     0.069 C 
HETATM   16  C29 UNL     1     -14.636   8.935  16.301  1.00  0.00     0.016 C 
HETATM   17  C30 UNL     1     -13.627   7.836  15.974  1.00  0.00     0.040 C 
HETATM   18  C31 UNL     1     -13.208   8.060  14.503  1.00  0.00     0.073 C 
HETATM   19  C32 UNL     1      -7.898   6.010  13.136  1.00  0.00     0.066 C 
ENDROOT
BRANCH   1  20
HETATM   20  O2  UNL     1      -6.420   4.377  14.062  1.00  0.00    -0.356 OA
BRANCH  20  21
HETATM   21  C4  UNL     1      -5.818   4.663  12.803  1.00  0.00     0.263 C 
HETATM   22  C3  UNL     1      -4.296   4.716  13.001  1.00  0.00     0.095 C 
HETATM   23  C2  UNL     1      -3.590   4.231  11.740  1.00  0.00     0.156 C 
HETATM   24  C35 UNL     1      -3.991   2.762  11.470  1.00  0.00     0.175 C 
HETATM   25  C33 UNL     1      -5.446   2.502  11.898  1.00  0.00     0.151 C 
HETATM   26  O9  UNL     1      -6.200   3.713  11.805  1.00  0.00    -0.354 OA
HETATM   27  C34 UNL     1      -6.108   1.459  11.006  1.00  0.00     0.042 C 
BRANCH  23  28
HETATM   28  O1  UNL     1      -2.159   4.275  11.862  1.00  0.00    -0.388 OA
HETATM   29  C1  UNL     1      -1.686   5.417  12.566  1.00  0.00     0.202 C 
ENDBRANCH  23  28
BRANCH  24  30
HETATM   30  O10 UNL     1      -3.126   1.867  12.185  1.00  0.00    -0.390 OA
HETATM   31  H54 UNL     1      -2.256   2.318  12.195  1.00  0.00     0.210 HD
ENDBRANCH  24  30
ENDBRANCH  20  21
ENDBRANCH   1  20
BRANCH  11  32
HETATM   32  O3  UNL     1      -9.905  10.583  15.432  1.00  0.00    -0.313 OA
BRANCH  32  33
HETATM   33  C16 UNL     1     -10.221  10.667  16.755  1.00  0.00     0.255 C 
HETATM   34  C17 UNL     1     -10.685   9.331  17.252  1.00  0.00     0.126 C 
HETATM   35  O4  UNL     1     -10.138  11.668  17.450  1.00  0.00    -0.266 OA
ENDBRANCH  32  33
ENDBRANCH  11  32
BRANCH  18  36
HETATM   36  O8  UNL     1     -14.156   7.325  13.716  1.00  0.00    -0.389 OA
HETATM   37  H46 UNL     1     -14.036   6.375  13.889  1.00  0.00     0.210 HD
ENDBRANCH  18  36
BRANCH  12  38
HETATM   38  O5  UNL     1     -12.297  11.758  14.498  1.00  0.00    -0.312 OA
BRANCH  38  39
HETATM   39  C19 UNL     1     -12.410  12.723  15.451  1.00  0.00     0.259 C 
HETATM   40  O6  UNL     1     -12.671  12.512  16.627  1.00  0.00    -0.265 OA
BRANCH  39  41
HETATM   41  C20 UNL     1     -12.115  14.080  14.848  1.00  0.00     0.115 C 
BRANCH  41  42
HETATM   42  C21 UNL     1     -10.801  14.118  14.053  1.00  0.00    -0.013 C 
HETATM   43  C22 UNL     1     -10.706  15.351  13.152  1.00  0.00     0.010 C 
HETATM   44  C23 UNL     1      -9.610  14.102  15.015  1.00  0.00     0.010 C 
ENDBRANCH  41  42
ENDBRANCH  39  41
ENDBRANCH  38  39
ENDBRANCH  12  38
BRANCH  15  45
HETATM   45  C27 UNL     1     -15.291  11.202  15.281  1.00  0.00     0.128 C 
HETATM   46  C28 UNL     1     -15.699  11.587  16.682  1.00  0.00     0.091 C 
HETATM   47  O7  UNL     1     -15.461  12.005  14.360  1.00  0.00    -0.298 OA
ENDBRANCH  15  45
TORSDOF 12
ENDMDL
MODEL 3
REMARK minimizedAffinity -8.96196651
REMARK CNNscore 0.512474537
REMARK CNNaffinity 7.47904968
REMARK  12 active torsions:
REMARK  status: ('A' for Active; 'I' for Inactive)
REMARK    1  A    between atoms: O1_2  and  C2_3 
REMARK    2  A    between atoms: C4_5  and  O2_6 
REMARK    3  A    between atoms: O2_6  and  C5_7 
REMARK    4  A    between atoms: C15_17  and  O3_18 
REMARK    5  A    between atoms: O3_18  and  C16_19 
REMARK    6  A    between atoms: C18_22  and  O5_23 
REMARK    7  A    between atoms: O5_23  and  C19_24 
REMARK    8  A    between atoms: C19_24  and  C20_26 
REMARK    9  A    between atoms: C20_26  and  C21_27 
REMARK   10  A    between atoms: C26_32  and  C27_33 
REMARK   11  A    between atoms: C31_38  and  O8_39 
REMARK   12  A    between atoms: C35_44  and  O10_45 
ROOT
HETATM    1  C5  UNL     1      -6.081   7.190  14.625  1.00  0.00     0.128 C 
HETATM    2  C6  UNL     1      -5.278   6.183  15.459  1.00  0.00     0.033 C 
HETATM    3  C7  UNL     1      -3.764   6.418  15.379  1.00  0.00     0.016 C 
HETATM    4  C8  UNL     1      -3.188   6.469  13.929  1.00  0.00    -0.014 C 
HETATM    5  C9  UNL     1      -3.403   5.086  13.274  1.00  0.00     0.020 C 
HETATM    6  C10 UNL     1      -4.040   7.504  13.186  1.00  0.00    -0.072 C 
HETATM    7  C11 UNL     1      -3.535   8.620  12.643  1.00  0.00    -0.023 C 
HETATM    8  C12 UNL     1      -2.109   9.032  12.790  1.00  0.00     0.035 C 
HETATM    9  C13 UNL     1      -1.464   8.406  14.043  1.00  0.00     0.032 C 
HETATM   10  C14 UNL     1      -1.632   6.862  14.030  1.00  0.00     0.037 C 
HETATM   11  C15 UNL     1      -0.628   6.228  13.020  1.00  0.00     0.167 C 
HETATM   12  C18 UNL     1       0.845   6.673  13.302  1.00  0.00     0.173 C 
HETATM   13  C24 UNL     1       1.071   8.214  13.347  1.00  0.00     0.027 C 
HETATM   14  C25 UNL     1       1.128   8.810  11.924  1.00  0.00     0.022 C 
HETATM   15  C26 UNL     1       2.368   8.630  14.132  1.00  0.00     0.069 C 
HETATM   16  C29 UNL     1       2.000   8.422  15.605  1.00  0.00     0.016 C 
HETATM   17  C30 UNL     1       0.483   8.571  15.697  1.00  0.00     0.040 C 
HETATM   18  C31 UNL     1      -0.007   8.869  14.261  1.00  0.00     0.073 C 
HETATM   19  C32 UNL     1      -5.538   7.278  13.188  1.00  0.00     0.066 C 
ENDROOT
BRANCH   1  20
HETATM   20  O2  UNL     1      -7.467   6.838  14.528  1.00  0.00    -0.356 OA
BRANCH  20  21
HETATM   21  C4  UNL     1      -8.311   7.443  15.503  1.00  0.00     0.263 C 
HETATM   22  C3  UNL     1      -8.320   8.958  15.256  1.00  0.00     0.095 C 
HETATM   23  C2  UNL     1      -9.673   9.541  15.646  1.00  0.00     0.156 C 
HETATM   24  C35 UNL     1     -10.771   8.901  14.764  1.00  0.00     0.175 C 
HETATM   25  C33 UNL     1     -10.431   7.435  14.440  1.00  0.00     0.151 C 
HETATM   26  O9  UNL     1      -9.626   6.885  15.486  1.00  0.00    -0.354 OA
HETATM   27  C34 UNL     1     -11.691   6.589  14.312  1.00  0.00     0.042 C 
BRANCH  23  28
HETATM   28  O1  UNL     1      -9.734  10.963  15.450  1.00  0.00    -0.388 OA
HETATM   29  C1  UNL     1     -10.244  11.667  16.575  1.00  0.00     0.202 C 
ENDBRANCH  23  28
BRANCH  24  30
HETATM   30  O10 UNL     1     -10.916   9.630  13.536  1.00  0.00    -0.390 OA
HETATM   31  H54 UNL     1     -10.729  10.561  13.777  1.00  0.00     0.210 HD
ENDBRANCH  24  30
ENDBRANCH  20  21
ENDBRANCH   1  20
BRANCH  11  32
HETATM   32  O3  UNL     1      -0.638   4.787  13.223  1.00  0.00    -0.313 OA
BRANCH  32  33
HETATM   33  C16 UNL     1      -0.542   3.998  12.118  1.00  0.00     0.255 C 
HETATM   34  C17 UNL     1      -1.653   4.320  11.165  1.00  0.00     0.126 C 
HETATM   35  O4  UNL     1       0.317   3.154  11.912  1.00  0.00    -0.266 OA
ENDBRANCH  32  33
ENDBRANCH  11  32
BRANCH  18  36
HETATM   36  O8  UNL     1       0.052  10.296  14.122  1.00  0.00    -0.389 OA
HETATM   37  H46 UNL     1      -0.604  10.696  14.720  1.00  0.00     0.210 HD
ENDBRANCH  18  36
BRANCH  12  38
HETATM   38  O5  UNL     1       1.672   6.096  12.263  1.00  0.00    -0.312 OA
BRANCH  38  39
HETATM   39  C19 UNL     1       1.331   6.323  10.966  1.00  0.00     0.259 C 
HETATM   40  O6  UNL     1       0.330   6.926  10.605  1.00  0.00    -0.265 OA
BRANCH  39  41
HETATM   41  C20 UNL     1       2.399   5.767  10.046  1.00  0.00     0.115 C 
BRANCH  41  42
HETATM   42  C21 UNL     1       2.806   6.742   8.931  1.00  0.00    -0.013 C 
HETATM   43  C22 UNL     1       1.593   7.393   8.262  1.00  0.00     0.010 C 
HETATM   44  C23 UNL     1       3.716   7.833   9.500  1.00  0.00     0.010 C 
ENDBRANCH  41  42
ENDBRANCH  39  41
ENDBRANCH  38  39
ENDBRANCH  12  38
BRANCH  15  45
HETATM   45  C27 UNL     1       3.703   7.998  13.728  1.00  0.00     0.128 C 
HETATM   46  C28 UNL     1       4.706   7.675  14.808  1.00  0.00     0.091 C 
HETATM   47  O7  UNL     1       4.016   7.836  12.545  1.00  0.00    -0.298 OA
ENDBRANCH  15  45
TORSDOF 12
ENDMDL
MODEL 4
REMARK minimizedAffinity -7.66427374
REMARK CNNscore 0.452162087
REMARK CNNaffinity 6.92752504
REMARK  12 active torsions:
REMARK  status: ('A' for Active; 'I' for Inactive)
REMARK    1  A    between atoms: O1_2  and  C2_3 
REMARK    2  A    between atoms: C4_5  and  O2_6 
REMARK    3  A    between atoms: O2_6  and  C5_7 
REMARK    4  A    between atoms: C15_17  and  O3_18 
REMARK    5  A    between atoms: O3_18  and  C16_19 
REMARK    6  A    between atoms: C18_22  and  O5_23 
REMARK    7  A    between atoms: O5_23  and  C19_24 
REMARK    8  A    between atoms: C19_24  and  C20_26 
REMARK    9  A    between atoms: C20_26  and  C21_27 
REMARK   10  A    between atoms: C26_32  and  C27_33 
REMARK   11  A    between atoms: C31_38  and  O8_39 
REMARK   12  A    between atoms: C35_44  and  O10_45 
ROOT
HETATM    1  C5  UNL     1      -3.136   5.838  13.399  1.00  0.00     0.128 C 
HETATM    2  C6  UNL     1      -1.973   4.891  13.076  1.00  0.00     0.033 C 
HETATM    3  C7  UNL     1      -0.599   5.529  13.325  1.00  0.00     0.016 C 
HETATM    4  C8  UNL     1      -0.374   6.894  12.603  1.00  0.00    -0.014 C 
HETATM    5  C9  UNL     1      -0.419   6.649  11.079  1.00  0.00     0.020 C 
HETATM    6  C10 UNL     1      -1.571   7.768  12.997  1.00  0.00    -0.072 C 
HETATM    7  C11 UNL     1      -1.450   8.928  13.657  1.00  0.00    -0.023 C 
HETATM    8  C12 UNL     1      -0.150   9.447  14.174  1.00  0.00     0.035 C 
HETATM    9  C13 UNL     1       0.870   8.311  14.388  1.00  0.00     0.032 C 
HETATM   10  C14 UNL     1       1.043   7.480  13.088  1.00  0.00     0.037 C 
HETATM   11  C15 UNL     1       1.920   8.268  12.068  1.00  0.00     0.167 C 
HETATM   12  C18 UNL     1       3.286   8.710  12.690  1.00  0.00     0.173 C 
HETATM   13  C24 UNL     1       3.175   9.530  14.009  1.00  0.00     0.027 C 
HETATM   14  C25 UNL     1       2.794  10.998  13.721  1.00  0.00     0.022 C 
HETATM   15  C26 UNL     1       4.487   9.499  14.873  1.00  0.00     0.069 C 
HETATM   16  C29 UNL     1       4.499   8.097  15.492  1.00  0.00     0.016 C 
HETATM   17  C30 UNL     1       3.042   7.646  15.567  1.00  0.00     0.040 C 
HETATM   18  C31 UNL     1       2.202   8.807  14.989  1.00  0.00     0.073 C 
HETATM   19  C32 UNL     1      -2.948   7.202  12.714  1.00  0.00     0.066 C 
ENDROOT
BRANCH   1  20
HETATM   20  O2  UNL     1      -4.399   5.321  12.962  1.00  0.00    -0.356 OA
BRANCH  20  21
HETATM   21  C4  UNL     1      -5.391   5.219  13.980  1.00  0.00     0.263 C 
HETATM   22  C3  UNL     1      -6.241   6.497  13.951  1.00  0.00     0.095 C 
HETATM   23  C2  UNL     1      -7.673   6.180  14.365  1.00  0.00     0.156 C 
HETATM   24  C35 UNL     1      -8.279   5.174  13.359  1.00  0.00     0.175 C 
HETATM   25  C33 UNL     1      -7.206   4.199  12.843  1.00  0.00     0.151 C 
HETATM   26  O9  UNL     1      -6.185   4.039  13.830  1.00  0.00    -0.354 OA
HETATM   27  C34 UNL     1      -7.800   2.828  12.545  1.00  0.00     0.042 C 
BRANCH  23  28
HETATM   28  O1  UNL     1      -8.513   7.346  14.372  1.00  0.00    -0.388 OA
HETATM   29  C1  UNL     1      -8.034   8.382  15.219  1.00  0.00     0.202 C 
ENDBRANCH  23  28
BRANCH  24  30
HETATM   30  O10 UNL     1      -8.855   5.868  12.242  1.00  0.00    -0.390 OA
HETATM   31  H54 UNL     1      -9.199   6.704  12.620  1.00  0.00     0.210 HD
ENDBRANCH  24  30
ENDBRANCH  20  21
ENDBRANCH   1  20
BRANCH  11  32
HETATM   32  O3  UNL     1       2.268   7.364  10.983  1.00  0.00    -0.313 OA
BRANCH  32  33
HETATM   33  C16 UNL     1       2.015   7.783   9.712  1.00  0.00     0.255 C 
HETATM   34  C17 UNL     1       2.619   6.824   8.731  1.00  0.00     0.126 C 
HETATM   35  O4  UNL     1       1.388   8.783   9.397  1.00  0.00    -0.266 OA
ENDBRANCH  32  33
ENDBRANCH  11  32
BRANCH  18  36
HETATM   36  O8  UNL     1       1.918   9.669  16.101  1.00  0.00    -0.389 OA
HETATM   37  H46 UNL     1       1.335   9.196  16.721  1.00  0.00     0.210 HD
ENDBRANCH  18  36
BRANCH  12  38
HETATM   38  O5  UNL     1       3.975   9.498  11.690  1.00  0.00    -0.312 OA
BRANCH  38  39
HETATM   39  C19 UNL     1       5.024   8.932  11.034  1.00  0.00     0.259 C 
HETATM   40  O6  UNL     1       5.706   9.500  10.192  1.00  0.00    -0.265 OA
BRANCH  39  41
HETATM   41  C20 UNL     1       5.251   7.522  11.539  1.00  0.00     0.115 C 
BRANCH  41  42
HETATM   42  C21 UNL     1       6.564   6.902  11.038  1.00  0.00    -0.013 C 
HETATM   43  C22 UNL     1       7.722   7.138  12.011  1.00  0.00     0.010 C 
HETATM   44  C23 UNL     1       6.382   5.398  10.825  1.00  0.00     0.010 C 
ENDBRANCH  41  42
ENDBRANCH  39  41
ENDBRANCH  38  39
ENDBRANCH  12  38
BRANCH  15  45
HETATM   45  C27 UNL     1       5.810   9.900  14.212  1.00  0.00     0.128 C 
HETATM   46  C28 UNL     1       5.937  11.289  13.633  1.00  0.00     0.091 C 
HETATM   47  O7  UNL     1       6.731   9.094  14.056  1.00  0.00    -0.298 OA
ENDBRANCH  15  45
TORSDOF 12
ENDMDL
MODEL 5
REMARK minimizedAffinity -7.33660936
REMARK CNNscore 0.442792177
REMARK CNNaffinity 6.48347235
REMARK  12 active torsions:
REMARK  status: ('A' for Active; 'I' for Inactive)
REMARK    1  A    between atoms: O1_2  and  C2_3 
REMARK    2  A    between atoms: C4_5  and  O2_6 
REMARK    3  A    between atoms: O2_6  and  C5_7 
REMARK    4  A    between atoms: C15_17  and  O3_18 
REMARK    5  A    between atoms: O3_18  and  C16_19 
REMARK    6  A    between atoms: C18_22  and  O5_23 
REMARK    7  A    between atoms: O5_23  and  C19_24 
REMARK    8  A    between atoms: C19_24  and  C20_26 
REMARK    9  A    between atoms: C20_26  and  C21_27 
REMARK   10  A    between atoms: C26_32  and  C27_33 
REMARK   11  A    between atoms: C31_38  and  O8_39 
REMARK   12  A    between atoms: C35_44  and  O10_45 
ROOT
HETATM    1  C5  UNL     1      -3.693   8.933  13.919  1.00  0.00     0.128 C 
HETATM    2  C6  UNL     1      -4.132  10.064  14.860  1.00  0.00     0.033 C 
HETATM    3  C7  UNL     1      -2.961  10.939  15.325  1.00  0.00     0.016 C 
HETATM    4  C8  UNL     1      -1.778  10.155  15.973  1.00  0.00    -0.014 C 
HETATM    5  C9  UNL     1      -2.294   9.478  17.262  1.00  0.00     0.020 C 
HETATM    6  C10 UNL     1      -1.405   9.067  14.960  1.00  0.00    -0.072 C 
HETATM    7  C11 UNL     1      -0.194   8.974  14.391  1.00  0.00    -0.023 C 
HETATM    8  C12 UNL     1       0.889   9.978  14.597  1.00  0.00     0.035 C 
HETATM    9  C13 UNL     1       0.320  11.349  15.017  1.00  0.00     0.032 C 
HETATM   10  C14 UNL     1      -0.593  11.202  16.264  1.00  0.00     0.037 C 
HETATM   11  C15 UNL     1       0.281  11.014  17.541  1.00  0.00     0.167 C 
HETATM   12  C18 UNL     1       1.341  12.153  17.698  1.00  0.00     0.173 C 
HETATM   13  C24 UNL     1       2.274  12.361  16.468  1.00  0.00     0.027 C 
HETATM   14  C25 UNL     1       3.384  11.289  16.424  1.00  0.00     0.022 C 
HETATM   15  C26 UNL     1       2.933  13.787  16.419  1.00  0.00     0.069 C 
HETATM   16  C29 UNL     1       1.792  14.715  15.986  1.00  0.00     0.016 C 
HETATM   17  C30 UNL     1       0.814  13.854  15.189  1.00  0.00     0.040 C 
HETATM   18  C31 UNL     1       1.412  12.429  15.171  1.00  0.00     0.073 C 
HETATM   19  C32 UNL     1      -2.518   8.140  14.517  1.00  0.00     0.066 C 
ENDROOT
BRANCH   1  20
HETATM   20  O2  UNL     1      -4.745   7.995  13.663  1.00  0.00    -0.356 OA
BRANCH  20  21
HETATM   21  C4  UNL     1      -5.056   7.129  14.751  1.00  0.00     0.263 C 
HETATM   22  C3  UNL     1      -6.487   7.438  15.215  1.00  0.00     0.095 C 
HETATM   23  C2  UNL     1      -7.150   6.169  15.739  1.00  0.00     0.156 C 
HETATM   24  C35 UNL     1      -7.225   5.130  14.596  1.00  0.00     0.175 C 
HETATM   25  C33 UNL     1      -6.004   5.244  13.667  1.00  0.00     0.151 C 
HETATM   26  O9  UNL     1      -4.887   5.754  14.400  1.00  0.00    -0.354 OA
HETATM   27  C34 UNL     1      -5.617   3.888  13.091  1.00  0.00     0.042 C 
BRANCH  23  28
HETATM   28  O1  UNL     1      -8.490   6.402  16.203  1.00  0.00    -0.388 OA
HETATM   29  C1  UNL     1      -8.803   7.781  16.354  1.00  0.00     0.202 C 
ENDBRANCH  23  28
BRANCH  24  30
HETATM   30  O10 UNL     1      -8.420   5.322  13.823  1.00  0.00    -0.390 OA
HETATM   31  H54 UNL     1      -9.087   5.635  14.469  1.00  0.00     0.210 HD
ENDBRANCH  24  30
ENDBRANCH  20  21
ENDBRANCH   1  20
BRANCH  11  32
HETATM   32  O3  UNL     1      -0.588  11.137  18.702  1.00  0.00    -0.313 OA
BRANCH  32  33
HETATM   33  C16 UNL     1      -1.291  12.296  18.838  1.00  0.00     0.255 C 
HETATM   34  C17 UNL     1      -0.558  13.230  19.751  1.00  0.00     0.126 C 
HETATM   35  O4  UNL     1      -2.356  12.556  18.300  1.00  0.00    -0.266 OA
ENDBRANCH  32  33
ENDBRANCH  11  32
BRANCH  18  36
HETATM   36  O8  UNL     1       2.273  12.386  14.023  1.00  0.00    -0.389 OA
HETATM   37  H46 UNL     1       1.727  12.460  13.221  1.00  0.00     0.210 HD
ENDBRANCH  18  36
BRANCH  12  38
HETATM   38  O5  UNL     1       2.143  11.834  18.860  1.00  0.00    -0.312 OA
BRANCH  38  39
HETATM   39  C19 UNL     1       2.152  10.548  19.305  1.00  0.00     0.259 C 
HETATM   40  O6  UNL     1       2.372   9.571  18.604  1.00  0.00    -0.265 OA
BRANCH  39  41
HETATM   41  C20 UNL     1       1.902  10.517  20.799  1.00  0.00     0.115 C 
BRANCH  41  42
HETATM   42  C21 UNL     1       2.860   9.582  21.554  1.00  0.00    -0.013 C 
HETATM   43  C22 UNL     1       3.685  10.327  22.605  1.00  0.00     0.010 C 
HETATM   44  C23 UNL     1       2.066   8.463  22.234  1.00  0.00     0.010 C 
ENDBRANCH  41  42
ENDBRANCH  39  41
ENDBRANCH  38  39
ENDBRANCH  12  38
BRANCH  15  45
HETATM   45  C27 UNL     1       3.704  14.279  17.647  1.00  0.00     0.128 C 
HETATM   46  C28 UNL     1       3.765  15.763  17.916  1.00  0.00     0.091 C 
HETATM   47  O7  UNL     1       4.351  13.509  18.362  1.00  0.00    -0.298 OA
ENDBRANCH  15  45
TORSDOF 12
ENDMDL
MODEL 6
REMARK minimizedAffinity -9.11644459
REMARK CNNscore 0.414759398
REMARK CNNaffinity 7.49014282
REMARK  12 active torsions:
REMARK  status: ('A' for Active; 'I' for Inactive)
REMARK    1  A    between atoms: O1_2  and  C2_3 
REMARK    2  A    between atoms: C4_5  and  O2_6 
REMARK    3  A    between atoms: O2_6  and  C5_7 
REMARK    4  A    between atoms: C15_17  and  O3_18 
REMARK    5  A    between atoms: O3_18  and  C16_19 
REMARK    6  A    between atoms: C18_22  and  O5_23 
REMARK    7  A    between atoms: O5_23  and  C19_24 
REMARK    8  A    between atoms: C19_24  and  C20_26 
REMARK    9  A    between atoms: C20_26  and  C21_27 
REMARK   10  A    between atoms: C26_32  and  C27_33 
REMARK   11  A    between atoms: C31_38  and  O8_39 
REMARK   12  A    between atoms: C35_44  and  O10_45 
ROOT
HETATM    1  C5  UNL     1      -3.688   8.218  15.228  1.00  0.00     0.128 C 
HETATM    2  C6  UNL     1      -2.862   7.090  15.862  1.00  0.00     0.033 C 
HETATM    3  C7  UNL     1      -1.413   7.060  15.360  1.00  0.00     0.016 C 
HETATM    4  C8  UNL     1      -1.262   7.005  13.807  1.00  0.00    -0.014 C 
HETATM    5  C9  UNL     1      -1.875   5.678  13.307  1.00  0.00     0.020 C 
HETATM    6  C10 UNL     1      -2.104   8.169  13.273  1.00  0.00    -0.072 C 
HETATM    7  C11 UNL     1      -1.592   9.179  12.556  1.00  0.00    -0.023 C 
HETATM    8  C12 UNL     1      -0.133   9.339  12.287  1.00  0.00     0.035 C 
HETATM    9  C13 UNL     1       0.722   8.616  13.347  1.00  0.00     0.032 C 
HETATM   10  C14 UNL     1       0.303   7.124  13.460  1.00  0.00     0.037 C 
HETATM   11  C15 UNL     1       0.869   6.322  12.248  1.00  0.00     0.167 C 
HETATM   12  C18 UNL     1       2.415   6.507  12.094  1.00  0.00     0.173 C 
HETATM   13  C24 UNL     1       2.896   7.985  11.997  1.00  0.00     0.027 C 
HETATM   14  C25 UNL     1       2.653   8.557  10.583  1.00  0.00     0.022 C 
HETATM   15  C26 UNL     1       4.409   8.174  12.375  1.00  0.00     0.069 C 
HETATM   16  C29 UNL     1       4.436   8.038  13.902  1.00  0.00     0.016 C 
HETATM   17  C30 UNL     1       3.050   8.447  14.396  1.00  0.00     0.040 C 
HETATM   18  C31 UNL     1       2.237   8.820  13.135  1.00  0.00     0.073 C 
HETATM   19  C32 UNL     1      -3.558   8.206  13.695  1.00  0.00     0.066 C 
ENDROOT
BRANCH   1  20
HETATM   20  O2  UNL     1      -5.084   8.111  15.531  1.00  0.00    -0.356 OA
BRANCH  20  21
HETATM   21  C4  UNL     1      -5.896   7.634  14.462  1.00  0.00     0.263 C 
HETATM   22  C3  UNL     1      -5.768   6.105  14.408  1.00  0.00     0.095 C 
HETATM   23  C2  UNL     1      -7.076   5.490  13.921  1.00  0.00     0.156 C 
HETATM   24  C35 UNL     1      -8.203   5.846  14.919  1.00  0.00     0.175 C 
HETATM   25  C33 UNL     1      -7.983   7.245  15.521  1.00  0.00     0.151 C 
HETATM   26  O9  UNL     1      -7.254   8.058  14.598  1.00  0.00    -0.354 OA
HETATM   27  C34 UNL     1      -9.307   7.933  15.821  1.00  0.00     0.042 C 
BRANCH  23  28
HETATM   28  O1  UNL     1      -7.008   4.057  13.835  1.00  0.00    -0.388 OA
HETATM   29  C1  UNL     1      -6.210   3.593  12.754  1.00  0.00     0.202 C 
ENDBRANCH  23  28
BRANCH  24  30
HETATM   30  O10 UNL     1      -8.254   4.882  15.981  1.00  0.00    -0.390 OA
HETATM   31  H54 UNL     1      -7.993   4.036  15.562  1.00  0.00     0.210 HD
ENDBRANCH  24  30
ENDBRANCH  20  21
ENDBRANCH   1  20
BRANCH  11  32
HETATM   32  O3  UNL     1       0.678   4.906  12.520  1.00  0.00    -0.313 OA
BRANCH  32  33
HETATM   33  C16 UNL     1       0.276   4.117  11.485  1.00  0.00     0.255 C 
HETATM   34  C17 UNL     1      -0.997   4.653  10.903  1.00  0.00     0.126 C 
HETATM   35  O4  UNL     1       0.855   3.124  11.073  1.00  0.00    -0.266 OA
ENDBRANCH  32  33
ENDBRANCH  11  32
BRANCH  18  36
HETATM   36  O8  UNL     1       2.490  10.215  12.912  1.00  0.00    -0.389 OA
HETATM   37  H46 UNL     1       2.101  10.725  13.645  1.00  0.00     0.210 HD
ENDBRANCH  18  36
BRANCH  12  38
HETATM   38  O5  UNL     1       2.814   5.792  10.900  1.00  0.00    -0.312 OA
BRANCH  38  39
HETATM   39  C19 UNL     1       2.165   6.066   9.736  1.00  0.00     0.259 C 
HETATM   40  O6  UNL     1       2.433   5.561   8.655  1.00  0.00    -0.265 OA
BRANCH  39  41
HETATM   41  C20 UNL     1       1.036   7.043   9.992  1.00  0.00     0.115 C 
BRANCH  41  42
HETATM   42  C21 UNL     1       0.842   8.056   8.853  1.00  0.00    -0.013 C 
HETATM   43  C22 UNL     1       1.239   7.480   7.493  1.00  0.00     0.010 C 
HETATM   44  C23 UNL     1      -0.620   8.509   8.804  1.00  0.00     0.010 C 
ENDBRANCH  41  42
ENDBRANCH  39  41
ENDBRANCH  38  39
ENDBRANCH  12  38
BRANCH  15  45
HETATM   45  C27 UNL     1       5.456   7.319  11.655  1.00  0.00     0.128 C 
HETATM   46  C28 UNL     1       6.417   6.501  12.485  1.00  0.00     0.091 C 
HETATM   47  O7  UNL     1       5.597   7.355  10.430  1.00  0.00    -0.298 OA
ENDBRANCH  15  45
TORSDOF 12
ENDMDL
MODEL 7
REMARK minimizedAffinity -6.43311787
REMARK CNNscore 0.395789713
REMARK CNNaffinity 5.87667894
REMARK  12 active torsions:
REMARK  status: ('A' for Active; 'I' for Inactive)
REMARK    1  A    between atoms: O1_2  and  C2_3 
REMARK    2  A    between atoms: C4_5  and  O2_6 
REMARK    3  A    between atoms: O2_6  and  C5_7 
REMARK    4  A    between atoms: C15_17  and  O3_18 
REMARK    5  A    between atoms: O3_18  and  C16_19 
REMARK    6  A    between atoms: C18_22  and  O5_23 
REMARK    7  A    between atoms: O5_23  and  C19_24 
REMARK    8  A    between atoms: C19_24  and  C20_26 
REMARK    9  A    between atoms: C20_26  and  C21_27 
REMARK   10  A    between atoms: C26_32  and  C27_33 
REMARK   11  A    between atoms: C31_38  and  O8_39 
REMARK   12  A    between atoms: C35_44  and  O10_45 
ROOT
HETATM    1  C5  UNL     1     -16.362   4.049  14.184  1.00  0.00     0.128 C 
HETATM    2  C6  UNL     1     -15.127   3.414  14.838  1.00  0.00     0.033 C 
HETATM    3  C7  UNL     1     -14.972   1.926  14.497  1.00  0.00     0.016 C 
HETATM    4  C8  UNL     1     -16.229   1.052  14.803  1.00  0.00    -0.014 C 
HETATM    5  C9  UNL     1     -16.478   1.079  16.327  1.00  0.00     0.020 C 
HETATM    6  C10 UNL     1     -17.396   1.755  14.100  1.00  0.00    -0.072 C 
HETATM    7  C11 UNL     1     -18.132   1.179  13.140  1.00  0.00    -0.023 C 
HETATM    8  C12 UNL     1     -17.834  -0.168  12.574  1.00  0.00     0.035 C 
HETATM    9  C13 UNL     1     -16.350  -0.547  12.761  1.00  0.00     0.032 C 
HETATM   10  C14 UNL     1     -15.942  -0.432  14.255  1.00  0.00     0.037 C 
HETATM   11  C15 UNL     1     -16.502  -1.649  15.052  1.00  0.00     0.167 C 
HETATM   12  C18 UNL     1     -16.078  -3.012  14.412  1.00  0.00     0.173 C 
HETATM   13  C24 UNL     1     -16.443  -3.177  12.907  1.00  0.00     0.027 C 
HETATM   14  C25 UNL     1     -17.938  -3.521  12.732  1.00  0.00     0.022 C 
HETATM   15  C26 UNL     1     -15.575  -4.260  12.170  1.00  0.00     0.069 C 
HETATM   16  C29 UNL     1     -14.209  -3.589  11.989  1.00  0.00     0.016 C 
HETATM   17  C30 UNL     1     -14.467  -2.084  11.960  1.00  0.00     0.040 C 
HETATM   18  C31 UNL     1     -15.994  -1.907  12.124  1.00  0.00     0.073 C 
HETATM   19  C32 UNL     1     -17.624   3.211  14.453  1.00  0.00     0.066 C 
ENDROOT
BRANCH   1  20
HETATM   20  O2  UNL     1     -16.623   5.369  14.675  1.00  0.00    -0.356 OA
BRANCH  20  21
HETATM   21  C4  UNL     1     -15.464   6.122  15.019  1.00  0.00     0.263 C 
HETATM   22  C3  UNL     1     -14.511   6.114  13.815  1.00  0.00     0.095 C 
HETATM   23  C2  UNL     1     -13.727   7.420  13.762  1.00  0.00     0.156 C 
HETATM   24  C35 UNL     1     -14.716   8.596  13.587  1.00  0.00     0.175 C 
HETATM   25  C33 UNL     1     -16.038   8.316  14.323  1.00  0.00     0.151 C 
HETATM   26  O9  UNL     1     -15.798   7.449  15.434  1.00  0.00    -0.354 OA
HETATM   27  C34 UNL     1     -16.663   9.602  14.848  1.00  0.00     0.042 C 
BRANCH  23  28
HETATM   28  O1  UNL     1     -12.805   7.461  12.660  1.00  0.00    -0.388 OA
HETATM   29  C1  UNL     1     -11.555   8.051  12.992  1.00  0.00     0.202 C 
ENDBRANCH  23  28
BRANCH  24  30
HETATM   30  O10 UNL     1     -14.993   8.814  12.195  1.00  0.00    -0.390 OA
HETATM   31  H54 UNL     1     -14.157   8.587  11.737  1.00  0.00     0.210 HD
ENDBRANCH  24  30
ENDBRANCH  20  21
ENDBRANCH   1  20
BRANCH  11  32
HETATM   32  O3  UNL     1     -15.890  -1.640  16.372  1.00  0.00    -0.313 OA
BRANCH  32  33
HETATM   33  C16 UNL     1     -16.720  -1.735  17.448  1.00  0.00     0.255 C 
HETATM   34  C17 UNL     1     -18.143  -1.823  16.986  1.00  0.00     0.126 C 
HETATM   35  O4  UNL     1     -16.377  -1.756  18.620  1.00  0.00    -0.266 OA
ENDBRANCH  32  33
ENDBRANCH  11  32
BRANCH  18  36
HETATM   36  O8  UNL     1     -16.532  -1.951  10.794  1.00  0.00    -0.389 OA
HETATM   37  H46 UNL     1     -16.220  -1.170  10.304  1.00  0.00     0.210 HD
ENDBRANCH  18  36
BRANCH  12  38
HETATM   38  O5  UNL     1     -16.716  -4.061  15.179  1.00  0.00    -0.312 OA
BRANCH  38  39
HETATM   39  C19 UNL     1     -15.935  -4.855  15.962  1.00  0.00     0.259 C 
HETATM   40  O6  UNL     1     -14.776  -4.609  16.264  1.00  0.00    -0.265 OA
BRANCH  39  41
HETATM   41  C20 UNL     1     -16.732  -6.050  16.443  1.00  0.00     0.115 C 
BRANCH  41  42
HETATM   42  C21 UNL     1     -15.896  -7.045  17.263  1.00  0.00    -0.013 C 
HETATM   43  C22 UNL     1     -16.457  -7.247  18.672  1.00  0.00     0.010 C 
HETATM   44  C23 UNL     1     -15.841  -8.395  16.542  1.00  0.00     0.010 C 
ENDBRANCH  41  42
ENDBRANCH  39  41
ENDBRANCH  38  39
ENDBRANCH  12  38
BRANCH  15  45
HETATM   45  C27 UNL     1     -15.504  -5.669  12.765  1.00  0.00     0.128 C 
HETATM   46  C28 UNL     1     -16.735  -6.542  12.709  1.00  0.00     0.091 C 
HETATM   47  O7  UNL     1     -14.505  -6.072  13.368  1.00  0.00    -0.298 OA
ENDBRANCH  15  45
TORSDOF 12
ENDMDL
MODEL 8
REMARK minimizedAffinity -6.64498806
REMARK CNNscore 0.275026917
REMARK CNNaffinity 5.82027102
REMARK  12 active torsions:
REMARK  status: ('A' for Active; 'I' for Inactive)
REMARK    1  A    between atoms: O1_2  and  C2_3 
REMARK    2  A    between atoms: C4_5  and  O2_6 
REMARK    3  A    between atoms: O2_6  and  C5_7 
REMARK    4  A    between atoms: C15_17  and  O3_18 
REMARK    5  A    between atoms: O3_18  and  C16_19 
REMARK    6  A    between atoms: C18_22  and  O5_23 
REMARK    7  A    between atoms: O5_23  and  C19_24 
REMARK    8  A    between atoms: C19_24  and  C20_26 
REMARK    9  A    between atoms: C20_26  and  C21_27 
REMARK   10  A    between atoms: C26_32  and  C27_33 
REMARK   11  A    between atoms: C31_38  and  O8_39 
REMARK   12  A    between atoms: C35_44  and  O10_45 
ROOT
HETATM    1  C5  UNL     1     -15.012  -4.354   7.477  1.00  0.00     0.128 C 
HETATM    2  C6  UNL     1     -15.936  -5.445   8.035  1.00  0.00     0.033 C 
HETATM    3  C7  UNL     1     -16.267  -5.241   9.520  1.00  0.00     0.016 C 
HETATM    4  C8  UNL     1     -15.024  -5.086  10.450  1.00  0.00    -0.014 C 
HETATM    5  C9  UNL     1     -14.220  -6.405  10.408  1.00  0.00     0.020 C 
HETATM    6  C10 UNL     1     -14.178  -3.973   9.821  1.00  0.00    -0.072 C 
HETATM    7  C11 UNL     1     -13.880  -2.829  10.452  1.00  0.00    -0.023 C 
HETATM    8  C12 UNL     1     -14.422  -2.466  11.793  1.00  0.00     0.035 C 
HETATM    9  C13 UNL     1     -15.741  -3.207  12.092  1.00  0.00     0.032 C 
HETATM   10  C14 UNL     1     -15.554  -4.740  11.928  1.00  0.00     0.037 C 
HETATM   11  C15 UNL     1     -14.786  -5.314  13.157  1.00  0.00     0.167 C 
HETATM   12  C18 UNL     1     -15.474  -4.930  14.509  1.00  0.00     0.173 C 
HETATM   13  C24 UNL     1     -15.706  -3.404  14.720  1.00  0.00     0.027 C 
HETATM   14  C25 UNL     1     -14.402  -2.696  15.143  1.00  0.00     0.022 C 
HETATM   15  C26 UNL     1     -16.830  -3.085  15.771  1.00  0.00     0.069 C 
HETATM   16  C29 UNL     1     -18.137  -3.403  15.035  1.00  0.00     0.016 C 
HETATM   17  C30 UNL     1     -17.847  -3.225  13.546  1.00  0.00     0.040 C 
HETATM   18  C31 UNL     1     -16.365  -2.800  13.443  1.00  0.00     0.073 C 
HETATM   19  C32 UNL     1     -13.776  -4.162   8.372  1.00  0.00     0.066 C 
ENDROOT
BRANCH   1  20
HETATM   20  O2  UNL     1     -14.533  -4.663   6.162  1.00  0.00    -0.356 OA
BRANCH  20  21
HETATM   21  C4  UNL     1     -13.182  -5.111   6.105  1.00  0.00     0.263 C 
HETATM   22  C3  UNL     1     -13.184  -6.589   5.689  1.00  0.00     0.095 C 
HETATM   23  C2  UNL     1     -11.935  -6.902   4.873  1.00  0.00     0.156 C 
HETATM   24  C35 UNL     1     -11.941  -6.039   3.590  1.00  0.00     0.175 C 
HETATM   25  C33 UNL     1     -12.575  -4.662   3.856  1.00  0.00     0.151 C 
HETATM   26  O9  UNL     1     -12.392  -4.304   5.228  1.00  0.00    -0.354 OA
HETATM   27  C34 UNL     1     -11.938  -3.582   2.992  1.00  0.00     0.042 C 
BRANCH  23  28
HETATM   28  O1  UNL     1     -11.876  -8.280   4.469  1.00  0.00    -0.388 OA
HETATM   29  C1  UNL     1     -12.774  -9.118   5.186  1.00  0.00     0.202 C 
ENDBRANCH  23  28
BRANCH  24  30
HETATM   30  O10 UNL     1     -12.673  -6.698   2.547  1.00  0.00    -0.390 OA
HETATM   31  H54 UNL     1     -12.510  -7.653   2.693  1.00  0.00     0.210 HD
ENDBRANCH  24  30
ENDBRANCH  20  21
ENDBRANCH   1  20
BRANCH  11  32
HETATM   32  O3  UNL     1     -14.856  -6.766  13.091  1.00  0.00    -0.313 OA
BRANCH  32  33
HETATM   33  C16 UNL     1     -16.085  -7.341  13.216  1.00  0.00     0.255 C 
HETATM   34  C17 UNL     1     -16.036  -8.426  14.248  1.00  0.00     0.126 C 
HETATM   35  O4  UNL     1     -17.090  -7.028  12.596  1.00  0.00    -0.266 OA
ENDBRANCH  32  33
ENDBRANCH  11  32
BRANCH  18  36
HETATM   36  O8  UNL     1     -16.367  -1.368  13.541  1.00  0.00    -0.389 OA
HETATM   37  H46 UNL     1     -16.809  -1.002  12.753  1.00  0.00     0.210 HD
ENDBRANCH  18  36
BRANCH  12  38
HETATM   38  O5  UNL     1     -14.637  -5.440  15.574  1.00  0.00    -0.312 OA
BRANCH  38  39
HETATM   39  C19 UNL     1     -13.344  -5.752  15.287  1.00  0.00     0.259 C 
HETATM   40  O6  UNL     1     -12.505  -4.951  14.899  1.00  0.00    -0.265 OA
BRANCH  39  41
HETATM   41  C20 UNL     1     -13.091  -7.219  15.568  1.00  0.00     0.115 C 
BRANCH  41  42
HETATM   42  C21 UNL     1     -12.642  -7.490  17.012  1.00  0.00    -0.013 C 
HETATM   43  C22 UNL     1     -13.308  -8.736  17.600  1.00  0.00     0.010 C 
HETATM   44  C23 UNL     1     -11.121  -7.659  17.061  1.00  0.00     0.010 C 
ENDBRANCH  41  42
ENDBRANCH  39  41
ENDBRANCH  38  39
ENDBRANCH  12  38
BRANCH  15  45
HETATM   45  C27 UNL     1     -16.730  -3.715  17.163  1.00  0.00     0.128 C 
HETATM   46  C28 UNL     1     -17.566  -4.935  17.467  1.00  0.00     0.091 C 
HETATM   47  O7  UNL     1     -16.064  -3.200  18.065  1.00  0.00    -0.298 OA
ENDBRANCH  15  45
TORSDOF 12
ENDMDL
MODEL 9
REMARK minimizedAffinity -6.64855337
REMARK CNNscore 0.259485602
REMARK CNNaffinity 6.38937521
REMARK  12 active torsions:
REMARK  status: ('A' for Active; 'I' for Inactive)
REMARK    1  A    between atoms: O1_2  and  C2_3 
REMARK    2  A    between atoms: C4_5  and  O2_6 
REMARK    3  A    between atoms: O2_6  and  C5_7 
REMARK    4  A    between atoms: C15_17  and  O3_18 
REMARK    5  A    between atoms: O3_18  and  C16_19 
REMARK    6  A    between atoms: C18_22  and  O5_23 
REMARK    7  A    between atoms: O5_23  and  C19_24 
REMARK    8  A    between atoms: C19_24  and  C20_26 
REMARK    9  A    between atoms: C20_26  and  C21_27 
REMARK   10  A    between atoms: C26_32  and  C27_33 
REMARK   11  A    between atoms: C31_38  and  O8_39 
REMARK   12  A    between atoms: C35_44  and  O10_45 
ROOT
HETATM    1  C5  UNL     1       1.200  11.425  18.531  1.00  0.00     0.128 C 
HETATM    2  C6  UNL     1       1.119  12.426  17.370  1.00  0.00     0.033 C 
HETATM    3  C7  UNL     1       0.939  11.743  16.008  1.00  0.00     0.016 C 
HETATM    4  C8  UNL     1       2.006  10.652  15.680  1.00  0.00    -0.014 C 
HETATM    5  C9  UNL     1       3.388  11.336  15.594  1.00  0.00     0.020 C 
HETATM    6  C10 UNL     1       2.001   9.700  16.882  1.00  0.00    -0.072 C 
HETATM    7  C11 UNL     1       1.702   8.397  16.788  1.00  0.00    -0.023 C 
HETATM    8  C12 UNL     1       1.241   7.749  15.527  1.00  0.00     0.035 C 
HETATM    9  C13 UNL     1       0.606   8.772  14.563  1.00  0.00     0.032 C 
HETATM   10  C14 UNL     1       1.583   9.950  14.297  1.00  0.00     0.037 C 
HETATM   11  C15 UNL     1       2.702   9.498  13.309  1.00  0.00     0.167 C 
HETATM   12  C18 UNL     1       2.111   8.893  11.993  1.00  0.00     0.173 C 
HETATM   13  C24 UNL     1       1.107   7.719  12.199  1.00  0.00     0.027 C 
HETATM   14  C25 UNL     1       1.849   6.401  12.511  1.00  0.00     0.022 C 
HETATM   15  C26 UNL     1       0.153   7.494  10.971  1.00  0.00     0.069 C 
HETATM   16  C29 UNL     1      -0.849   8.652  11.054  1.00  0.00     0.016 C 
HETATM   17  C30 UNL     1      -0.915   9.060  12.525  1.00  0.00     0.040 C 
HETATM   18  C31 UNL     1       0.056   8.121  13.276  1.00  0.00     0.073 C 
HETATM   19  C32 UNL     1       2.234  10.324  18.243  1.00  0.00     0.066 C 
ENDROOT
BRANCH   1  20
HETATM   20  O2  UNL     1       1.582  12.047  19.764  1.00  0.00    -0.356 OA
BRANCH  20  21
HETATM   21  C4  UNL     1       2.591  11.358  20.497  1.00  0.00     0.263 C 
HETATM   22  C3  UNL     1       3.957  11.744  19.912  1.00  0.00     0.095 C 
HETATM   23  C2  UNL     1       5.014  11.740  21.010  1.00  0.00     0.156 C 
HETATM   24  C35 UNL     1       4.633  12.788  22.082  1.00  0.00     0.175 C 
HETATM   25  C33 UNL     1       3.106  12.882  22.240  1.00  0.00     0.151 C 
HETATM   26  O9  UNL     1       2.508  11.630  21.898  1.00  0.00    -0.354 OA
HETATM   27  C34 UNL     1       2.718  13.220  23.674  1.00  0.00     0.042 C 
BRANCH  23  28
HETATM   28  O1  UNL     1       6.320  12.079  20.515  1.00  0.00    -0.388 OA
HETATM   29  C1  UNL     1       6.534  11.681  19.167  1.00  0.00     0.202 C 
ENDBRANCH  23  28
BRANCH  24  30
HETATM   30  O10 UNL     1       5.147  14.080  21.723  1.00  0.00    -0.390 OA
HETATM   31  H54 UNL     1       5.990  13.893  21.260  1.00  0.00     0.210 HD
ENDBRANCH  24  30
ENDBRANCH  20  21
ENDBRANCH   1  20
BRANCH  11  32
HETATM   32  O3  UNL     1       3.435  10.682  12.891  1.00  0.00    -0.313 OA
BRANCH  32  33
HETATM   33  C16 UNL     1       4.786  10.678  13.068  1.00  0.00     0.255 C 
HETATM   34  C17 UNL     1       5.419  11.694  12.166  1.00  0.00     0.126 C 
HETATM   35  O4  UNL     1       5.406   9.968  13.845  1.00  0.00    -0.266 OA
ENDBRANCH  32  33
ENDBRANCH  11  32
BRANCH  18  36
HETATM   36  O8  UNL     1      -0.723   6.969  13.635  1.00  0.00    -0.389 OA
HETATM   37  H46 UNL     1      -1.397   7.238  14.285  1.00  0.00     0.210 HD
ENDBRANCH  18  36
BRANCH  12  38
HETATM   38  O5  UNL     1       3.228   8.435  11.194  1.00  0.00    -0.312 OA
BRANCH  38  39
HETATM   39  C19 UNL     1       4.085   7.531  11.741  1.00  0.00     0.259 C 
HETATM   40  O6  UNL     1       4.270   7.385  12.941  1.00  0.00    -0.265 OA
BRANCH  39  41
HETATM   41  C20 UNL     1       4.730   6.704  10.648  1.00  0.00     0.115 C 
BRANCH  41  42
HETATM   42  C21 UNL     1       6.262   6.819  10.625  1.00  0.00    -0.013 C 
HETATM   43  C22 UNL     1       6.773   7.927  11.548  1.00  0.00     0.010 C 
HETATM   44  C23 UNL     1       6.890   5.485  11.039  1.00  0.00     0.010 C 
ENDBRANCH  41  42
ENDBRANCH  39  41
ENDBRANCH  38  39
ENDBRANCH  12  38
BRANCH  15  45
HETATM   45  C27 UNL     1       0.775   7.307   9.584  1.00  0.00     0.128 C 
HETATM   46  C28 UNL     1       0.485   8.335   8.517  1.00  0.00     0.091 C 
HETATM   47  O7  UNL     1       1.421   6.298   9.291  1.00  0.00    -0.298 OA
ENDBRANCH  15  45
TORSDOF 12
ENDMDL
