MODEL 1
REMARK minimizedAffinity -7.81110144
REMARK CNNscore 0.656666875
REMARK CNNaffinity 6.28781748
REMARK  6 active torsions:
REMARK  status: ('A' for Active; 'I' for Inactive)
REMARK    1  A    between atoms: O1_2  and  C2_3 
REMARK    2  A    between atoms: C17_20  and  C18_21 
REMARK    3  A    between atoms: C22_27  and  O6_28 
REMARK    4  A    between atoms: O6_28  and  C23_29 
REMARK    5  A    between atoms: C26_33  and  O8_34 
REMARK    6  A    between atoms: C31_40  and  O10_41 
ROOT
HETATM    1  C2  UNL     1       8.494  19.734  23.828  1.00  0.00     0.190 C 
HETATM    2  C3  UNL     1       9.474  20.480  24.743  1.00  0.00     0.064 C 
HETATM    3  C4  UNL     1      10.575  19.581  25.279  1.00  0.00     0.174 C 
HETATM    4  O2  UNL     1      10.064  18.271  25.462  1.00  0.00    -0.356 OA
HETATM    5  C5  UNL     1       9.863  17.612  24.205  1.00  0.00     0.325 C 
HETATM    6  O3  UNL     1       9.128  16.406  24.439  1.00  0.00    -0.344 OA
HETATM    7  C6  UNL     1       9.075  15.647  23.231  1.00  0.00     0.177 C 
HETATM    8  C7  UNL     1       8.405  14.340  23.540  1.00  0.00     0.011 C 
HETATM    9  C8  UNL     1       7.598  13.680  22.690  1.00  0.00    -0.072 C 
HETATM   10  C9  UNL     1       7.189  12.257  22.993  1.00  0.00     0.035 C 
HETATM   11  C10 UNL     1       5.789  11.868  22.511  1.00  0.00     0.012 C 
HETATM   12  C11 UNL     1       5.585  12.257  21.035  1.00  0.00     0.026 C 
HETATM   13  C12 UNL     1       5.767  13.793  20.894  1.00  0.00     0.005 C 
HETATM   14  C13 UNL     1       4.596  14.528  21.602  1.00  0.00     0.007 C 
HETATM   15  C14 UNL     1       3.268  13.768  21.633  1.00  0.00     0.013 C 
HETATM   16  C15 UNL     1       3.051  12.807  20.440  1.00  0.00    -0.003 C 
HETATM   17  C16 UNL     1       2.821  13.688  19.189  1.00  0.00     0.019 C 
HETATM   18  C17 UNL     1       1.805  11.901  20.756  1.00  0.00     0.058 C 
HETATM   19  C22 UNL     1       2.430  10.726  21.541  1.00  0.00     0.143 C 
HETATM   20  C25 UNL     1       3.721  10.427  20.786  1.00  0.00     0.072 C 
HETATM   21  C26 UNL     1       4.261  11.798  20.332  1.00  0.00     0.072 C 
HETATM   22  C27 UNL     1       7.197  14.286  21.351  1.00  0.00    -0.014 C 
HETATM   23  C28 UNL     1       8.247  13.861  20.294  1.00  0.00     0.020 C 
HETATM   24  C29 UNL     1       7.213  15.839  21.464  1.00  0.00     0.049 C 
HETATM   25  C30 UNL     1       8.486  16.458  22.050  1.00  0.00     0.159 C 
HETATM   26  O9  UNL     1       8.126  17.803  22.414  1.00  0.00    -0.341 OA
HETATM   27  C31 UNL     1       9.144  18.507  23.132  1.00  0.00     0.240 C 
ENDROOT
BRANCH  18  28
HETATM   28  C18 UNL     1       0.941  11.482  19.585  1.00  0.00    -0.043 A 
HETATM   29  C19 UNL     1      -0.366  11.730  19.473  1.00  0.00     0.087 A 
HETATM   30  C20 UNL     1      -0.815  11.157  18.208  1.00  0.00     0.283 A 
HETATM   31  O4  UNL     1      -1.955  11.202  17.787  1.00  0.00    -0.260 OA
HETATM   32  O5  UNL     1       0.238  10.564  17.592  1.00  0.00    -0.314 OA
HETATM   33  C21 UNL     1       1.404  10.714  18.403  1.00  0.00     0.214 A 
ENDBRANCH  18  28
BRANCH  19  34
HETATM   34  O6  UNL     1       1.607   9.556  21.590  1.00  0.00    -0.316 OA
BRANCH  34  35
HETATM   35  C23 UNL     1       2.012   8.598  22.468  1.00  0.00     0.255 C 
HETATM   36  C24 UNL     1       2.633   9.234  23.673  1.00  0.00     0.126 C 
HETATM   37  O7  UNL     1       1.883   7.393  22.308  1.00  0.00    -0.266 OA
ENDBRANCH  34  35
ENDBRANCH  19  34
BRANCH  21  38
HETATM   38  O8  UNL     1       4.582  11.644  18.935  1.00  0.00    -0.389 OA
HETATM   39  H35 UNL     1       5.298  10.986  18.850  1.00  0.00     0.210 HD
ENDBRANCH  21  38
BRANCH  27  40
HETATM   40  O10 UNL     1      10.095  18.988  22.169  1.00  0.00    -0.360 OA
HETATM   41  H42 UNL     1       9.680  19.810  21.838  1.00  0.00     0.213 HD
ENDBRANCH  27  40
BRANCH   1  42
HETATM   42  O1  UNL     1       8.050  20.653  22.800  1.00  0.00    -0.385 OA
HETATM   43  C1  UNL     1       8.395  22.003  23.096  1.00  0.00     0.202 C 
ENDBRANCH   1  42
TORSDOF 6
ENDMDL
MODEL 2
REMARK minimizedAffinity -7.56400442
REMARK CNNscore 0.5492751
REMARK CNNaffinity 6.16041422
REMARK  6 active torsions:
REMARK  status: ('A' for Active; 'I' for Inactive)
REMARK    1  A    between atoms: O1_2  and  C2_3 
REMARK    2  A    between atoms: C17_20  and  C18_21 
REMARK    3  A    between atoms: C22_27  and  O6_28 
REMARK    4  A    between atoms: O6_28  and  C23_29 
REMARK    5  A    between atoms: C26_33  and  O8_34 
REMARK    6  A    between atoms: C31_40  and  O10_41 
ROOT
HETATM    1  C2  UNL     1      -9.274  -9.205  10.026  1.00  0.00     0.190 C 
HETATM    2  C3  UNL     1      -8.079 -10.158  10.159  1.00  0.00     0.064 C 
HETATM    3  C4  UNL     1      -7.898 -10.677  11.575  1.00  0.00     0.174 C 
HETATM    4  O2  UNL     1      -8.300  -9.678  12.497  1.00  0.00    -0.356 OA
HETATM    5  C5  UNL     1      -9.727  -9.534  12.517  1.00  0.00     0.325 C 
HETATM    6  O3  UNL     1     -10.052  -8.362  13.272  1.00  0.00    -0.344 OA
HETATM    7  C6  UNL     1     -11.467  -8.301  13.457  1.00  0.00     0.177 C 
HETATM    8  C7  UNL     1     -11.762  -7.131  14.349  1.00  0.00     0.011 C 
HETATM    9  C8  UNL     1     -12.854  -6.351  14.244  1.00  0.00    -0.072 C 
HETATM   10  C9  UNL     1     -13.187  -5.372  15.346  1.00  0.00     0.035 C 
HETATM   11  C10 UNL     1     -13.865  -4.080  14.883  1.00  0.00     0.012 C 
HETATM   12  C11 UNL     1     -15.060  -4.385  13.958  1.00  0.00     0.026 C 
HETATM   13  C12 UNL     1     -14.544  -5.166  12.719  1.00  0.00     0.005 C 
HETATM   14  C13 UNL     1     -13.665  -4.236  11.839  1.00  0.00     0.007 C 
HETATM   15  C14 UNL     1     -14.025  -2.750  11.892  1.00  0.00     0.013 C 
HETATM   16  C15 UNL     1     -15.518  -2.463  12.177  1.00  0.00    -0.003 C 
HETATM   17  C16 UNL     1     -16.307  -2.879  10.913  1.00  0.00     0.019 C 
HETATM   18  C17 UNL     1     -15.676  -0.928  12.487  1.00  0.00     0.058 C 
HETATM   19  C22 UNL     1     -15.410  -0.859  14.007  1.00  0.00     0.143 C 
HETATM   20  C25 UNL     1     -16.146  -2.074  14.563  1.00  0.00     0.072 C 
HETATM   21  C26 UNL     1     -15.963  -3.185  13.509  1.00  0.00     0.072 C 
HETATM   22  C27 UNL     1     -13.844  -6.530  13.101  1.00  0.00    -0.014 C 
HETATM   23  C28 UNL     1     -14.921  -7.550  13.550  1.00  0.00     0.020 C 
HETATM   24  C29 UNL     1     -13.101  -7.112  11.863  1.00  0.00     0.049 C 
HETATM   25  C30 UNL     1     -12.240  -8.354  12.116  1.00  0.00     0.159 C 
HETATM   26  O9  UNL     1     -11.376  -8.462  10.970  1.00  0.00    -0.341 OA
HETATM   27  C31 UNL     1     -10.375  -9.478  11.087  1.00  0.00     0.240 C 
ENDROOT
BRANCH  18  28
HETATM   28  C18 UNL     1     -16.962  -0.263  12.045  1.00  0.00    -0.043 A 
HETATM   29  C19 UNL     1     -17.215   1.045  12.133  1.00  0.00     0.087 A 
HETATM   30  C20 UNL     1     -18.558   1.269  11.608  1.00  0.00     0.283 A 
HETATM   31  O4  UNL     1     -19.108   2.352  11.537  1.00  0.00    -0.260 OA
HETATM   32  O5  UNL     1     -19.088   0.080  11.225  1.00  0.00    -0.314 OA
HETATM   33  C21 UNL     1     -18.141  -0.960  11.475  1.00  0.00     0.214 A 
ENDBRANCH  18  28
BRANCH  19  34
HETATM   34  O6  UNL     1     -15.894   0.336  14.628  1.00  0.00    -0.316 OA
BRANCH  34  35
HETATM   35  C23 UNL     1     -14.949   1.083  15.263  1.00  0.00     0.255 C 
HETATM   36  C24 UNL     1     -14.984   2.493  14.762  1.00  0.00     0.126 C 
HETATM   37  O7  UNL     1     -14.186   0.671  16.125  1.00  0.00    -0.266 OA
ENDBRANCH  34  35
ENDBRANCH  19  34
BRANCH  21  38
HETATM   38  O8  UNL     1     -17.279  -3.734  13.294  1.00  0.00    -0.389 OA
HETATM   39  H35 UNL     1     -17.586  -4.143  14.125  1.00  0.00     0.210 HD
ENDBRANCH  21  38
BRANCH  27  40
HETATM   40  O10 UNL     1     -10.998 -10.734  10.775  1.00  0.00    -0.360 OA
HETATM   41  H42 UNL     1     -10.985 -10.753   9.797  1.00  0.00     0.213 HD
ENDBRANCH  27  40
BRANCH   1  42
HETATM   42  O1  UNL     1      -9.855  -9.394   8.713  1.00  0.00    -0.385 OA
HETATM   43  C1  UNL     1     -10.107  -8.158   8.051  1.00  0.00     0.202 C 
ENDBRANCH   1  42
TORSDOF 6
ENDMDL
MODEL 3
REMARK minimizedAffinity -8.54406738
REMARK CNNscore 0.52406764
REMARK CNNaffinity 6.45669413
REMARK  6 active torsions:
REMARK  status: ('A' for Active; 'I' for Inactive)
REMARK    1  A    between atoms: O1_2  and  C2_3 
REMARK    2  A    between atoms: C17_20  and  C18_21 
REMARK    3  A    between atoms: C22_27  and  O6_28 
REMARK    4  A    between atoms: O6_28  and  C23_29 
REMARK    5  A    between atoms: C26_33  and  O8_34 
REMARK    6  A    between atoms: C31_40  and  O10_41 
ROOT
HETATM    1  C2  UNL     1      -0.685  16.225  13.986  1.00  0.00     0.190 C 
HETATM    2  C3  UNL     1      -1.026  17.673  14.360  1.00  0.00     0.064 C 
HETATM    3  C4  UNL     1      -1.751  17.779  15.691  1.00  0.00     0.174 C 
HETATM    4  O2  UNL     1      -2.568  16.635  15.873  1.00  0.00    -0.356 OA
HETATM    5  C5  UNL     1      -1.779  15.475  16.167  1.00  0.00     0.325 C 
HETATM    6  O3  UNL     1      -2.626  14.322  16.099  1.00  0.00    -0.344 OA
HETATM    7  C6  UNL     1      -1.905  13.181  16.564  1.00  0.00     0.177 C 
HETATM    8  C7  UNL     1      -2.854  12.020  16.592  1.00  0.00     0.011 C 
HETATM    9  C8  UNL     1      -2.508  10.749  16.317  1.00  0.00    -0.072 C 
HETATM   10  C9  UNL     1      -3.469   9.624  16.629  1.00  0.00     0.035 C 
HETATM   11  C10 UNL     1      -3.409   8.435  15.667  1.00  0.00     0.012 C 
HETATM   12  C11 UNL     1      -1.958   7.957  15.468  1.00  0.00     0.026 C 
HETATM   13  C12 UNL     1      -1.122   9.130  14.886  1.00  0.00     0.005 C 
HETATM   14  C13 UNL     1      -1.580   9.431  13.433  1.00  0.00     0.007 C 
HETATM   15  C14 UNL     1      -2.129   8.233  12.657  1.00  0.00     0.013 C 
HETATM   16  C15 UNL     1      -1.534   6.869  13.078  1.00  0.00    -0.003 C 
HETATM   17  C16 UNL     1      -0.066   6.847  12.590  1.00  0.00     0.019 C 
HETATM   18  C17 UNL     1      -2.389   5.729  12.412  1.00  0.00     0.058 C 
HETATM   19  C22 UNL     1      -3.523   5.510  13.439  1.00  0.00     0.143 C 
HETATM   20  C25 UNL     1      -2.812   5.571  14.787  1.00  0.00     0.072 C 
HETATM   21  C26 UNL     1      -1.724   6.653  14.631  1.00  0.00     0.072 C 
HETATM   22  C27 UNL     1      -1.110  10.400  15.826  1.00  0.00    -0.014 C 
HETATM   23  C28 UNL     1      -0.221  10.113  17.063  1.00  0.00     0.020 C 
HETATM   24  C29 UNL     1      -0.513  11.619  15.064  1.00  0.00     0.049 C 
HETATM   25  C30 UNL     1      -0.579  12.967  15.792  1.00  0.00     0.159 C 
HETATM   26  O9  UNL     1      -0.348  13.962  14.778  1.00  0.00    -0.341 OA
HETATM   27  C31 UNL     1      -0.529  15.308  15.229  1.00  0.00     0.240 C 
ENDROOT
BRANCH  18  28
HETATM   28  C18 UNL     1      -1.661   4.466  12.006  1.00  0.00    -0.043 A 
HETATM   29  C19 UNL     1      -2.042   3.646  11.023  1.00  0.00     0.087 A 
HETATM   30  C20 UNL     1      -1.075   2.554  10.963  1.00  0.00     0.283 A 
HETATM   31  O4  UNL     1      -1.119   1.626  10.177  1.00  0.00    -0.260 OA
HETATM   32  O5  UNL     1      -0.137   2.739  11.925  1.00  0.00    -0.314 OA
HETATM   33  C21 UNL     1      -0.434   3.934  12.649  1.00  0.00     0.214 A 
ENDBRANCH  18  28
BRANCH  19  34
HETATM   34  O6  UNL     1      -4.202   4.258  13.297  1.00  0.00    -0.316 OA
BRANCH  34  35
HETATM   35  C23 UNL     1      -5.489   4.344  12.861  1.00  0.00     0.255 C 
HETATM   36  C24 UNL     1      -5.753   3.291  11.829  1.00  0.00     0.126 C 
HETATM   37  O7  UNL     1      -6.316   5.153  13.255  1.00  0.00    -0.266 OA
ENDBRANCH  34  35
ENDBRANCH  19  34
BRANCH  21  38
HETATM   38  O8  UNL     1      -0.514   6.060  15.144  1.00  0.00    -0.389 OA
HETATM   39  H35 UNL     1      -0.635   5.877  16.096  1.00  0.00     0.210 HD
ENDBRANCH  21  38
BRANCH  27  40
HETATM   40  O10 UNL     1       0.667  15.693  15.924  1.00  0.00    -0.360 OA
HETATM   41  H42 UNL     1       1.271  15.955  15.200  1.00  0.00     0.213 HD
ENDBRANCH  27  40
BRANCH   1  42
HETATM   42  O1  UNL     1       0.573  16.230  13.268  1.00  0.00    -0.385 OA
HETATM   43  C1  UNL     1       0.406  15.953  11.881  1.00  0.00     0.202 C 
ENDBRANCH   1  42
TORSDOF 6
ENDMDL
MODEL 4
REMARK minimizedAffinity -10.9343472
REMARK CNNscore 0.4787606
REMARK CNNaffinity 7.18042803
REMARK  6 active torsions:
REMARK  status: ('A' for Active; 'I' for Inactive)
REMARK    1  A    between atoms: O1_2  and  C2_3 
REMARK    2  A    between atoms: C17_20  and  C18_21 
REMARK    3  A    between atoms: C22_27  and  O6_28 
REMARK    4  A    between atoms: O6_28  and  C23_29 
REMARK    5  A    between atoms: C26_33  and  O8_34 
REMARK    6  A    between atoms: C31_40  and  O10_41 
ROOT
HETATM    1  C2  UNL     1     -11.775  10.044  13.766  1.00  0.00     0.190 C 
HETATM    2  C3  UNL     1     -13.241  10.023  13.316  1.00  0.00     0.064 C 
HETATM    3  C4  UNL     1     -13.733   8.625  12.986  1.00  0.00     0.174 C 
HETATM    4  O2  UNL     1     -12.663   7.866  12.447  1.00  0.00    -0.356 OA
HETATM    5  C5  UNL     1     -11.716   7.510  13.462  1.00  0.00     0.325 C 
HETATM    6  O3  UNL     1     -10.554   6.966  12.826  1.00  0.00    -0.344 OA
HETATM    7  C6  UNL     1      -9.676   6.440  13.822  1.00  0.00     0.177 C 
HETATM    8  C7  UNL     1      -8.532   5.773  13.118  1.00  0.00     0.011 C 
HETATM    9  C8  UNL     1      -7.265   5.758  13.572  1.00  0.00    -0.072 C 
HETATM   10  C9  UNL     1      -6.247   4.843  12.931  1.00  0.00     0.035 C 
HETATM   11  C10 UNL     1      -4.814   5.381  12.909  1.00  0.00     0.012 C 
HETATM   12  C11 UNL     1      -4.390   5.880  14.304  1.00  0.00     0.026 C 
HETATM   13  C12 UNL     1      -5.356   7.013  14.744  1.00  0.00     0.005 C 
HETATM   14  C13 UNL     1      -5.134   8.267  13.855  1.00  0.00     0.007 C 
HETATM   15  C14 UNL     1      -3.716   8.442  13.310  1.00  0.00     0.013 C 
HETATM   16  C15 UNL     1      -2.606   7.850  14.210  1.00  0.00    -0.003 C 
HETATM   17  C16 UNL     1      -2.517   8.750  15.467  1.00  0.00     0.019 C 
HETATM   18  C17 UNL     1      -1.259   7.846  13.398  1.00  0.00     0.058 C 
HETATM   19  C22 UNL     1      -1.319   6.497  12.647  1.00  0.00     0.143 C 
HETATM   20  C25 UNL     1      -1.864   5.524  13.687  1.00  0.00     0.072 C 
HETATM   21  C26 UNL     1      -2.900   6.326  14.500  1.00  0.00     0.072 C 
HETATM   22  C27 UNL     1      -6.863   6.542  14.815  1.00  0.00    -0.014 C 
HETATM   23  C28 UNL     1      -7.054   5.623  16.048  1.00  0.00     0.020 C 
HETATM   24  C29 UNL     1      -7.799   7.775  14.970  1.00  0.00     0.049 C 
HETATM   25  C30 UNL     1      -9.304   7.493  14.895  1.00  0.00     0.159 C 
HETATM   26  O9  UNL     1      -9.923   8.772  14.670  1.00  0.00    -0.341 OA
HETATM   27  C31 UNL     1     -11.329   8.703  14.409  1.00  0.00     0.240 C 
ENDROOT
BRANCH  18  28
HETATM   28  C18 UNL     1       0.019   8.073  14.176  1.00  0.00    -0.043 A 
HETATM   29  C19 UNL     1       0.395   7.373  15.249  1.00  0.00     0.087 A 
HETATM   30  C20 UNL     1       1.676   7.910  15.697  1.00  0.00     0.283 A 
HETATM   31  O4  UNL     1       2.308   7.502  16.654  1.00  0.00    -0.260 OA
HETATM   32  O5  UNL     1       2.036   8.935  14.884  1.00  0.00    -0.314 OA
HETATM   33  C21 UNL     1       1.031   9.118  13.885  1.00  0.00     0.214 A 
ENDBRANCH  18  28
BRANCH  19  34
HETATM   34  O6  UNL     1      -0.050   6.043  12.165  1.00  0.00    -0.316 OA
BRANCH  34  35
HETATM   35  C23 UNL     1       0.308   6.518  10.941  1.00  0.00     0.255 C 
HETATM   36  C24 UNL     1       1.569   5.854  10.480  1.00  0.00     0.126 C 
HETATM   37  O7  UNL     1      -0.309   7.356  10.301  1.00  0.00    -0.266 OA
ENDBRANCH  34  35
ENDBRANCH  19  34
BRANCH  21  38
HETATM   38  O8  UNL     1      -2.586   6.073  15.885  1.00  0.00    -0.389 OA
HETATM   39  H35 UNL     1      -2.719   5.122  16.065  1.00  0.00     0.210 HD
ENDBRANCH  21  38
BRANCH  27  40
HETATM   40  O10 UNL     1     -11.995   8.568  15.674  1.00  0.00    -0.360 OA
HETATM   41  H42 UNL     1     -12.042   9.489  16.001  1.00  0.00     0.213 HD
ENDBRANCH  27  40
BRANCH   1  42
HETATM   42  O1  UNL     1     -11.623  11.092  14.756  1.00  0.00    -0.385 OA
HETATM   43  C1  UNL     1     -10.357  11.739  14.668  1.00  0.00     0.202 C 
ENDBRANCH   1  42
TORSDOF 6
ENDMDL
MODEL 5
REMARK minimizedAffinity -11.2891302
REMARK CNNscore 0.401672333
REMARK CNNaffinity 7.31609726
REMARK  6 active torsions:
REMARK  status: ('A' for Active; 'I' for Inactive)
REMARK    1  A    between atoms: O1_2  and  C2_3 
REMARK    2  A    between atoms: C17_20  and  C18_21 
REMARK    3  A    between atoms: C22_27  and  O6_28 
REMARK    4  A    between atoms: O6_28  and  C23_29 
REMARK    5  A    between atoms: C26_33  and  O8_34 
REMARK    6  A    between atoms: C31_40  and  O10_41 
ROOT
HETATM    1  C2  UNL     1     -11.725  10.447  13.756  1.00  0.00     0.190 C 
HETATM    2  C3  UNL     1     -13.189  10.576  13.314  1.00  0.00     0.064 C 
HETATM    3  C4  UNL     1     -13.820   9.236  12.981  1.00  0.00     0.174 C 
HETATM    4  O2  UNL     1     -12.836   8.376  12.432  1.00  0.00    -0.356 OA
HETATM    5  C5  UNL     1     -11.923   7.921  13.441  1.00  0.00     0.325 C 
HETATM    6  O3  UNL     1     -10.826   7.266  12.795  1.00  0.00    -0.344 OA
HETATM    7  C6  UNL     1     -10.000   6.649  13.784  1.00  0.00     0.177 C 
HETATM    8  C7  UNL     1      -8.932   5.874  13.071  1.00  0.00     0.011 C 
HETATM    9  C8  UNL     1      -7.671   5.730  13.517  1.00  0.00    -0.072 C 
HETATM   10  C9  UNL     1      -6.754   4.720  12.866  1.00  0.00     0.035 C 
HETATM   11  C10 UNL     1      -5.275   5.111  12.837  1.00  0.00     0.012 C 
HETATM   12  C11 UNL     1      -4.795   5.558  14.232  1.00  0.00     0.026 C 
HETATM   13  C12 UNL     1      -5.639   6.780  14.682  1.00  0.00     0.005 C 
HETATM   14  C13 UNL     1      -5.297   8.010  13.798  1.00  0.00     0.007 C 
HETATM   15  C14 UNL     1      -3.871   8.044  13.245  1.00  0.00     0.013 C 
HETATM   16  C15 UNL     1      -2.822   7.339  14.136  1.00  0.00    -0.003 C 
HETATM   17  C16 UNL     1      -2.636   8.219  15.395  1.00  0.00     0.019 C 
HETATM   18  C17 UNL     1      -1.487   7.203  13.315  1.00  0.00     0.058 C 
HETATM   19  C22 UNL     1      -1.687   5.870  12.559  1.00  0.00     0.143 C 
HETATM   20  C25 UNL     1      -2.321   4.953  13.599  1.00  0.00     0.072 C 
HETATM   21  C26 UNL     1      -3.266   5.851  14.421  1.00  0.00     0.072 C 
HETATM   22  C27 UNL     1      -7.185   6.463  14.760  1.00  0.00    -0.014 C 
HETATM   23  C28 UNL     1      -7.461   5.562  15.991  1.00  0.00     0.020 C 
HETATM   24  C29 UNL     1      -7.992   7.784  14.926  1.00  0.00     0.049 C 
HETATM   25  C30 UNL     1      -9.518   7.655  14.860  1.00  0.00     0.159 C 
HETATM   26  O9  UNL     1     -10.006   8.991  14.643  1.00  0.00    -0.341 OA
HETATM   27  C31 UNL     1     -11.413   9.065  14.390  1.00  0.00     0.240 C 
ENDROOT
BRANCH  18  28
HETATM   28  C18 UNL     1      -0.188   7.297  14.087  1.00  0.00    -0.043 A 
HETATM   29  C19 UNL     1      -0.059   7.828  15.305  1.00  0.00     0.087 A 
HETATM   30  C20 UNL     1       1.347   7.725  15.682  1.00  0.00     0.283 A 
HETATM   31  O4  UNL     1       1.817   8.113  16.735  1.00  0.00    -0.260 OA
HETATM   32  O5  UNL     1       2.036   7.141  14.670  1.00  0.00    -0.314 OA
HETATM   33  C21 UNL     1       1.137   6.838  13.602  1.00  0.00     0.214 A 
ENDBRANCH  18  28
BRANCH  19  34
HETATM   34  O6  UNL     1      -0.472   5.293  12.068  1.00  0.00    -0.316 OA
BRANCH  34  35
HETATM   35  C23 UNL     1      -0.617   4.104  11.420  1.00  0.00     0.255 C 
HETATM   36  C24 UNL     1      -1.930   4.066  10.703  1.00  0.00     0.126 C 
HETATM   37  O7  UNL     1       0.205   3.200  11.412  1.00  0.00    -0.266 OA
ENDBRANCH  34  35
ENDBRANCH  19  34
BRANCH  21  38
HETATM   38  O8  UNL     1      -2.972   5.561  15.803  1.00  0.00    -0.389 OA
HETATM   39  H35 UNL     1      -3.198   4.628  15.980  1.00  0.00     0.210 HD
ENDBRANCH  21  38
BRANCH  27  40
HETATM   40  O10 UNL     1     -12.082   8.991  15.659  1.00  0.00    -0.360 OA
HETATM   41  H42 UNL     1     -12.035   9.911  15.990  1.00  0.00     0.213 HD
ENDBRANCH  27  40
BRANCH   1  42
HETATM   42  O1  UNL     1     -11.463  11.470  14.748  1.00  0.00    -0.385 OA
HETATM   43  C1  UNL     1     -12.490  12.455  14.794  1.00  0.00     0.202 C 
ENDBRANCH   1  42
TORSDOF 6
ENDMDL
MODEL 6
REMARK minimizedAffinity -6.80293655
REMARK CNNscore 0.383075327
REMARK CNNaffinity 6.23241472
REMARK  6 active torsions:
REMARK  status: ('A' for Active; 'I' for Inactive)
REMARK    1  A    between atoms: O1_2  and  C2_3 
REMARK    2  A    between atoms: C17_20  and  C18_21 
REMARK    3  A    between atoms: C22_27  and  O6_28 
REMARK    4  A    between atoms: O6_28  and  C23_29 
REMARK    5  A    between atoms: C26_33  and  O8_34 
REMARK    6  A    between atoms: C31_40  and  O10_41 
ROOT
HETATM    1  C2  UNL     1     -13.105   2.351  26.161  1.00  0.00     0.190 C 
HETATM    2  C3  UNL     1     -13.488   1.339  27.249  1.00  0.00     0.064 C 
HETATM    3  C4  UNL     1     -14.580   1.854  28.170  1.00  0.00     0.174 C 
HETATM    4  O2  UNL     1     -14.447   3.258  28.318  1.00  0.00    -0.356 OA
HETATM    5  C5  UNL     1     -14.848   3.946  27.126  1.00  0.00     0.325 C 
HETATM    6  O3  UNL     1     -14.465   5.321  27.247  1.00  0.00    -0.344 OA
HETATM    7  C6  UNL     1     -15.014   6.059  26.155  1.00  0.00     0.177 C 
HETATM    8  C7  UNL     1     -14.696   7.508  26.375  1.00  0.00     0.011 C 
HETATM    9  C8  UNL     1     -14.423   8.385  25.391  1.00  0.00    -0.072 C 
HETATM   10  C9  UNL     1     -14.377   9.865  25.694  1.00  0.00     0.035 C 
HETATM   11  C10 UNL     1     -13.375  10.667  24.861  1.00  0.00     0.012 C 
HETATM   12  C11 UNL     1     -13.534  10.359  23.359  1.00  0.00     0.026 C 
HETATM   13  C12 UNL     1     -13.291   8.842  23.133  1.00  0.00     0.005 C 
HETATM   14  C13 UNL     1     -11.797   8.504  23.390  1.00  0.00     0.007 C 
HETATM   15  C14 UNL     1     -10.810   9.637  23.101  1.00  0.00     0.013 C 
HETATM   16  C15 UNL     1     -11.266  10.617  21.995  1.00  0.00    -0.003 C 
HETATM   17  C16 UNL     1     -11.187   9.850  20.653  1.00  0.00     0.019 C 
HETATM   18  C17 UNL     1     -10.308  11.864  22.013  1.00  0.00     0.058 C 
HETATM   19  C22 UNL     1     -10.974  12.789  23.056  1.00  0.00     0.143 C 
HETATM   20  C25 UNL     1     -12.463  12.675  22.747  1.00  0.00     0.072 C 
HETATM   21  C26 UNL     1     -12.689  11.204  22.345  1.00  0.00     0.072 C 
HETATM   22  C27 UNL     1     -14.298   7.932  23.943  1.00  0.00    -0.014 C 
HETATM   23  C28 UNL     1     -15.700   8.011  23.288  1.00  0.00     0.020 C 
HETATM   24  C29 UNL     1     -13.822   6.450  23.907  1.00  0.00     0.049 C 
HETATM   25  C30 UNL     1     -14.610   5.468  24.781  1.00  0.00     0.159 C 
HETATM   26  O9  UNL     1     -13.776   4.300  24.892  1.00  0.00    -0.341 OA
HETATM   27  C31 UNL     1     -14.268   3.316  25.809  1.00  0.00     0.240 C 
ENDROOT
BRANCH  18  28
HETATM   28  C18 UNL     1     -10.012  12.528  20.685  1.00  0.00    -0.043 A 
HETATM   29  C19 UNL     1      -8.810  12.965  20.299  1.00  0.00     0.087 A 
HETATM   30  C20 UNL     1      -8.959  13.540  18.966  1.00  0.00     0.283 A 
HETATM   31  O4  UNL     1      -8.058  14.032  18.314  1.00  0.00    -0.260 OA
HETATM   32  O5  UNL     1     -10.258  13.446  18.585  1.00  0.00    -0.314 OA
HETATM   33  C21 UNL     1     -11.009  12.818  19.626  1.00  0.00     0.214 A 
ENDBRANCH  18  28
BRANCH  19  34
HETATM   34  O6  UNL     1     -10.557  14.156  22.971  1.00  0.00    -0.316 OA
BRANCH  34  35
HETATM   35  C23 UNL     1      -9.749  14.579  23.981  1.00  0.00     0.255 C 
HETATM   36  C24 UNL     1      -8.946  13.433  24.512  1.00  0.00     0.126 C 
HETATM   37  O7  UNL     1      -9.677  15.727  24.394  1.00  0.00    -0.266 OA
ENDBRANCH  34  35
ENDBRANCH  19  34
BRANCH  21  38
HETATM   38  O8  UNL     1     -13.459  11.250  21.126  1.00  0.00    -0.389 OA
HETATM   39  H35 UNL     1     -14.325  11.656  21.319  1.00  0.00     0.210 HD
ENDBRANCH  21  38
BRANCH  27  40
HETATM   40  O10 UNL     1     -15.285   2.565  25.128  1.00  0.00    -0.360 OA
HETATM   41  H42 UNL     1     -14.772   1.911  24.612  1.00  0.00     0.213 HD
ENDBRANCH  27  40
BRANCH   1  42
HETATM   42  O1  UNL     1     -12.751   1.613  24.966  1.00  0.00    -0.385 OA
HETATM   43  C1  UNL     1     -11.355   1.340  24.891  1.00  0.00     0.202 C 
ENDBRANCH   1  42
TORSDOF 6
ENDMDL
MODEL 7
REMARK minimizedAffinity -7.33223772
REMARK CNNscore 0.382407099
REMARK CNNaffinity 6.57448435
REMARK  6 active torsions:
REMARK  status: ('A' for Active; 'I' for Inactive)
REMARK    1  A    between atoms: O1_2  and  C2_3 
REMARK    2  A    between atoms: C17_20  and  C18_21 
REMARK    3  A    between atoms: C22_27  and  O6_28 
REMARK    4  A    between atoms: O6_28  and  C23_29 
REMARK    5  A    between atoms: C26_33  and  O8_34 
REMARK    6  A    between atoms: C31_40  and  O10_41 
ROOT
HETATM    1  C2  UNL     1       3.727 -11.064   0.076  1.00  0.00     0.190 C 
HETATM    2  C3  UNL     1       5.206 -11.415  -0.135  1.00  0.00     0.064 C 
HETATM    3  C4  UNL     1       5.568 -12.783   0.417  1.00  0.00     0.174 C 
HETATM    4  O2  UNL     1       4.783 -13.047   1.568  1.00  0.00    -0.356 OA
HETATM    5  C5  UNL     1       3.422 -13.329   1.215  1.00  0.00     0.325 C 
HETATM    6  O3  UNL     1       2.638 -13.345   2.413  1.00  0.00    -0.344 OA
HETATM    7  C6  UNL     1       1.320 -13.800   2.105  1.00  0.00     0.177 C 
HETATM    8  C7  UNL     1       0.564 -13.920   3.396  1.00  0.00     0.011 C 
HETATM    9  C8  UNL     1      -0.750 -13.662   3.534  1.00  0.00    -0.072 C 
HETATM   10  C9  UNL     1      -1.466 -14.064   4.802  1.00  0.00     0.035 C 
HETATM   11  C10 UNL     1      -2.607 -13.136   5.225  1.00  0.00     0.012 C 
HETATM   12  C11 UNL     1      -3.563 -12.865   4.048  1.00  0.00     0.026 C 
HETATM   13  C12 UNL     1      -2.761 -12.200   2.897  1.00  0.00     0.005 C 
HETATM   14  C13 UNL     1      -2.328 -10.769   3.316  1.00  0.00     0.007 C 
HETATM   15  C14 UNL     1      -3.264 -10.062   4.299  1.00  0.00     0.013 C 
HETATM   16  C15 UNL     1      -4.747 -10.488   4.190  1.00  0.00    -0.003 C 
HETATM   17  C16 UNL     1      -5.284  -9.913   2.857  1.00  0.00     0.019 C 
HETATM   18  C17 UNL     1      -5.521  -9.908   5.431  1.00  0.00     0.058 C 
HETATM   19  C22 UNL     1      -5.322 -11.007   6.499  1.00  0.00     0.143 C 
HETATM   20  C25 UNL     1      -5.504 -12.307   5.723  1.00  0.00     0.072 C 
HETATM   21  C26 UNL     1      -4.873 -12.055   4.339  1.00  0.00     0.072 C 
HETATM   22  C27 UNL     1      -1.569 -13.099   2.380  1.00  0.00    -0.014 C 
HETATM   23  C28 UNL     1      -2.140 -14.288   1.567  1.00  0.00     0.020 C 
HETATM   24  C29 UNL     1      -0.640 -12.267   1.448  1.00  0.00     0.049 C 
HETATM   25  C30 UNL     1       0.650 -12.957   0.992  1.00  0.00     0.159 C 
HETATM   26  O9  UNL     1       1.495 -11.902   0.497  1.00  0.00    -0.341 OA
HETATM   27  C31 UNL     1       2.823 -12.323   0.167  1.00  0.00     0.240 C 
ENDROOT
BRANCH  18  28
HETATM   28  C18 UNL     1      -6.962  -9.497   5.216  1.00  0.00    -0.043 A 
HETATM   29  C19 UNL     1      -7.539  -9.324   4.024  1.00  0.00     0.087 A 
HETATM   30  C20 UNL     1      -8.924  -8.927   4.260  1.00  0.00     0.283 A 
HETATM   31  O4  UNL     1      -9.739  -8.689   3.389  1.00  0.00    -0.260 OA
HETATM   32  O5  UNL     1      -9.143  -8.857   5.597  1.00  0.00    -0.314 OA
HETATM   33  C21 UNL     1      -7.941  -9.198   6.290  1.00  0.00     0.214 A 
ENDBRANCH  18  28
BRANCH  19  34
HETATM   34  O6  UNL     1      -6.259 -10.943   7.579  1.00  0.00    -0.316 OA
BRANCH  34  35
HETATM   35  C23 UNL     1      -5.791 -10.362   8.718  1.00  0.00     0.255 C 
HETATM   36  C24 UNL     1      -4.294 -10.358   8.716  1.00  0.00     0.126 C 
HETATM   37  O7  UNL     1      -6.485  -9.900   9.611  1.00  0.00    -0.266 OA
ENDBRANCH  34  35
ENDBRANCH  19  34
BRANCH  21  38
HETATM   38  O8  UNL     1      -5.847 -12.512   3.380  1.00  0.00    -0.389 OA
HETATM   39  H35 UNL     1      -5.970 -13.474   3.494  1.00  0.00     0.210 HD
ENDBRANCH  21  38
BRANCH  27  40
HETATM   40  O10 UNL     1       2.769 -12.933  -1.132  1.00  0.00    -0.360 OA
HETATM   41  H42 UNL     1       2.799 -12.167  -1.740  1.00  0.00     0.213 HD
ENDBRANCH  27  40
BRANCH   1  42
HETATM   42  O1  UNL     1       3.287 -10.272  -1.055  1.00  0.00    -0.385 OA
HETATM   43  C1  UNL     1       4.330 -10.055  -2.001  1.00  0.00     0.202 C 
ENDBRANCH   1  42
TORSDOF 6
ENDMDL
MODEL 8
REMARK minimizedAffinity -7.6278224
REMARK CNNscore 0.370440274
REMARK CNNaffinity 6.31361532
REMARK  6 active torsions:
REMARK  status: ('A' for Active; 'I' for Inactive)
REMARK    1  A    between atoms: O1_2  and  C2_3 
REMARK    2  A    between atoms: C17_20  and  C18_21 
REMARK    3  A    between atoms: C22_27  and  O6_28 
REMARK    4  A    between atoms: O6_28  and  C23_29 
REMARK    5  A    between atoms: C26_33  and  O8_34 
REMARK    6  A    between atoms: C31_40  and  O10_41 
ROOT
HETATM    1  C2  UNL     1      -3.245  16.552  14.791  1.00  0.00     0.190 C 
HETATM    2  C3  UNL     1      -4.064  17.748  15.294  1.00  0.00     0.064 C 
HETATM    3  C4  UNL     1      -4.798  17.452  16.590  1.00  0.00     0.174 C 
HETATM    4  O2  UNL     1      -5.177  16.086  16.614  1.00  0.00    -0.356 OA
HETATM    5  C5  UNL     1      -4.043  15.236  16.828  1.00  0.00     0.325 C 
HETATM    6  O3  UNL     1      -4.445  13.880  16.600  1.00  0.00    -0.344 OA
HETATM    7  C6  UNL     1      -3.382  13.006  16.982  1.00  0.00     0.177 C 
HETATM    8  C7  UNL     1      -3.878  11.596  16.845  1.00  0.00     0.011 C 
HETATM    9  C8  UNL     1      -3.115  10.556  16.459  1.00  0.00    -0.072 C 
HETATM   10  C9  UNL     1      -3.637   9.146  16.606  1.00  0.00     0.035 C 
HETATM   11  C10 UNL     1      -3.164   8.163  15.532  1.00  0.00     0.012 C 
HETATM   12  C11 UNL     1      -1.634   8.231  15.359  1.00  0.00     0.026 C 
HETATM   13  C12 UNL     1      -1.242   9.674  14.942  1.00  0.00     0.005 C 
HETATM   14  C13 UNL     1      -1.758   9.965  13.506  1.00  0.00     0.007 C 
HETATM   15  C14 UNL     1      -1.856   8.747  12.585  1.00  0.00     0.013 C 
HETATM   16  C15 UNL     1      -0.835   7.626  12.894  1.00  0.00    -0.003 C 
HETATM   17  C16 UNL     1       0.558   8.158  12.480  1.00  0.00     0.019 C 
HETATM   18  C17 UNL     1      -1.241   6.347  12.074  1.00  0.00     0.058 C 
HETATM   19  C22 UNL     1      -2.244   5.644  13.016  1.00  0.00     0.143 C 
HETATM   20  C25 UNL     1      -1.613   5.789  14.396  1.00  0.00     0.072 C 
HETATM   21  C26 UNL     1      -0.958   7.185  14.406  1.00  0.00     0.072 C 
HETATM   22  C27 UNL     1      -1.676  10.759  16.005  1.00  0.00    -0.014 C 
HETATM   23  C28 UNL     1      -0.758  10.652  17.249  1.00  0.00     0.020 C 
HETATM   24  C29 UNL     1      -1.523  12.186  15.402  1.00  0.00     0.049 C 
HETATM   25  C30 UNL     1      -2.054  13.341  16.259  1.00  0.00     0.159 C 
HETATM   26  O9  UNL     1      -2.165  14.462  15.365  1.00  0.00    -0.341 OA
HETATM   27  C31 UNL     1      -2.801  15.609  15.941  1.00  0.00     0.240 C 
ENDROOT
BRANCH  18  28
HETATM   28  C18 UNL     1      -0.120   5.459  11.578  1.00  0.00    -0.043 A 
HETATM   29  C19 UNL     1       0.920   5.876  10.851  1.00  0.00     0.087 A 
HETATM   30  C20 UNL     1       1.760   4.713  10.580  1.00  0.00     0.283 A 
HETATM   31  O4  UNL     1       2.795   4.733   9.942  1.00  0.00    -0.260 OA
HETATM   32  O5  UNL     1       1.194   3.616  11.145  1.00  0.00    -0.314 OA
HETATM   33  C21 UNL     1      -0.018   3.996  11.799  1.00  0.00     0.214 A 
ENDBRANCH  18  28
BRANCH  19  34
HETATM   34  O6  UNL     1      -2.453   4.260  12.713  1.00  0.00    -0.316 OA
BRANCH  34  35
HETATM   35  C23 UNL     1      -3.750   3.902  12.507  1.00  0.00     0.255 C 
HETATM   36  C24 UNL     1      -4.662   5.023  12.895  1.00  0.00     0.126 C 
HETATM   37  O7  UNL     1      -4.123   2.827  12.060  1.00  0.00    -0.266 OA
ENDBRANCH  34  35
ENDBRANCH  19  34
BRANCH  21  38
HETATM   38  O8  UNL     1       0.375   6.984  14.916  1.00  0.00    -0.389 OA
HETATM   39  H35 UNL     1       0.312   6.664  15.836  1.00  0.00     0.210 HD
ENDBRANCH  21  38
BRANCH  27  40
HETATM   40  O10 UNL     1      -1.816  16.294  16.730  1.00  0.00    -0.360 OA
HETATM   41  H42 UNL     1      -1.329  16.826  16.068  1.00  0.00     0.213 HD
ENDBRANCH  27  40
BRANCH   1  42
HETATM   42  O1  UNL     1      -2.056  17.064  14.141  1.00  0.00    -0.385 OA
HETATM   43  C1  UNL     1      -2.304  18.276  13.435  1.00  0.00     0.202 C 
ENDBRANCH   1  42
TORSDOF 6
ENDMDL
MODEL 9
REMARK minimizedAffinity -8.49138737
REMARK CNNscore 0.367706418
REMARK CNNaffinity 7.0569272
REMARK  6 active torsions:
REMARK  status: ('A' for Active; 'I' for Inactive)
REMARK    1  A    between atoms: O1_2  and  C2_3 
REMARK    2  A    between atoms: C17_20  and  C18_21 
REMARK    3  A    between atoms: C22_27  and  O6_28 
REMARK    4  A    between atoms: O6_28  and  C23_29 
REMARK    5  A    between atoms: C26_33  and  O8_34 
REMARK    6  A    between atoms: C31_40  and  O10_41 
ROOT
HETATM    1  C2  UNL     1      -4.111   5.778  13.224  1.00  0.00     0.190 C 
HETATM    2  C3  UNL     1      -2.622   6.105  13.054  1.00  0.00     0.064 C 
HETATM    3  C4  UNL     1      -2.232   7.422  13.703  1.00  0.00     0.174 C 
HETATM    4  O2  UNL     1      -3.321   8.327  13.618  1.00  0.00    -0.356 OA
HETATM    5  C5  UNL     1      -4.372   7.961  14.522  1.00  0.00     0.325 C 
HETATM    6  O3  UNL     1      -5.525   8.755  14.220  1.00  0.00    -0.344 OA
HETATM    7  C6  UNL     1      -6.520   8.537  15.221  1.00  0.00     0.177 C 
HETATM    8  C7  UNL     1      -7.662   9.469  14.942  1.00  0.00     0.011 C 
HETATM    9  C8  UNL     1      -8.956   9.172  15.160  1.00  0.00    -0.072 C 
HETATM   10  C9  UNL     1      -9.999  10.264  15.097  1.00  0.00     0.035 C 
HETATM   11  C10 UNL     1     -11.372   9.821  14.586  1.00  0.00     0.012 C 
HETATM   12  C11 UNL     1     -11.857   8.561  15.327  1.00  0.00     0.026 C 
HETATM   13  C12 UNL     1     -10.830   7.419  15.094  1.00  0.00     0.005 C 
HETATM   14  C13 UNL     1     -10.870   6.972  13.607  1.00  0.00     0.007 C 
HETATM   15  C14 UNL     1     -12.221   7.137  12.908  1.00  0.00     0.013 C 
HETATM   16  C15 UNL     1     -13.445   7.025  13.847  1.00  0.00    -0.003 C 
HETATM   17  C16 UNL     1     -13.550   5.541  14.274  1.00  0.00     0.019 C 
HETATM   18  C17 UNL     1     -14.720   7.497  13.056  1.00  0.00     0.058 C 
HETATM   19  C22 UNL     1     -14.723   9.023  13.296  1.00  0.00     0.143 C 
HETATM   20  C25 UNL     1     -14.349   9.162  14.768  1.00  0.00     0.072 C 
HETATM   21  C26 UNL     1     -13.312   8.054  15.037  1.00  0.00     0.072 C 
HETATM   22  C27 UNL     1      -9.382   7.781  15.611  1.00  0.00    -0.014 C 
HETATM   23  C28 UNL     1      -9.369   7.751  17.161  1.00  0.00     0.020 C 
HETATM   24  C29 UNL     1      -8.354   6.735  15.090  1.00  0.00     0.049 C 
HETATM   25  C30 UNL     1      -6.879   7.038  15.378  1.00  0.00     0.159 C 
HETATM   26  O9  UNL     1      -6.133   6.182  14.494  1.00  0.00    -0.341 OA
HETATM   27  C31 UNL     1      -4.722   6.430  14.494  1.00  0.00     0.240 C 
ENDROOT
BRANCH  18  28
HETATM   28  C18 UNL     1     -16.029   6.810  13.380  1.00  0.00    -0.043 A 
HETATM   29  C19 UNL     1     -16.752   6.094  12.515  1.00  0.00     0.087 A 
HETATM   30  C20 UNL     1     -17.935   5.613  13.223  1.00  0.00     0.283 A 
HETATM   31  O4  UNL     1     -18.810   4.925  12.733  1.00  0.00    -0.260 OA
HETATM   32  O5  UNL     1     -17.900   6.065  14.502  1.00  0.00    -0.314 OA
HETATM   33  C21 UNL     1     -16.720   6.848  14.693  1.00  0.00     0.214 A 
ENDBRANCH  18  28
BRANCH  19  34
HETATM   34  O6  UNL     1     -15.986   9.648  13.048  1.00  0.00    -0.316 OA
BRANCH  34  35
HETATM   35  C23 UNL     1     -16.278   9.863  11.735  1.00  0.00     0.255 C 
HETATM   36  C24 UNL     1     -17.286  10.963  11.606  1.00  0.00     0.126 C 
HETATM   37  O7  UNL     1     -15.787   9.257  10.794  1.00  0.00    -0.266 OA
ENDBRANCH  34  35
ENDBRANCH  19  34
BRANCH  21  38
HETATM   38  O8  UNL     1     -13.753   7.395  16.241  1.00  0.00    -0.389 OA
HETATM   39  H35 UNL     1     -13.720   8.035  16.977  1.00  0.00     0.210 HD
ENDBRANCH  21  38
BRANCH  27  40
HETATM   40  O10 UNL     1      -4.172   5.773  15.646  1.00  0.00    -0.360 OA
HETATM   41  H42 UNL     1      -4.067   4.847  15.347  1.00  0.00     0.213 HD
ENDBRANCH  27  40
BRANCH   1  42
HETATM   42  O1  UNL     1      -4.244   4.341  13.344  1.00  0.00    -0.385 OA
HETATM   43  C1  UNL     1      -4.474   3.712  12.087  1.00  0.00     0.202 C 
ENDBRANCH   1  42
TORSDOF 6
ENDMDL
