MODEL 1
REMARK minimizedAffinity -5.85040379
REMARK CNNscore 0.831930101
REMARK CNNaffinity 6.32672119
REMARK  8 active torsions:
REMARK  status: ('A' for Active; 'I' for Inactive)
REMARK    1  A    between atoms: C4_4  and  C5_5 
REMARK    2  A    between atoms: C5_5  and  C6_6 
REMARK    3  A    between atoms: C6_6  and  C7_7 
REMARK    4  A    between atoms: C9_9  and  C10_10 
REMARK    5  A    between atoms: C11_11  and  C12_12 
REMARK    6  A    between atoms: C14_14  and  C15_15 
REMARK    7  A    between atoms: C24_25  and  C26_27 
REMARK    8  A    between atoms: C29_31  and  O3_33 
ROOT
HETATM    1  C15 UNL     1       0.522  11.152  19.448  1.00  0.00     0.149 C 
HETATM    2  C16 UNL     1       1.155  11.627  20.750  1.00  0.00     0.054 C 
HETATM    3  C17 UNL     1       2.690  11.371  20.576  1.00  0.00     0.050 C 
HETATM    4  C18 UNL     1       2.740  10.837  19.111  1.00  0.00     0.272 C 
HETATM    5  O1  UNL     1       3.904  11.069  18.335  1.00  0.00    -0.360 OA
HETATM    6  C19 UNL     1       4.132  12.409  17.946  1.00  0.00     0.171 C 
HETATM    7  C20 UNL     1       5.123  13.076  18.885  1.00  0.00     0.027 C 
HETATM    8  C21 UNL     1       4.901  12.779  20.368  1.00  0.00     0.012 C 
HETATM    9  C22 UNL     1       3.412  12.758  20.772  1.00  0.00     0.032 C 
HETATM   10  C23 UNL     1       3.238  13.290  22.211  1.00  0.00    -0.066 C 
HETATM   11  C24 UNL     1       3.143  14.607  22.533  1.00  0.00    -0.021 C 
HETATM   12  C25 UNL     1       2.860  15.152  23.910  1.00  0.00     0.052 C 
HETATM   13  C27 UNL     1       3.119  12.215  23.276  1.00  0.00     0.038 C 
HETATM   14  C28 UNL     1       3.821  10.924  22.883  1.00  0.00     0.042 C 
HETATM   15  C29 UNL     1       3.273  10.298  21.583  1.00  0.00     0.067 C 
HETATM   16  C30 UNL     1       2.293   9.161  21.933  1.00  0.00     0.047 C 
HETATM   17  O4  UNL     1       1.543  11.303  18.465  1.00  0.00    -0.351 OA
ENDROOT
BRANCH   1  18
HETATM   18  C14 UNL     1      -0.755  11.855  19.081  1.00  0.00     0.011 C 
HETATM   19  C12 UNL     1      -1.977  11.355  18.801  1.00  0.00    -0.063 C 
HETATM   20  C13 UNL     1      -2.284   9.882  18.733  1.00  0.00     0.048 C 
BRANCH  19  21
HETATM   21  C11 UNL     1      -3.069  12.293  18.526  1.00  0.00     0.006 C 
HETATM   22  C10 UNL     1      -3.899  12.268  17.469  1.00  0.00     0.001 C 
BRANCH  22  23
HETATM   23  C9  UNL     1      -4.963  13.237  17.287  1.00  0.00     0.002 C 
HETATM   24  C7  UNL     1      -5.196  14.000  16.199  1.00  0.00    -0.084 C 
HETATM   25  C8  UNL     1      -4.353  13.994  14.945  1.00  0.00     0.043 C 
BRANCH  24  26
HETATM   26  C6  UNL     1      -6.359  14.984  16.098  1.00  0.00     0.037 C 
BRANCH  26  27
HETATM   27  C5  UNL     1      -6.424  15.902  14.869  1.00  0.00     0.031 C 
BRANCH  27  28
HETATM   28  C4  UNL     1      -7.848  16.185  14.468  1.00  0.00    -0.024 C 
HETATM   29  C2  UNL     1      -8.297  17.166  13.662  1.00  0.00    -0.091 C 
HETATM   30  C1  UNL     1      -9.763  17.282  13.335  1.00  0.00     0.042 C 
HETATM   31  C3  UNL     1      -7.437  18.226  13.030  1.00  0.00     0.042 C 
ENDBRANCH  27  28
ENDBRANCH  26  27
ENDBRANCH  24  26
ENDBRANCH  22  23
ENDBRANCH  19  21
ENDBRANCH   1  18
BRANCH  15  32
HETATM   32  O3  UNL     1       4.390   9.638  20.964  1.00  0.00    -0.389 OA
HETATM   33  H44 UNL     1       4.795   9.026  21.603  1.00  0.00     0.210 HD
ENDBRANCH  15  32
BRANCH  11  34
HETATM   34  C26 UNL     1       3.310  15.691  21.512  1.00  0.00     0.265 C 
HETATM   35  O2  UNL     1       2.391  16.069  20.791  1.00  0.00    -0.302 OA
ENDBRANCH  11  34
TORSDOF 8
ENDMDL
MODEL 2
REMARK minimizedAffinity -6.59048319
REMARK CNNscore 0.608462095
REMARK CNNaffinity 6.37848997
REMARK  8 active torsions:
REMARK  status: ('A' for Active; 'I' for Inactive)
REMARK    1  A    between atoms: C4_4  and  C5_5 
REMARK    2  A    between atoms: C5_5  and  C6_6 
REMARK    3  A    between atoms: C6_6  and  C7_7 
REMARK    4  A    between atoms: C9_9  and  C10_10 
REMARK    5  A    between atoms: C11_11  and  C12_12 
REMARK    6  A    between atoms: C14_14  and  C15_15 
REMARK    7  A    between atoms: C24_25  and  C26_27 
REMARK    8  A    between atoms: C29_31  and  O3_33 
ROOT
HETATM    1  C15 UNL     1     -14.019   9.168  16.874  1.00  0.00     0.149 C 
HETATM    2  C16 UNL     1     -13.245   8.589  15.698  1.00  0.00     0.054 C 
HETATM    3  C17 UNL     1     -12.531   9.814  15.034  1.00  0.00     0.050 C 
HETATM    4  C18 UNL     1     -12.946  10.964  16.004  1.00  0.00     0.272 C 
HETATM    5  O1  UNL     1     -12.073  12.068  16.175  1.00  0.00    -0.360 OA
HETATM    6  C19 UNL     1     -10.869  11.803  16.866  1.00  0.00     0.171 C 
HETATM    7  C20 UNL     1      -9.729  11.578  15.886  1.00  0.00     0.027 C 
HETATM    8  C21 UNL     1     -10.082  10.704  14.682  1.00  0.00     0.012 C 
HETATM    9  C22 UNL     1     -10.986   9.506  15.039  1.00  0.00     0.032 C 
HETATM   10  C23 UNL     1     -10.647   8.292  14.147  1.00  0.00    -0.066 C 
HETATM   11  C24 UNL     1      -9.646   7.410  14.404  1.00  0.00    -0.021 C 
HETATM   12  C25 UNL     1      -9.362   6.156  13.618  1.00  0.00     0.052 C 
HETATM   13  C27 UNL     1     -11.566   8.104  12.953  1.00  0.00     0.038 C 
HETATM   14  C28 UNL     1     -12.183   9.411  12.481  1.00  0.00     0.042 C 
HETATM   15  C29 UNL     1     -13.029  10.118  13.562  1.00  0.00     0.067 C 
HETATM   16  C30 UNL     1     -14.522   9.818  13.325  1.00  0.00     0.047 C 
HETATM   17  O4  UNL     1     -13.299  10.339  17.250  1.00  0.00    -0.351 OA
ENDROOT
BRANCH   1  18
HETATM   18  C14 UNL     1     -14.226   8.214  18.017  1.00  0.00     0.011 C 
HETATM   19  C12 UNL     1     -15.038   8.303  19.092  1.00  0.00    -0.063 C 
HETATM   20  C13 UNL     1     -15.897   9.502  19.396  1.00  0.00     0.048 C 
BRANCH  19  21
HETATM   21  C11 UNL     1     -15.076   7.180  20.033  1.00  0.00     0.006 C 
HETATM   22  C10 UNL     1     -14.019   6.583  20.610  1.00  0.00     0.001 C 
BRANCH  22  23
HETATM   23  C9  UNL     1     -14.156   5.481  21.542  1.00  0.00     0.002 C 
HETATM   24  C7  UNL     1     -14.435   5.554  22.861  1.00  0.00    -0.084 C 
HETATM   25  C8  UNL     1     -14.641   6.840  23.627  1.00  0.00     0.043 C 
BRANCH  24  26
HETATM   26  C6  UNL     1     -14.576   4.328  23.759  1.00  0.00     0.037 C 
BRANCH  26  27
HETATM   27  C5  UNL     1     -13.399   3.343  23.825  1.00  0.00     0.031 C 
BRANCH  27  28
HETATM   28  C4  UNL     1     -13.159   2.869  25.235  1.00  0.00    -0.024 C 
HETATM   29  C2  UNL     1     -12.253   1.966  25.657  1.00  0.00    -0.091 C 
HETATM   30  C1  UNL     1     -12.122   1.634  27.120  1.00  0.00     0.042 C 
HETATM   31  C3  UNL     1     -11.315   1.201  24.763  1.00  0.00     0.042 C 
ENDBRANCH  27  28
ENDBRANCH  26  27
ENDBRANCH  24  26
ENDBRANCH  22  23
ENDBRANCH  19  21
ENDBRANCH   1  18
BRANCH  15  32
HETATM   32  O3  UNL     1     -12.895  11.526  13.307  1.00  0.00    -0.389 OA
HETATM   33  H44 UNL     1     -13.135  11.709  12.381  1.00  0.00     0.210 HD
ENDBRANCH  15  32
BRANCH  11  34
HETATM   34  C26 UNL     1      -8.690   7.599  15.543  1.00  0.00     0.265 C 
HETATM   35  O2  UNL     1      -7.647   8.236  15.434  1.00  0.00    -0.302 OA
ENDBRANCH  11  34
TORSDOF 8
ENDMDL
MODEL 3
REMARK minimizedAffinity -6.04280186
REMARK CNNscore 0.580870211
REMARK CNNaffinity 6.05160475
REMARK  8 active torsions:
REMARK  status: ('A' for Active; 'I' for Inactive)
REMARK    1  A    between atoms: C4_4  and  C5_5 
REMARK    2  A    between atoms: C5_5  and  C6_6 
REMARK    3  A    between atoms: C6_6  and  C7_7 
REMARK    4  A    between atoms: C9_9  and  C10_10 
REMARK    5  A    between atoms: C11_11  and  C12_12 
REMARK    6  A    between atoms: C14_14  and  C15_15 
REMARK    7  A    between atoms: C24_25  and  C26_27 
REMARK    8  A    between atoms: C29_31  and  O3_33 
ROOT
HETATM    1  C15 UNL     1     -16.352   0.023  28.647  1.00  0.00     0.149 C 
HETATM    2  C16 UNL     1     -16.244   0.905  27.410  1.00  0.00     0.054 C 
HETATM    3  C17 UNL     1     -15.891   2.330  27.952  1.00  0.00     0.050 C 
HETATM    4  C18 UNL     1     -15.762   2.045  29.482  1.00  0.00     0.272 C 
HETATM    5  O1  UNL     1     -14.878   2.838  30.256  1.00  0.00    -0.360 OA
HETATM    6  C19 UNL     1     -13.499   2.641  30.016  1.00  0.00     0.171 C 
HETATM    7  C20 UNL     1     -12.965   3.702  29.068  1.00  0.00     0.027 C 
HETATM    8  C21 UNL     1     -13.871   4.014  27.877  1.00  0.00     0.012 C 
HETATM    9  C22 UNL     1     -14.536   2.760  27.271  1.00  0.00     0.032 C 
HETATM   10  C23 UNL     1     -14.697   2.923  25.744  1.00  0.00    -0.066 C 
HETATM   11  C24 UNL     1     -13.722   2.649  24.839  1.00  0.00    -0.021 C 
HETATM   12  C25 UNL     1     -13.882   2.689  23.341  1.00  0.00     0.052 C 
HETATM   13  C27 UNL     1     -16.076   3.370  25.293  1.00  0.00     0.038 C 
HETATM   14  C28 UNL     1     -16.803   4.180  26.356  1.00  0.00     0.042 C 
HETATM   15  C29 UNL     1     -17.015   3.411  27.678  1.00  0.00     0.067 C 
HETATM   16  C30 UNL     1     -18.452   2.854  27.724  1.00  0.00     0.047 C 
HETATM   17  O4  UNL     1     -15.504   0.637  29.614  1.00  0.00    -0.351 OA
ENDROOT
BRANCH   1  18
HETATM   18  C14 UNL     1     -16.024  -1.425  28.414  1.00  0.00     0.011 C 
HETATM   19  C12 UNL     1     -16.171  -2.495  29.225  1.00  0.00    -0.063 C 
HETATM   20  C13 UNL     1     -16.662  -2.407  30.646  1.00  0.00     0.048 C 
BRANCH  19  21
HETATM   21  C11 UNL     1     -15.814  -3.818  28.706  1.00  0.00     0.006 C 
HETATM   22  C10 UNL     1     -14.714  -4.528  29.014  1.00  0.00     0.001 C 
BRANCH  22  23
HETATM   23  C9  UNL     1     -14.451  -5.841  28.457  1.00  0.00     0.002 C 
HETATM   24  C7  UNL     1     -13.628  -6.789  28.952  1.00  0.00    -0.084 C 
HETATM   25  C8  UNL     1     -12.795  -6.639  30.204  1.00  0.00     0.043 C 
BRANCH  24  26
HETATM   26  C6  UNL     1     -13.429  -8.154  28.296  1.00  0.00     0.037 C 
BRANCH  26  27
HETATM   27  C5  UNL     1     -12.395  -9.107  28.912  1.00  0.00     0.031 C 
BRANCH  27  28
HETATM   28  C4  UNL     1     -13.003 -10.449  29.227  1.00  0.00    -0.024 C 
HETATM   29  C2  UNL     1     -12.765 -11.624  28.614  1.00  0.00    -0.091 C 
HETATM   30  C1  UNL     1     -13.439 -12.886  29.085  1.00  0.00     0.042 C 
HETATM   31  C3  UNL     1     -11.856 -11.813  27.430  1.00  0.00     0.042 C 
ENDBRANCH  27  28
ENDBRANCH  26  27
ENDBRANCH  24  26
ENDBRANCH  22  23
ENDBRANCH  19  21
ENDBRANCH   1  18
BRANCH  15  32
HETATM   32  O3  UNL     1     -16.974   4.400  28.719  1.00  0.00    -0.389 OA
HETATM   33  H44 UNL     1     -17.616   5.104  28.519  1.00  0.00     0.210 HD
ENDBRANCH  15  32
BRANCH  11  34
HETATM   34  C26 UNL     1     -12.336   2.257  25.255  1.00  0.00     0.265 C 
HETATM   35  O2  UNL     1     -11.363   2.381  24.517  1.00  0.00    -0.302 OA
ENDBRANCH  11  34
TORSDOF 8
ENDMDL
MODEL 4
REMARK minimizedAffinity -6.18233633
REMARK CNNscore 0.476905137
REMARK CNNaffinity 5.99531507
REMARK  8 active torsions:
REMARK  status: ('A' for Active; 'I' for Inactive)
REMARK    1  A    between atoms: C4_4  and  C5_5 
REMARK    2  A    between atoms: C5_5  and  C6_6 
REMARK    3  A    between atoms: C6_6  and  C7_7 
REMARK    4  A    between atoms: C9_9  and  C10_10 
REMARK    5  A    between atoms: C11_11  and  C12_12 
REMARK    6  A    between atoms: C14_14  and  C15_15 
REMARK    7  A    between atoms: C24_25  and  C26_27 
REMARK    8  A    between atoms: C29_31  and  O3_33 
ROOT
HETATM    1  C15 UNL     1       4.331   9.069  12.877  1.00  0.00     0.149 C 
HETATM    2  C16 UNL     1       5.164   9.142  14.149  1.00  0.00     0.054 C 
HETATM    3  C17 UNL     1       6.565   9.672  13.692  1.00  0.00     0.050 C 
HETATM    4  C18 UNL     1       6.311   9.915  12.171  1.00  0.00     0.272 C 
HETATM    5  O1  UNL     1       7.037  10.935  11.508  1.00  0.00    -0.360 OA
HETATM    6  C19 UNL     1       6.706  12.262  11.863  1.00  0.00     0.171 C 
HETATM    7  C20 UNL     1       7.687  12.801  12.892  1.00  0.00     0.027 C 
HETATM    8  C21 UNL     1       8.049  11.820  14.008  1.00  0.00     0.012 C 
HETATM    9  C22 UNL     1       6.847  10.991  14.507  1.00  0.00     0.032 C 
HETATM   10  C23 UNL     1       6.982  10.704  16.018  1.00  0.00    -0.066 C 
HETATM   11  C24 UNL     1       6.593  11.563  16.996  1.00  0.00    -0.021 C 
HETATM   12  C25 UNL     1       6.607  11.269  18.475  1.00  0.00     0.052 C 
HETATM   13  C27 UNL     1       7.545   9.336  16.359  1.00  0.00     0.038 C 
HETATM   14  C28 UNL     1       8.448   8.788  15.265  1.00  0.00     0.042 C 
HETATM   15  C29 UNL     1       7.738   8.630  13.903  1.00  0.00     0.067 C 
HETATM   16  C30 UNL     1       7.320   7.159  13.708  1.00  0.00     0.047 C 
HETATM   17  O4  UNL     1       4.889  10.055  12.012  1.00  0.00    -0.351 OA
ENDROOT
BRANCH   1  18
HETATM   18  C14 UNL     1       2.853   9.241  13.086  1.00  0.00     0.011 C 
HETATM   19  C12 UNL     1       1.809   8.802  12.350  1.00  0.00    -0.063 C 
HETATM   20  C13 UNL     1       1.957   8.064  11.045  1.00  0.00     0.048 C 
BRANCH  19  21
HETATM   21  C11 UNL     1       0.452   9.074  12.830  1.00  0.00     0.006 C 
HETATM   22  C10 UNL     1      -0.695   8.817  12.178  1.00  0.00     0.001 C 
BRANCH  22  23
HETATM   23  C9  UNL     1      -1.998   9.111  12.742  1.00  0.00     0.002 C 
HETATM   24  C7  UNL     1      -2.938   8.226  13.135  1.00  0.00    -0.084 C 
HETATM   25  C8  UNL     1      -2.802   6.725  13.035  1.00  0.00     0.043 C 
BRANCH  24  26
HETATM   26  C6  UNL     1      -4.280   8.638  13.735  1.00  0.00     0.037 C 
BRANCH  26  27
HETATM   27  C5  UNL     1      -5.521   7.817  13.359  1.00  0.00     0.031 C 
BRANCH  27  28
HETATM   28  C4  UNL     1      -6.083   7.092  14.554  1.00  0.00    -0.024 C 
HETATM   29  C2  UNL     1      -7.114   7.469  15.335  1.00  0.00    -0.091 C 
HETATM   30  C1  UNL     1      -7.571   6.599  16.477  1.00  0.00     0.042 C 
HETATM   31  C3  UNL     1      -7.890   8.749  15.185  1.00  0.00     0.042 C 
ENDBRANCH  27  28
ENDBRANCH  26  27
ENDBRANCH  24  26
ENDBRANCH  22  23
ENDBRANCH  19  21
ENDBRANCH   1  18
BRANCH  15  32
HETATM   32  O3  UNL     1       8.747   8.857  12.905  1.00  0.00    -0.389 OA
HETATM   33  H44 UNL     1       9.502   8.265  13.072  1.00  0.00     0.210 HD
ENDBRANCH  15  32
BRANCH  11  34
HETATM   34  C26 UNL     1       6.085  12.940  16.693  1.00  0.00     0.265 C 
HETATM   35  O2  UNL     1       4.926  13.158  16.354  1.00  0.00    -0.302 OA
ENDBRANCH  11  34
TORSDOF 8
ENDMDL
MODEL 5
REMARK minimizedAffinity -7.2694335
REMARK CNNscore 0.406719714
REMARK CNNaffinity 6.16046286
REMARK  8 active torsions:
REMARK  status: ('A' for Active; 'I' for Inactive)
REMARK    1  A    between atoms: C4_4  and  C5_5 
REMARK    2  A    between atoms: C5_5  and  C6_6 
REMARK    3  A    between atoms: C6_6  and  C7_7 
REMARK    4  A    between atoms: C9_9  and  C10_10 
REMARK    5  A    between atoms: C11_11  and  C12_12 
REMARK    6  A    between atoms: C14_14  and  C15_15 
REMARK    7  A    between atoms: C24_25  and  C26_27 
REMARK    8  A    between atoms: C29_31  and  O3_33 
ROOT
HETATM    1  C15 UNL     1     -11.237 -12.908  27.249  1.00  0.00     0.149 C 
HETATM    2  C16 UNL     1     -10.079 -12.675  26.286  1.00  0.00     0.054 C 
HETATM    3  C17 UNL     1     -10.028 -13.957  25.390  1.00  0.00     0.050 C 
HETATM    4  C18 UNL     1     -11.261 -14.749  25.929  1.00  0.00     0.272 C 
HETATM    5  O1  UNL     1     -11.960 -15.614  25.049  1.00  0.00    -0.360 OA
HETATM    6  C19 UNL     1     -12.703 -14.986  24.024  1.00  0.00     0.171 C 
HETATM    7  C20 UNL     1     -11.914 -14.972  22.725  1.00  0.00     0.027 C 
HETATM    8  C21 UNL     1     -10.436 -14.611  22.875  1.00  0.00     0.012 C 
HETATM    9  C22 UNL     1     -10.183 -13.482  23.895  1.00  0.00     0.032 C 
HETATM   10  C23 UNL     1      -8.987 -12.613  23.451  1.00  0.00    -0.066 C 
HETATM   11  C24 UNL     1      -9.076 -11.582  22.570  1.00  0.00    -0.021 C 
HETATM   12  C25 UNL     1      -7.953 -10.646  22.202  1.00  0.00     0.052 C 
HETATM   13  C27 UNL     1      -7.668 -12.955  24.120  1.00  0.00     0.038 C 
HETATM   14  C28 UNL     1      -7.598 -14.410  24.559  1.00  0.00     0.042 C 
HETATM   15  C29 UNL     1      -8.701 -14.803  25.565  1.00  0.00     0.067 C 
HETATM   16  C30 UNL     1      -8.124 -14.785  26.995  1.00  0.00     0.047 C 
HETATM   17  O4  UNL     1     -12.122 -13.784  26.557  1.00  0.00    -0.351 OA
ENDROOT
BRANCH   1  18
HETATM   18  C14 UNL     1     -11.911 -11.654  27.732  1.00  0.00     0.011 C 
HETATM   19  C12 UNL     1     -12.676 -11.439  28.823  1.00  0.00    -0.063 C 
HETATM   20  C13 UNL     1     -13.080 -12.522  29.789  1.00  0.00     0.048 C 
BRANCH  19  21
HETATM   21  C11 UNL     1     -13.162 -10.081  29.078  1.00  0.00     0.006 C 
HETATM   22  C10 UNL     1     -12.435  -8.950  29.042  1.00  0.00     0.001 C 
BRANCH  22  23
HETATM   23  C9  UNL     1     -13.009  -7.643  29.298  1.00  0.00     0.002 C 
HETATM   24  C7  UNL     1     -13.767  -6.905  28.460  1.00  0.00    -0.084 C 
HETATM   25  C8  UNL     1     -14.147  -7.314  27.056  1.00  0.00     0.043 C 
BRANCH  24  26
HETATM   26  C6  UNL     1     -14.341  -5.540  28.831  1.00  0.00     0.037 C 
BRANCH  26  27
HETATM   27  C5  UNL     1     -13.544  -4.662  29.806  1.00  0.00     0.031 C 
BRANCH  27  28
HETATM   28  C4  UNL     1     -14.361  -4.308  31.022  1.00  0.00    -0.024 C 
HETATM   29  C2  UNL     1     -14.465  -4.999  32.173  1.00  0.00    -0.091 C 
HETATM   30  C1  UNL     1     -15.306  -4.478  33.308  1.00  0.00     0.042 C 
HETATM   31  C3  UNL     1     -13.802  -6.321  32.451  1.00  0.00     0.042 C 
ENDBRANCH  27  28
ENDBRANCH  26  27
ENDBRANCH  24  26
ENDBRANCH  22  23
ENDBRANCH  19  21
ENDBRANCH   1  18
BRANCH  15  32
HETATM   32  O3  UNL     1      -8.993 -16.186  25.308  1.00  0.00    -0.389 OA
HETATM   33  H44 UNL     1      -8.167 -16.701  25.347  1.00  0.00     0.210 HD
ENDBRANCH  15  32
BRANCH  11  34
HETATM   34  C26 UNL     1     -10.351 -11.254  21.854  1.00  0.00     0.265 C 
HETATM   35  O2  UNL     1     -11.249 -10.595  22.368  1.00  0.00    -0.302 OA
ENDBRANCH  11  34
TORSDOF 8
ENDMDL
MODEL 6
REMARK minimizedAffinity -6.58152628
REMARK CNNscore 0.32805559
REMARK CNNaffinity 5.96924257
REMARK  8 active torsions:
REMARK  status: ('A' for Active; 'I' for Inactive)
REMARK    1  A    between atoms: C4_4  and  C5_5 
REMARK    2  A    between atoms: C5_5  and  C6_6 
REMARK    3  A    between atoms: C6_6  and  C7_7 
REMARK    4  A    between atoms: C9_9  and  C10_10 
REMARK    5  A    between atoms: C11_11  and  C12_12 
REMARK    6  A    between atoms: C14_14  and  C15_15 
REMARK    7  A    between atoms: C24_25  and  C26_27 
REMARK    8  A    between atoms: C29_31  and  O3_33 
ROOT
HETATM    1  C15 UNL     1     -15.213   7.545  16.168  1.00  0.00     0.149 C 
HETATM    2  C16 UNL     1     -13.836   7.673  15.530  1.00  0.00     0.054 C 
HETATM    3  C17 UNL     1     -13.956   8.875  14.534  1.00  0.00     0.050 C 
HETATM    4  C18 UNL     1     -15.420   9.342  14.804  1.00  0.00     0.272 C 
HETATM    5  O1  UNL     1     -15.749  10.710  14.625  1.00  0.00    -0.360 OA
HETATM    6  C19 UNL     1     -15.198  11.608  15.566  1.00  0.00     0.171 C 
HETATM    7  C20 UNL     1     -13.943  12.261  15.011  1.00  0.00     0.027 C 
HETATM    8  C21 UNL     1     -12.998  11.310  14.275  1.00  0.00     0.012 C 
HETATM    9  C22 UNL     1     -12.865   9.932  14.955  1.00  0.00     0.032 C 
HETATM   10  C23 UNL     1     -11.436   9.376  14.768  1.00  0.00    -0.066 C 
HETATM   11  C24 UNL     1     -10.382   9.694  15.564  1.00  0.00    -0.021 C 
HETATM   12  C25 UNL     1      -9.007   9.084  15.479  1.00  0.00     0.052 C 
HETATM   13  C27 UNL     1     -11.285   8.376  13.636  1.00  0.00     0.038 C 
HETATM   14  C28 UNL     1     -12.310   8.586  12.532  1.00  0.00     0.042 C 
HETATM   15  C29 UNL     1     -13.771   8.463  13.017  1.00  0.00     0.067 C 
HETATM   16  C30 UNL     1     -14.312   7.062  12.671  1.00  0.00     0.047 C 
HETATM   17  O4  UNL     1     -15.770   8.856  16.111  1.00  0.00    -0.351 OA
ENDROOT
BRANCH   1  18
HETATM   18  C14 UNL     1     -15.208   6.970  17.557  1.00  0.00     0.011 C 
HETATM   19  C12 UNL     1     -14.853   7.529  18.733  1.00  0.00    -0.063 C 
HETATM   20  C13 UNL     1     -14.285   8.918  18.861  1.00  0.00     0.048 C 
BRANCH  19  21
HETATM   21  C11 UNL     1     -15.006   6.739  19.957  1.00  0.00     0.006 C 
HETATM   22  C10 UNL     1     -14.022   6.344  20.784  1.00  0.00     0.001 C 
BRANCH  22  23
HETATM   23  C9  UNL     1     -14.272   5.570  21.984  1.00  0.00     0.002 C 
HETATM   24  C7  UNL     1     -13.694   5.726  23.193  1.00  0.00    -0.084 C 
HETATM   25  C8  UNL     1     -12.636   6.755  23.515  1.00  0.00     0.043 C 
BRANCH  24  26
HETATM   26  C6  UNL     1     -14.040   4.866  24.406  1.00  0.00     0.037 C 
BRANCH  26  27
HETATM   27  C5  UNL     1     -13.742   3.361  24.333  1.00  0.00     0.031 C 
BRANCH  27  28
HETATM   28  C4  UNL     1     -13.329   2.817  25.676  1.00  0.00    -0.024 C 
HETATM   29  C2  UNL     1     -12.312   1.975  25.945  1.00  0.00    -0.091 C 
HETATM   30  C1  UNL     1     -12.016   1.558  27.362  1.00  0.00     0.042 C 
HETATM   31  C3  UNL     1     -11.400   1.365  24.917  1.00  0.00     0.042 C 
ENDBRANCH  27  28
ENDBRANCH  26  27
ENDBRANCH  24  26
ENDBRANCH  22  23
ENDBRANCH  19  21
ENDBRANCH   1  18
BRANCH  15  32
HETATM   32  O3  UNL     1     -14.534   9.362  12.195  1.00  0.00    -0.389 OA
HETATM   33  H44 UNL     1     -14.370   9.157  11.258  1.00  0.00     0.210 HD
ENDBRANCH  15  32
BRANCH  11  34
HETATM   34  C26 UNL     1     -10.487  10.717  16.655  1.00  0.00     0.265 C 
HETATM   35  O2  UNL     1     -10.282  11.911  16.464  1.00  0.00    -0.302 OA
ENDBRANCH  11  34
TORSDOF 8
ENDMDL
MODEL 7
REMARK minimizedAffinity -6.6196599
REMARK CNNscore 0.3248083
REMARK CNNaffinity 5.5631423
REMARK  8 active torsions:
REMARK  status: ('A' for Active; 'I' for Inactive)
REMARK    1  A    between atoms: C4_4  and  C5_5 
REMARK    2  A    between atoms: C5_5  and  C6_6 
REMARK    3  A    between atoms: C6_6  and  C7_7 
REMARK    4  A    between atoms: C9_9  and  C10_10 
REMARK    5  A    between atoms: C11_11  and  C12_12 
REMARK    6  A    between atoms: C14_14  and  C15_15 
REMARK    7  A    between atoms: C24_25  and  C26_27 
REMARK    8  A    between atoms: C29_31  and  O3_33 
ROOT
HETATM    1  C15 UNL     1       0.624  10.990  19.525  1.00  0.00     0.149 C 
HETATM    2  C16 UNL     1       1.231  11.484  20.832  1.00  0.00     0.054 C 
HETATM    3  C17 UNL     1       2.777  11.313  20.656  1.00  0.00     0.050 C 
HETATM    4  C18 UNL     1       2.855  10.797  19.185  1.00  0.00     0.272 C 
HETATM    5  O1  UNL     1       4.005  11.099  18.412  1.00  0.00    -0.360 OA
HETATM    6  C19 UNL     1       4.161  12.453  18.037  1.00  0.00     0.171 C 
HETATM    7  C20 UNL     1       5.115  13.163  18.983  1.00  0.00     0.027 C 
HETATM    8  C21 UNL     1       4.910  12.839  20.463  1.00  0.00     0.012 C 
HETATM    9  C22 UNL     1       3.424  12.734  20.866  1.00  0.00     0.032 C 
HETATM   10  C23 UNL     1       3.222  13.241  22.310  1.00  0.00    -0.066 C 
HETATM   11  C24 UNL     1       3.057  14.547  22.646  1.00  0.00    -0.021 C 
HETATM   12  C25 UNL     1       2.746  15.063  24.028  1.00  0.00     0.052 C 
HETATM   13  C27 UNL     1       3.161  12.151  23.365  1.00  0.00     0.038 C 
HETATM   14  C28 UNL     1       3.931  10.903  22.959  1.00  0.00     0.042 C 
HETATM   15  C29 UNL     1       3.417  10.262  21.652  1.00  0.00     0.067 C 
HETATM   16  C30 UNL     1       2.499   9.070  21.990  1.00  0.00     0.047 C 
HETATM   17  O4  UNL     1       1.635  11.205  18.544  1.00  0.00    -0.351 OA
ENDROOT
BRANCH   1  18
HETATM   18  C14 UNL     1      -0.689  11.627  19.165  1.00  0.00     0.011 C 
HETATM   19  C12 UNL     1      -1.625  11.251  18.267  1.00  0.00    -0.063 C 
HETATM   20  C13 UNL     1      -1.472  10.071  17.344  1.00  0.00     0.048 C 
BRANCH  19  21
HETATM   21  C11 UNL     1      -2.852  12.044  18.164  1.00  0.00     0.006 C 
HETATM   22  C10 UNL     1      -3.860  12.078  19.054  1.00  0.00     0.001 C 
BRANCH  22  23
HETATM   23  C9  UNL     1      -5.036  12.907  18.872  1.00  0.00     0.002 C 
HETATM   24  C7  UNL     1      -5.781  13.491  19.833  1.00  0.00    -0.084 C 
HETATM   25  C8  UNL     1      -5.526  13.365  21.317  1.00  0.00     0.043 C 
BRANCH  24  26
HETATM   26  C6  UNL     1      -6.998  14.364  19.537  1.00  0.00     0.037 C 
BRANCH  26  27
HETATM   27  C5  UNL     1      -8.056  14.525  20.638  1.00  0.00     0.031 C 
BRANCH  27  28
HETATM   28  C4  UNL     1      -9.044  13.387  20.622  1.00  0.00    -0.024 C 
HETATM   29  C2  UNL     1      -9.382  12.577  21.644  1.00  0.00    -0.091 C 
HETATM   30  C1  UNL     1     -10.424  11.504  21.461  1.00  0.00     0.042 C 
HETATM   31  C3  UNL     1      -8.783  12.628  23.023  1.00  0.00     0.042 C 
ENDBRANCH  27  28
ENDBRANCH  26  27
ENDBRANCH  24  26
ENDBRANCH  22  23
ENDBRANCH  19  21
ENDBRANCH   1  18
BRANCH  15  32
HETATM   32  O3  UNL     1       4.568   9.669  21.026  1.00  0.00    -0.389 OA
HETATM   33  H44 UNL     1       5.005   9.073  21.659  1.00  0.00     0.210 HD
ENDBRANCH  15  32
BRANCH  11  34
HETATM   34  C26 UNL     1       3.165  15.650  21.636  1.00  0.00     0.265 C 
HETATM   35  O2  UNL     1       2.188  16.118  21.060  1.00  0.00    -0.302 OA
ENDBRANCH  11  34
TORSDOF 8
ENDMDL
MODEL 8
REMARK minimizedAffinity -7.27403975
REMARK CNNscore 0.316477239
REMARK CNNaffinity 6.35347414
REMARK  8 active torsions:
REMARK  status: ('A' for Active; 'I' for Inactive)
REMARK    1  A    between atoms: C4_4  and  C5_5 
REMARK    2  A    between atoms: C5_5  and  C6_6 
REMARK    3  A    between atoms: C6_6  and  C7_7 
REMARK    4  A    between atoms: C9_9  and  C10_10 
REMARK    5  A    between atoms: C11_11  and  C12_12 
REMARK    6  A    between atoms: C14_14  and  C15_15 
REMARK    7  A    between atoms: C24_25  and  C26_27 
REMARK    8  A    between atoms: C29_31  and  O3_33 
ROOT
HETATM    1  C15 UNL     1     -10.613   9.206  15.164  1.00  0.00     0.149 C 
HETATM    2  C16 UNL     1     -11.874   8.418  15.493  1.00  0.00     0.054 C 
HETATM    3  C17 UNL     1     -13.047   9.446  15.359  1.00  0.00     0.050 C 
HETATM    4  C18 UNL     1     -12.279  10.715  14.875  1.00  0.00     0.272 C 
HETATM    5  O1  UNL     1     -12.950  11.652  14.049  1.00  0.00    -0.360 OA
HETATM    6  C19 UNL     1     -13.241  11.221  12.734  1.00  0.00     0.171 C 
HETATM    7  C20 UNL     1     -14.675  10.727  12.639  1.00  0.00     0.027 C 
HETATM    8  C21 UNL     1     -15.131   9.852  13.807  1.00  0.00     0.012 C 
HETATM    9  C22 UNL     1     -14.049   8.864  14.290  1.00  0.00     0.032 C 
HETATM   10  C23 UNL     1     -14.698   7.551  14.778  1.00  0.00    -0.066 C 
HETATM   11  C24 UNL     1     -15.048   6.522  13.962  1.00  0.00    -0.021 C 
HETATM   12  C25 UNL     1     -15.578   5.187  14.418  1.00  0.00     0.052 C 
HETATM   13  C27 UNL     1     -14.880   7.451  16.282  1.00  0.00     0.038 C 
HETATM   14  C28 UNL     1     -15.019   8.814  16.944  1.00  0.00     0.042 C 
HETATM   15  C29 UNL     1     -13.799   9.734  16.722  1.00  0.00     0.067 C 
HETATM   16  C30 UNL     1     -12.891   9.693  17.966  1.00  0.00     0.047 C 
HETATM   17  O4  UNL     1     -11.047  10.251  14.297  1.00  0.00    -0.351 OA
ENDROOT
BRANCH   1  18
HETATM   18  C14 UNL     1      -9.496   8.386  14.582  1.00  0.00     0.011 C 
HETATM   19  C12 UNL     1      -8.590   7.590  15.189  1.00  0.00    -0.063 C 
HETATM   20  C13 UNL     1      -8.485   7.427  16.682  1.00  0.00     0.048 C 
BRANCH  19  21
HETATM   21  C11 UNL     1      -7.636   6.856  14.353  1.00  0.00     0.006 C 
HETATM   22  C10 UNL     1      -7.851   5.680  13.737  1.00  0.00     0.001 C 
BRANCH  22  23
HETATM   23  C9  UNL     1      -6.846   5.032  12.918  1.00  0.00     0.002 C 
HETATM   24  C7  UNL     1      -6.764   3.721  12.608  1.00  0.00    -0.084 C 
HETATM   25  C8  UNL     1      -7.726   2.660  13.091  1.00  0.00     0.043 C 
BRANCH  24  26
HETATM   26  C6  UNL     1      -5.671   3.135  11.718  1.00  0.00     0.037 C 
BRANCH  26  27
HETATM   27  C5  UNL     1      -4.222   3.580  11.967  1.00  0.00     0.031 C 
BRANCH  27  28
HETATM   28  C4  UNL     1      -3.241   2.513  11.557  1.00  0.00    -0.024 C 
HETATM   29  C2  UNL     1      -1.939   2.666  11.249  1.00  0.00    -0.091 C 
HETATM   30  C1  UNL     1      -1.088   1.476  10.891  1.00  0.00     0.042 C 
HETATM   31  C3  UNL     1      -1.209   3.982  11.210  1.00  0.00     0.042 C 
ENDBRANCH  27  28
ENDBRANCH  26  27
ENDBRANCH  24  26
ENDBRANCH  22  23
ENDBRANCH  19  21
ENDBRANCH   1  18
BRANCH  15  32
HETATM   32  O3  UNL     1     -14.318  11.074  16.693  1.00  0.00    -0.389 OA
HETATM   33  H44 UNL     1     -14.840  11.233  17.499  1.00  0.00     0.210 HD
ENDBRANCH  15  32
BRANCH  11  34
HETATM   34  C26 UNL     1     -14.931   6.612  12.471  1.00  0.00     0.265 C 
HETATM   35  O2  UNL     1     -15.851   6.999  11.757  1.00  0.00    -0.302 OA
ENDBRANCH  11  34
TORSDOF 8
ENDMDL
MODEL 9
REMARK minimizedAffinity -7.07529831
REMARK CNNscore 0.306098908
REMARK CNNaffinity 6.34163809
REMARK  8 active torsions:
REMARK  status: ('A' for Active; 'I' for Inactive)
REMARK    1  A    between atoms: C4_4  and  C5_5 
REMARK    2  A    between atoms: C5_5  and  C6_6 
REMARK    3  A    between atoms: C6_6  and  C7_7 
REMARK    4  A    between atoms: C9_9  and  C10_10 
REMARK    5  A    between atoms: C11_11  and  C12_12 
REMARK    6  A    between atoms: C14_14  and  C15_15 
REMARK    7  A    between atoms: C24_25  and  C26_27 
REMARK    8  A    between atoms: C29_31  and  O3_33 
ROOT
HETATM    1  C15 UNL     1     -11.634   9.003  15.517  1.00  0.00     0.149 C 
HETATM    2  C16 UNL     1     -13.000   8.331  15.508  1.00  0.00     0.054 C 
HETATM    3  C17 UNL     1     -14.033   9.501  15.387  1.00  0.00     0.050 C 
HETATM    4  C18 UNL     1     -13.078  10.730  15.259  1.00  0.00     0.272 C 
HETATM    5  O1  UNL     1     -13.511  11.862  14.523  1.00  0.00    -0.360 OA
HETATM    6  C19 UNL     1     -13.617  11.689  13.125  1.00  0.00     0.171 C 
HETATM    7  C20 UNL     1     -15.055  11.395  12.730  1.00  0.00     0.027 C 
HETATM    8  C21 UNL     1     -15.780  10.403  13.640  1.00  0.00     0.012 C 
HETATM    9  C22 UNL     1     -14.891   9.227  14.094  1.00  0.00     0.032 C 
HETATM   10  C23 UNL     1     -15.733   7.940  14.236  1.00  0.00    -0.066 C 
HETATM   11  C24 UNL     1     -16.037   7.107  13.207  1.00  0.00    -0.021 C 
HETATM   12  C25 UNL     1     -16.758   5.790  13.331  1.00  0.00     0.052 C 
HETATM   13  C27 UNL     1     -16.173   7.621  15.654  1.00  0.00     0.038 C 
HETATM   14  C28 UNL     1     -16.293   8.864  16.522  1.00  0.00     0.042 C 
HETATM   15  C29 UNL     1     -14.972   9.653  16.652  1.00  0.00     0.067 C 
HETATM   16  C30 UNL     1     -14.293   9.302  17.990  1.00  0.00     0.047 C 
HETATM   17  O4  UNL     1     -11.816  10.219  14.796  1.00  0.00    -0.351 OA
ENDROOT
BRANCH   1  18
HETATM   18  C14 UNL     1     -10.517   8.159  14.970  1.00  0.00     0.011 C 
HETATM   19  C12 UNL     1     -10.438   7.452  13.823  1.00  0.00    -0.063 C 
HETATM   20  C13 UNL     1     -11.575   7.316  12.844  1.00  0.00     0.048 C 
BRANCH  19  21
HETATM   21  C11 UNL     1      -9.186   6.756  13.516  1.00  0.00     0.006 C 
HETATM   22  C10 UNL     1      -8.335   6.211  14.403  1.00  0.00     0.001 C 
BRANCH  22  23
HETATM   23  C9  UNL     1      -7.119   5.530  14.002  1.00  0.00     0.002 C 
HETATM   24  C7  UNL     1      -7.019   4.366  13.326  1.00  0.00    -0.084 C 
HETATM   25  C8  UNL     1      -8.193   3.531  12.869  1.00  0.00     0.043 C 
BRANCH  24  26
HETATM   26  C6  UNL     1      -5.685   3.735  12.935  1.00  0.00     0.037 C 
BRANCH  26  27
HETATM   27  C5  UNL     1      -4.419   4.597  13.042  1.00  0.00     0.031 C 
BRANCH  27  28
HETATM   28  C4  UNL     1      -3.208   3.862  12.529  1.00  0.00    -0.024 C 
HETATM   29  C2  UNL     1      -2.970   3.447  11.270  1.00  0.00    -0.091 C 
HETATM   30  C1  UNL     1      -1.680   2.752  10.921  1.00  0.00     0.042 C 
HETATM   31  C3  UNL     1      -3.920   3.602  10.114  1.00  0.00     0.042 C 
ENDBRANCH  27  28
ENDBRANCH  26  27
ENDBRANCH  24  26
ENDBRANCH  22  23
ENDBRANCH  19  21
ENDBRANCH   1  18
BRANCH  15  32
HETATM   32  O3  UNL     1     -15.351  11.033  16.787  1.00  0.00    -0.389 OA
HETATM   33  H44 UNL     1     -15.983  11.122  17.522  1.00  0.00     0.210 HD
ENDBRANCH  15  32
BRANCH  11  34
HETATM   34  C26 UNL     1     -15.664   7.423  11.790  1.00  0.00     0.265 C 
HETATM   35  O2  UNL     1     -16.344   8.150  11.072  1.00  0.00    -0.302 OA
ENDBRANCH  11  34
TORSDOF 8
ENDMDL
