MODEL 1
REMARK minimizedAffinity -9.05766582
REMARK CNNscore 0.661489069
REMARK CNNaffinity 6.19768524
REMARK  7 active torsions:
REMARK  status: ('A' for Active; 'I' for Inactive)
REMARK    1  A    between atoms: C4_4  and  C5_5 
REMARK    2  A    between atoms: C5_5  and  C6_6 
REMARK    3  A    between atoms: C6_6  and  C7_7 
REMARK    4  A    between atoms: C7_7  and  C9_9 
REMARK    5  A    between atoms: C18_18  and  O1_19 
REMARK    6  A    between atoms: O1_19  and  C19_20 
REMARK    7  A    between atoms: C19_20  and  C20_22 
ROOT
HETATM    1  C9  UNL     1      -9.521  48.229 -29.314  1.00  0.00    -0.002 C 
HETATM    2  C10 UNL     1      -9.994  47.766 -30.718  1.00  0.00     0.006 C 
HETATM    3  C11 UNL     1     -11.383  47.137 -30.555  1.00  0.00     0.010 C 
HETATM    4  C12 UNL     1     -11.774  47.463 -29.119  1.00  0.00     0.023 C 
HETATM    5  C13 UNL     1     -12.905  46.728 -28.441  1.00  0.00    -0.070 C 
HETATM    6  C14 UNL     1     -13.766  45.931 -29.092  1.00  0.00     0.004 C 
HETATM    7  C15 UNL     1     -14.968  45.438 -28.472  1.00  0.00     0.004 C 
HETATM    8  C16 UNL     1     -15.193  45.530 -27.150  1.00  0.00    -0.069 C 
HETATM    9  C17 UNL     1     -16.458  44.969 -26.543  1.00  0.00     0.067 C 
HETATM   10  C18 UNL     1     -17.103  45.922 -25.534  1.00  0.00     0.136 C 
HETATM   11  C26 UNL     1     -16.083  46.347 -24.477  1.00  0.00     0.034 C 
HETATM   12  C27 UNL     1     -14.873  47.016 -25.126  1.00  0.00     0.017 C 
HETATM   13  C28 UNL     1     -14.156  46.148 -26.202  1.00  0.00    -0.013 C 
HETATM   14  C29 UNL     1     -13.444  44.958 -25.511  1.00  0.00     0.021 C 
HETATM   15  C30 UNL     1     -13.125  47.094 -26.973  1.00  0.00     0.027 C 
HETATM   16  C31 UNL     1     -11.793  47.292 -26.197  1.00  0.00     0.011 C 
HETATM   17  C32 UNL     1     -10.700  48.041 -26.974  1.00  0.00     0.011 C 
HETATM   18  C33 UNL     1     -10.430  47.396 -28.350  1.00  0.00    -0.033 C 
HETATM   19  C34 UNL     1      -9.905  45.948 -28.195  1.00  0.00     0.016 C 
ENDROOT
BRANCH  10  20
HETATM   20  O1  UNL     1     -18.188  45.217 -24.899  1.00  0.00    -0.312 OA
BRANCH  20  21
HETATM   21  C19 UNL     1     -19.102  45.989 -24.257  1.00  0.00     0.293 C 
HETATM   22  O2  UNL     1     -19.802  46.847 -24.769  1.00  0.00    -0.259 OA
BRANCH  21  23
HETATM   23  C20 UNL     1     -19.151  45.647 -22.809  1.00  0.00     0.039 A 
HETATM   24  C21 UNL     1     -19.706  44.411 -22.441  1.00  0.00     0.017 A 
HETATM   25  C22 UNL     1     -19.775  44.042 -21.097  1.00  0.00     0.001 A 
HETATM   26  C23 UNL     1     -19.294  44.904 -20.112  1.00  0.00     0.000 A 
HETATM   27  C24 UNL     1     -18.743  46.135 -20.468  1.00  0.00     0.001 A 
HETATM   28  C25 UNL     1     -18.670  46.508 -21.813  1.00  0.00     0.017 A 
ENDBRANCH  21  23
ENDBRANCH  20  21
ENDBRANCH  10  20
BRANCH   1  29
HETATM   29  C7  UNL     1      -7.971  48.171 -29.154  1.00  0.00    -0.014 C 
HETATM   30  C8  UNL     1      -7.263  47.915 -30.493  1.00  0.00     0.010 C 
BRANCH  29  31
HETATM   31  C6  UNL     1      -7.513  47.056 -28.168  1.00  0.00     0.008 C 
BRANCH  31  32
HETATM   32  C5  UNL     1      -6.827  47.565 -26.894  1.00  0.00     0.028 C 
BRANCH  32  33
HETATM   33  C4  UNL     1      -5.397  47.947 -27.172  1.00  0.00    -0.025 C 
HETATM   34  C2  UNL     1      -4.454  48.337 -26.292  1.00  0.00    -0.091 C 
HETATM   35  C1  UNL     1      -3.058  48.660 -26.760  1.00  0.00     0.042 C 
HETATM   36  C3  UNL     1      -4.657  48.499 -24.811  1.00  0.00     0.042 C 
ENDBRANCH  32  33
ENDBRANCH  31  32
ENDBRANCH  29  31
ENDBRANCH   1  29
TORSDOF 7
ENDMDL
MODEL 2
REMARK minimizedAffinity -7.92510271
REMARK CNNscore 0.531232357
REMARK CNNaffinity 6.13578463
REMARK  7 active torsions:
REMARK  status: ('A' for Active; 'I' for Inactive)
REMARK    1  A    between atoms: C4_4  and  C5_5 
REMARK    2  A    between atoms: C5_5  and  C6_6 
REMARK    3  A    between atoms: C6_6  and  C7_7 
REMARK    4  A    between atoms: C7_7  and  C9_9 
REMARK    5  A    between atoms: C18_18  and  O1_19 
REMARK    6  A    between atoms: O1_19  and  C19_20 
REMARK    7  A    between atoms: C19_20  and  C20_22 
ROOT
HETATM    1  C9  UNL     1      -8.961  45.664 -27.263  1.00  0.00    -0.002 C 
HETATM    2  C10 UNL     1      -8.853  46.875 -26.297  1.00  0.00     0.006 C 
HETATM    3  C11 UNL     1     -10.253  47.144 -25.734  1.00  0.00     0.010 C 
HETATM    4  C12 UNL     1     -11.078  45.950 -26.197  1.00  0.00     0.023 C 
HETATM    5  C13 UNL     1     -12.587  45.994 -26.162  1.00  0.00    -0.070 C 
HETATM    6  C14 UNL     1     -13.286  46.952 -25.534  1.00  0.00     0.004 C 
HETATM    7  C15 UNL     1     -14.704  46.841 -25.312  1.00  0.00     0.004 C 
HETATM    8  C16 UNL     1     -15.463  45.912 -25.918  1.00  0.00    -0.069 C 
HETATM    9  C17 UNL     1     -16.954  45.857 -25.676  1.00  0.00     0.067 C 
HETATM   10  C18 UNL     1     -17.462  44.433 -25.441  1.00  0.00     0.136 C 
HETATM   11  C26 UNL     1     -17.018  43.515 -26.581  1.00  0.00     0.034 C 
HETATM   12  C27 UNL     1     -15.497  43.509 -26.716  1.00  0.00     0.017 C 
HETATM   13  C28 UNL     1     -14.863  44.917 -26.921  1.00  0.00    -0.013 C 
HETATM   14  C29 UNL     1     -15.236  45.448 -28.328  1.00  0.00     0.021 C 
HETATM   15  C30 UNL     1     -13.283  44.762 -26.742  1.00  0.00     0.027 C 
HETATM   16  C31 UNL     1     -12.582  44.222 -28.020  1.00  0.00     0.011 C 
HETATM   17  C32 UNL     1     -11.047  44.228 -27.963  1.00  0.00     0.011 C 
HETATM   18  C33 UNL     1     -10.491  45.619 -27.592  1.00  0.00    -0.033 C 
HETATM   19  C34 UNL     1     -10.867  46.674 -28.662  1.00  0.00     0.016 C 
ENDROOT
BRANCH  10  20
HETATM   20  O1  UNL     1     -18.902  44.484 -25.399  1.00  0.00    -0.312 OA
BRANCH  20  21
HETATM   21  C19 UNL     1     -19.438  45.543 -24.739  1.00  0.00     0.293 C 
HETATM   22  O2  UNL     1     -19.929  46.535 -25.253  1.00  0.00    -0.259 OA
BRANCH  21  23
HETATM   23  C20 UNL     1     -19.358  45.336 -23.267  1.00  0.00     0.039 A 
HETATM   24  C21 UNL     1     -18.705  46.311 -22.498  1.00  0.00     0.017 A 
HETATM   25  C22 UNL     1     -18.603  46.165 -21.113  1.00  0.00     0.001 A 
HETATM   26  C23 UNL     1     -19.149  45.044 -20.489  1.00  0.00     0.000 A 
HETATM   27  C24 UNL     1     -19.797  44.067 -21.246  1.00  0.00     0.001 A 
HETATM   28  C25 UNL     1     -19.903  44.211 -22.632  1.00  0.00     0.017 A 
ENDBRANCH  21  23
ENDBRANCH  20  21
ENDBRANCH  10  20
BRANCH   1  29
HETATM   29  C7  UNL     1      -7.924  45.730 -28.426  1.00  0.00    -0.014 C 
HETATM   30  C8  UNL     1      -7.654  44.347 -29.036  1.00  0.00     0.010 C 
BRANCH  29  31
HETATM   31  C6  UNL     1      -6.553  46.312 -27.972  1.00  0.00     0.008 C 
BRANCH  31  32
HETATM   32  C5  UNL     1      -6.269  47.741 -28.452  1.00  0.00     0.028 C 
BRANCH  32  33
HETATM   33  C4  UNL     1      -4.859  48.148 -28.114  1.00  0.00    -0.025 C 
HETATM   34  C2  UNL     1      -4.334  48.397 -26.898  1.00  0.00    -0.091 C 
HETATM   35  C1  UNL     1      -2.882  48.775 -26.755  1.00  0.00     0.042 C 
HETATM   36  C3  UNL     1      -5.084  48.342 -25.596  1.00  0.00     0.042 C 
ENDBRANCH  32  33
ENDBRANCH  31  32
ENDBRANCH  29  31
ENDBRANCH   1  29
TORSDOF 7
ENDMDL
MODEL 3
REMARK minimizedAffinity -8.18764114
REMARK CNNscore 0.290700346
REMARK CNNaffinity 6.75709152
REMARK  7 active torsions:
REMARK  status: ('A' for Active; 'I' for Inactive)
REMARK    1  A    between atoms: C4_4  and  C5_5 
REMARK    2  A    between atoms: C5_5  and  C6_6 
REMARK    3  A    between atoms: C6_6  and  C7_7 
REMARK    4  A    between atoms: C7_7  and  C9_9 
REMARK    5  A    between atoms: C18_18  and  O1_19 
REMARK    6  A    between atoms: O1_19  and  C19_20 
REMARK    7  A    between atoms: C19_20  and  C20_22 
ROOT
HETATM    1  C9  UNL     1      -3.675  45.301 -18.168  1.00  0.00    -0.002 C 
HETATM    2  C10 UNL     1      -4.141  44.536 -19.436  1.00  0.00     0.006 C 
HETATM    3  C11 UNL     1      -3.781  45.395 -20.654  1.00  0.00     0.010 C 
HETATM    4  C12 UNL     1      -2.912  46.509 -20.081  1.00  0.00     0.023 C 
HETATM    5  C13 UNL     1      -2.641  47.763 -20.876  1.00  0.00    -0.070 C 
HETATM    6  C14 UNL     1      -2.936  47.892 -22.179  1.00  0.00     0.004 C 
HETATM    7  C15 UNL     1      -2.453  48.997 -22.964  1.00  0.00     0.004 C 
HETATM    8  C16 UNL     1      -1.891  50.088 -22.416  1.00  0.00    -0.069 C 
HETATM    9  C17 UNL     1      -1.428  51.236 -23.283  1.00  0.00     0.067 C 
HETATM   10  C18 UNL     1      -0.047  51.759 -22.882  1.00  0.00     0.136 C 
HETATM   11  C26 UNL     1      -0.020  52.101 -21.391  1.00  0.00     0.034 C 
HETATM   12  C27 UNL     1      -0.380  50.881 -20.546  1.00  0.00     0.017 C 
HETATM   13  C28 UNL     1      -1.755  50.239 -20.894  1.00  0.00    -0.013 C 
HETATM   14  C29 UNL     1      -2.894  51.192 -20.454  1.00  0.00     0.021 C 
HETATM   15  C30 UNL     1      -1.832  48.832 -20.142  1.00  0.00     0.027 C 
HETATM   16  C31 UNL     1      -2.236  48.969 -18.647  1.00  0.00     0.011 C 
HETATM   17  C32 UNL     1      -2.502  47.639 -17.927  1.00  0.00     0.011 C 
HETATM   18  C33 UNL     1      -3.529  46.771 -18.684  1.00  0.00    -0.033 C 
HETATM   19  C34 UNL     1      -4.905  47.477 -18.764  1.00  0.00     0.016 C 
ENDROOT
BRANCH  10  20
HETATM   20  O1  UNL     1       0.209  52.951 -23.653  1.00  0.00    -0.312 OA
BRANCH  20  21
HETATM   21  C19 UNL     1      -0.458  53.049 -24.831  1.00  0.00     0.293 C 
HETATM   22  O2  UNL     1      -1.591  53.477 -24.980  1.00  0.00    -0.259 OA
BRANCH  21  23
HETATM   23  C20 UNL     1       0.389  52.562 -25.954  1.00  0.00     0.039 A 
HETATM   24  C21 UNL     1       1.631  51.988 -25.642  1.00  0.00     0.017 A 
HETATM   25  C22 UNL     1       2.463  51.515 -26.658  1.00  0.00     0.001 A 
HETATM   26  C23 UNL     1       2.062  51.614 -27.990  1.00  0.00     0.000 A 
HETATM   27  C24 UNL     1       0.830  52.186 -28.309  1.00  0.00     0.001 A 
HETATM   28  C25 UNL     1      -0.007  52.659 -27.295  1.00  0.00     0.017 A 
ENDBRANCH  21  23
ENDBRANCH  20  21
ENDBRANCH  10  20
BRANCH   1  29
HETATM   29  C7  UNL     1      -4.570  45.005 -16.926  1.00  0.00    -0.014 C 
HETATM   30  C8  UNL     1      -5.564  46.141 -16.649  1.00  0.00     0.010 C 
BRANCH  29  31
HETATM   31  C6  UNL     1      -3.739  44.788 -15.628  1.00  0.00     0.008 C 
BRANCH  31  32
HETATM   32  C5  UNL     1      -3.339  43.333 -15.353  1.00  0.00     0.028 C 
BRANCH  32  33
HETATM   33  C4  UNL     1      -1.891  43.102 -15.697  1.00  0.00    -0.025 C 
HETATM   34  C2  UNL     1      -1.383  42.457 -16.765  1.00  0.00    -0.091 C 
HETATM   35  C1  UNL     1       0.109  42.345 -16.952  1.00  0.00     0.042 C 
HETATM   36  C3  UNL     1      -2.188  41.793 -17.848  1.00  0.00     0.042 C 
ENDBRANCH  32  33
ENDBRANCH  31  32
ENDBRANCH  29  31
ENDBRANCH   1  29
TORSDOF 7
ENDMDL
MODEL 4
REMARK minimizedAffinity -8.45543289
REMARK CNNscore 0.274379849
REMARK CNNaffinity 5.5816865
REMARK  7 active torsions:
REMARK  status: ('A' for Active; 'I' for Inactive)
REMARK    1  A    between atoms: C4_4  and  C5_5 
REMARK    2  A    between atoms: C5_5  and  C6_6 
REMARK    3  A    between atoms: C6_6  and  C7_7 
REMARK    4  A    between atoms: C7_7  and  C9_9 
REMARK    5  A    between atoms: C18_18  and  O1_19 
REMARK    6  A    between atoms: O1_19  and  C19_20 
REMARK    7  A    between atoms: C19_20  and  C20_22 
ROOT
HETATM    1  C9  UNL     1       1.522  68.422 -39.442  1.00  0.00    -0.002 C 
HETATM    2  C10 UNL     1       2.528  68.619 -40.608  1.00  0.00     0.006 C 
HETATM    3  C11 UNL     1       3.850  67.962 -40.195  1.00  0.00     0.010 C 
HETATM    4  C12 UNL     1       3.508  67.204 -38.918  1.00  0.00     0.023 C 
HETATM    5  C13 UNL     1       4.598  66.715 -37.995  1.00  0.00    -0.070 C 
HETATM    6  C14 UNL     1       5.899  66.703 -38.325  1.00  0.00     0.004 C 
HETATM    7  C15 UNL     1       6.881  66.015 -37.530  1.00  0.00     0.004 C 
HETATM    8  C16 UNL     1       6.622  65.552 -36.296  1.00  0.00    -0.069 C 
HETATM    9  C17 UNL     1       7.698  64.864 -35.488  1.00  0.00     0.067 C 
HETATM   10  C18 UNL     1       7.199  63.589 -34.803  1.00  0.00     0.136 C 
HETATM   11  C26 UNL     1       5.945  63.886 -33.978  1.00  0.00     0.034 C 
HETATM   12  C27 UNL     1       4.842  64.472 -34.855  1.00  0.00     0.017 C 
HETATM   13  C28 UNL     1       5.252  65.757 -35.635  1.00  0.00    -0.013 C 
HETATM   14  C29 UNL     1       5.426  66.929 -34.638  1.00  0.00     0.021 C 
HETATM   15  C30 UNL     1       4.105  66.053 -36.708  1.00  0.00     0.027 C 
HETATM   16  C31 UNL     1       2.876  66.778 -36.092  1.00  0.00     0.011 C 
HETATM   17  C32 UNL     1       1.828  67.248 -37.112  1.00  0.00     0.011 C 
HETATM   18  C33 UNL     1       2.458  68.110 -38.226  1.00  0.00    -0.033 C 
HETATM   19  C34 UNL     1       3.078  69.405 -37.647  1.00  0.00     0.016 C 
ENDROOT
BRANCH  10  20
HETATM   20  O1  UNL     1       8.248  63.122 -33.931  1.00  0.00    -0.312 OA
BRANCH  20  21
HETATM   21  C19 UNL     1       8.925  62.024 -34.354  1.00  0.00     0.293 C 
HETATM   22  O2  UNL     1       8.569  60.865 -34.214  1.00  0.00    -0.259 OA
BRANCH  21  23
HETATM   23  C20 UNL     1      10.189  62.418 -35.034  1.00  0.00     0.039 A 
HETATM   24  C21 UNL     1      10.354  62.058 -36.380  1.00  0.00     0.017 A 
HETATM   25  C22 UNL     1      11.521  62.405 -37.064  1.00  0.00     0.001 A 
HETATM   26  C23 UNL     1      12.530  63.109 -36.408  1.00  0.00     0.000 A 
HETATM   27  C24 UNL     1      12.375  63.469 -35.069  1.00  0.00     0.001 A 
HETATM   28  C25 UNL     1      11.208  63.126 -34.381  1.00  0.00     0.017 A 
ENDBRANCH  21  23
ENDBRANCH  20  21
ENDBRANCH  10  20
BRANCH   1  29
HETATM   29  C7  UNL     1       0.488  69.585 -39.339  1.00  0.00    -0.014 C 
HETATM   30  C8  UNL     1      -0.709  69.215 -38.451  1.00  0.00     0.010 C 
BRANCH  29  31
HETATM   31  C6  UNL     1      -0.078  70.005 -40.727  1.00  0.00     0.008 C 
BRANCH  31  32
HETATM   32  C5  UNL     1      -1.579  70.322 -40.743  1.00  0.00     0.028 C 
BRANCH  32  33
HETATM   33  C4  UNL     1      -2.276  69.559 -41.838  1.00  0.00    -0.025 C 
HETATM   34  C2  UNL     1      -1.940  68.363 -42.362  1.00  0.00    -0.091 C 
HETATM   35  C1  UNL     1      -2.780  67.741 -43.448  1.00  0.00     0.042 C 
HETATM   36  C3  UNL     1      -0.747  67.539 -41.961  1.00  0.00     0.042 C 
ENDBRANCH  32  33
ENDBRANCH  31  32
ENDBRANCH  29  31
ENDBRANCH   1  29
TORSDOF 7
ENDMDL
MODEL 5
REMARK minimizedAffinity -7.81159115
REMARK CNNscore 0.268683404
REMARK CNNaffinity 6.54836035
REMARK  7 active torsions:
REMARK  status: ('A' for Active; 'I' for Inactive)
REMARK    1  A    between atoms: C4_4  and  C5_5 
REMARK    2  A    between atoms: C5_5  and  C6_6 
REMARK    3  A    between atoms: C6_6  and  C7_7 
REMARK    4  A    between atoms: C7_7  and  C9_9 
REMARK    5  A    between atoms: C18_18  and  O1_19 
REMARK    6  A    between atoms: O1_19  and  C19_20 
REMARK    7  A    between atoms: C19_20  and  C20_22 
ROOT
HETATM    1  C9  UNL     1      -4.003  45.464 -18.081  1.00  0.00    -0.002 C 
HETATM    2  C10 UNL     1      -4.309  44.600 -19.334  1.00  0.00     0.006 C 
HETATM    3  C11 UNL     1      -3.864  45.396 -20.566  1.00  0.00     0.010 C 
HETATM    4  C12 UNL     1      -3.104  46.584 -19.988  1.00  0.00     0.023 C 
HETATM    5  C13 UNL     1      -2.807  47.797 -20.836  1.00  0.00    -0.070 C 
HETATM    6  C14 UNL     1      -2.975  47.830 -22.167  1.00  0.00     0.004 C 
HETATM    7  C15 UNL     1      -2.462  48.905 -22.975  1.00  0.00     0.004 C 
HETATM    8  C16 UNL     1      -2.003  50.053 -22.449  1.00  0.00    -0.069 C 
HETATM    9  C17 UNL     1      -1.504  51.165 -23.343  1.00  0.00     0.067 C 
HETATM   10  C18 UNL     1      -0.192  51.778 -22.846  1.00  0.00     0.136 C 
HETATM   11  C26 UNL     1      -0.328  52.214 -21.386  1.00  0.00     0.034 C 
HETATM   12  C27 UNL     1      -0.720  51.034 -20.499  1.00  0.00     0.017 C 
HETATM   13  C28 UNL     1      -2.026  50.306 -20.935  1.00  0.00    -0.013 C 
HETATM   14  C29 UNL     1      -3.241  51.230 -20.672  1.00  0.00     0.021 C 
HETATM   15  C30 UNL     1      -2.119  48.947 -20.100  1.00  0.00     0.027 C 
HETATM   16  C31 UNL     1      -2.676  49.159 -18.665  1.00  0.00     0.011 C 
HETATM   17  C32 UNL     1      -2.957  47.866 -17.885  1.00  0.00     0.011 C 
HETATM   18  C33 UNL     1      -3.867  46.904 -18.678  1.00  0.00    -0.033 C 
HETATM   19  C34 UNL     1      -5.256  47.538 -18.939  1.00  0.00     0.016 C 
ENDROOT
BRANCH  10  20
HETATM   20  O1  UNL     1       0.091  52.929 -23.667  1.00  0.00    -0.312 OA
BRANCH  20  21
HETATM   21  C19 UNL     1      -0.573  52.991 -24.849  1.00  0.00     0.293 C 
HETATM   22  O2  UNL     1      -1.715  53.389 -25.011  1.00  0.00    -0.259 OA
BRANCH  21  23
HETATM   23  C20 UNL     1       0.291  52.504 -25.960  1.00  0.00     0.039 A 
HETATM   24  C21 UNL     1       1.574  52.035 -25.640  1.00  0.00     0.017 A 
HETATM   25  C22 UNL     1       2.424  51.568 -26.645  1.00  0.00     0.001 A 
HETATM   26  C23 UNL     1       1.999  51.568 -27.973  1.00  0.00     0.000 A 
HETATM   27  C24 UNL     1       0.725  52.035 -28.300  1.00  0.00     0.001 A 
HETATM   28  C25 UNL     1      -0.129  52.502 -27.297  1.00  0.00     0.017 A 
ENDBRANCH  21  23
ENDBRANCH  20  21
ENDBRANCH  10  20
BRANCH   1  29
HETATM   29  C7  UNL     1      -5.005  45.205 -16.915  1.00  0.00    -0.014 C 
HETATM   30  C8  UNL     1      -4.295  44.729 -15.640  1.00  0.00     0.010 C 
BRANCH  29  31
HETATM   31  C6  UNL     1      -6.077  44.134 -17.275  1.00  0.00     0.008 C 
BRANCH  31  32
HETATM   32  C5  UNL     1      -7.242  44.029 -16.281  1.00  0.00     0.028 C 
BRANCH  32  33
HETATM   33  C4  UNL     1      -7.951  45.350 -16.146  1.00  0.00    -0.025 C 
HETATM   34  C2  UNL     1      -9.095  45.744 -16.739  1.00  0.00    -0.091 C 
HETATM   35  C1  UNL     1      -9.669  47.110 -16.462  1.00  0.00     0.042 C 
HETATM   36  C3  UNL     1      -9.904  44.924 -17.707  1.00  0.00     0.042 C 
ENDBRANCH  32  33
ENDBRANCH  31  32
ENDBRANCH  29  31
ENDBRANCH   1  29
TORSDOF 7
ENDMDL
MODEL 6
REMARK minimizedAffinity -8.68447113
REMARK CNNscore 0.267294049
REMARK CNNaffinity 6.05684137
REMARK  7 active torsions:
REMARK  status: ('A' for Active; 'I' for Inactive)
REMARK    1  A    between atoms: C4_4  and  C5_5 
REMARK    2  A    between atoms: C5_5  and  C6_6 
REMARK    3  A    between atoms: C6_6  and  C7_7 
REMARK    4  A    between atoms: C7_7  and  C9_9 
REMARK    5  A    between atoms: C18_18  and  O1_19 
REMARK    6  A    between atoms: O1_19  and  C19_20 
REMARK    7  A    between atoms: C19_20  and  C20_22 
ROOT
HETATM    1  C9  UNL     1      -9.900  46.434 -27.505  1.00  0.00    -0.002 C 
HETATM    2  C10 UNL     1      -9.126  46.493 -28.850  1.00  0.00     0.006 C 
HETATM    3  C11 UNL     1      -7.687  46.922 -28.538  1.00  0.00     0.010 C 
HETATM    4  C12 UNL     1      -7.603  46.868 -27.017  1.00  0.00     0.023 C 
HETATM    5  C13 UNL     1      -6.477  47.553 -26.282  1.00  0.00    -0.070 C 
HETATM    6  C14 UNL     1      -5.384  48.043 -26.889  1.00  0.00     0.004 C 
HETATM    7  C15 UNL     1      -4.227  48.470 -26.149  1.00  0.00     0.004 C 
HETATM    8  C16 UNL     1      -4.239  48.642 -24.817  1.00  0.00    -0.069 C 
HETATM    9  C17 UNL     1      -3.005  49.123 -24.090  1.00  0.00     0.067 C 
HETATM   10  C18 UNL     1      -2.726  48.331 -22.810  1.00  0.00     0.136 C 
HETATM   11  C26 UNL     1      -3.967  48.315 -21.915  1.00  0.00     0.034 C 
HETATM   12  C27 UNL     1      -5.162  47.713 -22.650  1.00  0.00     0.017 C 
HETATM   13  C28 UNL     1      -5.515  48.419 -23.993  1.00  0.00    -0.013 C 
HETATM   14  C29 UNL     1      -6.087  49.828 -23.697  1.00  0.00     0.021 C 
HETATM   15  C30 UNL     1      -6.570  47.495 -24.757  1.00  0.00     0.027 C 
HETATM   16  C31 UNL     1      -8.023  47.683 -24.237  1.00  0.00     0.011 C 
HETATM   17  C32 UNL     1      -9.100  46.957 -25.058  1.00  0.00     0.011 C 
HETATM   18  C33 UNL     1      -9.015  47.311 -26.557  1.00  0.00    -0.033 C 
HETATM   19  C34 UNL     1      -9.270  48.821 -26.789  1.00  0.00     0.016 C 
ENDROOT
BRANCH  10  20
HETATM   20  O1  UNL     1      -1.643  48.985 -22.118  1.00  0.00    -0.312 OA
BRANCH  20  21
HETATM   21  C19 UNL     1      -1.967  50.122 -21.451  1.00  0.00     0.293 C 
HETATM   22  O2  UNL     1      -2.931  50.274 -20.718  1.00  0.00    -0.259 OA
BRANCH  21  23
HETATM   23  C20 UNL     1      -0.968  51.191 -21.726  1.00  0.00     0.039 A 
HETATM   24  C21 UNL     1      -0.682  51.498 -23.065  1.00  0.00     0.017 A 
HETATM   25  C22 UNL     1       0.246  52.493 -23.377  1.00  0.00     0.001 A 
HETATM   26  C23 UNL     1       0.895  53.186 -22.355  1.00  0.00     0.000 A 
HETATM   27  C24 UNL     1       0.619  52.885 -21.021  1.00  0.00     0.001 A 
HETATM   28  C25 UNL     1      -0.311  51.891 -20.704  1.00  0.00     0.017 A 
ENDBRANCH  21  23
ENDBRANCH  20  21
ENDBRANCH  10  20
BRANCH   1  29
HETATM   29  C7  UNL     1     -11.415  46.765 -27.670  1.00  0.00    -0.014 C 
HETATM   30  C8  UNL     1     -11.704  47.499 -28.987  1.00  0.00     0.010 C 
BRANCH  29  31
HETATM   31  C6  UNL     1     -11.962  47.653 -26.514  1.00  0.00     0.008 C 
BRANCH  31  32
HETATM   32  C5  UNL     1     -12.652  46.883 -25.381  1.00  0.00     0.028 C 
BRANCH  32  33
HETATM   33  C4  UNL     1     -13.875  46.166 -25.888  1.00  0.00    -0.025 C 
HETATM   34  C2  UNL     1     -15.155  46.327 -25.499  1.00  0.00    -0.091 C 
HETATM   35  C1  UNL     1     -16.257  45.527 -26.144  1.00  0.00     0.042 C 
HETATM   36  C3  UNL     1     -15.629  47.268 -24.425  1.00  0.00     0.042 C 
ENDBRANCH  32  33
ENDBRANCH  31  32
ENDBRANCH  29  31
ENDBRANCH   1  29
TORSDOF 7
ENDMDL
MODEL 7
REMARK minimizedAffinity -9.34130001
REMARK CNNscore 0.260707945
REMARK CNNaffinity 7.11381006
REMARK  7 active torsions:
REMARK  status: ('A' for Active; 'I' for Inactive)
REMARK    1  A    between atoms: C4_4  and  C5_5 
REMARK    2  A    between atoms: C5_5  and  C6_6 
REMARK    3  A    between atoms: C6_6  and  C7_7 
REMARK    4  A    between atoms: C7_7  and  C9_9 
REMARK    5  A    between atoms: C18_18  and  O1_19 
REMARK    6  A    between atoms: O1_19  and  C19_20 
REMARK    7  A    between atoms: C19_20  and  C20_22 
ROOT
HETATM    1  C9  UNL     1       1.400  49.993 -13.960  1.00  0.00    -0.002 C 
HETATM    2  C10 UNL     1       0.627  48.661 -14.157  1.00  0.00     0.006 C 
HETATM    3  C11 UNL     1       0.094  48.642 -15.594  1.00  0.00     0.010 C 
HETATM    4  C12 UNL     1       0.766  49.839 -16.257  1.00  0.00     0.023 C 
HETATM    5  C13 UNL     1       0.246  50.390 -17.563  1.00  0.00    -0.070 C 
HETATM    6  C14 UNL     1      -0.660  49.759 -18.326  1.00  0.00     0.004 C 
HETATM    7  C15 UNL     1      -0.956  50.184 -19.669  1.00  0.00     0.004 C 
HETATM    8  C16 UNL     1      -0.543  51.362 -20.165  1.00  0.00    -0.069 C 
HETATM    9  C17 UNL     1      -0.908  51.777 -21.572  1.00  0.00     0.067 C 
HETATM   10  C18 UNL     1       0.278  52.368 -22.339  1.00  0.00     0.136 C 
HETATM   11  C26 UNL     1       0.915  53.505 -21.538  1.00  0.00     0.034 C 
HETATM   12  C27 UNL     1       1.375  53.015 -20.167  1.00  0.00     0.017 C 
HETATM   13  C28 UNL     1       0.254  52.356 -19.309  1.00  0.00    -0.013 C 
HETATM   14  C29 UNL     1      -0.755  53.443 -18.860  1.00  0.00     0.021 C 
HETATM   15  C30 UNL     1       0.959  51.646 -18.063  1.00  0.00     0.027 C 
HETATM   16  C31 UNL     1       1.300  52.640 -16.918  1.00  0.00     0.011 C 
HETATM   17  C32 UNL     1       1.810  51.983 -15.626  1.00  0.00     0.011 C 
HETATM   18  C33 UNL     1       0.847  50.888 -15.120  1.00  0.00    -0.033 C 
HETATM   19  C34 UNL     1      -0.536  51.484 -14.760  1.00  0.00     0.016 C 
ENDROOT
BRANCH  10  20
HETATM   20  O1  UNL     1      -0.224  52.883 -23.589  1.00  0.00    -0.312 OA
BRANCH  20  21
HETATM   21  C19 UNL     1       0.679  53.529 -24.369  1.00  0.00     0.293 C 
HETATM   22  O2  UNL     1       1.306  54.530 -24.062  1.00  0.00    -0.259 OA
BRANCH  21  23
HETATM   23  C20 UNL     1       0.820  52.844 -25.683  1.00  0.00     0.039 A 
HETATM   24  C21 UNL     1      -0.122  53.132 -26.682  1.00  0.00     0.017 A 
HETATM   25  C22 UNL     1      -0.035  52.516 -27.932  1.00  0.00     0.001 A 
HETATM   26  C23 UNL     1       0.991  51.608 -28.191  1.00  0.00     0.000 A 
HETATM   27  C24 UNL     1       1.931  51.313 -27.202  1.00  0.00     0.001 A 
HETATM   28  C25 UNL     1       1.848  51.929 -25.950  1.00  0.00     0.017 A 
ENDBRANCH  21  23
ENDBRANCH  20  21
ENDBRANCH  10  20
BRANCH   1  29
HETATM   29  C7  UNL     1       1.338  50.511 -12.491  1.00  0.00    -0.014 C 
HETATM   30  C8  UNL     1      -0.065  50.359 -11.885  1.00  0.00     0.010 C 
BRANCH  29  31
HETATM   31  C6  UNL     1       1.735  52.011 -12.369  1.00  0.00     0.008 C 
BRANCH  31  32
HETATM   32  C5  UNL     1       0.609  52.940 -11.894  1.00  0.00     0.028 C 
BRANCH  32  33
HETATM   33  C4  UNL     1       1.080  53.819 -10.766  1.00  0.00    -0.025 C 
HETATM   34  C2  UNL     1       0.378  54.746 -10.085  1.00  0.00    -0.091 C 
HETATM   35  C1  UNL     1       1.020  55.519  -8.962  1.00  0.00     0.042 C 
HETATM   36  C3  UNL     1      -1.057  55.117 -10.343  1.00  0.00     0.042 C 
ENDBRANCH  32  33
ENDBRANCH  31  32
ENDBRANCH  29  31
ENDBRANCH   1  29
TORSDOF 7
ENDMDL
MODEL 8
REMARK minimizedAffinity -8.29771233
REMARK CNNscore 0.247205451
REMARK CNNaffinity 5.55653572
REMARK  7 active torsions:
REMARK  status: ('A' for Active; 'I' for Inactive)
REMARK    1  A    between atoms: C4_4  and  C5_5 
REMARK    2  A    between atoms: C5_5  and  C6_6 
REMARK    3  A    between atoms: C6_6  and  C7_7 
REMARK    4  A    between atoms: C7_7  and  C9_9 
REMARK    5  A    between atoms: C18_18  and  O1_19 
REMARK    6  A    between atoms: O1_19  and  C19_20 
REMARK    7  A    between atoms: C19_20  and  C20_22 
ROOT
HETATM    1  C9  UNL     1       1.091  67.921 -39.161  1.00  0.00    -0.002 C 
HETATM    2  C10 UNL     1       2.069  68.245 -40.323  1.00  0.00     0.006 C 
HETATM    3  C11 UNL     1       3.448  67.701 -39.934  1.00  0.00     0.010 C 
HETATM    4  C12 UNL     1       3.184  66.877 -38.679  1.00  0.00     0.023 C 
HETATM    5  C13 UNL     1       4.319  66.463 -37.775  1.00  0.00    -0.070 C 
HETATM    6  C14 UNL     1       5.614  66.582 -38.108  1.00  0.00     0.004 C 
HETATM    7  C15 UNL     1       6.660  65.964 -37.336  1.00  0.00     0.004 C 
HETATM    8  C16 UNL     1       6.451  65.441 -36.116  1.00  0.00    -0.069 C 
HETATM    9  C17 UNL     1       7.591  64.832 -35.333  1.00  0.00     0.067 C 
HETATM   10  C18 UNL     1       7.215  63.496 -34.686  1.00  0.00     0.136 C 
HETATM   11  C26 UNL     1       5.944  63.651 -33.849  1.00  0.00     0.034 C 
HETATM   12  C27 UNL     1       4.786  64.158 -34.706  1.00  0.00     0.017 C 
HETATM   13  C28 UNL     1       5.071  65.498 -35.447  1.00  0.00    -0.013 C 
HETATM   14  C29 UNL     1       5.142  66.651 -34.414  1.00  0.00     0.021 C 
HETATM   15  C30 UNL     1       3.897  65.719 -36.507  1.00  0.00     0.027 C 
HETATM   16  C31 UNL     1       2.609  66.308 -35.866  1.00  0.00     0.011 C 
HETATM   17  C32 UNL     1       1.517  66.710 -36.869  1.00  0.00     0.011 C 
HETATM   18  C33 UNL     1       2.058  67.660 -37.958  1.00  0.00    -0.033 C 
HETATM   19  C34 UNL     1       2.559  68.989 -37.341  1.00  0.00     0.016 C 
ENDROOT
BRANCH  10  20
HETATM   20  O1  UNL     1       8.308  63.103 -33.831  1.00  0.00    -0.312 OA
BRANCH  20  21
HETATM   21  C19 UNL     1       8.983  61.987 -34.209  1.00  0.00     0.293 C 
HETATM   22  O2  UNL     1       8.678  60.837 -33.936  1.00  0.00    -0.259 OA
BRANCH  21  23
HETATM   23  C20 UNL     1      10.174  62.348 -35.026  1.00  0.00     0.039 A 
HETATM   24  C21 UNL     1      11.190  63.099 -34.416  1.00  0.00     0.017 A 
HETATM   25  C22 UNL     1      12.327  63.463 -35.139  1.00  0.00     0.001 A 
HETATM   26  C23 UNL     1      12.456  63.083 -36.475  1.00  0.00     0.000 A 
HETATM   27  C24 UNL     1      11.448  62.340 -37.090  1.00  0.00     0.001 A 
HETATM   28  C25 UNL     1      10.309  61.971 -36.370  1.00  0.00     0.017 A 
ENDBRANCH  21  23
ENDBRANCH  20  21
ENDBRANCH  10  20
BRANCH   1  29
HETATM   29  C7  UNL     1      -0.045  68.979 -39.021  1.00  0.00    -0.014 C 
HETATM   30  C8  UNL     1       0.424  70.385 -39.418  1.00  0.00     0.010 C 
BRANCH  29  31
HETATM   31  C6  UNL     1      -0.602  69.069 -37.569  1.00  0.00     0.008 C 
BRANCH  31  32
HETATM   32  C5  UNL     1      -0.831  70.496 -37.054  1.00  0.00     0.028 C 
BRANCH  32  33
HETATM   33  C4  UNL     1      -2.301  70.774 -36.884  1.00  0.00    -0.025 C 
HETATM   34  C2  UNL     1      -2.895  71.586 -35.988  1.00  0.00    -0.091 C 
HETATM   35  C1  UNL     1      -4.393  71.755 -35.985  1.00  0.00     0.042 C 
HETATM   36  C3  UNL     1      -2.186  72.383 -34.927  1.00  0.00     0.042 C 
ENDBRANCH  32  33
ENDBRANCH  31  32
ENDBRANCH  29  31
ENDBRANCH   1  29
TORSDOF 7
ENDMDL
MODEL 9
REMARK minimizedAffinity -10.3834324
REMARK CNNscore 0.237745911
REMARK CNNaffinity 6.81842613
REMARK  7 active torsions:
REMARK  status: ('A' for Active; 'I' for Inactive)
REMARK    1  A    between atoms: C4_4  and  C5_5 
REMARK    2  A    between atoms: C5_5  and  C6_6 
REMARK    3  A    between atoms: C6_6  and  C7_7 
REMARK    4  A    between atoms: C7_7  and  C9_9 
REMARK    5  A    between atoms: C18_18  and  O1_19 
REMARK    6  A    between atoms: O1_19  and  C19_20 
REMARK    7  A    between atoms: C19_20  and  C20_22 
ROOT
HETATM    1  C9  UNL     1      -0.249  50.837 -19.823  1.00  0.00    -0.002 C 
HETATM    2  C10 UNL     1      -0.670  49.443 -19.282  1.00  0.00     0.006 C 
HETATM    3  C11 UNL     1      -1.445  48.729 -20.396  1.00  0.00     0.010 C 
HETATM    4  C12 UNL     1      -1.249  49.620 -21.617  1.00  0.00     0.023 C 
HETATM    5  C13 UNL     1      -2.135  49.472 -22.830  1.00  0.00    -0.070 C 
HETATM    6  C14 UNL     1      -2.974  48.440 -23.014  1.00  0.00     0.004 C 
HETATM    7  C15 UNL     1      -3.622  48.200 -24.276  1.00  0.00     0.004 C 
HETATM    8  C16 UNL     1      -3.635  49.104 -25.270  1.00  0.00    -0.069 C 
HETATM    9  C17 UNL     1      -4.358  48.815 -26.566  1.00  0.00     0.067 C 
HETATM   10  C18 UNL     1      -3.539  49.204 -27.799  1.00  0.00     0.136 C 
HETATM   11  C26 UNL     1      -3.079  50.659 -27.694  1.00  0.00     0.034 C 
HETATM   12  C27 UNL     1      -2.253  50.880 -26.429  1.00  0.00     0.017 C 
HETATM   13  C28 UNL     1      -2.976  50.481 -25.109  1.00  0.00    -0.013 C 
HETATM   14  C29 UNL     1      -4.128  51.479 -24.832  1.00  0.00     0.021 C 
HETATM   15  C30 UNL     1      -1.885  50.491 -23.941  1.00  0.00     0.027 C 
HETATM   16  C31 UNL     1      -1.602  51.918 -23.395  1.00  0.00     0.011 C 
HETATM   17  C32 UNL     1      -0.700  51.965 -22.152  1.00  0.00     0.011 C 
HETATM   18  C33 UNL     1      -1.228  51.052 -21.025  1.00  0.00    -0.033 C 
HETATM   19  C34 UNL     1      -2.623  51.516 -20.538  1.00  0.00     0.016 C 
ENDROOT
BRANCH  10  20
HETATM   20  O1  UNL     1      -4.388  49.050 -28.954  1.00  0.00    -0.312 OA
BRANCH  20  21
HETATM   21  C19 UNL     1      -5.332  48.078 -28.870  1.00  0.00     0.293 C 
HETATM   22  O2  UNL     1      -5.899  47.714 -27.853  1.00  0.00    -0.259 OA
BRANCH  21  23
HETATM   23  C20 UNL     1      -5.603  47.497 -30.213  1.00  0.00     0.039 A 
HETATM   24  C21 UNL     1      -5.168  48.209 -31.341  1.00  0.00     0.017 A 
HETATM   25  C22 UNL     1      -5.397  47.707 -32.623  1.00  0.00     0.001 A 
HETATM   26  C23 UNL     1      -6.063  46.493 -32.788  1.00  0.00     0.000 A 
HETATM   27  C24 UNL     1      -6.502  45.779 -31.672  1.00  0.00     0.001 A 
HETATM   28  C25 UNL     1      -6.273  46.278 -30.386  1.00  0.00     0.017 A 
ENDBRANCH  21  23
ENDBRANCH  20  21
ENDBRANCH  10  20
BRANCH   1  29
HETATM   29  C7  UNL     1      -0.161  51.914 -18.699  1.00  0.00    -0.014 C 
HETATM   30  C8  UNL     1       0.646  53.143 -19.141  1.00  0.00     0.010 C 
BRANCH  29  31
HETATM   31  C6  UNL     1       0.501  51.369 -17.399  1.00  0.00     0.008 C 
BRANCH  31  32
HETATM   32  C5  UNL     1       1.088  52.444 -16.475  1.00  0.00     0.028 C 
BRANCH  32  33
HETATM   33  C4  UNL     1       2.581  52.537 -16.644  1.00  0.00    -0.025 C 
HETATM   34  C2  UNL     1       3.542  52.083 -15.815  1.00  0.00    -0.091 C 
HETATM   35  C1  UNL     1       4.998  52.251 -16.167  1.00  0.00     0.042 C 
HETATM   36  C3  UNL     1       3.305  51.394 -14.499  1.00  0.00     0.042 C 
ENDBRANCH  32  33
ENDBRANCH  31  32
ENDBRANCH  29  31
ENDBRANCH   1  29
TORSDOF 7
ENDMDL
