MODEL 1
REMARK minimizedAffinity -9.30922604
REMARK CNNscore 0.717495203
REMARK CNNaffinity 7.70474672
REMARK  11 active torsions:
REMARK  status: ('A' for Active; 'I' for Inactive)
REMARK    1  A    between atoms: C2_2  and  O2_4 
REMARK    2  A    between atoms: O2_4  and  C3_5 
REMARK    3  A    between atoms: C4_6  and  O3_7 
REMARK    4  A    between atoms: O3_7  and  C5_8 
REMARK    5  A    between atoms: C15_18  and  C16_19 
REMARK    6  A    between atoms: C20_23  and  C21_24 
REMARK    7  A    between atoms: C21_24  and  O4_27 
REMARK    8  A    between atoms: C24_29  and  O6_30 
REMARK    9  A    between atoms: C30_36  and  O7_37 
REMARK   10  A    between atoms: C36_44  and  O9_45 
REMARK   11  A    between atoms: C37_46  and  O10_47 
ROOT
HETATM    1  C5  UNL     1      -9.684   7.031  13.702  1.00  0.00     0.133 C 
HETATM    2  C6  UNL     1      -8.999   6.186  12.621  1.00  0.00     0.034 C 
HETATM    3  C7  UNL     1      -7.646   5.618  13.024  1.00  0.00     0.013 C 
HETATM    4  C8  UNL     1      -6.745   6.685  13.615  1.00  0.00    -0.025 A 
HETATM    5  C9  UNL     1      -5.849   7.405  12.642  1.00  0.00     0.021 A 
HETATM    6  C10 UNL     1      -5.210   6.452  13.637  1.00  0.00    -0.027 A 
HETATM    7  C11 UNL     1      -4.559   5.223  13.017  1.00  0.00     0.011 C 
HETATM    8  C12 UNL     1      -3.077   5.454  12.651  1.00  0.00     0.011 C 
HETATM    9  C13 UNL     1      -2.384   6.609  13.417  1.00  0.00    -0.028 C 
HETATM   10  C14 UNL     1      -2.596   7.920  12.618  1.00  0.00     0.016 C 
HETATM   11  C15 UNL     1      -0.843   6.462  13.689  1.00  0.00     0.057 C 
HETATM   12  C24 UNL     1      -0.611   7.383  14.939  1.00  0.00     0.126 C 
HETATM   13  C25 UNL     1      -2.015   7.708  15.524  1.00  0.00     0.042 C 
HETATM   14  C26 UNL     1      -2.953   6.663  14.890  1.00  0.00    -0.029 C 
HETATM   15  C27 UNL     1      -2.701   5.337  15.714  1.00  0.00     0.016 C 
HETATM   16  C28 UNL     1      -4.512   6.887  14.935  1.00  0.00     0.006 C 
HETATM   17  C29 UNL     1      -5.022   8.238  15.444  1.00  0.00     0.038 C 
HETATM   18  C30 UNL     1      -6.511   8.109  15.814  1.00  0.00     0.124 C 
HETATM   19  C31 UNL     1      -7.427   7.647  14.640  1.00  0.00     0.034 C 
HETATM   20  C32 UNL     1      -8.878   7.177  15.032  1.00  0.00    -0.015 C 
HETATM   21  C33 UNL     1      -9.583   8.271  15.877  1.00  0.00     0.018 C 
HETATM   22  C34 UNL     1      -8.899   5.885  15.885  1.00  0.00     0.018 C 
ENDROOT
BRANCH   1  23
HETATM   23  O3  UNL     1     -10.985   6.481  13.948  1.00  0.00    -0.352 OA
BRANCH  23  24
HETATM   24  C4  UNL     1     -12.047   7.302  13.441  1.00  0.00     0.292 C 
HETATM   25  C3  UNL     1     -12.986   7.636  14.613  1.00  0.00     0.218 C 
HETATM   26  C37 UNL     1     -14.031   8.660  14.158  1.00  0.00     0.183 C 
HETATM   27  C36 UNL     1     -13.365   9.863  13.485  1.00  0.00     0.173 C 
HETATM   28  C35 UNL     1     -12.429   9.393  12.380  1.00  0.00     0.205 C 
HETATM   29  O8  UNL     1     -11.464   8.471  12.872  1.00  0.00    -0.356 OA
BRANCH  25  30
HETATM   30  O2  UNL     1     -13.655   6.419  15.026  1.00  0.00    -0.309 OA
BRANCH  30  31
HETATM   31  C2  UNL     1     -14.656   5.988  14.218  1.00  0.00     0.255 C 
HETATM   32  C1  UNL     1     -15.204   4.681  14.710  1.00  0.00     0.126 C 
HETATM   33  O1  UNL     1     -15.036   6.569  13.207  1.00  0.00    -0.266 OA
ENDBRANCH  30  31
ENDBRANCH  25  30
BRANCH  26  34
HETATM   34  O10 UNL     1     -14.869   9.152  15.219  1.00  0.00    -0.390 OA
HETATM   35  H60 UNL     1     -14.482   8.881  16.079  1.00  0.00     0.210 HD
ENDBRANCH  26  34
BRANCH  27  36
HETATM   36  O9  UNL     1     -14.366  10.725  12.942  1.00  0.00    -0.391 OA
HETATM   37  H58 UNL     1     -15.057  10.782  13.636  1.00  0.00     0.210 HD
ENDBRANCH  27  36
ENDBRANCH  23  24
ENDBRANCH   1  23
BRANCH  18  38
HETATM   38  O7  UNL     1      -6.629   7.253  16.951  1.00  0.00    -0.395 OA
HETATM   39  H47 UNL     1      -6.086   7.634  17.665  1.00  0.00     0.210 HD
ENDBRANCH  18  38
BRANCH  11  40
HETATM   40  C16 UNL     1       0.224   6.521  12.555  1.00  0.00     0.065 C 
HETATM   41  C17 UNL     1       0.271   5.184  11.785  1.00  0.00     0.046 C 
HETATM   42  C18 UNL     1       0.188   7.677  11.549  1.00  0.00     0.041 C 
HETATM   43  C19 UNL     1       1.597   8.225  11.484  1.00  0.00     0.038 C 
HETATM   44  C20 UNL     1       2.428   7.275  12.321  1.00  0.00     0.156 C 
HETATM   45  O5  UNL     1       1.504   6.654  13.231  1.00  0.00    -0.372 OA
BRANCH  44  46
HETATM   46  C21 UNL     1       3.612   7.894  13.103  1.00  0.00     0.076 C 
HETATM   47  C22 UNL     1       3.973   9.279  12.563  1.00  0.00     0.048 C 
HETATM   48  C23 UNL     1       3.391   7.948  14.621  1.00  0.00     0.048 C 
BRANCH  46  49
HETATM   49  O4  UNL     1       4.753   7.046  12.882  1.00  0.00    -0.388 OA
HETATM   50  H35 UNL     1       4.513   6.187  13.275  1.00  0.00     0.210 HD
ENDBRANCH  46  49
ENDBRANCH  44  46
ENDBRANCH  11  40
BRANCH  12  51
HETATM   51  O6  UNL     1       0.058   8.602  14.656  1.00  0.00    -0.395 OA
HETATM   52  H37 UNL     1       0.213   9.047  15.509  1.00  0.00     0.210 HD
ENDBRANCH  12  51
TORSDOF 11
ENDMDL
MODEL 2
REMARK minimizedAffinity -9.39050865
REMARK CNNscore 0.598306
REMARK CNNaffinity 6.73566437
REMARK  11 active torsions:
REMARK  status: ('A' for Active; 'I' for Inactive)
REMARK    1  A    between atoms: C2_2  and  O2_4 
REMARK    2  A    between atoms: O2_4  and  C3_5 
REMARK    3  A    between atoms: C4_6  and  O3_7 
REMARK    4  A    between atoms: O3_7  and  C5_8 
REMARK    5  A    between atoms: C15_18  and  C16_19 
REMARK    6  A    between atoms: C20_23  and  C21_24 
REMARK    7  A    between atoms: C21_24  and  O4_27 
REMARK    8  A    between atoms: C24_29  and  O6_30 
REMARK    9  A    between atoms: C30_36  and  O7_37 
REMARK   10  A    between atoms: C36_44  and  O9_45 
REMARK   11  A    between atoms: C37_46  and  O10_47 
ROOT
HETATM    1  C5  UNL     1      -4.307   7.964  14.429  1.00  0.00     0.133 C 
HETATM    2  C6  UNL     1      -4.602   9.356  15.002  1.00  0.00     0.034 C 
HETATM    3  C7  UNL     1      -3.397  10.283  15.065  1.00  0.00     0.013 C 
HETATM    4  C8  UNL     1      -2.203   9.607  15.711  1.00  0.00    -0.025 A 
HETATM    5  C9  UNL     1      -2.073   9.780  17.201  1.00  0.00     0.021 A 
HETATM    6  C10 UNL     1      -1.068  10.483  16.306  1.00  0.00    -0.027 A 
HETATM    7  C11 UNL     1      -1.137  12.003  16.337  1.00  0.00     0.011 C 
HETATM    8  C12 UNL     1      -0.235  12.619  17.428  1.00  0.00     0.011 C 
HETATM    9  C13 UNL     1       0.928  11.713  17.907  1.00  0.00    -0.028 C 
HETATM   10  C14 UNL     1       0.415  10.841  19.080  1.00  0.00     0.016 C 
HETATM   11  C15 UNL     1       2.242  12.431  18.386  1.00  0.00     0.057 C 
HETATM   12  C24 UNL     1       3.343  11.330  18.186  1.00  0.00     0.126 C 
HETATM   13  C25 UNL     1       2.712  10.219  17.302  1.00  0.00     0.042 C 
HETATM   14  C26 UNL     1       1.465  10.876  16.679  1.00  0.00    -0.029 C 
HETATM   15  C27 UNL     1       2.022  11.769  15.500  1.00  0.00     0.016 C 
HETATM   16  C28 UNL     1       0.354   9.972  16.023  1.00  0.00     0.006 C 
HETATM   17  C29 UNL     1       0.472   8.456  16.203  1.00  0.00     0.038 C 
HETATM   18  C30 UNL     1      -0.420   7.753  15.164  1.00  0.00     0.124 C 
HETATM   19  C31 UNL     1      -1.928   8.142  15.243  1.00  0.00     0.034 C 
HETATM   20  C32 UNL     1      -2.819   7.726  14.014  1.00  0.00    -0.015 C 
HETATM   21  C33 UNL     1      -2.661   6.208  13.730  1.00  0.00     0.018 C 
HETATM   22  C34 UNL     1      -2.444   8.457  12.702  1.00  0.00     0.018 C 
ENDROOT
BRANCH   1  23
HETATM   23  O3  UNL     1      -5.191   7.734  13.325  1.00  0.00    -0.352 OA
BRANCH  23  24
HETATM   24  C4  UNL     1      -6.516   7.362  13.733  1.00  0.00     0.292 C 
HETATM   25  C3  UNL     1      -6.426   5.999  14.442  1.00  0.00     0.218 C 
HETATM   26  C37 UNL     1      -7.784   5.650  15.058  1.00  0.00     0.183 C 
HETATM   27  C36 UNL     1      -8.313   6.804  15.915  1.00  0.00     0.173 C 
HETATM   28  C35 UNL     1      -8.305   8.098  15.113  1.00  0.00     0.205 C 
HETATM   29  O8  UNL     1      -7.010   8.382  14.597  1.00  0.00    -0.356 OA
BRANCH  25  30
HETATM   30  O2  UNL     1      -6.071   4.994  13.460  1.00  0.00    -0.309 OA
BRANCH  30  31
HETATM   31  C2  UNL     1      -7.097   4.486  12.734  1.00  0.00     0.255 C 
HETATM   32  C1  UNL     1      -7.104   2.987  12.810  1.00  0.00     0.126 C 
HETATM   33  O1  UNL     1      -7.888   5.156  12.078  1.00  0.00    -0.266 OA
ENDBRANCH  30  31
ENDBRANCH  25  30
BRANCH  26  34
HETATM   34  O10 UNL     1      -7.771   4.463  15.870  1.00  0.00    -0.390 OA
HETATM   35  H60 UNL     1      -6.840   4.204  16.037  1.00  0.00     0.210 HD
ENDBRANCH  26  34
BRANCH  27  36
HETATM   36  O9  UNL     1      -9.640   6.509  16.351  1.00  0.00    -0.391 OA
HETATM   37  H58 UNL     1      -9.614   5.569  16.631  1.00  0.00     0.210 HD
ENDBRANCH  27  36
ENDBRANCH  23  24
ENDBRANCH   1  23
BRANCH  18  38
HETATM   38  O7  UNL     1       0.122   7.982  13.863  1.00  0.00    -0.395 OA
HETATM   39  H47 UNL     1       1.041   7.657  13.864  1.00  0.00     0.210 HD
ENDBRANCH  18  38
BRANCH  11  40
HETATM   40  C16 UNL     1       2.311  13.279  19.692  1.00  0.00     0.065 C 
HETATM   41  C17 UNL     1       1.855  14.728  19.422  1.00  0.00     0.046 C 
HETATM   42  C18 UNL     1       1.621  12.763  20.960  1.00  0.00     0.041 C 
HETATM   43  C19 UNL     1       2.644  12.867  22.071  1.00  0.00     0.038 C 
HETATM   44  C20 UNL     1       3.826  13.583  21.451  1.00  0.00     0.156 C 
HETATM   45  O5  UNL     1       3.722  13.347  20.036  1.00  0.00    -0.372 OA
BRANCH  44  46
HETATM   46  C21 UNL     1       5.230  13.172  21.958  1.00  0.00     0.076 C 
HETATM   47  C22 UNL     1       5.836  14.252  22.857  1.00  0.00     0.048 C 
HETATM   48  C23 UNL     1       5.260  11.808  22.660  1.00  0.00     0.048 C 
BRANCH  46  49
HETATM   49  O4  UNL     1       6.080  13.062  20.803  1.00  0.00    -0.388 OA
HETATM   50  H35 UNL     1       5.698  12.338  20.273  1.00  0.00     0.210 HD
ENDBRANCH  46  49
ENDBRANCH  44  46
ENDBRANCH  11  40
BRANCH  12  51
HETATM   51  O6  UNL     1       3.814  10.744  19.389  1.00  0.00    -0.395 OA
HETATM   52  H37 UNL     1       4.540  10.141  19.148  1.00  0.00     0.210 HD
ENDBRANCH  12  51
TORSDOF 11
ENDMDL
MODEL 3
REMARK minimizedAffinity -9.5834856
REMARK CNNscore 0.510980546
REMARK CNNaffinity 7.00003815
REMARK  11 active torsions:
REMARK  status: ('A' for Active; 'I' for Inactive)
REMARK    1  A    between atoms: C2_2  and  O2_4 
REMARK    2  A    between atoms: O2_4  and  C3_5 
REMARK    3  A    between atoms: C4_6  and  O3_7 
REMARK    4  A    between atoms: O3_7  and  C5_8 
REMARK    5  A    between atoms: C15_18  and  C16_19 
REMARK    6  A    between atoms: C20_23  and  C21_24 
REMARK    7  A    between atoms: C21_24  and  O4_27 
REMARK    8  A    between atoms: C24_29  and  O6_30 
REMARK    9  A    between atoms: C30_36  and  O7_37 
REMARK   10  A    between atoms: C36_44  and  O9_45 
REMARK   11  A    between atoms: C37_46  and  O10_47 
ROOT
HETATM    1  C5  UNL     1      -3.842   7.565  14.367  1.00  0.00     0.133 C 
HETATM    2  C6  UNL     1      -4.228   8.744  15.270  1.00  0.00     0.034 C 
HETATM    3  C7  UNL     1      -3.219   9.883  15.291  1.00  0.00     0.013 C 
HETATM    4  C8  UNL     1      -1.810   9.377  15.532  1.00  0.00    -0.025 A 
HETATM    5  C9  UNL     1      -1.367   9.317  16.969  1.00  0.00     0.021 A 
HETATM    6  C10 UNL     1      -0.733  10.360  16.065  1.00  0.00    -0.027 A 
HETATM    7  C11 UNL     1      -1.052  11.803  16.432  1.00  0.00     0.011 C 
HETATM    8  C12 UNL     1      -0.038  12.402  17.430  1.00  0.00     0.011 C 
HETATM    9  C13 UNL     1       1.341  11.698  17.468  1.00  0.00    -0.028 C 
HETATM   10  C14 UNL     1       1.273  10.549  18.507  1.00  0.00     0.016 C 
HETATM   11  C15 UNL     1       2.588  12.586  17.822  1.00  0.00     0.057 C 
HETATM   12  C24 UNL     1       3.784  11.796  17.181  1.00  0.00     0.126 C 
HETATM   13  C25 UNL     1       3.163  10.743  16.222  1.00  0.00     0.042 C 
HETATM   14  C26 UNL     1       1.711  11.215  16.009  1.00  0.00    -0.029 C 
HETATM   15  C27 UNL     1       1.817  12.393  14.961  1.00  0.00     0.016 C 
HETATM   16  C28 UNL     1       0.649  10.220  15.407  1.00  0.00     0.006 C 
HETATM   17  C29 UNL     1       1.063   8.756  15.234  1.00  0.00     0.038 C 
HETATM   18  C30 UNL     1       0.086   8.066  14.264  1.00  0.00     0.124 C 
HETATM   19  C31 UNL     1      -1.405   8.105  14.718  1.00  0.00     0.034 C 
HETATM   20  C32 UNL     1      -2.475   7.724  13.628  1.00  0.00    -0.015 C 
HETATM   21  C33 UNL     1      -2.131   6.346  13.002  1.00  0.00     0.018 C 
HETATM   22  C34 UNL     1      -2.547   8.731  12.454  1.00  0.00     0.018 C 
ENDROOT
BRANCH   1  23
HETATM   23  O3  UNL     1      -4.908   7.343  13.435  1.00  0.00    -0.352 OA
BRANCH  23  24
HETATM   24  C4  UNL     1      -5.735   6.224  13.782  1.00  0.00     0.292 C 
HETATM   25  C3  UNL     1      -7.204   6.662  13.647  1.00  0.00     0.218 C 
HETATM   26  C37 UNL     1      -8.121   5.448  13.828  1.00  0.00     0.183 C 
HETATM   27  C36 UNL     1      -7.692   4.294  12.918  1.00  0.00     0.173 C 
HETATM   28  C35 UNL     1      -6.213   3.994  13.115  1.00  0.00     0.205 C 
HETATM   29  O8  UNL     1      -5.413   5.151  12.901  1.00  0.00    -0.356 OA
BRANCH  25  30
HETATM   30  O2  UNL     1      -7.488   7.637  14.680  1.00  0.00    -0.309 OA
BRANCH  30  31
HETATM   31  C2  UNL     1      -7.704   7.139  15.923  1.00  0.00     0.255 C 
HETATM   32  C1  UNL     1      -8.998   7.657  16.480  1.00  0.00     0.126 C 
HETATM   33  O1  UNL     1      -6.931   6.398  16.521  1.00  0.00    -0.266 OA
ENDBRANCH  30  31
ENDBRANCH  25  30
BRANCH  26  34
HETATM   34  O10 UNL     1      -9.510   5.721  13.575  1.00  0.00    -0.390 OA
HETATM   35  H60 UNL     1      -9.587   6.597  13.139  1.00  0.00     0.210 HD
ENDBRANCH  26  34
BRANCH  27  36
HETATM   36  O9  UNL     1      -8.469   3.133  13.216  1.00  0.00    -0.391 OA
HETATM   37  H58 UNL     1      -9.389   3.459  13.311  1.00  0.00     0.210 HD
ENDBRANCH  27  36
ENDBRANCH  23  24
ENDBRANCH   1  23
BRANCH  18  38
HETATM   38  O7  UNL     1       0.262   8.623  12.962  1.00  0.00    -0.395 OA
HETATM   39  H47 UNL     1       1.197   8.507  12.714  1.00  0.00     0.210 HD
ENDBRANCH  18  38
BRANCH  11  40
HETATM   40  C16 UNL     1       2.815  13.195  19.239  1.00  0.00     0.065 C 
HETATM   41  C17 UNL     1       3.497  14.575  19.132  1.00  0.00     0.046 C 
HETATM   42  C18 UNL     1       1.635  13.292  20.212  1.00  0.00     0.041 C 
HETATM   43  C19 UNL     1       2.118  12.708  21.522  1.00  0.00     0.038 C 
HETATM   44  C20 UNL     1       3.595  12.444  21.315  1.00  0.00     0.156 C 
HETATM   45  O5  UNL     1       3.768  12.313  19.893  1.00  0.00    -0.372 OA
BRANCH  44  46
HETATM   46  C21 UNL     1       4.189  11.212  22.039  1.00  0.00     0.076 C 
HETATM   47  C22 UNL     1       5.512  11.554  22.727  1.00  0.00     0.048 C 
HETATM   48  C23 UNL     1       3.222  10.550  23.030  1.00  0.00     0.048 C 
BRANCH  46  49
HETATM   49  O4  UNL     1       4.483  10.230  21.030  1.00  0.00    -0.388 OA
HETATM   50  H35 UNL     1       3.619   9.997  20.641  1.00  0.00     0.210 HD
ENDBRANCH  46  49
ENDBRANCH  44  46
ENDBRANCH  11  40
BRANCH  12  51
HETATM   51  O6  UNL     1       4.616  11.128  18.116  1.00  0.00    -0.395 OA
HETATM   52  H37 UNL     1       5.357  10.744  17.614  1.00  0.00     0.210 HD
ENDBRANCH  12  51
TORSDOF 11
ENDMDL
MODEL 4
REMARK minimizedAffinity -8.10197544
REMARK CNNscore 0.493436098
REMARK CNNaffinity 6.01247549
REMARK  11 active torsions:
REMARK  status: ('A' for Active; 'I' for Inactive)
REMARK    1  A    between atoms: C2_2  and  O2_4 
REMARK    2  A    between atoms: O2_4  and  C3_5 
REMARK    3  A    between atoms: C4_6  and  O3_7 
REMARK    4  A    between atoms: O3_7  and  C5_8 
REMARK    5  A    between atoms: C15_18  and  C16_19 
REMARK    6  A    between atoms: C20_23  and  C21_24 
REMARK    7  A    between atoms: C21_24  and  O4_27 
REMARK    8  A    between atoms: C24_29  and  O6_30 
REMARK    9  A    between atoms: C30_36  and  O7_37 
REMARK   10  A    between atoms: C36_44  and  O9_45 
REMARK   11  A    between atoms: C37_46  and  O10_47 
ROOT
HETATM    1  C5  UNL     1     -17.905  -0.553  14.502  1.00  0.00     0.133 C 
HETATM    2  C6  UNL     1     -16.568  -0.041  13.949  1.00  0.00     0.034 C 
HETATM    3  C7  UNL     1     -16.100   1.278  14.546  1.00  0.00     0.013 C 
HETATM    4  C8  UNL     1     -17.199   2.323  14.525  1.00  0.00    -0.025 A 
HETATM    5  C9  UNL     1     -17.250   3.203  13.305  1.00  0.00     0.021 A 
HETATM    6  C10 UNL     1     -16.818   3.824  14.622  1.00  0.00    -0.027 A 
HETATM    7  C11 UNL     1     -15.373   4.302  14.660  1.00  0.00     0.011 C 
HETATM    8  C12 UNL     1     -15.216   5.766  14.194  1.00  0.00     0.011 C 
HETATM    9  C13 UNL     1     -16.501   6.626  14.288  1.00  0.00    -0.028 C 
HETATM   10  C14 UNL     1     -17.285   6.479  12.959  1.00  0.00     0.016 C 
HETATM   11  C15 UNL     1     -16.313   8.163  14.562  1.00  0.00     0.057 C 
HETATM   12  C24 UNL     1     -17.684   8.581  15.203  1.00  0.00     0.126 C 
HETATM   13  C25 UNL     1     -18.418   7.267  15.590  1.00  0.00     0.042 C 
HETATM   14  C26 UNL     1     -17.322   6.184  15.564  1.00  0.00    -0.029 C 
HETATM   15  C27 UNL     1     -16.533   6.372  16.920  1.00  0.00     0.016 C 
HETATM   16  C28 UNL     1     -17.731   4.663  15.531  1.00  0.00     0.006 C 
HETATM   17  C29 UNL     1     -19.212   4.328  15.333  1.00  0.00     0.038 C 
HETATM   18  C30 UNL     1     -19.460   2.868  15.753  1.00  0.00     0.124 C 
HETATM   19  C31 UNL     1     -18.610   1.821  14.971  1.00  0.00     0.034 C 
HETATM   20  C32 UNL     1     -18.568   0.368  15.576  1.00  0.00    -0.015 C 
HETATM   21  C33 UNL     1     -20.011  -0.159  15.801  1.00  0.00     0.018 C 
HETATM   22  C34 UNL     1     -17.855   0.290  16.948  1.00  0.00     0.018 C 
ENDROOT
BRANCH   1  23
HETATM   23  O3  UNL     1     -17.704  -1.877  15.013  1.00  0.00    -0.352 OA
BRANCH  23  24
HETATM   24  C4  UNL     1     -16.436  -2.436  14.643  1.00  0.00     0.292 C 
HETATM   25  C3  UNL     1     -16.011  -3.417  15.750  1.00  0.00     0.218 C 
HETATM   26  C37 UNL     1     -14.755  -4.176  15.310  1.00  0.00     0.183 C 
HETATM   27  C36 UNL     1     -14.943  -4.792  13.921  1.00  0.00     0.173 C 
HETATM   28  C35 UNL     1     -15.408  -3.730  12.935  1.00  0.00     0.205 C 
HETATM   29  O8  UNL     1     -16.595  -3.086  13.384  1.00  0.00    -0.356 OA
BRANCH  25  30
HETATM   30  O2  UNL     1     -15.718  -2.657  16.948  1.00  0.00    -0.309 OA
BRANCH  30  31
HETATM   31  C2  UNL     1     -16.488  -2.934  18.029  1.00  0.00     0.255 C 
HETATM   32  C1  UNL     1     -17.447  -4.047  17.721  1.00  0.00     0.126 C 
HETATM   33  O1  UNL     1     -16.432  -2.336  19.098  1.00  0.00    -0.266 OA
ENDBRANCH  30  31
ENDBRANCH  25  30
BRANCH  26  34
HETATM   34  O10 UNL     1     -14.359  -5.224  16.212  1.00  0.00    -0.390 OA
HETATM   35  H60 UNL     1     -15.087  -5.387  16.848  1.00  0.00     0.210 HD
ENDBRANCH  26  34
BRANCH  27  36
HETATM   36  O9  UNL     1     -13.711  -5.362  13.478  1.00  0.00    -0.391 OA
HETATM   37  H58 UNL     1     -13.354  -5.838  14.258  1.00  0.00     0.210 HD
ENDBRANCH  27  36
ENDBRANCH  23  24
ENDBRANCH   1  23
BRANCH  18  38
HETATM   38  O7  UNL     1     -19.275   2.759  17.164  1.00  0.00    -0.395 OA
HETATM   39  H47 UNL     1     -19.880   3.391  17.593  1.00  0.00     0.210 HD
ENDBRANCH  18  38
BRANCH  11  40
HETATM   40  C16 UNL     1     -15.690   9.136  13.516  1.00  0.00     0.065 C 
HETATM   41  C17 UNL     1     -16.561   9.195  12.244  1.00  0.00     0.046 C 
HETATM   42  C18 UNL     1     -15.327  10.563  13.942  1.00  0.00     0.041 C 
HETATM   43  C19 UNL     1     -13.910  10.799  13.467  1.00  0.00     0.038 C 
HETATM   44  C20 UNL     1     -13.559   9.573  12.649  1.00  0.00     0.156 C 
HETATM   45  O5  UNL     1     -14.427   8.530  13.126  1.00  0.00    -0.372 OA
BRANCH  44  46
HETATM   46  C21 UNL     1     -12.086   9.104  12.698  1.00  0.00     0.076 C 
HETATM   47  C22 UNL     1     -11.288   9.879  13.748  1.00  0.00     0.048 C 
HETATM   48  C23 UNL     1     -11.924   7.592  12.906  1.00  0.00     0.048 C 
BRANCH  46  49
HETATM   49  O4  UNL     1     -11.503   9.410  11.419  1.00  0.00    -0.388 OA
HETATM   50  H35 UNL     1     -11.998   8.869  10.776  1.00  0.00     0.210 HD
ENDBRANCH  46  49
ENDBRANCH  44  46
ENDBRANCH  11  40
BRANCH  12  51
HETATM   51  O6  UNL     1     -18.525   9.340  14.350  1.00  0.00    -0.395 OA
HETATM   52  H37 UNL     1     -19.301   9.605  14.876  1.00  0.00     0.210 HD
ENDBRANCH  12  51
TORSDOF 11
ENDMDL
MODEL 5
REMARK minimizedAffinity -9.12172127
REMARK CNNscore 0.487068087
REMARK CNNaffinity 7.44833231
REMARK  11 active torsions:
REMARK  status: ('A' for Active; 'I' for Inactive)
REMARK    1  A    between atoms: C2_2  and  O2_4 
REMARK    2  A    between atoms: O2_4  and  C3_5 
REMARK    3  A    between atoms: C4_6  and  O3_7 
REMARK    4  A    between atoms: O3_7  and  C5_8 
REMARK    5  A    between atoms: C15_18  and  C16_19 
REMARK    6  A    between atoms: C20_23  and  C21_24 
REMARK    7  A    between atoms: C21_24  and  O4_27 
REMARK    8  A    between atoms: C24_29  and  O6_30 
REMARK    9  A    between atoms: C30_36  and  O7_37 
REMARK   10  A    between atoms: C36_44  and  O9_45 
REMARK   11  A    between atoms: C37_46  and  O10_47 
ROOT
HETATM    1  C5  UNL     1      -8.036   7.229  14.471  1.00  0.00     0.133 C 
HETATM    2  C6  UNL     1      -7.426   5.988  13.807  1.00  0.00     0.034 C 
HETATM    3  C7  UNL     1      -5.964   5.742  14.147  1.00  0.00     0.013 C 
HETATM    4  C8  UNL     1      -5.128   6.994  13.964  1.00  0.00    -0.025 A 
HETATM    5  C9  UNL     1      -4.501   7.177  12.607  1.00  0.00     0.021 A 
HETATM    6  C10 UNL     1      -3.592   6.859  13.782  1.00  0.00    -0.027 A 
HETATM    7  C11 UNL     1      -2.893   5.509  13.703  1.00  0.00     0.011 C 
HETATM    8  C12 UNL     1      -1.531   5.586  12.979  1.00  0.00     0.011 C 
HETATM    9  C13 UNL     1      -0.882   6.993  12.947  1.00  0.00    -0.028 C 
HETATM   10  C14 UNL     1      -1.389   7.734  11.683  1.00  0.00     0.016 C 
HETATM   11  C15 UNL     1       0.688   7.056  12.937  1.00  0.00     0.057 C 
HETATM   12  C24 UNL     1       0.992   8.480  13.523  1.00  0.00     0.126 C 
HETATM   13  C25 UNL     1      -0.331   8.997  14.155  1.00  0.00     0.042 C 
HETATM   14  C26 UNL     1      -1.213   7.742  14.298  1.00  0.00    -0.029 C 
HETATM   15  C27 UNL     1      -0.661   7.002  15.582  1.00  0.00     0.016 C 
HETATM   16  C28 UNL     1      -2.760   7.901  14.547  1.00  0.00     0.006 C 
HETATM   17  C29 UNL     1      -3.356   9.308  14.444  1.00  0.00     0.038 C 
HETATM   18  C30 UNL     1      -4.737   9.322  15.124  1.00  0.00     0.124 C 
HETATM   19  C31 UNL     1      -5.759   8.310  14.524  1.00  0.00     0.034 C 
HETATM   20  C32 UNL     1      -7.055   8.039  15.377  1.00  0.00    -0.015 C 
HETATM   21  C33 UNL     1      -7.754   9.380  15.725  1.00  0.00     0.018 C 
HETATM   22  C34 UNL     1      -6.770   7.333  16.725  1.00  0.00     0.018 C 
ENDROOT
BRANCH   1  23
HETATM   23  O3  UNL     1      -9.197   6.823  15.206  1.00  0.00    -0.352 OA
BRANCH  23  24
HETATM   24  C4  UNL     1     -10.427   7.194  14.565  1.00  0.00     0.292 C 
HETATM   25  C3  UNL     1     -10.803   8.606  15.045  1.00  0.00     0.218 C 
HETATM   26  C37 UNL     1     -12.007   9.116  14.248  1.00  0.00     0.183 C 
HETATM   27  C36 UNL     1     -11.769   8.975  12.742  1.00  0.00     0.173 C 
HETATM   28  C35 UNL     1     -11.359   7.547  12.408  1.00  0.00     0.205 C 
HETATM   29  O8  UNL     1     -10.218   7.146  13.156  1.00  0.00    -0.356 OA
BRANCH  25  30
HETATM   30  O2  UNL     1     -11.151   8.535  16.450  1.00  0.00    -0.309 OA
BRANCH  30  31
HETATM   31  C2  UNL     1     -11.136   9.711  17.126  1.00  0.00     0.255 C 
HETATM   32  C1  UNL     1     -12.047   9.646  18.316  1.00  0.00     0.126 C 
HETATM   33  O1  UNL     1     -10.494  10.700  16.790  1.00  0.00    -0.266 OA
ENDBRANCH  30  31
ENDBRANCH  25  30
BRANCH  26  34
HETATM   34  O10 UNL     1     -12.349  10.488  14.518  1.00  0.00    -0.390 OA
HETATM   35  H60 UNL     1     -11.618  10.903  15.024  1.00  0.00     0.210 HD
ENDBRANCH  26  34
BRANCH  27  36
HETATM   36  O9  UNL     1     -12.962   9.318  12.034  1.00  0.00    -0.391 OA
HETATM   37  H58 UNL     1     -13.297  10.128  12.475  1.00  0.00     0.210 HD
ENDBRANCH  27  36
ENDBRANCH  23  24
ENDBRANCH   1  23
BRANCH  18  38
HETATM   38  O7  UNL     1      -4.560   9.131  16.528  1.00  0.00    -0.395 OA
HETATM   39  H47 UNL     1      -3.965   9.833  16.850  1.00  0.00     0.210 HD
ENDBRANCH  18  38
BRANCH  11  40
HETATM   40  C16 UNL     1       1.544   6.589  11.721  1.00  0.00     0.065 C 
HETATM   41  C17 UNL     1       1.425   5.063  11.528  1.00  0.00     0.046 C 
HETATM   42  C18 UNL     1       1.362   7.282  10.365  1.00  0.00     0.041 C 
HETATM   43  C19 UNL     1       2.752   7.638   9.883  1.00  0.00     0.038 C 
HETATM   44  C20 UNL     1       3.692   7.003  10.886  1.00  0.00     0.156 C 
HETATM   45  O5  UNL     1       2.925   6.853  12.093  1.00  0.00    -0.372 OA
BRANCH  44  46
HETATM   46  C21 UNL     1       5.008   7.762  11.182  1.00  0.00     0.076 C 
HETATM   47  C22 UNL     1       6.231   6.880  10.925  1.00  0.00     0.048 C 
HETATM   48  C23 UNL     1       5.137   9.094  10.431  1.00  0.00     0.048 C 
BRANCH  46  49
HETATM   49  O4  UNL     1       5.006   8.077  12.586  1.00  0.00    -0.388 OA
HETATM   50  H35 UNL     1       4.246   8.676  12.712  1.00  0.00     0.210 HD
ENDBRANCH  46  49
ENDBRANCH  44  46
ENDBRANCH  11  40
BRANCH  12  51
HETATM   51  O6  UNL     1       1.442   9.426  12.567  1.00  0.00    -0.395 OA
HETATM   52  H37 UNL     1       1.671  10.238  13.054  1.00  0.00     0.210 HD
ENDBRANCH  12  51
TORSDOF 11
ENDMDL
MODEL 6
REMARK minimizedAffinity -10.0834389
REMARK CNNscore 0.481750071
REMARK CNNaffinity 7.61043406
REMARK  11 active torsions:
REMARK  status: ('A' for Active; 'I' for Inactive)
REMARK    1  A    between atoms: C2_2  and  O2_4 
REMARK    2  A    between atoms: O2_4  and  C3_5 
REMARK    3  A    between atoms: C4_6  and  O3_7 
REMARK    4  A    between atoms: O3_7  and  C5_8 
REMARK    5  A    between atoms: C15_18  and  C16_19 
REMARK    6  A    between atoms: C20_23  and  C21_24 
REMARK    7  A    between atoms: C21_24  and  O4_27 
REMARK    8  A    between atoms: C24_29  and  O6_30 
REMARK    9  A    between atoms: C30_36  and  O7_37 
REMARK   10  A    between atoms: C36_44  and  O9_45 
REMARK   11  A    between atoms: C37_46  and  O10_47 
ROOT
HETATM    1  C5  UNL     1      -5.572   8.685  14.671  1.00  0.00     0.133 C 
HETATM    2  C6  UNL     1      -5.205   7.422  13.880  1.00  0.00     0.034 C 
HETATM    3  C7  UNL     1      -3.773   6.947  14.075  1.00  0.00     0.013 C 
HETATM    4  C8  UNL     1      -2.778   8.078  13.899  1.00  0.00    -0.025 A 
HETATM    5  C9  UNL     1      -2.238   8.271  12.506  1.00  0.00     0.021 A 
HETATM    6  C10 UNL     1      -1.298   7.741  13.575  1.00  0.00    -0.027 A 
HETATM    7  C11 UNL     1      -0.813   6.315  13.350  1.00  0.00     0.011 C 
HETATM    8  C12 UNL     1       0.485   6.252  12.517  1.00  0.00     0.011 C 
HETATM    9  C13 UNL     1       1.329   7.551  12.516  1.00  0.00    -0.028 C 
HETATM   10  C14 UNL     1       0.841   8.448  11.350  1.00  0.00     0.016 C 
HETATM   11  C15 UNL     1       2.886   7.391  12.372  1.00  0.00     0.057 C 
HETATM   12  C24 UNL     1       3.441   8.710  13.018  1.00  0.00     0.126 C 
HETATM   13  C25 UNL     1       2.262   9.361  13.794  1.00  0.00     0.042 C 
HETATM   14  C26 UNL     1       1.218   8.236  13.935  1.00  0.00    -0.029 C 
HETATM   15  C27 UNL     1       1.753   7.332  15.116  1.00  0.00     0.016 C 
HETATM   16  C28 UNL     1      -0.264   8.594  14.327  1.00  0.00     0.006 C 
HETATM   17  C29 UNL     1      -0.653  10.075  14.366  1.00  0.00     0.038 C 
HETATM   18  C30 UNL     1      -1.960  10.234  15.163  1.00  0.00     0.124 C 
HETATM   19  C31 UNL     1      -3.163   9.424  14.592  1.00  0.00     0.034 C 
HETATM   20  C32 UNL     1      -4.414   9.277  15.537  1.00  0.00    -0.015 C 
HETATM   21  C33 UNL     1      -4.879  10.675  16.028  1.00  0.00     0.018 C 
HETATM   22  C34 UNL     1      -4.133   8.439  16.808  1.00  0.00     0.018 C 
ENDROOT
BRANCH   1  23
HETATM   23  O3  UNL     1      -6.720   8.393  15.479  1.00  0.00    -0.352 OA
BRANCH  23  24
HETATM   24  C4  UNL     1      -7.960   8.578  14.780  1.00  0.00     0.292 C 
HETATM   25  C3  UNL     1      -8.763   7.270  14.889  1.00  0.00     0.218 C 
HETATM   26  C37 UNL     1     -10.168   7.481  14.319  1.00  0.00     0.183 C 
HETATM   27  C36 UNL     1     -10.833   8.715  14.937  1.00  0.00     0.173 C 
HETATM   28  C35 UNL     1      -9.918   9.924  14.805  1.00  0.00     0.205 C 
HETATM   29  O8  UNL     1      -8.641   9.676  15.382  1.00  0.00    -0.356 OA
BRANCH  25  30
HETATM   30  O2  UNL     1      -8.081   6.249  14.120  1.00  0.00    -0.309 OA
BRANCH  30  31
HETATM   31  C2  UNL     1      -7.715   5.136  14.804  1.00  0.00     0.255 C 
HETATM   32  C1  UNL     1      -7.591   3.964  13.875  1.00  0.00     0.126 C 
HETATM   33  O1  UNL     1      -7.544   5.088  16.018  1.00  0.00    -0.266 OA
ENDBRANCH  30  31
ENDBRANCH  25  30
BRANCH  26  34
HETATM   34  O10 UNL     1     -11.050   6.360  14.506  1.00  0.00    -0.390 OA
HETATM   35  H60 UNL     1     -10.640   5.738  15.143  1.00  0.00     0.210 HD
ENDBRANCH  26  34
BRANCH  27  36
HETATM   36  O9  UNL     1     -12.076   8.970  14.280  1.00  0.00    -0.391 OA
HETATM   37  H58 UNL     1     -12.501   8.091  14.189  1.00  0.00     0.210 HD
ENDBRANCH  27  36
ENDBRANCH  23  24
ENDBRANCH   1  23
BRANCH  18  38
HETATM   38  O7  UNL     1      -1.704   9.916  16.532  1.00  0.00    -0.395 OA
HETATM   39  H47 UNL     1      -0.989  10.501  16.843  1.00  0.00     0.210 HD
ENDBRANCH  18  38
BRANCH  11  40
HETATM   40  C16 UNL     1       3.567   6.900  11.059  1.00  0.00     0.065 C 
HETATM   41  C17 UNL     1       5.102   7.006  11.172  1.00  0.00     0.046 C 
HETATM   42  C18 UNL     1       3.200   5.523  10.493  1.00  0.00     0.041 C 
HETATM   43  C19 UNL     1       2.891   5.738   9.027  1.00  0.00     0.038 C 
HETATM   44  C20 UNL     1       3.243   7.187   8.758  1.00  0.00     0.156 C 
HETATM   45  O5  UNL     1       3.161   7.847  10.033  1.00  0.00    -0.372 OA
BRANCH  44  46
HETATM   46  C21 UNL     1       2.374   7.930   7.716  1.00  0.00     0.076 C 
HETATM   47  C22 UNL     1       2.138   7.071   6.473  1.00  0.00     0.048 C 
HETATM   48  C23 UNL     1       1.042   8.446   8.276  1.00  0.00     0.048 C 
BRANCH  46  49
HETATM   49  O4  UNL     1       3.120   9.085   7.292  1.00  0.00    -0.388 OA
HETATM   50  H35 UNL     1       3.215   9.635   8.091  1.00  0.00     0.210 HD
ENDBRANCH  46  49
ENDBRANCH  44  46
ENDBRANCH  11  40
BRANCH  12  51
HETATM   51  O6  UNL     1       3.950   9.652  12.086  1.00  0.00    -0.395 OA
HETATM   52  H37 UNL     1       4.333  10.385  12.602  1.00  0.00     0.210 HD
ENDBRANCH  12  51
TORSDOF 11
ENDMDL
MODEL 7
REMARK minimizedAffinity -9.03607273
REMARK CNNscore 0.413447529
REMARK CNNaffinity 7.48411512
REMARK  11 active torsions:
REMARK  status: ('A' for Active; 'I' for Inactive)
REMARK    1  A    between atoms: C2_2  and  O2_4 
REMARK    2  A    between atoms: O2_4  and  C3_5 
REMARK    3  A    between atoms: C4_6  and  O3_7 
REMARK    4  A    between atoms: O3_7  and  C5_8 
REMARK    5  A    between atoms: C15_18  and  C16_19 
REMARK    6  A    between atoms: C20_23  and  C21_24 
REMARK    7  A    between atoms: C21_24  and  O4_27 
REMARK    8  A    between atoms: C24_29  and  O6_30 
REMARK    9  A    between atoms: C30_36  and  O7_37 
REMARK   10  A    between atoms: C36_44  and  O9_45 
REMARK   11  A    between atoms: C37_46  and  O10_47 
ROOT
HETATM    1  C5  UNL     1      -0.110   8.762  13.624  1.00  0.00     0.133 C 
HETATM    2  C6  UNL     1      -1.185   9.852  13.728  1.00  0.00     0.034 C 
HETATM    3  C7  UNL     1      -2.437   9.436  14.488  1.00  0.00     0.013 C 
HETATM    4  C8  UNL     1      -2.974   8.106  13.997  1.00  0.00    -0.025 A 
HETATM    5  C9  UNL     1      -3.995   8.174  12.892  1.00  0.00     0.021 A 
HETATM    6  C10 UNL     1      -4.457   7.740  14.273  1.00  0.00    -0.027 A 
HETATM    7  C11 UNL     1      -5.424   8.700  14.953  1.00  0.00     0.011 C 
HETATM    8  C12 UNL     1      -6.901   8.390  14.625  1.00  0.00     0.011 C 
HETATM    9  C13 UNL     1      -7.179   6.941  14.152  1.00  0.00    -0.028 C 
HETATM   10  C14 UNL     1      -7.016   6.891  12.612  1.00  0.00     0.016 C 
HETATM   11  C15 UNL     1      -8.586   6.333  14.501  1.00  0.00     0.057 C 
HETATM   12  C24 UNL     1      -8.323   4.786  14.476  1.00  0.00     0.126 C 
HETATM   13  C25 UNL     1      -6.780   4.592  14.480  1.00  0.00     0.042 C 
HETATM   14  C26 UNL     1      -6.216   5.955  14.926  1.00  0.00    -0.029 C 
HETATM   15  C27 UNL     1      -6.413   5.982  16.494  1.00  0.00     0.016 C 
HETATM   16  C28 UNL     1      -4.693   6.281  14.695  1.00  0.00     0.006 C 
HETATM   17  C29 UNL     1      -3.873   5.296  13.857  1.00  0.00     0.038 C 
HETATM   18  C30 UNL     1      -2.374   5.547  14.105  1.00  0.00     0.124 C 
HETATM   19  C31 UNL     1      -1.901   6.993  13.765  1.00  0.00     0.034 C 
HETATM   20  C32 UNL     1      -0.481   7.406  14.307  1.00  0.00    -0.015 C 
HETATM   21  C33 UNL     1       0.582   6.365  13.863  1.00  0.00     0.018 C 
HETATM   22  C34 UNL     1      -0.405   7.477  15.851  1.00  0.00     0.018 C 
ENDROOT
BRANCH   1  23
HETATM   23  O3  UNL     1       1.115   9.285  14.154  1.00  0.00    -0.352 OA
BRANCH  23  24
HETATM   24  C4  UNL     1       2.200   8.348  14.090  1.00  0.00     0.292 C 
HETATM   25  C3  UNL     1       3.149   8.801  12.966  1.00  0.00     0.218 C 
HETATM   26  C37 UNL     1       4.414   7.939  12.984  1.00  0.00     0.183 C 
HETATM   27  C36 UNL     1       5.029   7.892  14.385  1.00  0.00     0.173 C 
HETATM   28  C35 UNL     1       3.978   7.478  15.405  1.00  0.00     0.205 C 
HETATM   29  O8  UNL     1       2.844   8.337  15.361  1.00  0.00    -0.356 OA
BRANCH  25  30
HETATM   30  O2  UNL     1       2.470   8.633  11.697  1.00  0.00    -0.309 OA
BRANCH  30  31
HETATM   31  C2  UNL     1       2.874   7.580  10.943  1.00  0.00     0.255 C 
HETATM   32  C1  UNL     1       3.234   8.032   9.558  1.00  0.00     0.126 C 
HETATM   33  O1  UNL     1       2.907   6.417  11.330  1.00  0.00    -0.266 OA
ENDBRANCH  30  31
ENDBRANCH  25  30
BRANCH  26  34
HETATM   34  O10 UNL     1       5.433   8.375  12.066  1.00  0.00    -0.390 OA
HETATM   35  H60 UNL     1       5.200   9.269  11.736  1.00  0.00     0.210 HD
ENDBRANCH  26  34
BRANCH  27  36
HETATM   36  O9  UNL     1       6.116   6.966  14.402  1.00  0.00    -0.391 OA
HETATM   37  H58 UNL     1       6.616   7.143  13.577  1.00  0.00     0.210 HD
ENDBRANCH  27  36
ENDBRANCH  23  24
ENDBRANCH   1  23
BRANCH  18  38
HETATM   38  O7  UNL     1      -2.064   5.186  15.451  1.00  0.00    -0.395 OA
HETATM   39  H47 UNL     1      -2.324   4.255  15.575  1.00  0.00     0.210 HD
ENDBRANCH  18  38
BRANCH  11  40
HETATM   40  C16 UNL     1      -9.909   6.841  13.853  1.00  0.00     0.065 C 
HETATM   41  C17 UNL     1      -9.855   6.686  12.319  1.00  0.00     0.046 C 
HETATM   42  C18 UNL     1     -11.250   6.304  14.365  1.00  0.00     0.041 C 
HETATM   43  C19 UNL     1     -12.124   7.515  14.614  1.00  0.00     0.038 C 
HETATM   44  C20 UNL     1     -11.325   8.691  14.090  1.00  0.00     0.156 C 
HETATM   45  O5  UNL     1      -9.951   8.269  14.124  1.00  0.00    -0.372 OA
BRANCH  44  46
HETATM   46  C21 UNL     1     -11.490  10.032  14.843  1.00  0.00     0.076 C 
HETATM   47  C22 UNL     1     -10.150  10.534  15.387  1.00  0.00     0.048 C 
HETATM   48  C23 UNL     1     -12.180  11.126  14.018  1.00  0.00     0.048 C 
BRANCH  46  49
HETATM   49  O4  UNL     1     -12.334   9.777  15.980  1.00  0.00    -0.388 OA
HETATM   50  H35 UNL     1     -13.192   9.505  15.605  1.00  0.00     0.210 HD
ENDBRANCH  46  49
ENDBRANCH  44  46
ENDBRANCH  11  40
BRANCH  12  51
HETATM   51  O6  UNL     1      -8.864   4.116  13.349  1.00  0.00    -0.395 OA
HETATM   52  H37 UNL     1      -8.708   3.163  13.480  1.00  0.00     0.210 HD
ENDBRANCH  12  51
TORSDOF 11
ENDMDL
MODEL 8
REMARK minimizedAffinity -8.56529713
REMARK CNNscore 0.387468874
REMARK CNNaffinity 6.39065933
REMARK  11 active torsions:
REMARK  status: ('A' for Active; 'I' for Inactive)
REMARK    1  A    between atoms: C2_2  and  O2_4 
REMARK    2  A    between atoms: O2_4  and  C3_5 
REMARK    3  A    between atoms: C4_6  and  O3_7 
REMARK    4  A    between atoms: O3_7  and  C5_8 
REMARK    5  A    between atoms: C15_18  and  C16_19 
REMARK    6  A    between atoms: C20_23  and  C21_24 
REMARK    7  A    between atoms: C21_24  and  O4_27 
REMARK    8  A    between atoms: C24_29  and  O6_30 
REMARK    9  A    between atoms: C30_36  and  O7_37 
REMARK   10  A    between atoms: C36_44  and  O9_45 
REMARK   11  A    between atoms: C37_46  and  O10_47 
ROOT
HETATM    1  C5  UNL     1      -6.937 -10.352   6.913  1.00  0.00     0.133 C 
HETATM    2  C6  UNL     1      -8.237 -10.832   6.254  1.00  0.00     0.034 C 
HETATM    3  C7  UNL     1      -8.048 -11.533   4.917  1.00  0.00     0.013 C 
HETATM    4  C8  UNL     1      -7.161 -10.730   3.985  1.00  0.00    -0.025 A 
HETATM    5  C9  UNL     1      -7.868  -9.763   3.072  1.00  0.00     0.021 A 
HETATM    6  C10 UNL     1      -7.230 -10.997   2.458  1.00  0.00    -0.027 A 
HETATM    7  C11 UNL     1      -8.212 -11.986   1.843  1.00  0.00     0.011 C 
HETATM    8  C12 UNL     1      -8.502 -11.690   0.355  1.00  0.00     0.011 C 
HETATM    9  C13 UNL     1      -7.420 -10.853  -0.372  1.00  0.00    -0.028 C 
HETATM   10  C14 UNL     1      -7.764  -9.352  -0.195  1.00  0.00     0.016 C 
HETATM   11  C15 UNL     1      -7.225 -11.118  -1.909  1.00  0.00     0.057 C 
HETATM   12  C24 UNL     1      -5.751 -10.642  -2.169  1.00  0.00     0.126 C 
HETATM   13  C25 UNL     1      -5.079 -10.482  -0.776  1.00  0.00     0.042 C 
HETATM   14  C26 UNL     1      -5.999 -11.250   0.193  1.00  0.00    -0.029 C 
HETATM   15  C27 UNL     1      -5.636 -12.773  -0.024  1.00  0.00     0.016 C 
HETATM   16  C28 UNL     1      -5.868 -11.011   1.744  1.00  0.00     0.006 C 
HETATM   17  C29 UNL     1      -4.956  -9.875   2.215  1.00  0.00     0.038 C 
HETATM   18  C30 UNL     1      -4.629 -10.076   3.707  1.00  0.00     0.124 C 
HETATM   19  C31 UNL     1      -5.879 -10.121   4.638  1.00  0.00     0.034 C 
HETATM   20  C32 UNL     1      -5.638 -10.653   6.100  1.00  0.00    -0.015 C 
HETATM   21  C33 UNL     1      -4.484  -9.861   6.772  1.00  0.00     0.018 C 
HETATM   22  C34 UNL     1      -5.234 -12.146   6.156  1.00  0.00     0.018 C 
ENDROOT
BRANCH   1  23
HETATM   23  O3  UNL     1      -6.863 -10.917   8.228  1.00  0.00    -0.352 OA
BRANCH  23  24
HETATM   24  C4  UNL     1      -7.377 -10.045   9.245  1.00  0.00     0.292 C 
HETATM   25  C3  UNL     1      -6.892 -10.571  10.608  1.00  0.00     0.218 C 
HETATM   26  C37 UNL     1      -7.261  -9.569  11.706  1.00  0.00     0.183 C 
HETATM   27  C36 UNL     1      -6.795  -8.157  11.341  1.00  0.00     0.173 C 
HETATM   28  C35 UNL     1      -7.300  -7.779   9.956  1.00  0.00     0.205 C 
HETATM   29  O8  UNL     1      -6.897  -8.730   8.978  1.00  0.00    -0.356 OA
BRANCH  25  30
HETATM   30  O2  UNL     1      -7.549 -11.836  10.871  1.00  0.00    -0.309 OA
BRANCH  30  31
HETATM   31  C2  UNL     1      -8.885 -11.870  10.639  1.00  0.00     0.255 C 
HETATM   32  C1  UNL     1      -9.639 -11.369  11.836  1.00  0.00     0.126 C 
HETATM   33  O1  UNL     1      -9.404 -12.285   9.609  1.00  0.00    -0.266 OA
ENDBRANCH  30  31
ENDBRANCH  25  30
BRANCH  26  34
HETATM   34  O10 UNL     1      -6.724  -9.895  13.000  1.00  0.00    -0.390 OA
HETATM   35  H60 UNL     1      -6.052 -10.602  12.895  1.00  0.00     0.210 HD
ENDBRANCH  26  34
BRANCH  27  36
HETATM   36  O9  UNL     1      -7.282  -7.226  12.309  1.00  0.00    -0.391 OA
HETATM   37  H58 UNL     1      -7.134  -7.658  13.177  1.00  0.00     0.210 HD
ENDBRANCH  27  36
ENDBRANCH  23  24
ENDBRANCH   1  23
BRANCH  18  38
HETATM   38  O7  UNL     1      -3.817 -11.241   3.847  1.00  0.00    -0.395 OA
HETATM   39  H47 UNL     1      -3.025 -11.119   3.292  1.00  0.00     0.210 HD
ENDBRANCH  18  38
BRANCH  11  40
HETATM   40  C16 UNL     1      -8.295 -10.734  -2.974  1.00  0.00     0.065 C 
HETATM   41  C17 UNL     1      -9.514 -11.675  -2.882  1.00  0.00     0.046 C 
HETATM   42  C18 UNL     1      -8.786  -9.283  -3.056  1.00  0.00     0.041 C 
HETATM   43  C19 UNL     1      -8.696  -8.888  -4.514  1.00  0.00     0.038 C 
HETATM   44  C20 UNL     1      -8.315 -10.159  -5.244  1.00  0.00     0.156 C 
HETATM   45  O5  UNL     1      -7.671 -10.990  -4.262  1.00  0.00    -0.372 OA
BRANCH  44  46
HETATM   46  C21 UNL     1      -7.406 -10.000  -6.486  1.00  0.00     0.076 C 
HETATM   47  C22 UNL     1      -6.371 -11.125  -6.566  1.00  0.00     0.048 C 
HETATM   48  C23 UNL     1      -8.176  -9.882  -7.807  1.00  0.00     0.048 C 
BRANCH  46  49
HETATM   49  O4  UNL     1      -6.677  -8.772  -6.321  1.00  0.00    -0.388 OA
HETATM   50  H35 UNL     1      -7.355  -8.071  -6.320  1.00  0.00     0.210 HD
ENDBRANCH  46  49
ENDBRANCH  44  46
ENDBRANCH  11  40
BRANCH  12  51
HETATM   51  O6  UNL     1      -5.645  -9.415  -2.871  1.00  0.00    -0.395 OA
HETATM   52  H37 UNL     1      -4.697  -9.264  -3.040  1.00  0.00     0.210 HD
ENDBRANCH  12  51
TORSDOF 11
ENDMDL
MODEL 9
REMARK minimizedAffinity -8.10257149
REMARK CNNscore 0.376768947
REMARK CNNaffinity 6.69017839
REMARK  11 active torsions:
REMARK  status: ('A' for Active; 'I' for Inactive)
REMARK    1  A    between atoms: C2_2  and  O2_4 
REMARK    2  A    between atoms: O2_4  and  C3_5 
REMARK    3  A    between atoms: C4_6  and  O3_7 
REMARK    4  A    between atoms: O3_7  and  C5_8 
REMARK    5  A    between atoms: C15_18  and  C16_19 
REMARK    6  A    between atoms: C20_23  and  C21_24 
REMARK    7  A    between atoms: C21_24  and  O4_27 
REMARK    8  A    between atoms: C24_29  and  O6_30 
REMARK    9  A    between atoms: C30_36  and  O7_37 
REMARK   10  A    between atoms: C36_44  and  O9_45 
REMARK   11  A    between atoms: C37_46  and  O10_47 
ROOT
HETATM    1  C5  UNL     1      -2.197   6.757  14.069  1.00  0.00     0.133 C 
HETATM    2  C6  UNL     1      -1.018   6.949  15.033  1.00  0.00     0.034 C 
HETATM    3  C7  UNL     1      -1.306   7.870  16.210  1.00  0.00     0.013 C 
HETATM    4  C8  UNL     1      -1.934   9.175  15.759  1.00  0.00    -0.025 A 
HETATM    5  C9  UNL     1      -0.978  10.299  15.462  1.00  0.00     0.021 A 
HETATM    6  C10 UNL     1      -1.861  10.412  16.693  1.00  0.00    -0.027 A 
HETATM    7  C11 UNL     1      -1.113  10.394  18.019  1.00  0.00     0.011 C 
HETATM    8  C12 UNL     1      -0.693  11.805  18.486  1.00  0.00     0.011 C 
HETATM    9  C13 UNL     1      -1.512  12.970  17.876  1.00  0.00    -0.028 C 
HETATM   10  C14 UNL     1      -0.832  13.404  16.552  1.00  0.00     0.016 C 
HETATM   11  C15 UNL     1      -1.694  14.256  18.761  1.00  0.00     0.057 C 
HETATM   12  C24 UNL     1      -3.000  14.907  18.182  1.00  0.00     0.126 C 
HETATM   13  C25 UNL     1      -3.678  13.832  17.287  1.00  0.00     0.042 C 
HETATM   14  C26 UNL     1      -3.011  12.504  17.697  1.00  0.00    -0.029 C 
HETATM   15  C27 UNL     1      -3.713  12.099  19.054  1.00  0.00     0.016 C 
HETATM   16  C28 UNL     1      -3.153  11.242  16.766  1.00  0.00     0.006 C 
HETATM   17  C29 UNL     1      -3.792  11.441  15.389  1.00  0.00     0.038 C 
HETATM   18  C30 UNL     1      -4.225  10.073  14.830  1.00  0.00     0.124 C 
HETATM   19  C31 UNL     1      -3.065   9.041  14.689  1.00  0.00     0.034 C 
HETATM   20  C32 UNL     1      -3.492   7.544  14.449  1.00  0.00    -0.015 C 
HETATM   21  C33 UNL     1      -4.456   7.452  13.236  1.00  0.00     0.018 C 
HETATM   22  C34 UNL     1      -4.239   6.914  15.650  1.00  0.00     0.018 C 
ENDROOT
BRANCH   1  23
HETATM   23  O3  UNL     1      -2.463   5.353  13.957  1.00  0.00    -0.352 OA
BRANCH  23  24
HETATM   24  C4  UNL     1      -3.190   5.012  12.768  1.00  0.00     0.292 C 
HETATM   25  C3  UNL     1      -2.267   4.162  11.877  1.00  0.00     0.218 C 
HETATM   26  C37 UNL     1      -3.060   3.620  10.684  1.00  0.00     0.183 C 
HETATM   27  C36 UNL     1      -4.347   2.931  11.147  1.00  0.00     0.173 C 
HETATM   28  C35 UNL     1      -5.141   3.859  12.055  1.00  0.00     0.205 C 
HETATM   29  O8  UNL     1      -4.361   4.300  13.160  1.00  0.00    -0.356 OA
BRANCH  25  30
HETATM   30  O2  UNL     1      -1.191   5.004  11.396  1.00  0.00    -0.309 OA
BRANCH  30  31
HETATM   31  C2  UNL     1       0.064   4.520  11.569  1.00  0.00     0.255 C 
HETATM   32  C1  UNL     1       0.964   5.580  12.135  1.00  0.00     0.126 C 
HETATM   33  O1  UNL     1       0.422   3.386  11.272  1.00  0.00    -0.266 OA
ENDBRANCH  30  31
ENDBRANCH  25  30
BRANCH  26  34
HETATM   34  O10 UNL     1      -2.327   2.691   9.867  1.00  0.00    -0.390 OA
HETATM   35  H60 UNL     1      -1.511   2.426  10.343  1.00  0.00     0.210 HD
ENDBRANCH  26  34
BRANCH  27  36
HETATM   36  O9  UNL     1      -5.133   2.570  10.010  1.00  0.00    -0.391 OA
HETATM   37  H58 UNL     1      -4.495   2.193   9.367  1.00  0.00     0.210 HD
ENDBRANCH  27  36
ENDBRANCH  23  24
ENDBRANCH   1  23
BRANCH  18  38
HETATM   38  O7  UNL     1      -5.295   9.568  15.629  1.00  0.00    -0.395 OA
HETATM   39  H47 UNL     1      -6.009  10.231  15.621  1.00  0.00     0.210 HD
ENDBRANCH  18  38
BRANCH  11  40
HETATM   40  C16 UNL     1      -0.515  15.214  19.109  1.00  0.00     0.065 C 
HETATM   41  C17 UNL     1       0.378  14.598  20.206  1.00  0.00     0.046 C 
HETATM   42  C18 UNL     1       0.374  15.752  17.982  1.00  0.00     0.041 C 
HETATM   43  C19 UNL     1       0.462  17.248  18.189  1.00  0.00     0.038 C 
HETATM   44  C20 UNL     1      -0.238  17.505  19.508  1.00  0.00     0.156 C 
HETATM   45  O5  UNL     1      -1.133  16.394  19.693  1.00  0.00    -0.372 OA
BRANCH  44  46
HETATM   46  C21 UNL     1      -1.011  18.839  19.636  1.00  0.00     0.076 C 
HETATM   47  C22 UNL     1      -2.498  18.597  19.905  1.00  0.00     0.048 C 
HETATM   48  C23 UNL     1      -0.424  19.798  20.679  1.00  0.00     0.048 C 
BRANCH  46  49
HETATM   49  O4  UNL     1      -0.918  19.504  18.364  1.00  0.00    -0.388 OA
HETATM   50  H35 UNL     1       0.032  19.686  18.240  1.00  0.00     0.210 HD
ENDBRANCH  46  49
ENDBRANCH  44  46
ENDBRANCH  11  40
BRANCH  12  51
HETATM   51  O6  UNL     1      -2.781  16.074  17.406  1.00  0.00    -0.395 OA
HETATM   52  H37 UNL     1      -3.657  16.428  17.170  1.00  0.00     0.210 HD
ENDBRANCH  12  51
TORSDOF 11
ENDMDL
