MODEL 1
REMARK minimizedAffinity -10.1024246
REMARK  6 active torsions:
REMARK  status: ('A' for Active; 'I' for Inactive)
REMARK    1  A    between atoms: C3_3  and  C4_4 
REMARK    2  A    between atoms: C4_4  and  O2_6 
REMARK    3  A    between atoms: O2_6  and  C5_7 
REMARK    4  A    between atoms: C5_7  and  C6_8 
REMARK    5  A    between atoms: C6_8  and  C7_9 
REMARK    6  A    between atoms: C13_15  and  C14_16 
ROOT
HETATM    1  C1  UNL     1       0.969  54.051 -20.631  1.00  0.00     0.069 C 
HETATM    2  C2  UNL     1       0.327  52.742 -20.250  1.00  0.00     0.018 C 
HETATM    3  C3  UNL     1      -0.175  51.847 -21.133  1.00  0.00     0.052 C 
HETATM    4  C13 UNL     1      -0.827  50.542 -20.685  1.00  0.00     0.104 C 
HETATM    5  C23 UNL     1      -0.620  50.290 -19.191  1.00  0.00     0.024 C 
HETATM    6  C24 UNL     1      -0.092  51.230 -18.376  1.00  0.00     0.020 C 
HETATM    7  C25 UNL     1       0.140  51.005 -16.902  1.00  0.00     0.058 C 
HETATM    8  C26 UNL     1       0.227  49.525 -16.549  1.00  0.00     0.014 C 
HETATM    9  C27 UNL     1      -0.938  48.753 -17.144  1.00  0.00     0.084 C 
HETATM   10  C28 UNL     1      -1.025  48.967 -18.639  1.00  0.00     0.158 C 
HETATM   11  O5  UNL     1      -1.481  48.096 -19.378  1.00  0.00    -0.293 OA
HETATM   12  N1  UNL     1       0.295  52.452 -18.893  1.00  0.00    -0.362 N 
HETATM   13  H24 UNL     1       0.764  53.106 -18.269  1.00  0.00     0.165 HD
ENDROOT
BRANCH   4  14
HETATM   14  C14 UNL     1      -2.303  50.540 -21.057  1.00  0.00     0.029 A 
HETATM   15  C15 UNL     1      -3.209  51.451 -20.665  1.00  0.00     0.154 A 
HETATM   16  O3  UNL     1      -4.550  51.463 -20.960  1.00  0.00    -0.321 OA
HETATM   17  C16 UNL     1      -5.049  50.415 -21.690  1.00  0.00     0.089 A 
HETATM   18  C17 UNL     1      -6.421  50.403 -21.937  1.00  0.00     0.040 A 
HETATM   19  C21 UNL     1      -4.242  49.393 -22.187  1.00  0.00     0.050 A 
HETATM   20  C18 UNL     1      -6.982  49.363 -22.683  1.00  0.00     0.026 A 
HETATM   21  C19 UNL     1      -6.167  48.341 -23.179  1.00  0.00     0.035 A 
HETATM   22 CL1  UNL     1      -6.865  47.066 -24.100  1.00  0.00    -0.084 Cl
HETATM   23  C20 UNL     1      -4.796  48.349 -22.935  1.00  0.00     0.042 A 
HETATM   24  C22 UNL     1      -2.794  49.439 -21.924  1.00  0.00     0.194 A 
HETATM   25  O4  UNL     1      -2.042  48.618 -22.430  1.00  0.00    -0.287 OA
ENDBRANCH   4  14
BRANCH   3  26
HETATM   26  C4  UNL     1      -0.135  52.103 -22.584  1.00  0.00     0.292 C 
HETATM   27  O1  UNL     1       0.586  52.932 -23.111  1.00  0.00    -0.259 OA
BRANCH  26  28
HETATM   28  O2  UNL     1      -1.016  51.276 -23.194  1.00  0.00    -0.317 OA
BRANCH  28  29
HETATM   29  C5  UNL     1      -1.487  51.739 -24.468  1.00  0.00     0.183 C 
BRANCH  29  30
HETATM   30  C6  UNL     1      -1.124  50.693 -25.519  1.00  0.00     0.065 C 
BRANCH  30  31
HETATM   31  C7  UNL     1       0.060  51.110 -26.352  1.00  0.00    -0.056 A 
HETATM   32  C8  UNL     1       1.358  51.038 -25.825  1.00  0.00     0.007 A 
HETATM   33  C9  UNL     1       2.458  51.405 -26.601  1.00  0.00     0.001 A 
HETATM   34  C10 UNL     1       2.271  51.846 -27.911  1.00  0.00     0.000 A 
HETATM   35  C11 UNL     1       0.985  51.923 -28.443  1.00  0.00     0.001 A 
HETATM   36  C12 UNL     1      -0.117  51.555 -27.669  1.00  0.00     0.007 A 
ENDBRANCH  30  31
ENDBRANCH  29  30
ENDBRANCH  28  29
ENDBRANCH  26  28
ENDBRANCH   3  26
TORSDOF 6
ENDMDL
MODEL 2
REMARK minimizedAffinity -9.77612686
REMARK  6 active torsions:
REMARK  status: ('A' for Active; 'I' for Inactive)
REMARK    1  A    between atoms: C3_3  and  C4_4 
REMARK    2  A    between atoms: C4_4  and  O2_6 
REMARK    3  A    between atoms: O2_6  and  C5_7 
REMARK    4  A    between atoms: C5_7  and  C6_8 
REMARK    5  A    between atoms: C6_8  and  C7_9 
REMARK    6  A    between atoms: C13_15  and  C14_16 
ROOT
HETATM    1  C1  UNL     1       0.320  53.689 -26.271  1.00  0.00     0.069 C 
HETATM    2  C2  UNL     1       0.097  53.056 -24.921  1.00  0.00     0.018 C 
HETATM    3  C3  UNL     1      -0.405  51.814 -24.729  1.00  0.00     0.052 C 
HETATM    4  C13 UNL     1      -0.621  51.232 -23.335  1.00  0.00     0.104 C 
HETATM    5  C23 UNL     1       0.009  52.110 -22.252  1.00  0.00     0.024 C 
HETATM    6  C24 UNL     1       0.508  53.334 -22.528  1.00  0.00     0.020 C 
HETATM    7  C25 UNL     1       1.151  54.216 -21.485  1.00  0.00     0.058 C 
HETATM    8  C26 UNL     1       1.645  53.423 -20.281  1.00  0.00     0.014 C 
HETATM    9  C27 UNL     1       0.565  52.489 -19.762  1.00  0.00     0.084 C 
HETATM   10  C28 UNL     1       0.056  51.581 -20.859  1.00  0.00     0.158 C 
HETATM   11  O5  UNL     1      -0.371  50.456 -20.604  1.00  0.00    -0.293 OA
HETATM   12  N1  UNL     1       0.475  53.816 -23.824  1.00  0.00    -0.362 N 
HETATM   13  H24 UNL     1       0.933  54.706 -24.011  1.00  0.00     0.165 HD
ENDROOT
BRANCH   4  14
HETATM   14  C14 UNL     1      -2.106  51.008 -23.085  1.00  0.00     0.029 A 
HETATM   15  C15 UNL     1      -3.041  51.970 -23.029  1.00  0.00     0.154 A 
HETATM   16  O3  UNL     1      -4.383  51.804 -22.780  1.00  0.00    -0.321 OA
HETATM   17  C16 UNL     1      -4.825  50.535 -22.507  1.00  0.00     0.089 A 
HETATM   18  C17 UNL     1      -6.176  50.382 -22.198  1.00  0.00     0.040 A 
HETATM   19  C21 UNL     1      -3.986  49.422 -22.538  1.00  0.00     0.050 A 
HETATM   20  C18 UNL     1      -6.684  49.110 -21.919  1.00  0.00     0.026 A 
HETATM   21  C19 UNL     1      -5.837  47.998 -21.952  1.00  0.00     0.035 A 
HETATM   22 CL1  UNL     1      -6.470  46.435 -21.611  1.00  0.00    -0.084 Cl
HETATM   23  C20 UNL     1      -4.487  48.146 -22.261  1.00  0.00     0.042 A 
HETATM   24  C22 UNL     1      -2.567  49.612 -22.882  1.00  0.00     0.194 A 
HETATM   25  O4  UNL     1      -1.826  48.649 -23.021  1.00  0.00    -0.287 OA
ENDBRANCH   4  14
BRANCH   3  26
HETATM   26  C4  UNL     1      -0.791  50.963 -25.868  1.00  0.00     0.292 C 
HETATM   27  O1  UNL     1      -0.007  50.281 -26.508  1.00  0.00    -0.259 OA
BRANCH  26  28
HETATM   28  O2  UNL     1      -2.126  51.078 -26.064  1.00  0.00    -0.317 OA
BRANCH  28  29
HETATM   29  C5  UNL     1      -2.662  50.204 -27.068  1.00  0.00     0.183 C 
BRANCH  29  30
HETATM   30  C6  UNL     1      -2.972  48.860 -26.413  1.00  0.00     0.065 C 
BRANCH  30  31
HETATM   31  C7  UNL     1      -4.371  48.390 -26.717  1.00  0.00    -0.056 A 
HETATM   32  C8  UNL     1      -4.756  48.113 -28.037  1.00  0.00     0.007 A 
HETATM   33  C9  UNL     1      -6.044  47.658 -28.318  1.00  0.00     0.001 A 
HETATM   34  C10 UNL     1      -6.960  47.474 -27.283  1.00  0.00     0.000 A 
HETATM   35  C11 UNL     1      -6.589  47.748 -25.968  1.00  0.00     0.001 A 
HETATM   36  C12 UNL     1      -5.299  48.202 -25.684  1.00  0.00     0.007 A 
ENDBRANCH  30  31
ENDBRANCH  29  30
ENDBRANCH  28  29
ENDBRANCH  26  28
ENDBRANCH   3  26
TORSDOF 6
ENDMDL
MODEL 3
REMARK minimizedAffinity -9.62507534
REMARK  6 active torsions:
REMARK  status: ('A' for Active; 'I' for Inactive)
REMARK    1  A    between atoms: C3_3  and  C4_4 
REMARK    2  A    between atoms: C4_4  and  O2_6 
REMARK    3  A    between atoms: O2_6  and  C5_7 
REMARK    4  A    between atoms: C5_7  and  C6_8 
REMARK    5  A    between atoms: C6_8  and  C7_9 
REMARK    6  A    between atoms: C13_15  and  C14_16 
ROOT
HETATM    1  C1  UNL     1       0.926  54.057 -20.612  1.00  0.00     0.069 C 
HETATM    2  C2  UNL     1       0.307  52.754 -20.174  1.00  0.00     0.018 C 
HETATM    3  C3  UNL     1      -0.193  51.820 -21.015  1.00  0.00     0.052 C 
HETATM    4  C13 UNL     1      -0.821  50.524 -20.511  1.00  0.00     0.104 C 
HETATM    5  C23 UNL     1      -0.593  50.332 -19.010  1.00  0.00     0.024 C 
HETATM    6  C24 UNL     1      -0.070  51.309 -18.239  1.00  0.00     0.020 C 
HETATM    7  C25 UNL     1       0.183  51.145 -16.759  1.00  0.00     0.058 C 
HETATM    8  C26 UNL     1       0.294  49.681 -16.351  1.00  0.00     0.014 C 
HETATM    9  C27 UNL     1      -0.866  48.870 -16.903  1.00  0.00     0.084 C 
HETATM   10  C28 UNL     1      -0.973  49.026 -18.404  1.00  0.00     0.158 C 
HETATM   11  O5  UNL     1      -1.425  48.121 -19.104  1.00  0.00    -0.293 OA
HETATM   12  N1  UNL     1       0.294  52.517 -18.806  1.00  0.00    -0.362 N 
HETATM   13  H24 UNL     1       0.760  53.200 -18.213  1.00  0.00     0.165 HD
ENDROOT
BRANCH   4  14
HETATM   14  C14 UNL     1      -2.301  50.488 -20.865  1.00  0.00     0.029 A 
HETATM   15  C15 UNL     1      -3.216  51.395 -20.489  1.00  0.00     0.154 A 
HETATM   16  O3  UNL     1      -4.562  51.377 -20.769  1.00  0.00    -0.321 OA
HETATM   17  C16 UNL     1      -5.051  50.299 -21.461  1.00  0.00     0.089 A 
HETATM   18  C17 UNL     1      -6.426  50.258 -21.692  1.00  0.00     0.040 A 
HETATM   19  C21 UNL     1      -4.233  49.276 -21.938  1.00  0.00     0.050 A 
HETATM   20  C18 UNL     1      -6.978  49.187 -22.400  1.00  0.00     0.026 A 
HETATM   21  C19 UNL     1      -6.152  48.164 -22.875  1.00  0.00     0.035 A 
HETATM   22 CL1  UNL     1      -6.839  46.851 -23.749  1.00  0.00    -0.084 Cl
HETATM   23  C20 UNL     1      -4.778  48.202 -22.648  1.00  0.00     0.042 A 
HETATM   24  C22 UNL     1      -2.783  49.353 -21.693  1.00  0.00     0.194 A 
HETATM   25  O4  UNL     1      -2.024  48.529 -22.184  1.00  0.00    -0.287 OA
ENDBRANCH   4  14
BRANCH   3  26
HETATM   26  C4  UNL     1      -0.172  52.020 -22.475  1.00  0.00     0.292 C 
HETATM   27  O1  UNL     1       0.619  52.745 -23.054  1.00  0.00    -0.259 OA
BRANCH  26  28
HETATM   28  O2  UNL     1      -1.160  51.278 -23.029  1.00  0.00    -0.317 OA
BRANCH  28  29
HETATM   29  C5  UNL     1      -1.609  51.740 -24.311  1.00  0.00     0.183 C 
BRANCH  29  30
HETATM   30  C6  UNL     1      -1.043  50.807 -25.379  1.00  0.00     0.065 C 
BRANCH  30  31
HETATM   31  C7  UNL     1      -2.127  50.074 -26.126  1.00  0.00    -0.056 A 
HETATM   32  C8  UNL     1      -2.758  48.962 -25.550  1.00  0.00     0.007 A 
HETATM   33  C9  UNL     1      -3.776  48.294 -26.231  1.00  0.00     0.001 A 
HETATM   34  C10 UNL     1      -4.172  48.731 -27.495  1.00  0.00     0.000 A 
HETATM   35  C11 UNL     1      -3.550  49.833 -28.077  1.00  0.00     0.001 A 
HETATM   36  C12 UNL     1      -2.533  50.505 -27.396  1.00  0.00     0.007 A 
ENDBRANCH  30  31
ENDBRANCH  29  30
ENDBRANCH  28  29
ENDBRANCH  26  28
ENDBRANCH   3  26
TORSDOF 6
ENDMDL
MODEL 4
REMARK minimizedAffinity -9.2264328
REMARK  6 active torsions:
REMARK  status: ('A' for Active; 'I' for Inactive)
REMARK    1  A    between atoms: C3_3  and  C4_4 
REMARK    2  A    between atoms: C4_4  and  O2_6 
REMARK    3  A    between atoms: O2_6  and  C5_7 
REMARK    4  A    between atoms: C5_7  and  C6_8 
REMARK    5  A    between atoms: C6_8  and  C7_9 
REMARK    6  A    between atoms: C13_15  and  C14_16 
ROOT
HETATM    1  C1  UNL     1      -4.008  48.024 -28.098  1.00  0.00     0.069 C 
HETATM    2  C2  UNL     1      -4.483  48.541 -26.765  1.00  0.00     0.018 C 
HETATM    3  C3  UNL     1      -3.908  49.561 -26.087  1.00  0.00     0.052 C 
HETATM    4  C13 UNL     1      -4.427  50.032 -24.732  1.00  0.00     0.104 C 
HETATM    5  C23 UNL     1      -5.769  49.383 -24.384  1.00  0.00     0.024 C 
HETATM    6  C24 UNL     1      -6.287  48.379 -25.123  1.00  0.00     0.020 C 
HETATM    7  C25 UNL     1      -7.615  47.731 -24.816  1.00  0.00     0.058 C 
HETATM    8  C26 UNL     1      -8.514  48.626 -23.971  1.00  0.00     0.014 C 
HETATM    9  C27 UNL     1      -7.766  49.169 -22.766  1.00  0.00     0.084 C 
HETATM   10  C28 UNL     1      -6.502  49.885 -23.188  1.00  0.00     0.158 C 
HETATM   11  O5  UNL     1      -6.050  50.817 -22.524  1.00  0.00    -0.293 OA
HETATM   12  N1  UNL     1      -5.611  47.925 -26.241  1.00  0.00    -0.362 N 
HETATM   13  H24 UNL     1      -6.068  47.224 -26.821  1.00  0.00     0.165 HD
ENDROOT
BRANCH   4  14
HETATM   14  C14 UNL     1      -3.383  49.777 -23.654  1.00  0.00     0.029 A 
HETATM   15  C15 UNL     1      -2.968  48.570 -23.238  1.00  0.00     0.154 A 
HETATM   16  O3  UNL     1      -2.049  48.307 -22.251  1.00  0.00    -0.321 OA
HETATM   17  C16 UNL     1      -1.524  49.376 -21.571  1.00  0.00     0.089 A 
HETATM   18  C17 UNL     1      -0.636  49.099 -20.533  1.00  0.00     0.040 A 
HETATM   19  C21 UNL     1      -1.838  50.697 -21.887  1.00  0.00     0.050 A 
HETATM   20  C18 UNL     1      -0.064  50.151 -19.811  1.00  0.00     0.026 A 
HETATM   21  C19 UNL     1      -0.383  51.473 -20.133  1.00  0.00     0.035 A 
HETATM   22 CL1  UNL     1       0.328  52.762 -19.242  1.00  0.00    -0.084 Cl
HETATM   23  C20 UNL     1      -1.269  51.754 -21.170  1.00  0.00     0.042 A 
HETATM   24  C22 UNL     1      -2.768  50.959 -22.999  1.00  0.00     0.194 A 
HETATM   25  O4  UNL     1      -2.985  52.104 -23.371  1.00  0.00    -0.287 OA
ENDBRANCH   4  14
BRANCH   3  26
HETATM   26  C4  UNL     1      -2.727  50.262 -26.622  1.00  0.00     0.292 C 
HETATM   27  O1  UNL     1      -1.595  49.808 -26.600  1.00  0.00    -0.259 OA
BRANCH  26  28
HETATM   28  O2  UNL     1      -3.120  51.458 -27.120  1.00  0.00    -0.317 OA
BRANCH  28  29
HETATM   29  C5  UNL     1      -2.410  52.588 -26.595  1.00  0.00     0.183 C 
BRANCH  29  30
HETATM   30  C6  UNL     1      -1.351  53.001 -27.614  1.00  0.00     0.065 C 
BRANCH  30  31
HETATM   31  C7  UNL     1       0.011  52.454 -27.273  1.00  0.00    -0.056 A 
HETATM   32  C8  UNL     1       0.898  52.076 -28.291  1.00  0.00     0.007 A 
HETATM   33  C9  UNL     1       2.168  51.588 -27.978  1.00  0.00     0.001 A 
HETATM   34  C10 UNL     1       2.562  51.474 -26.645  1.00  0.00     0.000 A 
HETATM   35  C11 UNL     1       1.686  51.845 -25.626  1.00  0.00     0.001 A 
HETATM   36  C12 UNL     1       0.417  52.335 -25.937  1.00  0.00     0.007 A 
ENDBRANCH  30  31
ENDBRANCH  29  30
ENDBRANCH  28  29
ENDBRANCH  26  28
ENDBRANCH   3  26
TORSDOF 6
ENDMDL
MODEL 5
REMARK minimizedAffinity -9.07563686
REMARK  6 active torsions:
REMARK  status: ('A' for Active; 'I' for Inactive)
REMARK    1  A    between atoms: C3_3  and  C4_4 
REMARK    2  A    between atoms: C4_4  and  O2_6 
REMARK    3  A    between atoms: O2_6  and  C5_7 
REMARK    4  A    between atoms: C5_7  and  C6_8 
REMARK    5  A    between atoms: C6_8  and  C7_9 
REMARK    6  A    between atoms: C13_15  and  C14_16 
ROOT
HETATM    1  C1  UNL     1      -5.860  48.474 -21.931  1.00  0.00     0.069 C 
HETATM    2  C2  UNL     1      -5.488  48.461 -23.392  1.00  0.00     0.018 C 
HETATM    3  C3  UNL     1      -4.220  48.480 -23.862  1.00  0.00     0.052 C 
HETATM    4  C13 UNL     1      -3.906  48.479 -25.355  1.00  0.00     0.104 C 
HETATM    5  C23 UNL     1      -5.158  48.218 -26.195  1.00  0.00     0.024 C 
HETATM    6  C24 UNL     1      -6.392  48.196 -25.647  1.00  0.00     0.020 C 
HETATM    7  C25 UNL     1      -7.644  47.924 -26.446  1.00  0.00     0.058 C 
HETATM    8  C26 UNL     1      -7.351  47.185 -27.746  1.00  0.00     0.014 C 
HETATM    9  C27 UNL     1      -6.226  47.855 -28.515  1.00  0.00     0.084 C 
HETATM   10  C28 UNL     1      -4.987  47.992 -27.658  1.00  0.00     0.158 C 
HETATM   11  O5  UNL     1      -3.865  47.984 -28.162  1.00  0.00    -0.293 OA
HETATM   12  N1  UNL     1      -6.546  48.393 -24.287  1.00  0.00    -0.362 N 
HETATM   13  H24 UNL     1      -7.480  48.288 -23.895  1.00  0.00     0.165 HD
ENDROOT
BRANCH   4  14
HETATM   14  C14 UNL     1      -3.227  49.783 -25.748  1.00  0.00     0.029 A 
HETATM   15  C15 UNL     1      -3.801  50.997 -25.740  1.00  0.00     0.154 A 
HETATM   16  O3  UNL     1      -3.224  52.187 -26.113  1.00  0.00    -0.321 OA
HETATM   17  C16 UNL     1      -1.942  52.147 -26.596  1.00  0.00     0.089 A 
HETATM   18  C17 UNL     1      -1.383  53.349 -27.027  1.00  0.00     0.040 A 
HETATM   19  C21 UNL     1      -1.198  50.970 -26.658  1.00  0.00     0.050 A 
HETATM   20  C18 UNL     1      -0.076  53.368 -27.522  1.00  0.00     0.026 A 
HETATM   21  C19 UNL     1       0.665  52.184 -27.581  1.00  0.00     0.035 A 
HETATM   22 CL1  UNL     1       2.275  52.217 -28.187  1.00  0.00    -0.084 Cl
HETATM   23  C20 UNL     1       0.112  50.981 -27.150  1.00  0.00     0.042 A 
HETATM   24  C22 UNL     1      -1.808  49.717 -26.182  1.00  0.00     0.194 A 
HETATM   25  O4  UNL     1      -1.151  48.687 -26.124  1.00  0.00    -0.287 OA
ENDBRANCH   4  14
BRANCH   3  26
HETATM   26  C4  UNL     1      -3.067  48.523 -22.945  1.00  0.00     0.292 C 
HETATM   27  O1  UNL     1      -2.498  47.533 -22.517  1.00  0.00    -0.259 OA
BRANCH  26  28
HETATM   28  O2  UNL     1      -2.774  49.817 -22.676  1.00  0.00    -0.317 OA
BRANCH  28  29
HETATM   29  C5  UNL     1      -1.396  50.066 -22.362  1.00  0.00     0.183 C 
BRANCH  29  30
HETATM   30  C6  UNL     1      -0.986  51.380 -23.023  1.00  0.00     0.065 C 
BRANCH  30  31
HETATM   31  C7  UNL     1      -0.254  52.290 -22.072  1.00  0.00    -0.056 A 
HETATM   32  C8  UNL     1      -0.521  52.242 -20.696  1.00  0.00     0.007 A 
HETATM   33  C9  UNL     1       0.171  53.069 -19.810  1.00  0.00     0.001 A 
HETATM   34  C10 UNL     1       1.136  53.953 -20.292  1.00  0.00     0.000 A 
HETATM   35  C11 UNL     1       1.408  54.011 -21.658  1.00  0.00     0.001 A 
HETATM   36  C12 UNL     1       0.718  53.182 -22.545  1.00  0.00     0.007 A 
ENDBRANCH  30  31
ENDBRANCH  29  30
ENDBRANCH  28  29
ENDBRANCH  26  28
ENDBRANCH   3  26
TORSDOF 6
ENDMDL
MODEL 6
REMARK minimizedAffinity -9.02883434
REMARK  6 active torsions:
REMARK  status: ('A' for Active; 'I' for Inactive)
REMARK    1  A    between atoms: C3_3  and  C4_4 
REMARK    2  A    between atoms: C4_4  and  O2_6 
REMARK    3  A    between atoms: O2_6  and  C5_7 
REMARK    4  A    between atoms: C5_7  and  C6_8 
REMARK    5  A    between atoms: C6_8  and  C7_9 
REMARK    6  A    between atoms: C13_15  and  C14_16 
ROOT
HETATM    1  C1  UNL     1       0.783  54.044 -20.582  1.00  0.00     0.069 C 
HETATM    2  C2  UNL     1       0.507  52.874 -19.672  1.00  0.00     0.018 C 
HETATM    3  C3  UNL     1       0.081  51.660 -20.089  1.00  0.00     0.052 C 
HETATM    4  C13 UNL     1      -0.195  50.517 -19.117  1.00  0.00     0.104 C 
HETATM    5  C23 UNL     1       0.291  50.847 -17.705  1.00  0.00     0.024 C 
HETATM    6  C24 UNL     1       0.721  52.082 -17.370  1.00  0.00     0.020 C 
HETATM    7  C25 UNL     1       1.222  52.434 -15.990  1.00  0.00     0.058 C 
HETATM    8  C26 UNL     1       1.681  51.208 -15.211  1.00  0.00     0.014 C 
HETATM    9  C27 UNL     1       0.635  50.108 -15.257  1.00  0.00     0.084 C 
HETATM   10  C28 UNL     1       0.273  49.761 -16.684  1.00  0.00     0.158 C 
HETATM   11  O5  UNL     1      -0.092  48.626 -16.988  1.00  0.00    -0.293 OA
HETATM   12  N1  UNL     1       0.749  53.085 -18.322  1.00  0.00    -0.362 N 
HETATM   13  H24 UNL     1       1.155  53.980 -18.057  1.00  0.00     0.165 HD
ENDROOT
BRANCH   4  14
HETATM   14  C14 UNL     1      -1.675  50.160 -19.135  1.00  0.00     0.029 A 
HETATM   15  C15 UNL     1      -2.681  50.987 -18.810  1.00  0.00     0.154 A 
HETATM   16  O3  UNL     1      -4.023  50.689 -18.790  1.00  0.00    -0.321 OA
HETATM   17  C16 UNL     1      -4.390  49.400 -19.080  1.00  0.00     0.089 A 
HETATM   18  C17 UNL     1      -5.747  49.090 -19.002  1.00  0.00     0.040 A 
HETATM   19  C21 UNL     1      -3.471  48.421 -19.452  1.00  0.00     0.050 A 
HETATM   20  C18 UNL     1      -6.180  47.793 -19.295  1.00  0.00     0.026 A 
HETATM   21  C19 UNL     1      -5.253  46.816 -19.667  1.00  0.00     0.035 A 
HETATM   22 CL1  UNL     1      -5.793  45.223 -20.030  1.00  0.00    -0.084 Cl
HETATM   23  C20 UNL     1      -3.896  47.121 -19.748  1.00  0.00     0.042 A 
HETATM   24  C22 UNL     1      -2.046  48.781 -19.541  1.00  0.00     0.194 A 
HETATM   25  O4  UNL     1      -1.225  47.978 -19.963  1.00  0.00    -0.287 OA
ENDBRANCH   4  14
BRANCH   3  26
HETATM   26  C4  UNL     1      -0.160  51.386 -21.518  1.00  0.00     0.292 C 
HETATM   27  O1  UNL     1      -0.508  50.303 -21.956  1.00  0.00    -0.259 OA
BRANCH  26  28
HETATM   28  O2  UNL     1       0.072  52.519 -22.222  1.00  0.00    -0.317 OA
BRANCH  28  29
HETATM   29  C5  UNL     1       0.823  52.330 -23.430  1.00  0.00     0.183 C 
BRANCH  29  30
HETATM   30  C6  UNL     1       0.483  53.470 -24.386  1.00  0.00     0.065 C 
BRANCH  30  31
HETATM   31  C7  UNL     1       0.502  53.028 -25.827  1.00  0.00    -0.056 A 
HETATM   32  C8  UNL     1       1.120  51.823 -26.191  1.00  0.00     0.007 A 
HETATM   33  C9  UNL     1       1.121  51.402 -27.521  1.00  0.00     0.001 A 
HETATM   34  C10 UNL     1       0.505  52.181 -28.500  1.00  0.00     0.000 A 
HETATM   35  C11 UNL     1      -0.110  53.382 -28.149  1.00  0.00     0.001 A 
HETATM   36  C12 UNL     1      -0.114  53.804 -26.818  1.00  0.00     0.007 A 
ENDBRANCH  30  31
ENDBRANCH  29  30
ENDBRANCH  28  29
ENDBRANCH  26  28
ENDBRANCH   3  26
TORSDOF 6
ENDMDL
MODEL 7
REMARK minimizedAffinity -8.82100296
REMARK  6 active torsions:
REMARK  status: ('A' for Active; 'I' for Inactive)
REMARK    1  A    between atoms: C3_3  and  C4_4 
REMARK    2  A    between atoms: C4_4  and  O2_6 
REMARK    3  A    between atoms: O2_6  and  C5_7 
REMARK    4  A    between atoms: C5_7  and  C6_8 
REMARK    5  A    between atoms: C6_8  and  C7_9 
REMARK    6  A    between atoms: C13_15  and  C14_16 
ROOT
HETATM    1  C1  UNL     1       1.086  52.580 -21.138  1.00  0.00     0.069 C 
HETATM    2  C2  UNL     1      -0.191  52.100 -21.779  1.00  0.00     0.018 C 
HETATM    3  C3  UNL     1      -1.280  51.678 -21.097  1.00  0.00     0.052 C 
HETATM    4  C13 UNL     1      -2.542  51.190 -21.803  1.00  0.00     0.104 C 
HETATM    5  C23 UNL     1      -2.490  51.465 -23.307  1.00  0.00     0.024 C 
HETATM    6  C24 UNL     1      -1.366  51.904 -23.913  1.00  0.00     0.020 C 
HETATM    7  C25 UNL     1      -1.288  52.200 -25.391  1.00  0.00     0.058 C 
HETATM    8  C26 UNL     1      -2.660  52.462 -26.001  1.00  0.00     0.014 C 
HETATM    9  C27 UNL     1      -3.648  51.377 -25.611  1.00  0.00     0.084 C 
HETATM   10  C28 UNL     1      -3.724  51.226 -24.108  1.00  0.00     0.158 C 
HETATM   11  O5  UNL     1      -4.761  50.851 -23.560  1.00  0.00    -0.293 OA
HETATM   12  N1  UNL     1      -0.226  52.137 -23.166  1.00  0.00    -0.362 N 
HETATM   13  H24 UNL     1       0.577  52.545 -23.639  1.00  0.00     0.165 HD
ENDROOT
BRANCH   4  14
HETATM   14  C14 UNL     1      -2.769  49.714 -21.508  1.00  0.00     0.029 A 
HETATM   15  C15 UNL     1      -2.010  48.702 -21.957  1.00  0.00     0.154 A 
HETATM   16  O3  UNL     1      -2.203  47.360 -21.731  1.00  0.00    -0.321 OA
HETATM   17  C16 UNL     1      -3.312  46.991 -21.014  1.00  0.00     0.089 A 
HETATM   18  C17 UNL     1      -3.534  45.625 -20.838  1.00  0.00     0.040 A 
HETATM   19  C21 UNL     1      -4.196  47.918 -20.463  1.00  0.00     0.050 A 
HETATM   20  C18 UNL     1      -4.645  45.192 -20.108  1.00  0.00     0.026 A 
HETATM   21  C19 UNL     1      -5.526  46.127 -19.559  1.00  0.00     0.035 A 
HETATM   22 CL1  UNL     1      -6.890  45.585 -18.659  1.00  0.00    -0.084 Cl
HETATM   23  C20 UNL     1      -5.309  47.492 -19.731  1.00  0.00     0.042 A 
HETATM   24  C22 UNL     1      -3.929  49.353 -20.653  1.00  0.00     0.194 A 
HETATM   25  O4  UNL     1      -4.622  50.194 -20.098  1.00  0.00    -0.287 OA
ENDBRANCH   4  14
BRANCH   3  26
HETATM   26  C4  UNL     1      -1.295  51.651 -19.624  1.00  0.00     0.292 C 
HETATM   27  O1  UNL     1      -2.080  52.282 -18.937  1.00  0.00    -0.259 OA
BRANCH  26  28
HETATM   28  O2  UNL     1      -0.310  50.827 -19.195  1.00  0.00    -0.317 OA
BRANCH  28  29
HETATM   29  C5  UNL     1      -0.050  50.887 -17.785  1.00  0.00     0.183 C 
BRANCH  29  30
HETATM   30  C6  UNL     1       0.741  52.160 -17.499  1.00  0.00     0.065 C 
BRANCH  30  31
HETATM   31  C7  UNL     1       1.859  51.926 -16.517  1.00  0.00    -0.056 A 
HETATM   32  C8  UNL     1       3.102  52.552 -16.694  1.00  0.00     0.007 A 
HETATM   33  C9  UNL     1       4.132  52.354 -15.775  1.00  0.00     0.001 A 
HETATM   34  C10 UNL     1       3.930  51.528 -14.669  1.00  0.00     0.000 A 
HETATM   35  C11 UNL     1       2.700  50.900 -14.484  1.00  0.00     0.001 A 
HETATM   36  C12 UNL     1       1.667  51.099 -15.402  1.00  0.00     0.007 A 
ENDBRANCH  30  31
ENDBRANCH  29  30
ENDBRANCH  28  29
ENDBRANCH  26  28
ENDBRANCH   3  26
TORSDOF 6
ENDMDL
MODEL 8
REMARK minimizedAffinity -8.80770588
REMARK  6 active torsions:
REMARK  status: ('A' for Active; 'I' for Inactive)
REMARK    1  A    between atoms: C3_3  and  C4_4 
REMARK    2  A    between atoms: C4_4  and  O2_6 
REMARK    3  A    between atoms: O2_6  and  C5_7 
REMARK    4  A    between atoms: C5_7  and  C6_8 
REMARK    5  A    between atoms: C6_8  and  C7_9 
REMARK    6  A    between atoms: C13_15  and  C14_16 
ROOT
HETATM    1  C1  UNL     1      -2.878  50.313 -27.591  1.00  0.00     0.069 C 
HETATM    2  C2  UNL     1      -3.705  49.932 -26.390  1.00  0.00     0.018 C 
HETATM    3  C3  UNL     1      -3.688  50.587 -25.207  1.00  0.00     0.052 C 
HETATM    4  C13 UNL     1      -4.539  50.145 -24.020  1.00  0.00     0.104 C 
HETATM    5  C23 UNL     1      -5.545  49.063 -24.418  1.00  0.00     0.024 C 
HETATM    6  C24 UNL     1      -5.508  48.468 -25.630  1.00  0.00     0.020 C 
HETATM    7  C25 UNL     1      -6.496  47.409 -26.058  1.00  0.00     0.058 C 
HETATM    8  C26 UNL     1      -7.787  47.464 -25.251  1.00  0.00     0.014 C 
HETATM    9  C27 UNL     1      -7.499  47.513 -23.761  1.00  0.00     0.084 C 
HETATM   10  C28 UNL     1      -6.579  48.665 -23.422  1.00  0.00     0.158 C 
HETATM   11  O5  UNL     1      -6.637  49.221 -22.326  1.00  0.00    -0.293 OA
HETATM   12  N1  UNL     1      -4.555  48.847 -26.557  1.00  0.00    -0.362 N 
HETATM   13  H24 UNL     1      -4.607  48.438 -27.487  1.00  0.00     0.165 HD
ENDROOT
BRANCH   4  14
HETATM   14  C14 UNL     1      -3.645  49.689 -22.876  1.00  0.00     0.029 A 
HETATM   15  C15 UNL     1      -2.821  48.629 -22.902  1.00  0.00     0.154 A 
HETATM   16  O3  UNL     1      -2.022  48.177 -21.880  1.00  0.00    -0.321 OA
HETATM   17  C16 UNL     1      -2.098  48.833 -20.678  1.00  0.00     0.089 A 
HETATM   18  C17 UNL     1      -1.329  48.333 -19.627  1.00  0.00     0.040 A 
HETATM   19  C21 UNL     1      -2.894  49.961 -20.485  1.00  0.00     0.050 A 
HETATM   20  C18 UNL     1      -1.361  48.968 -18.382  1.00  0.00     0.026 A 
HETATM   21  C19 UNL     1      -2.161  50.099 -18.196  1.00  0.00     0.035 A 
HETATM   22 CL1  UNL     1      -2.192  50.877 -16.661  1.00  0.00    -0.084 Cl
HETATM   23  C20 UNL     1      -2.930  50.602 -19.243  1.00  0.00     0.042 A 
HETATM   24  C22 UNL     1      -3.684  50.475 -21.617  1.00  0.00     0.194 A 
HETATM   25  O4  UNL     1      -4.311  51.521 -21.514  1.00  0.00    -0.287 OA
ENDBRANCH   4  14
BRANCH   3  26
HETATM   26  C4  UNL     1      -2.821  51.761 -24.998  1.00  0.00     0.292 C 
HETATM   27  O1  UNL     1      -2.999  52.844 -25.528  1.00  0.00    -0.259 OA
BRANCH  26  28
HETATM   28  O2  UNL     1      -1.829  51.421 -24.141  1.00  0.00    -0.317 OA
BRANCH  28  29
HETATM   29  C5  UNL     1      -0.527  51.332 -24.737  1.00  0.00     0.183 C 
BRANCH  29  30
HETATM   30  C6  UNL     1       0.255  52.589 -24.365  1.00  0.00     0.065 C 
BRANCH  30  31
HETATM   31  C7  UNL     1       0.473  52.703 -22.878  1.00  0.00    -0.056 A 
HETATM   32  C8  UNL     1       1.055  53.858 -22.334  1.00  0.00     0.007 A 
HETATM   33  C9  UNL     1       1.239  53.975 -20.956  1.00  0.00     0.001 A 
HETATM   34  C10 UNL     1       0.845  52.939 -20.109  1.00  0.00     0.000 A 
HETATM   35  C11 UNL     1       0.268  51.787 -20.640  1.00  0.00     0.001 A 
HETATM   36  C12 UNL     1       0.081  51.669 -22.019  1.00  0.00     0.007 A 
ENDBRANCH  30  31
ENDBRANCH  29  30
ENDBRANCH  28  29
ENDBRANCH  26  28
ENDBRANCH   3  26
TORSDOF 6
ENDMDL
MODEL 9
REMARK minimizedAffinity -8.77308083
REMARK  6 active torsions:
REMARK  status: ('A' for Active; 'I' for Inactive)
REMARK    1  A    between atoms: C3_3  and  C4_4 
REMARK    2  A    between atoms: C4_4  and  O2_6 
REMARK    3  A    between atoms: O2_6  and  C5_7 
REMARK    4  A    between atoms: C5_7  and  C6_8 
REMARK    5  A    between atoms: C6_8  and  C7_9 
REMARK    6  A    between atoms: C13_15  and  C14_16 
ROOT
HETATM    1  C1  UNL     1      -3.557  45.949 -20.081  1.00  0.00     0.069 C 
HETATM    2  C2  UNL     1      -3.225  47.389 -19.783  1.00  0.00     0.018 C 
HETATM    3  C3  UNL     1      -4.000  48.443 -20.127  1.00  0.00     0.052 C 
HETATM    4  C13 UNL     1      -3.603  49.882 -19.810  1.00  0.00     0.104 C 
HETATM    5  C23 UNL     1      -2.391  49.942 -18.879  1.00  0.00     0.024 C 
HETATM    6  C24 UNL     1      -1.677  48.839 -18.567  1.00  0.00     0.020 C 
HETATM    7  C25 UNL     1      -0.487  48.863 -17.639  1.00  0.00     0.058 C 
HETATM    8  C26 UNL     1      -0.497  50.075 -16.716  1.00  0.00     0.014 C 
HETATM    9  C27 UNL     1      -0.732  51.355 -17.498  1.00  0.00     0.084 C 
HETATM   10  C28 UNL     1      -2.000  51.266 -18.319  1.00  0.00     0.158 C 
HETATM   11  O5  UNL     1      -2.660  52.272 -18.576  1.00  0.00    -0.293 OA
HETATM   12  N1  UNL     1      -2.050  47.609 -19.078  1.00  0.00    -0.362 N 
HETATM   13  H24 UNL     1      -1.541  46.787 -18.758  1.00  0.00     0.165 HD
ENDROOT
BRANCH   4  14
HETATM   14  C14 UNL     1      -3.362  50.655 -21.099  1.00  0.00     0.029 A 
HETATM   15  C15 UNL     1      -4.161  51.613 -21.595  1.00  0.00     0.154 A 
HETATM   16  O3  UNL     1      -3.985  52.310 -22.767  1.00  0.00    -0.321 OA
HETATM   17  C16 UNL     1      -2.915  51.971 -23.553  1.00  0.00     0.089 A 
HETATM   18  C17 UNL     1      -2.775  52.641 -24.768  1.00  0.00     0.040 A 
HETATM   19  C21 UNL     1      -1.981  51.006 -23.177  1.00  0.00     0.050 A 
HETATM   20  C18 UNL     1      -1.697  52.341 -25.605  1.00  0.00     0.026 A 
HETATM   21  C19 UNL     1      -0.764  51.373 -25.222  1.00  0.00     0.035 A 
HETATM   22 CL1  UNL     1       0.563  51.012 -26.257  1.00  0.00    -0.084 Cl
HETATM   23  C20 UNL     1      -0.899  50.701 -24.009  1.00  0.00     0.042 A 
HETATM   24  C22 UNL     1      -2.145  50.325 -21.882  1.00  0.00     0.194 A 
HETATM   25  O4  UNL     1      -1.291  49.551 -21.473  1.00  0.00    -0.287 OA
ENDBRANCH   4  14
BRANCH   3  26
HETATM   26  C4  UNL     1      -5.270  48.252 -20.851  1.00  0.00     0.292 C 
HETATM   27  O1  UNL     1      -6.356  48.145 -20.307  1.00  0.00    -0.259 OA
BRANCH  26  28
HETATM   28  O2  UNL     1      -5.011  48.216 -22.179  1.00  0.00    -0.317 OA
BRANCH  28  29
HETATM   29  C5  UNL     1      -5.894  47.378 -22.938  1.00  0.00     0.183 C 
BRANCH  29  30
HETATM   30  C6  UNL     1      -6.398  48.178 -24.137  1.00  0.00     0.065 C 
BRANCH  30  31
HETATM   31  C7  UNL     1      -5.369  48.269 -25.233  1.00  0.00    -0.056 A 
HETATM   32  C8  UNL     1      -4.025  48.530 -24.925  1.00  0.00     0.007 A 
HETATM   33  C9  UNL     1      -3.067  48.595 -25.937  1.00  0.00     0.001 A 
HETATM   34  C10 UNL     1      -3.442  48.400 -27.266  1.00  0.00     0.000 A 
HETATM   35  C11 UNL     1      -4.774  48.142 -27.583  1.00  0.00     0.001 A 
HETATM   36  C12 UNL     1      -5.735  48.074 -26.572  1.00  0.00     0.007 A 
ENDBRANCH  30  31
ENDBRANCH  29  30
ENDBRANCH  28  29
ENDBRANCH  26  28
ENDBRANCH   3  26
TORSDOF 6
ENDMDL
