MODEL 1
REMARK minimizedAffinity -9.9305706
REMARK  9 active torsions:
REMARK  status: ('A' for Active; 'I' for Inactive)
REMARK    1  A    between atoms: C3_3  and  O1_4 
REMARK    2  A    between atoms: C14_15  and  O2_16 
REMARK    3  A    between atoms: C18_20  and  C19_21 
REMARK    4  A    between atoms: C19_21  and  C20_22 
REMARK    5  A    between atoms: C20_22  and  C21_23 
REMARK    6  A    between atoms: C22_24  and  C23_25 
REMARK    7  A    between atoms: C22_24  and  C24_27 
REMARK    8  A    between atoms: C23_25  and  O3_26 
REMARK    9  A    between atoms: C24_27  and  O4_28 
ROOT
HETATM    1  C1  UNL     1      -7.135  47.451 -26.951  1.00  0.00     0.013 C 
HETATM    2  C2  UNL     1      -7.156  47.638 -25.428  1.00  0.00     0.015 C 
HETATM    3  C3  UNL     1      -8.507  48.260 -24.991  1.00  0.00     0.122 C 
HETATM    4  C4  UNL     1      -8.576  48.576 -23.493  1.00  0.00     0.033 C 
HETATM    5  C5  UNL     1      -7.345  49.330 -22.962  1.00  0.00     0.012 C 
HETATM    6  C6  UNL     1      -6.000  48.665 -23.353  1.00  0.00    -0.033 C 
HETATM    7  C7  UNL     1      -5.959  47.261 -22.661  1.00  0.00     0.016 C 
HETATM    8  C8  UNL     1      -5.999  48.535 -24.915  1.00  0.00     0.000 C 
HETATM    9  C9  UNL     1      -4.594  48.215 -25.419  1.00  0.00     0.007 C 
HETATM   10  C10 UNL     1      -3.660  49.420 -25.222  1.00  0.00     0.011 C 
HETATM   11  C11 UNL     1      -3.891  50.267 -23.921  1.00  0.00    -0.029 C 
HETATM   12  C12 UNL     1      -4.708  51.530 -24.340  1.00  0.00     0.016 C 
HETATM   13  C13 UNL     1      -4.685  49.415 -22.841  1.00  0.00     0.032 C 
HETATM   14  C14 UNL     1      -4.808  50.107 -21.444  1.00  0.00     0.124 C 
HETATM   15  C15 UNL     1      -3.460  50.616 -20.896  1.00  0.00     0.042 C 
HETATM   16  C16 UNL     1      -2.779  51.488 -21.940  1.00  0.00     0.029 C 
HETATM   17  C17 UNL     1      -1.447  52.102 -21.742  1.00  0.00    -0.033 C 
HETATM   18  C18 UNL     1      -0.494  52.150 -20.819  1.00  0.00     0.023 C 
HETATM   19  C25 UNL     1       0.707  52.589 -21.567  1.00  0.00     0.290 C 
HETATM   20  O5  UNL     1       1.815  52.767 -21.091  1.00  0.00    -0.260 OA
HETATM   21  O6  UNL     1       0.413  52.673 -22.905  1.00  0.00    -0.308 OA
HETATM   22  C26 UNL     1      -0.992  52.656 -23.032  1.00  0.00     0.163 C 
HETATM   23  C27 UNL     1      -1.602  51.707 -24.078  1.00  0.00     0.047 C 
HETATM   24  C28 UNL     1      -2.494  50.702 -23.266  1.00  0.00    -0.026 C 
HETATM   25  C29 UNL     1      -1.561  49.462 -22.985  1.00  0.00     0.016 C 
ENDROOT
BRANCH  18  26
HETATM   26  C19 UNL     1      -0.436  51.679 -19.411  1.00  0.00     0.049 C 
BRANCH  26  27
HETATM   27  C20 UNL     1       0.658  52.392 -18.602  1.00  0.00     0.032 C 
BRANCH  27  28
HETATM   28  C21 UNL     1       0.693  51.956 -17.162  1.00  0.00    -0.019 C 
HETATM   29  C22 UNL     1       1.697  52.126 -16.275  1.00  0.00    -0.037 C 
BRANCH  29  30
HETATM   30  C23 UNL     1       1.580  51.566 -14.883  1.00  0.00     0.200 C 
BRANCH  30  31
HETATM   31  O3  UNL     1       1.245  52.622 -13.996  1.00  0.00    -0.397 OA
HETATM   32  H35 UNL     1       1.085  52.215 -13.129  1.00  0.00     0.209 HD
ENDBRANCH  30  31
ENDBRANCH  29  30
BRANCH  29  33
HETATM   33  C24 UNL     1       2.992  52.828 -16.579  1.00  0.00     0.200 C 
BRANCH  33  34
HETATM   34  O4  UNL     1       3.750  52.968 -15.384  1.00  0.00    -0.397 OA
HETATM   35  H38 UNL     1       3.150  53.333 -14.711  1.00  0.00     0.209 HD
ENDBRANCH  33  34
ENDBRANCH  29  33
ENDBRANCH  27  28
ENDBRANCH  26  27
ENDBRANCH  18  26
BRANCH  14  36
HETATM   36  O2  UNL     1      -5.709  51.208 -21.504  1.00  0.00    -0.395 OA
HETATM   37  H24 UNL     1      -5.826  51.549 -20.601  1.00  0.00     0.210 HD
ENDBRANCH  14  36
BRANCH   3  38
HETATM   38  O1  UNL     1      -8.734  49.467 -25.724  1.00  0.00    -0.395 OA
HETATM   39  H6  UNL     1      -9.581  49.841 -25.427  1.00  0.00     0.210 HD
ENDBRANCH   3  38
TORSDOF 9
ENDMDL
MODEL 2
REMARK minimizedAffinity -9.61450005
REMARK  9 active torsions:
REMARK  status: ('A' for Active; 'I' for Inactive)
REMARK    1  A    between atoms: C3_3  and  O1_4 
REMARK    2  A    between atoms: C14_15  and  O2_16 
REMARK    3  A    between atoms: C18_20  and  C19_21 
REMARK    4  A    between atoms: C19_21  and  C20_22 
REMARK    5  A    between atoms: C20_22  and  C21_23 
REMARK    6  A    between atoms: C22_24  and  C23_25 
REMARK    7  A    between atoms: C22_24  and  C24_27 
REMARK    8  A    between atoms: C23_25  and  O3_26 
REMARK    9  A    between atoms: C24_27  and  O4_28 
ROOT
HETATM    1  C1  UNL     1      -2.461  50.437 -15.985  1.00  0.00     0.013 C 
HETATM    2  C2  UNL     1      -3.151  49.593 -17.066  1.00  0.00     0.015 C 
HETATM    3  C3  UNL     1      -2.891  48.087 -16.806  1.00  0.00     0.122 C 
HETATM    4  C4  UNL     1      -3.460  47.175 -17.897  1.00  0.00     0.033 C 
HETATM    5  C5  UNL     1      -3.113  47.626 -19.327  1.00  0.00     0.012 C 
HETATM    6  C6  UNL     1      -3.434  49.120 -19.594  1.00  0.00    -0.033 C 
HETATM    7  C7  UNL     1      -4.985  49.290 -19.468  1.00  0.00     0.016 C 
HETATM    8  C8  UNL     1      -2.675  49.946 -18.501  1.00  0.00     0.000 C 
HETATM    9  C9  UNL     1      -2.646  51.424 -18.879  1.00  0.00     0.007 C 
HETATM   10  C10 UNL     1      -1.742  51.652 -20.102  1.00  0.00     0.011 C 
HETATM   11  C11 UNL     1      -1.761  50.526 -21.195  1.00  0.00    -0.029 C 
HETATM   12  C12 UNL     1      -0.488  49.651 -20.968  1.00  0.00     0.016 C 
HETATM   13  C13 UNL     1      -3.078  49.649 -21.060  1.00  0.00     0.032 C 
HETATM   14  C14 UNL     1      -3.279  48.613 -22.214  1.00  0.00     0.124 C 
HETATM   15  C15 UNL     1      -3.145  49.235 -23.619  1.00  0.00     0.042 C 
HETATM   16  C16 UNL     1      -1.832  49.997 -23.718  1.00  0.00     0.029 C 
HETATM   17  C17 UNL     1      -1.415  50.743 -24.925  1.00  0.00    -0.033 C 
HETATM   18  C18 UNL     1      -1.876  51.022 -26.139  1.00  0.00     0.023 C 
HETATM   19  C25 UNL     1      -1.082  52.199 -26.562  1.00  0.00     0.290 C 
HETATM   20  O5  UNL     1      -1.185  52.779 -27.629  1.00  0.00    -0.260 OA
HETATM   21  O6  UNL     1      -0.273  52.606 -25.531  1.00  0.00    -0.308 OA
HETATM   22  C26 UNL     1      -0.233  51.559 -24.585  1.00  0.00     0.163 C 
HETATM   23  C27 UNL     1      -0.449  51.926 -23.107  1.00  0.00     0.047 C 
HETATM   24  C28 UNL     1      -1.746  51.158 -22.668  1.00  0.00    -0.026 C 
HETATM   25  C29 UNL     1      -2.923  52.185 -22.882  1.00  0.00     0.016 C 
ENDROOT
BRANCH  18  26
HETATM   26  C19 UNL     1      -3.048  50.527 -26.905  1.00  0.00     0.049 C 
BRANCH  26  27
HETATM   27  C20 UNL     1      -3.062  48.996 -27.024  1.00  0.00     0.032 C 
BRANCH  27  28
HETATM   28  C21 UNL     1      -4.454  48.424 -27.013  1.00  0.00    -0.019 C 
HETATM   29  C22 UNL     1      -5.199  48.050 -28.075  1.00  0.00    -0.037 C 
BRANCH  29  30
HETATM   30  C23 UNL     1      -6.606  47.552 -27.876  1.00  0.00     0.200 C 
BRANCH  30  31
HETATM   31  O3  UNL     1      -7.502  48.470 -28.484  1.00  0.00    -0.397 OA
HETATM   32  H35 UNL     1      -8.387  48.076 -28.421  1.00  0.00     0.209 HD
ENDBRANCH  30  31
ENDBRANCH  29  30
BRANCH  29  33
HETATM   33  C24 UNL     1      -4.738  48.121 -29.505  1.00  0.00     0.200 C 
BRANCH  33  34
HETATM   34  O4  UNL     1      -4.872  49.454 -29.983  1.00  0.00    -0.397 OA
HETATM   35  H38 UNL     1      -5.768  49.749 -29.751  1.00  0.00     0.209 HD
ENDBRANCH  33  34
ENDBRANCH  29  33
ENDBRANCH  27  28
ENDBRANCH  26  27
ENDBRANCH  18  26
BRANCH  14  36
HETATM   36  O2  UNL     1      -2.341  47.548 -22.105  1.00  0.00    -0.395 OA
HETATM   37  H24 UNL     1      -2.560  46.885 -22.783  1.00  0.00     0.210 HD
ENDBRANCH  14  36
BRANCH   3  38
HETATM   38  O1  UNL     1      -1.483  47.858 -16.706  1.00  0.00    -0.395 OA
HETATM   39  H6  UNL     1      -1.347  46.907 -16.552  1.00  0.00     0.210 HD
ENDBRANCH   3  38
TORSDOF 9
ENDMDL
MODEL 3
REMARK minimizedAffinity -9.47715378
REMARK  9 active torsions:
REMARK  status: ('A' for Active; 'I' for Inactive)
REMARK    1  A    between atoms: C3_3  and  O1_4 
REMARK    2  A    between atoms: C14_15  and  O2_16 
REMARK    3  A    between atoms: C18_20  and  C19_21 
REMARK    4  A    between atoms: C19_21  and  C20_22 
REMARK    5  A    between atoms: C20_22  and  C21_23 
REMARK    6  A    between atoms: C22_24  and  C23_25 
REMARK    7  A    between atoms: C22_24  and  C24_27 
REMARK    8  A    between atoms: C23_25  and  O3_26 
REMARK    9  A    between atoms: C24_27  and  O4_28 
ROOT
HETATM    1  C1  UNL     1      -7.168  46.290 -18.018  1.00  0.00     0.013 C 
HETATM    2  C2  UNL     1      -6.338  46.229 -19.309  1.00  0.00     0.015 C 
HETATM    3  C3  UNL     1      -5.756  44.805 -19.495  1.00  0.00     0.122 C 
HETATM    4  C4  UNL     1      -4.828  44.681 -20.708  1.00  0.00     0.033 C 
HETATM    5  C5  UNL     1      -3.774  45.798 -20.800  1.00  0.00     0.012 C 
HETATM    6  C6  UNL     1      -4.375  47.222 -20.672  1.00  0.00    -0.033 C 
HETATM    7  C7  UNL     1      -5.319  47.438 -21.903  1.00  0.00     0.016 C 
HETATM    8  C8  UNL     1      -5.173  47.256 -19.324  1.00  0.00     0.000 C 
HETATM    9  C9  UNL     1      -5.509  48.695 -18.943  1.00  0.00     0.007 C 
HETATM   10  C10 UNL     1      -4.236  49.463 -18.552  1.00  0.00     0.011 C 
HETATM   11  C11 UNL     1      -2.940  49.111 -19.365  1.00  0.00    -0.029 C 
HETATM   12  C12 UNL     1      -2.097  48.140 -18.478  1.00  0.00     0.016 C 
HETATM   13  C13 UNL     1      -3.324  48.423 -20.744  1.00  0.00     0.032 C 
HETATM   14  C14 UNL     1      -2.112  48.197 -21.705  1.00  0.00     0.124 C 
HETATM   15  C15 UNL     1      -1.255  49.463 -21.913  1.00  0.00     0.042 C 
HETATM   16  C16 UNL     1      -0.851  50.035 -20.562  1.00  0.00     0.029 C 
HETATM   17  C17 UNL     1      -0.057  51.274 -20.410  1.00  0.00    -0.033 C 
HETATM   18  C18 UNL     1       0.505  52.204 -21.173  1.00  0.00     0.023 C 
HETATM   19  C25 UNL     1       0.714  53.344 -20.252  1.00  0.00     0.290 C 
HETATM   20  O5  UNL     1       1.216  54.415 -20.550  1.00  0.00    -0.260 OA
HETATM   21  O6  UNL     1       0.169  53.056 -19.026  1.00  0.00    -0.308 OA
HETATM   22  C26 UNL     1      -0.072  51.666 -18.987  1.00  0.00     0.163 C 
HETATM   23  C27 UNL     1      -1.449  51.195 -18.488  1.00  0.00     0.047 C 
HETATM   24  C28 UNL     1      -2.097  50.433 -19.697  1.00  0.00    -0.026 C 
HETATM   25  C29 UNL     1      -2.967  51.516 -20.445  1.00  0.00     0.016 C 
ENDROOT
BRANCH  18  26
HETATM   26  C19 UNL     1       0.708  52.308 -22.641  1.00  0.00     0.049 C 
BRANCH  26  27
HETATM   27  C20 UNL     1      -0.592  52.082 -23.427  1.00  0.00     0.032 C 
BRANCH  27  28
HETATM   28  C21 UNL     1      -0.672  52.920 -24.674  1.00  0.00    -0.019 C 
HETATM   29  C22 UNL     1       0.145  52.877 -25.748  1.00  0.00    -0.037 C 
BRANCH  29  30
HETATM   30  C23 UNL     1      -0.051  53.841 -26.887  1.00  0.00     0.200 C 
BRANCH  30  31
HETATM   31  O3  UNL     1       0.279  55.147 -26.439  1.00  0.00    -0.397 OA
HETATM   32  H35 UNL     1       0.234  55.727 -27.217  1.00  0.00     0.209 HD
ENDBRANCH  30  31
ENDBRANCH  29  30
BRANCH  29  33
HETATM   33  C24 UNL     1       1.305  51.931 -25.899  1.00  0.00     0.200 C 
BRANCH  33  34
HETATM   34  O4  UNL     1       2.162  52.391 -26.936  1.00  0.00    -0.397 OA
HETATM   35  H38 UNL     1       1.598  52.588 -27.703  1.00  0.00     0.209 HD
ENDBRANCH  33  34
ENDBRANCH  29  33
ENDBRANCH  27  28
ENDBRANCH  26  27
ENDBRANCH  18  26
BRANCH  14  36
HETATM   36  O2  UNL     1      -1.266  47.162 -21.216  1.00  0.00    -0.395 OA
HETATM   37  H24 UNL     1      -0.580  46.992 -21.886  1.00  0.00     0.210 HD
ENDBRANCH  14  36
BRANCH   3  38
HETATM   38  O1  UNL     1      -5.028  44.431 -18.323  1.00  0.00    -0.395 OA
HETATM   39  H6  UNL     1      -4.667  43.540 -18.468  1.00  0.00     0.210 HD
ENDBRANCH   3  38
TORSDOF 9
ENDMDL
MODEL 4
REMARK minimizedAffinity -9.45764828
REMARK  9 active torsions:
REMARK  status: ('A' for Active; 'I' for Inactive)
REMARK    1  A    between atoms: C3_3  and  O1_4 
REMARK    2  A    between atoms: C14_15  and  O2_16 
REMARK    3  A    between atoms: C18_20  and  C19_21 
REMARK    4  A    between atoms: C19_21  and  C20_22 
REMARK    5  A    between atoms: C20_22  and  C21_23 
REMARK    6  A    between atoms: C22_24  and  C23_25 
REMARK    7  A    between atoms: C22_24  and  C24_27 
REMARK    8  A    between atoms: C23_25  and  O3_26 
REMARK    9  A    between atoms: C24_27  and  O4_28 
ROOT
HETATM    1  C1  UNL     1      -7.174  47.448 -26.803  1.00  0.00     0.013 C 
HETATM    2  C2  UNL     1      -7.190  47.641 -25.279  1.00  0.00     0.015 C 
HETATM    3  C3  UNL     1      -8.536  48.272 -24.841  1.00  0.00     0.122 C 
HETATM    4  C4  UNL     1      -8.598  48.594 -23.344  1.00  0.00     0.033 C 
HETATM    5  C5  UNL     1      -7.361  49.345 -22.820  1.00  0.00     0.012 C 
HETATM    6  C6  UNL     1      -6.021  48.672 -23.213  1.00  0.00    -0.033 C 
HETATM    7  C7  UNL     1      -5.984  47.270 -22.516  1.00  0.00     0.016 C 
HETATM    8  C8  UNL     1      -6.026  48.536 -24.774  1.00  0.00     0.000 C 
HETATM    9  C9  UNL     1      -4.625  48.206 -25.282  1.00  0.00     0.007 C 
HETATM   10  C10 UNL     1      -3.684  49.408 -25.093  1.00  0.00     0.011 C 
HETATM   11  C11 UNL     1      -3.907  50.262 -23.794  1.00  0.00    -0.029 C 
HETATM   12  C12 UNL     1      -4.720  51.527 -24.216  1.00  0.00     0.016 C 
HETATM   13  C13 UNL     1      -4.701  49.418 -22.709  1.00  0.00     0.032 C 
HETATM   14  C14 UNL     1      -4.816  50.116 -21.314  1.00  0.00     0.124 C 
HETATM   15  C15 UNL     1      -3.463  50.620 -20.773  1.00  0.00     0.042 C 
HETATM   16  C16 UNL     1      -2.782  51.485 -21.822  1.00  0.00     0.029 C 
HETATM   17  C17 UNL     1      -1.447  52.094 -21.632  1.00  0.00    -0.033 C 
HETATM   18  C18 UNL     1      -0.490  52.141 -20.712  1.00  0.00     0.023 C 
HETATM   19  C25 UNL     1       0.710  52.571 -21.466  1.00  0.00     0.290 C 
HETATM   20  O5  UNL     1       1.821  52.746 -20.994  1.00  0.00    -0.260 OA
HETATM   21  O6  UNL     1       0.412  52.652 -22.803  1.00  0.00    -0.308 OA
HETATM   22  C26 UNL     1      -0.994  52.640 -22.926  1.00  0.00     0.163 C 
HETATM   23  C27 UNL     1      -1.611  51.690 -23.966  1.00  0.00     0.047 C 
HETATM   24  C28 UNL     1      -2.505  50.693 -23.147  1.00  0.00    -0.026 C 
HETATM   25  C29 UNL     1      -1.577  49.449 -22.863  1.00  0.00     0.016 C 
ENDROOT
BRANCH  18  26
HETATM   26  C19 UNL     1      -0.429  51.676 -19.303  1.00  0.00     0.049 C 
BRANCH  26  27
HETATM   27  C20 UNL     1      -0.514  50.147 -19.189  1.00  0.00     0.032 C 
BRANCH  27  28
HETATM   28  C21 UNL     1      -0.256  49.652 -17.792  1.00  0.00    -0.019 C 
HETATM   29  C22 UNL     1       0.405  50.289 -16.802  1.00  0.00    -0.037 C 
BRANCH  29  30
HETATM   30  C23 UNL     1       0.622  49.609 -15.476  1.00  0.00     0.200 C 
BRANCH  30  31
HETATM   31  O3  UNL     1       0.584  48.204 -15.676  1.00  0.00    -0.397 OA
HETATM   32  H35 UNL     1       0.820  47.798 -14.825  1.00  0.00     0.209 HD
ENDBRANCH  30  31
ENDBRANCH  29  30
BRANCH  29  33
HETATM   33  C24 UNL     1       0.998  51.666 -16.923  1.00  0.00     0.200 C 
BRANCH  33  34
HETATM   34  O4  UNL     1       1.327  52.158 -15.629  1.00  0.00    -0.397 OA
HETATM   35  H38 UNL     1       0.546  52.017 -15.067  1.00  0.00     0.209 HD
ENDBRANCH  33  34
ENDBRANCH  29  33
ENDBRANCH  27  28
ENDBRANCH  26  27
ENDBRANCH  18  26
BRANCH  14  36
HETATM   36  O2  UNL     1      -5.712  51.221 -21.375  1.00  0.00    -0.395 OA
HETATM   37  H24 UNL     1      -5.825  51.566 -20.473  1.00  0.00     0.210 HD
ENDBRANCH  14  36
BRANCH   3  38
HETATM   38  O1  UNL     1      -8.759  49.477 -25.578  1.00  0.00    -0.395 OA
HETATM   39  H6  UNL     1      -9.603  49.856 -25.279  1.00  0.00     0.210 HD
ENDBRANCH   3  38
TORSDOF 9
ENDMDL
MODEL 5
REMARK minimizedAffinity -9.08585262
REMARK  9 active torsions:
REMARK  status: ('A' for Active; 'I' for Inactive)
REMARK    1  A    between atoms: C3_3  and  O1_4 
REMARK    2  A    between atoms: C14_15  and  O2_16 
REMARK    3  A    between atoms: C18_20  and  C19_21 
REMARK    4  A    between atoms: C19_21  and  C20_22 
REMARK    5  A    between atoms: C20_22  and  C21_23 
REMARK    6  A    between atoms: C22_24  and  C23_25 
REMARK    7  A    between atoms: C22_24  and  C24_27 
REMARK    8  A    between atoms: C23_25  and  O3_26 
REMARK    9  A    between atoms: C24_27  and  O4_28 
ROOT
HETATM    1  C1  UNL     1       1.440  54.077 -23.301  1.00  0.00     0.013 C 
HETATM    2  C2  UNL     1       0.762  53.208 -24.370  1.00  0.00     0.015 C 
HETATM    3  C3  UNL     1       0.439  54.066 -25.620  1.00  0.00     0.122 C 
HETATM    4  C4  UNL     1      -0.333  53.300 -26.700  1.00  0.00     0.033 C 
HETATM    5  C5  UNL     1      -1.539  52.512 -26.159  1.00  0.00     0.012 C 
HETATM    6  C6  UNL     1      -1.191  51.611 -24.946  1.00  0.00    -0.033 C 
HETATM    7  C7  UNL     1      -0.178  50.528 -25.450  1.00  0.00     0.016 C 
HETATM    8  C8  UNL     1      -0.546  52.542 -23.864  1.00  0.00     0.000 C 
HETATM    9  C9  UNL     1      -0.485  51.825 -22.517  1.00  0.00     0.007 C 
HETATM   10  C10 UNL     1      -1.898  51.637 -21.940  1.00  0.00     0.011 C 
HETATM   11  C11 UNL     1      -3.034  51.334 -22.981  1.00  0.00    -0.029 C 
HETATM   12  C12 UNL     1      -3.793  52.676 -23.229  1.00  0.00     0.016 C 
HETATM   13  C13 UNL     1      -2.410  50.780 -24.332  1.00  0.00     0.032 C 
HETATM   14  C14 UNL     1      -3.469  50.279 -25.368  1.00  0.00     0.124 C 
HETATM   15  C15 UNL     1      -4.494  49.298 -24.764  1.00  0.00     0.042 C 
HETATM   16  C16 UNL     1      -5.116  49.909 -23.517  1.00  0.00     0.029 C 
HETATM   17  C17 UNL     1      -6.111  49.207 -22.678  1.00  0.00    -0.033 C 
HETATM   18  C18 UNL     1      -6.738  48.037 -22.634  1.00  0.00     0.023 C 
HETATM   19  C25 UNL     1      -7.218  47.940 -21.237  1.00  0.00     0.290 C 
HETATM   20  O5  UNL     1      -7.854  47.012 -20.767  1.00  0.00    -0.260 OA
HETATM   21  O6  UNL     1      -6.757  49.011 -20.513  1.00  0.00    -0.308 OA
HETATM   22  C26 UNL     1      -6.300  49.979 -21.433  1.00  0.00     0.163 C 
HETATM   23  C27 UNL     1      -4.921  50.610 -21.177  1.00  0.00     0.047 C 
HETATM   24  C28 UNL     1      -4.042  50.222 -22.418  1.00  0.00    -0.026 C 
HETATM   25  C29 UNL     1      -3.290  48.904 -21.990  1.00  0.00     0.016 C 
ENDROOT
BRANCH  18  26
HETATM   26  C19 UNL     1      -6.809  46.902 -23.589  1.00  0.00     0.049 C 
BRANCH  26  27
HETATM   27  C20 UNL     1      -8.089  46.932 -24.437  1.00  0.00     0.032 C 
BRANCH  27  28
HETATM   28  C21 UNL     1      -7.819  47.222 -25.889  1.00  0.00    -0.019 C 
HETATM   29  C22 UNL     1      -8.562  47.971 -26.731  1.00  0.00    -0.037 C 
BRANCH  29  30
HETATM   30  C23 UNL     1      -8.168  48.101 -28.178  1.00  0.00     0.200 C 
BRANCH  30  31
HETATM   31  O3  UNL     1      -8.724  49.301 -28.693  1.00  0.00    -0.397 OA
HETATM   32  H35 UNL     1      -8.376  49.403 -29.594  1.00  0.00     0.209 HD
ENDBRANCH  30  31
ENDBRANCH  29  30
BRANCH  29  33
HETATM   33  C24 UNL     1      -9.824  48.693 -26.341  1.00  0.00     0.200 C 
BRANCH  33  34
HETATM   34  O4  UNL     1      -9.515  50.037 -25.996  1.00  0.00    -0.397 OA
HETATM   35  H38 UNL     1      -8.767  50.006 -25.376  1.00  0.00     0.209 HD
ENDBRANCH  33  34
ENDBRANCH  29  33
ENDBRANCH  27  28
ENDBRANCH  26  27
ENDBRANCH  18  26
BRANCH  14  36
HETATM   36  O2  UNL     1      -4.181  51.376 -25.932  1.00  0.00    -0.395 OA
HETATM   37  H24 UNL     1      -4.761  51.029 -26.633  1.00  0.00     0.210 HD
ENDBRANCH  14  36
BRANCH   3  38
HETATM   38  O1  UNL     1      -0.331  55.205 -25.228  1.00  0.00    -0.395 OA
HETATM   39  H6  UNL     1      -0.527  55.721 -26.029  1.00  0.00     0.210 HD
ENDBRANCH   3  38
TORSDOF 9
ENDMDL
MODEL 6
REMARK minimizedAffinity -8.98072433
REMARK  9 active torsions:
REMARK  status: ('A' for Active; 'I' for Inactive)
REMARK    1  A    between atoms: C3_3  and  O1_4 
REMARK    2  A    between atoms: C14_15  and  O2_16 
REMARK    3  A    between atoms: C18_20  and  C19_21 
REMARK    4  A    between atoms: C19_21  and  C20_22 
REMARK    5  A    between atoms: C20_22  and  C21_23 
REMARK    6  A    between atoms: C22_24  and  C23_25 
REMARK    7  A    between atoms: C22_24  and  C24_27 
REMARK    8  A    between atoms: C23_25  and  O3_26 
REMARK    9  A    between atoms: C24_27  and  O4_28 
ROOT
HETATM    1  C1  UNL     1      -8.683  46.716 -20.439  1.00  0.00     0.013 C 
HETATM    2  C2  UNL     1      -8.196  47.410 -21.718  1.00  0.00     0.015 C 
HETATM    3  C3  UNL     1      -8.242  46.417 -22.908  1.00  0.00     0.122 C 
HETATM    4  C4  UNL     1      -7.676  46.999 -24.208  1.00  0.00     0.033 C 
HETATM    5  C5  UNL     1      -6.315  47.695 -24.034  1.00  0.00     0.012 C 
HETATM    6  C6  UNL     1      -6.297  48.731 -22.880  1.00  0.00    -0.033 C 
HETATM    7  C7  UNL     1      -7.302  49.869 -23.263  1.00  0.00     0.016 C 
HETATM    8  C8  UNL     1      -6.755  47.972 -21.587  1.00  0.00     0.000 C 
HETATM    9  C9  UNL     1      -6.443  48.805 -20.346  1.00  0.00     0.007 C 
HETATM   10  C10 UNL     1      -4.925  48.889 -20.118  1.00  0.00     0.011 C 
HETATM   11  C11 UNL     1      -4.036  48.976 -21.409  1.00  0.00    -0.029 C 
HETATM   12  C12 UNL     1      -3.473  47.543 -21.671  1.00  0.00     0.016 C 
HETATM   13  C13 UNL     1      -4.903  49.474 -22.642  1.00  0.00     0.032 C 
HETATM   14  C14 UNL     1      -4.070  49.766 -23.933  1.00  0.00     0.124 C 
HETATM   15  C15 UNL     1      -2.854  50.680 -23.679  1.00  0.00     0.042 C 
HETATM   16  C16 UNL     1      -2.018  50.115 -22.541  1.00  0.00     0.029 C 
HETATM   17  C17 UNL     1      -0.800  50.775 -22.022  1.00  0.00    -0.033 C 
HETATM   18  C18 UNL     1      -0.082  51.870 -22.244  1.00  0.00     0.023 C 
HETATM   19  C25 UNL     1       0.712  52.035 -21.005  1.00  0.00     0.290 C 
HETATM   20  O5  UNL     1       1.516  52.927 -20.790  1.00  0.00    -0.260 OA
HETATM   21  O6  UNL     1       0.339  51.087 -20.086  1.00  0.00    -0.308 OA
HETATM   22  C26 UNL     1      -0.399  50.099 -20.773  1.00  0.00     0.163 C 
HETATM   23  C27 UNL     1      -1.731  49.644 -20.153  1.00  0.00     0.047 C 
HETATM   24  C28 UNL     1      -2.834  50.017 -21.206  1.00  0.00    -0.026 C 
HETATM   25  C29 UNL     1      -3.353  51.441 -20.769  1.00  0.00     0.016 C 
ENDROOT
BRANCH  18  26
HETATM   26  C19 UNL     1      -0.135  52.904 -23.310  1.00  0.00     0.049 C 
BRANCH  26  27
HETATM   27  C20 UNL     1       0.623  52.477 -24.575  1.00  0.00     0.032 C 
BRANCH  27  28
HETATM   28  C21 UNL     1       0.206  53.255 -25.793  1.00  0.00    -0.019 C 
HETATM   29  C22 UNL     1      -0.087  52.771 -27.020  1.00  0.00    -0.037 C 
BRANCH  29  30
HETATM   30  C23 UNL     1      -0.428  53.712 -28.144  1.00  0.00     0.200 C 
BRANCH  30  31
HETATM   31  O3  UNL     1      -1.838  53.875 -28.186  1.00  0.00    -0.397 OA
HETATM   32  H35 UNL     1      -2.017  54.556 -28.856  1.00  0.00     0.209 HD
ENDBRANCH  30  31
ENDBRANCH  29  30
BRANCH  29  33
HETATM   33  C24 UNL     1      -0.068  51.312 -27.385  1.00  0.00     0.200 C 
BRANCH  33  34
HETATM   34  O4  UNL     1      -1.169  50.653 -26.770  1.00  0.00    -0.397 OA
HETATM   35  H38 UNL     1      -1.167  50.915 -25.834  1.00  0.00     0.209 HD
ENDBRANCH  33  34
ENDBRANCH  29  33
ENDBRANCH  27  28
ENDBRANCH  26  27
ENDBRANCH  18  26
BRANCH  14  36
HETATM   36  O2  UNL     1      -3.604  48.555 -24.518  1.00  0.00    -0.395 OA
HETATM   37  H24 UNL     1      -3.172  48.775 -25.362  1.00  0.00     0.210 HD
ENDBRANCH  14  36
BRANCH   3  38
HETATM   38  O1  UNL     1      -7.504  45.239 -22.574  1.00  0.00    -0.395 OA
HETATM   39  H6  UNL     1      -7.542  44.638 -23.337  1.00  0.00     0.210 HD
ENDBRANCH   3  38
TORSDOF 9
ENDMDL
MODEL 7
REMARK minimizedAffinity -8.95002079
REMARK  9 active torsions:
REMARK  status: ('A' for Active; 'I' for Inactive)
REMARK    1  A    between atoms: C3_3  and  O1_4 
REMARK    2  A    between atoms: C14_15  and  O2_16 
REMARK    3  A    between atoms: C18_20  and  C19_21 
REMARK    4  A    between atoms: C19_21  and  C20_22 
REMARK    5  A    between atoms: C20_22  and  C21_23 
REMARK    6  A    between atoms: C22_24  and  C23_25 
REMARK    7  A    between atoms: C22_24  and  C24_27 
REMARK    8  A    between atoms: C23_25  and  O3_26 
REMARK    9  A    between atoms: C24_27  and  O4_28 
ROOT
HETATM    1  C1  UNL     1      -4.892  48.473 -26.009  1.00  0.00     0.013 C 
HETATM    2  C2  UNL     1      -5.135  48.139 -24.531  1.00  0.00     0.015 C 
HETATM    3  C3  UNL     1      -6.615  48.416 -24.164  1.00  0.00     0.122 C 
HETATM    4  C4  UNL     1      -6.923  48.206 -22.678  1.00  0.00     0.033 C 
HETATM    5  C5  UNL     1      -5.913  48.881 -21.733  1.00  0.00     0.012 C 
HETATM    6  C6  UNL     1      -4.437  48.548 -22.073  1.00  0.00    -0.033 C 
HETATM    7  C7  UNL     1      -4.247  47.009 -21.854  1.00  0.00     0.016 C 
HETATM    8  C8  UNL     1      -4.218  48.946 -23.572  1.00  0.00     0.000 C 
HETATM    9  C9  UNL     1      -2.728  48.979 -23.900  1.00  0.00     0.007 C 
HETATM   10  C10 UNL     1      -2.042  50.152 -23.180  1.00  0.00     0.011 C 
HETATM   11  C11 UNL     1      -2.573  50.486 -21.741  1.00  0.00    -0.029 C 
HETATM   12  C12 UNL     1      -3.533  51.710 -21.883  1.00  0.00     0.016 C 
HETATM   13  C13 UNL     1      -3.341  49.235 -21.134  1.00  0.00     0.032 C 
HETATM   14  C14 UNL     1      -3.754  49.403 -19.635  1.00  0.00     0.124 C 
HETATM   15  C15 UNL     1      -2.589  49.857 -18.731  1.00  0.00     0.042 C 
HETATM   16  C16 UNL     1      -1.939  51.101 -19.318  1.00  0.00     0.029 C 
HETATM   17  C17 UNL     1      -0.766  51.767 -18.712  1.00  0.00    -0.033 C 
HETATM   18  C18 UNL     1       0.043  51.619 -17.669  1.00  0.00     0.023 C 
HETATM   19  C25 UNL     1       1.236  52.420 -18.025  1.00  0.00     0.290 C 
HETATM   20  O5  UNL     1       2.230  52.560 -17.332  1.00  0.00    -0.260 OA
HETATM   21  O6  UNL     1       1.103  52.909 -19.300  1.00  0.00    -0.308 OA
HETATM   22  C26 UNL     1      -0.253  52.768 -19.668  1.00  0.00     0.163 C 
HETATM   23  C27 UNL     1      -0.558  52.156 -21.045  1.00  0.00     0.047 C 
HETATM   24  C28 UNL     1      -1.362  50.840 -20.752  1.00  0.00    -0.026 C 
HETATM   25  C29 UNL     1      -0.277  49.697 -20.713  1.00  0.00     0.016 C 
ENDROOT
BRANCH  18  26
HETATM   26  C19 UNL     1       0.002  50.717 -16.490  1.00  0.00     0.049 C 
BRANCH  26  27
HETATM   27  C20 UNL     1       0.783  51.283 -15.295  1.00  0.00     0.032 C 
BRANCH  27  28
HETATM   28  C21 UNL     1       1.709  50.274 -14.673  1.00  0.00    -0.019 C 
HETATM   29  C22 UNL     1       2.631  50.486 -13.709  1.00  0.00    -0.037 C 
BRANCH  29  30
HETATM   30  C23 UNL     1       3.518  49.360 -13.249  1.00  0.00     0.200 C 
BRANCH  30  31
HETATM   31  O3  UNL     1       4.869  49.717 -13.498  1.00  0.00    -0.397 OA
HETATM   32  H35 UNL     1       5.417  49.017 -13.106  1.00  0.00     0.209 HD
ENDBRANCH  30  31
ENDBRANCH  29  30
BRANCH  29  33
HETATM   33  C24 UNL     1       2.881  51.814 -13.048  1.00  0.00     0.200 C 
BRANCH  33  34
HETATM   34  O4  UNL     1       3.273  51.606 -11.697  1.00  0.00    -0.397 OA
HETATM   35  H38 UNL     1       2.631  50.988 -11.308  1.00  0.00     0.209 HD
ENDBRANCH  33  34
ENDBRANCH  29  33
ENDBRANCH  27  28
ENDBRANCH  26  27
ENDBRANCH  18  26
BRANCH  14  36
HETATM   36  O2  UNL     1      -4.812  50.347 -19.505  1.00  0.00    -0.395 OA
HETATM   37  H24 UNL     1      -5.097  50.352 -18.575  1.00  0.00     0.210 HD
ENDBRANCH  14  36
BRANCH   3  38
HETATM   38  O1  UNL     1      -6.948  49.762 -24.513  1.00  0.00    -0.395 OA
HETATM   39  H6  UNL     1      -7.876  49.913 -24.266  1.00  0.00     0.210 HD
ENDBRANCH   3  38
TORSDOF 9
ENDMDL
MODEL 8
REMARK minimizedAffinity -8.82839298
REMARK  9 active torsions:
REMARK  status: ('A' for Active; 'I' for Inactive)
REMARK    1  A    between atoms: C3_3  and  O1_4 
REMARK    2  A    between atoms: C14_15  and  O2_16 
REMARK    3  A    between atoms: C18_20  and  C19_21 
REMARK    4  A    between atoms: C19_21  and  C20_22 
REMARK    5  A    between atoms: C20_22  and  C21_23 
REMARK    6  A    between atoms: C22_24  and  C23_25 
REMARK    7  A    between atoms: C22_24  and  C24_27 
REMARK    8  A    between atoms: C23_25  and  O3_26 
REMARK    9  A    between atoms: C24_27  and  O4_28 
ROOT
HETATM    1  C1  UNL     1      -7.738  45.380 -17.990  1.00  0.00     0.013 C 
HETATM    2  C2  UNL     1      -6.233  45.424 -18.291  1.00  0.00     0.015 C 
HETATM    3  C3  UNL     1      -5.435  45.578 -16.971  1.00  0.00     0.122 C 
HETATM    4  C4  UNL     1      -3.926  45.732 -17.187  1.00  0.00     0.033 C 
HETATM    5  C5  UNL     1      -3.556  46.770 -18.260  1.00  0.00     0.012 C 
HETATM    6  C6  UNL     1      -4.315  46.570 -19.597  1.00  0.00    -0.033 C 
HETATM    7  C7  UNL     1      -3.867  45.189 -20.182  1.00  0.00     0.016 C 
HETATM    8  C8  UNL     1      -5.844  46.579 -19.252  1.00  0.00     0.000 C 
HETATM    9  C9  UNL     1      -6.673  46.733 -20.525  1.00  0.00     0.007 C 
HETATM   10  C10 UNL     1      -6.496  48.140 -21.118  1.00  0.00     0.011 C 
HETATM   11  C11 UNL     1      -5.063  48.769 -20.991  1.00  0.00    -0.029 C 
HETATM   12  C12 UNL     1      -5.107  49.762 -19.787  1.00  0.00     0.016 C 
HETATM   13  C13 UNL     1      -3.982  47.632 -20.744  1.00  0.00     0.032 C 
HETATM   14  C14 UNL     1      -2.503  48.135 -20.783  1.00  0.00     0.124 C 
HETATM   15  C15 UNL     1      -2.178  48.974 -22.035  1.00  0.00     0.042 C 
HETATM   16  C16 UNL     1      -3.197  50.094 -22.181  1.00  0.00     0.029 C 
HETATM   17  C17 UNL     1      -3.192  51.057 -23.304  1.00  0.00    -0.033 C 
HETATM   18  C18 UNL     1      -2.492  51.309 -24.404  1.00  0.00     0.023 C 
HETATM   19  C25 UNL     1      -3.400  52.145 -25.222  1.00  0.00     0.290 C 
HETATM   20  O5  UNL     1      -3.144  52.604 -26.323  1.00  0.00    -0.260 OA
HETATM   21  O6  UNL     1      -4.618  52.251 -24.600  1.00  0.00    -0.308 OA
HETATM   22  C26 UNL     1      -4.451  51.827 -23.264  1.00  0.00     0.163 C 
HETATM   23  C27 UNL     1      -5.477  50.831 -22.698  1.00  0.00     0.047 C 
HETATM   24  C28 UNL     1      -4.657  49.542 -22.335  1.00  0.00    -0.026 C 
HETATM   25  C29 UNL     1      -4.767  48.616 -23.607  1.00  0.00     0.016 C 
ENDROOT
BRANCH  18  26
HETATM   26  C19 UNL     1      -1.215  50.759 -24.928  1.00  0.00     0.049 C 
BRANCH  26  27
HETATM   27  C20 UNL     1      -0.065  51.773 -24.841  1.00  0.00     0.032 C 
BRANCH  27  28
HETATM   28  C21 UNL     1       0.965  51.579 -25.920  1.00  0.00    -0.019 C 
HETATM   29  C22 UNL     1       1.055  52.230 -27.099  1.00  0.00    -0.037 C 
BRANCH  29  30
HETATM   30  C23 UNL     1       2.125  51.858 -28.091  1.00  0.00     0.200 C 
BRANCH  30  31
HETATM   31  O3  UNL     1       3.301  51.505 -27.378  1.00  0.00    -0.397 OA
HETATM   32  H35 UNL     1       3.937  51.181 -28.037  1.00  0.00     0.209 HD
ENDBRANCH  30  31
ENDBRANCH  29  30
BRANCH  29  33
HETATM   33  C24 UNL     1       0.120  53.322 -27.542  1.00  0.00     0.200 C 
BRANCH  33  34
HETATM   34  O4  UNL     1      -0.968  52.754 -28.261  1.00  0.00    -0.397 OA
HETATM   35  H38 UNL     1      -0.587  52.150 -28.920  1.00  0.00     0.209 HD
ENDBRANCH  33  34
ENDBRANCH  29  33
ENDBRANCH  27  28
ENDBRANCH  26  27
ENDBRANCH  18  26
BRANCH  14  36
HETATM   36  O2  UNL     1      -2.206  48.920 -19.632  1.00  0.00    -0.395 OA
HETATM   37  H24 UNL     1      -1.257  49.134 -19.651  1.00  0.00     0.210 HD
ENDBRANCH  14  36
BRANCH   3  38
HETATM   38  O1  UNL     1      -5.914  46.720 -16.256  1.00  0.00    -0.395 OA
HETATM   39  H6  UNL     1      -5.394  46.799 -15.439  1.00  0.00     0.210 HD
ENDBRANCH   3  38
TORSDOF 9
ENDMDL
MODEL 9
REMARK minimizedAffinity -8.79801464
REMARK  9 active torsions:
REMARK  status: ('A' for Active; 'I' for Inactive)
REMARK    1  A    between atoms: C3_3  and  O1_4 
REMARK    2  A    between atoms: C14_15  and  O2_16 
REMARK    3  A    between atoms: C18_20  and  C19_21 
REMARK    4  A    between atoms: C19_21  and  C20_22 
REMARK    5  A    between atoms: C20_22  and  C21_23 
REMARK    6  A    between atoms: C22_24  and  C23_25 
REMARK    7  A    between atoms: C22_24  and  C24_27 
REMARK    8  A    between atoms: C23_25  and  O3_26 
REMARK    9  A    between atoms: C24_27  and  O4_28 
ROOT
HETATM    1  C1  UNL     1      -1.873  50.159 -17.657  1.00  0.00     0.013 C 
HETATM    2  C2  UNL     1      -1.439  49.746 -19.071  1.00  0.00     0.015 C 
HETATM    3  C3  UNL     1      -0.451  50.792 -19.647  1.00  0.00     0.122 C 
HETATM    4  C4  UNL     1      -0.045  50.511 -21.097  1.00  0.00     0.033 C 
HETATM    5  C5  UNL     1      -1.233  50.203 -22.026  1.00  0.00     0.012 C 
HETATM    6  C6  UNL     1      -2.182  49.112 -21.468  1.00  0.00    -0.033 C 
HETATM    7  C7  UNL     1      -1.361  47.781 -21.387  1.00  0.00     0.016 C 
HETATM    8  C8  UNL     1      -2.637  49.593 -20.048  1.00  0.00     0.000 C 
HETATM    9  C9  UNL     1      -3.827  48.769 -19.565  1.00  0.00     0.007 C 
HETATM   10  C10 UNL     1      -5.079  49.085 -20.398  1.00  0.00     0.011 C 
HETATM   11  C11 UNL     1      -4.840  49.365 -21.924  1.00  0.00    -0.029 C 
HETATM   12  C12 UNL     1      -4.862  50.916 -22.111  1.00  0.00     0.016 C 
HETATM   13  C13 UNL     1      -3.444  48.763 -22.384  1.00  0.00     0.032 C 
HETATM   14  C14 UNL     1      -3.194  48.831 -23.925  1.00  0.00     0.124 C 
HETATM   15  C15 UNL     1      -4.364  48.269 -24.757  1.00  0.00     0.042 C 
HETATM   16  C16 UNL     1      -5.663  48.935 -24.331  1.00  0.00     0.029 C 
HETATM   17  C17 UNL     1      -6.981  48.591 -24.908  1.00  0.00    -0.033 C 
HETATM   18  C18 UNL     1      -7.494  47.762 -25.810  1.00  0.00     0.023 C 
HETATM   19  C25 UNL     1      -8.934  47.709 -25.469  1.00  0.00     0.290 C 
HETATM   20  O5  UNL     1      -9.780  47.058 -26.058  1.00  0.00    -0.260 OA
HETATM   21  O6  UNL     1      -9.165  48.429 -24.324  1.00  0.00    -0.308 OA
HETATM   22  C26 UNL     1      -8.030  49.235 -24.093  1.00  0.00     0.163 C 
HETATM   23  C27 UNL     1      -7.440  49.246 -22.672  1.00  0.00     0.047 C 
HETATM   24  C28 UNL     1      -5.983  48.682 -22.817  1.00  0.00    -0.026 C 
HETATM   25  C29 UNL     1      -6.111  47.136 -22.530  1.00  0.00     0.016 C 
ENDROOT
BRANCH  18  26
HETATM   26  C19 UNL     1      -6.870  46.856 -26.808  1.00  0.00     0.049 C 
BRANCH  26  27
HETATM   27  C20 UNL     1      -6.198  47.625 -27.954  1.00  0.00     0.032 C 
BRANCH  27  28
HETATM   28  C21 UNL     1      -7.183  48.120 -28.978  1.00  0.00    -0.019 C 
HETATM   29  C22 UNL     1      -6.936  48.463 -30.261  1.00  0.00    -0.037 C 
BRANCH  29  30
HETATM   30  C23 UNL     1      -8.042  49.000 -31.129  1.00  0.00     0.200 C 
BRANCH  30  31
HETATM   31  O3  UNL     1      -8.686  50.059 -30.437  1.00  0.00    -0.397 OA
HETATM   32  H35 UNL     1      -9.328  50.444 -31.057  1.00  0.00     0.209 HD
ENDBRANCH  30  31
ENDBRANCH  29  30
BRANCH  29  33
HETATM   33  C24 UNL     1      -5.585  48.381 -30.918  1.00  0.00     0.200 C 
BRANCH  33  34
HETATM   34  O4  UNL     1      -4.844  49.561 -30.632  1.00  0.00    -0.397 OA
HETATM   35  H38 UNL     1      -5.428  50.314 -30.823  1.00  0.00     0.209 HD
ENDBRANCH  33  34
ENDBRANCH  29  33
ENDBRANCH  27  28
ENDBRANCH  26  27
ENDBRANCH  18  26
BRANCH  14  36
HETATM   36  O2  UNL     1      -2.956  50.172 -24.339  1.00  0.00    -0.395 OA
HETATM   37  H24 UNL     1      -2.716  50.158 -25.282  1.00  0.00     0.210 HD
ENDBRANCH  14  36
BRANCH   3  38
HETATM   38  O1  UNL     1      -1.043  52.092 -19.581  1.00  0.00    -0.395 OA
HETATM   39  H6  UNL     1      -0.408  52.727 -19.955  1.00  0.00     0.210 HD
ENDBRANCH   3  38
TORSDOF 9
ENDMDL
