MODEL 1
REMARK minimizedAffinity -9.50134182
REMARK CNNscore 0.690366149
REMARK CNNaffinity 7.39423037
REMARK  13 active torsions:
REMARK  status: ('A' for Active; 'I' for Inactive)
REMARK    1  A    between atoms: C14_15  and  O2_16 
REMARK    2  A    between atoms: C14_15  and  C15_17 
REMARK    3  A    between atoms: C15_17  and  C16_19 
REMARK    4  A    between atoms: C16_19  and  O4_20 
REMARK    5  A    between atoms: O4_20  and  C17_21 
REMARK    6  A    between atoms: C17_21  and  C18_23 
REMARK    7  A    between atoms: C18_23  and  C19_24 
REMARK    8  A    between atoms: C19_24  and  C20_25 
REMARK       I    between atoms: C20_25  and  N1_27 
REMARK    9  A    between atoms: N1_27  and  C21_28 
REMARK   10  A    between atoms: C21_28  and  C22_29 
REMARK   11  A    between atoms: C22_29  and  C23_30 
REMARK   12  A    between atoms: C26_33  and  O7_34 
REMARK   13  A    between atoms: C27_35  and  O8_36 
ROOT
HETATM    1  C15 UNL     1      -2.198   8.052  13.467  1.00  0.00     0.185 C 
HETATM    2  O3  UNL     1      -3.275   7.746  12.944  1.00  0.00    -0.292 OA
ENDROOT
BRANCH   1   3
HETATM    3  C14 UNL     1      -1.016   7.043  13.551  1.00  0.00     0.128 C 
HETATM    4  C13 UNL     1      -1.495   5.662  13.056  1.00  0.00     0.047 C 
HETATM    5  C12 UNL     1      -0.978   5.506  11.624  1.00  0.00     0.009 C 
HETATM    6  C11 UNL     1      -0.331   6.851  11.243  1.00  0.00     0.002 C 
HETATM    7  C10 UNL     1       0.706   6.697  10.114  1.00  0.00     0.003 C 
HETATM    8  C29 UNL     1       0.171   7.399  12.592  1.00  0.00     0.005 C 
HETATM    9  C9  UNL     1       0.747   7.940   9.201  1.00  0.00     0.010 C 
HETATM   10  C33 UNL     1       2.129   6.220  10.550  1.00  0.00     0.072 C 
HETATM   11  C8  UNL     1       1.564   7.694   7.921  1.00  0.00     0.035 C 
HETATM   12  C7  UNL     1       2.533   6.549   8.101  1.00  0.00    -0.067 C 
HETATM   13  C2  UNL     1       3.239   6.507   9.459  1.00  0.00    -0.009 C 
HETATM   14  C6  UNL     1       2.648   5.596   7.160  1.00  0.00     0.053 C 
HETATM   15  C1  UNL     1       3.982   7.859   9.654  1.00  0.00     0.021 C 
HETATM   16  C3  UNL     1       4.342   5.410   9.466  1.00  0.00     0.022 C 
HETATM   17  C4  UNL     1       3.924   4.105   8.805  1.00  0.00     0.084 C 
HETATM   18  C5  UNL     1       3.418   4.355   7.407  1.00  0.00     0.149 C 
HETATM   19  O1  UNL     1       3.539   3.531   6.505  1.00  0.00    -0.293 OA
HETATM   20  C32 UNL     1       2.520   6.664  11.962  1.00  0.00     0.133 C 
HETATM   21  C31 UNL     1       1.451   6.661  13.028  1.00  0.00     0.091 C 
HETATM   22  O9  UNL     1       3.689   6.866  12.294  1.00  0.00    -0.297 OA
HETATM   23  C30 UNL     1       0.462   8.907  12.551  1.00  0.00     0.019 C 
BRANCH   3  24
HETATM   24  O2  UNL     1      -0.549   6.923  14.889  1.00  0.00    -0.381 OA
HETATM   25  H19 UNL     1      -1.187   6.379  15.390  1.00  0.00     0.211 HD
ENDBRANCH   3  24
ENDBRANCH   1   3
BRANCH   1  26
HETATM   26  C16 UNL     1      -1.961   9.460  14.021  1.00  0.00     0.260 C 
BRANCH  26  27
HETATM   27  O4  UNL     1      -1.740   9.461  15.433  1.00  0.00    -0.314 OA
BRANCH  27  28
HETATM   28  C17 UNL     1      -2.849   9.121  16.153  1.00  0.00     0.259 C 
HETATM   29  O5  UNL     1      -2.890   8.219  16.981  1.00  0.00    -0.265 OA
BRANCH  28  30
HETATM   30  C18 UNL     1      -4.003  10.009  15.759  1.00  0.00     0.120 C 
BRANCH  30  31
HETATM   31  C19 UNL     1      -5.329   9.423  16.224  1.00  0.00     0.112 C 
BRANCH  31  32
HETATM   32  C20 UNL     1      -5.841   8.357  15.276  1.00  0.00     0.218 C 
HETATM   33  O6  UNL     1      -6.211   8.592  14.133  1.00  0.00    -0.274 OA
HETATM   34  N1  UNL     1      -5.794   7.091  15.819  1.00  0.00    -0.361 N 
HETATM   35  H26 UNL     1      -5.582   6.985  16.803  1.00  0.00     0.162 HD
BRANCH  34  36
HETATM   36  C21 UNL     1      -6.294   5.935  15.099  1.00  0.00     0.127 C 
BRANCH  36  37
HETATM   37  C22 UNL     1      -5.622   5.775  13.734  1.00  0.00     0.058 C 
BRANCH  37  38
HETATM   38  C23 UNL     1      -5.922   4.432  13.117  1.00  0.00    -0.054 A 
HETATM   39  C24 UNL     1      -7.145   3.788  13.377  1.00  0.00     0.010 A 
HETATM   40  C25 UNL     1      -7.441   2.551  12.794  1.00  0.00     0.040 A 
HETATM   41  C26 UNL     1      -6.511   1.963  11.945  1.00  0.00     0.098 A 
HETATM   42  C27 UNL     1      -5.300   2.599  11.679  1.00  0.00     0.099 A 
HETATM   43  C28 UNL     1      -4.998   3.826  12.254  1.00  0.00     0.046 A 
BRANCH  41  44
HETATM   44  O7  UNL     1      -6.741   0.756  11.346  1.00  0.00    -0.358 OA
HETATM   45  H33 UNL     1      -7.613   0.438  11.637  1.00  0.00     0.217 HD
ENDBRANCH  41  44
BRANCH  42  46
HETATM   46  O8  UNL     1      -4.394   2.017  10.838  1.00  0.00    -0.358 OA
HETATM   47  H34 UNL     1      -4.821   1.180  10.566  1.00  0.00     0.217 HD
ENDBRANCH  42  46
ENDBRANCH  37  38
ENDBRANCH  36  37
ENDBRANCH  34  36
ENDBRANCH  31  32
ENDBRANCH  30  31
ENDBRANCH  28  30
ENDBRANCH  27  28
ENDBRANCH  26  27
ENDBRANCH   1  26
TORSDOF 13
ENDMDL
MODEL 2
REMARK minimizedAffinity -10.3352623
REMARK CNNscore 0.686520636
REMARK CNNaffinity 7.47304344
REMARK  13 active torsions:
REMARK  status: ('A' for Active; 'I' for Inactive)
REMARK    1  A    between atoms: C14_15  and  O2_16 
REMARK    2  A    between atoms: C14_15  and  C15_17 
REMARK    3  A    between atoms: C15_17  and  C16_19 
REMARK    4  A    between atoms: C16_19  and  O4_20 
REMARK    5  A    between atoms: O4_20  and  C17_21 
REMARK    6  A    between atoms: C17_21  and  C18_23 
REMARK    7  A    between atoms: C18_23  and  C19_24 
REMARK    8  A    between atoms: C19_24  and  C20_25 
REMARK       I    between atoms: C20_25  and  N1_27 
REMARK    9  A    between atoms: N1_27  and  C21_28 
REMARK   10  A    between atoms: C21_28  and  C22_29 
REMARK   11  A    between atoms: C22_29  and  C23_30 
REMARK   12  A    between atoms: C26_33  and  O7_34 
REMARK   13  A    between atoms: C27_35  and  O8_36 
ROOT
HETATM    1  C15 UNL     1      -2.145   8.431  13.642  1.00  0.00     0.185 C 
HETATM    2  O3  UNL     1      -2.332   9.089  12.613  1.00  0.00    -0.292 OA
ENDROOT
BRANCH   1   3
HETATM    3  C14 UNL     1      -1.012   7.369  13.737  1.00  0.00     0.128 C 
HETATM    4  C13 UNL     1      -1.546   6.015  13.224  1.00  0.00     0.047 C 
HETATM    5  C12 UNL     1      -1.014   5.845  11.799  1.00  0.00     0.009 C 
HETATM    6  C11 UNL     1      -0.300   7.161  11.439  1.00  0.00     0.002 C 
HETATM    7  C10 UNL     1       0.747   6.967  10.325  1.00  0.00     0.003 C 
HETATM    8  C29 UNL     1       0.205   7.676  12.800  1.00  0.00     0.005 C 
HETATM    9  C9  UNL     1       0.859   8.214   9.422  1.00  0.00     0.010 C 
HETATM   10  C33 UNL     1       2.139   6.423  10.779  1.00  0.00     0.072 C 
HETATM   11  C8  UNL     1       1.684   7.939   8.153  1.00  0.00     0.035 C 
HETATM   12  C7  UNL     1       2.597   6.750   8.339  1.00  0.00    -0.067 C 
HETATM   13  C2  UNL     1       3.278   6.667   9.708  1.00  0.00    -0.009 C 
HETATM   14  C6  UNL     1       2.683   5.800   7.393  1.00  0.00     0.053 C 
HETATM   15  C1  UNL     1       4.079   7.981   9.924  1.00  0.00     0.021 C 
HETATM   16  C3  UNL     1       4.329   5.519   9.723  1.00  0.00     0.022 C 
HETATM   17  C4  UNL     1       3.862   4.240   9.046  1.00  0.00     0.084 C 
HETATM   18  C5  UNL     1       3.390   4.523   7.642  1.00  0.00     0.149 C 
HETATM   19  O1  UNL     1       3.488   3.700   6.736  1.00  0.00    -0.293 OA
HETATM   20  C32 UNL     1       2.527   6.838  12.201  1.00  0.00     0.133 C 
HETATM   21  C31 UNL     1       1.443   6.877  13.250  1.00  0.00     0.091 C 
HETATM   22  O9  UNL     1       3.700   6.985  12.552  1.00  0.00    -0.297 OA
HETATM   23  C30 UNL     1       0.566   9.170  12.775  1.00  0.00     0.019 C 
BRANCH   3  24
HETATM   24  O2  UNL     1      -0.572   7.219  15.081  1.00  0.00    -0.381 OA
HETATM   25  H19 UNL     1      -1.243   6.701  15.568  1.00  0.00     0.211 HD
ENDBRANCH   3  24
ENDBRANCH   1   3
BRANCH   1  26
HETATM   26  C16 UNL     1      -2.998   8.663  14.894  1.00  0.00     0.260 C 
BRANCH  26  27
HETATM   27  O4  UNL     1      -4.220   9.345  14.604  1.00  0.00    -0.314 OA
BRANCH  27  28
HETATM   28  C17 UNL     1      -5.240   8.503  14.264  1.00  0.00     0.259 C 
HETATM   29  O5  UNL     1      -5.458   8.100  13.129  1.00  0.00    -0.265 OA
BRANCH  28  30
HETATM   30  C18 UNL     1      -6.052   8.168  15.490  1.00  0.00     0.120 C 
BRANCH  30  31
HETATM   31  C19 UNL     1      -7.536   8.409  15.246  1.00  0.00     0.112 C 
BRANCH  31  32
HETATM   32  C20 UNL     1      -8.282   7.117  14.978  1.00  0.00     0.218 C 
HETATM   33  O6  UNL     1      -9.080   6.623  15.765  1.00  0.00    -0.274 OA
HETATM   34  N1  UNL     1      -8.008   6.589  13.735  1.00  0.00    -0.361 N 
HETATM   35  H26 UNL     1      -7.258   6.989  13.185  1.00  0.00     0.162 HD
BRANCH  34  36
HETATM   36  C21 UNL     1      -8.573   5.323  13.304  1.00  0.00     0.127 C 
BRANCH  36  37
HETATM   37  C22 UNL     1      -7.822   4.129  13.896  1.00  0.00     0.058 C 
BRANCH  37  38
HETATM   38  C23 UNL     1      -6.648   3.726  13.038  1.00  0.00    -0.054 A 
HETATM   39  C24 UNL     1      -5.491   4.524  12.999  1.00  0.00     0.010 A 
HETATM   40  C25 UNL     1      -4.390   4.149  12.222  1.00  0.00     0.040 A 
HETATM   41  C26 UNL     1      -4.448   2.970  11.488  1.00  0.00     0.098 A 
HETATM   42  C27 UNL     1      -5.590   2.173  11.528  1.00  0.00     0.099 A 
HETATM   43  C28 UNL     1      -6.688   2.538  12.295  1.00  0.00     0.046 A 
BRANCH  41  44
HETATM   44  O7  UNL     1      -3.406   2.550  10.709  1.00  0.00    -0.358 OA
HETATM   45  H33 UNL     1      -2.696   3.213  10.777  1.00  0.00     0.217 HD
ENDBRANCH  41  44
BRANCH  42  46
HETATM   46  O8  UNL     1      -5.637   1.012  10.809  1.00  0.00    -0.358 OA
HETATM   47  H34 UNL     1      -4.769   0.972  10.359  1.00  0.00     0.217 HD
ENDBRANCH  42  46
ENDBRANCH  37  38
ENDBRANCH  36  37
ENDBRANCH  34  36
ENDBRANCH  31  32
ENDBRANCH  30  31
ENDBRANCH  28  30
ENDBRANCH  27  28
ENDBRANCH  26  27
ENDBRANCH   1  26
TORSDOF 13
ENDMDL
MODEL 3
REMARK minimizedAffinity -9.6283226
REMARK CNNscore 0.670398355
REMARK CNNaffinity 7.34777021
REMARK  13 active torsions:
REMARK  status: ('A' for Active; 'I' for Inactive)
REMARK    1  A    between atoms: C14_15  and  O2_16 
REMARK    2  A    between atoms: C14_15  and  C15_17 
REMARK    3  A    between atoms: C15_17  and  C16_19 
REMARK    4  A    between atoms: C16_19  and  O4_20 
REMARK    5  A    between atoms: O4_20  and  C17_21 
REMARK    6  A    between atoms: C17_21  and  C18_23 
REMARK    7  A    between atoms: C18_23  and  C19_24 
REMARK    8  A    between atoms: C19_24  and  C20_25 
REMARK       I    between atoms: C20_25  and  N1_27 
REMARK    9  A    between atoms: N1_27  and  C21_28 
REMARK   10  A    between atoms: C21_28  and  C22_29 
REMARK   11  A    between atoms: C22_29  and  C23_30 
REMARK   12  A    between atoms: C26_33  and  O7_34 
REMARK   13  A    between atoms: C27_35  and  O8_36 
ROOT
HETATM    1  C15 UNL     1      -3.059   7.747  14.060  1.00  0.00     0.185 C 
HETATM    2  O3  UNL     1      -3.008   8.909  13.645  1.00  0.00    -0.292 OA
ENDROOT
BRANCH   1   3
HETATM    3  C14 UNL     1      -1.784   6.861  14.164  1.00  0.00     0.128 C 
HETATM    4  C13 UNL     1      -2.082   5.476  13.552  1.00  0.00     0.047 C 
HETATM    5  C12 UNL     1      -1.461   5.473  12.153  1.00  0.00     0.009 C 
HETATM    6  C11 UNL     1      -0.938   6.899  11.903  1.00  0.00     0.002 C 
HETATM    7  C10 UNL     1       0.179   6.931  10.842  1.00  0.00     0.003 C 
HETATM    8  C29 UNL     1      -0.584   7.401  13.315  1.00  0.00     0.005 C 
HETATM    9  C9  UNL     1       0.145   8.232  10.013  1.00  0.00     0.010 C 
HETATM   10  C33 UNL     1       1.614   6.573  11.346  1.00  0.00     0.072 C 
HETATM   11  C8  UNL     1       1.063   8.159   8.781  1.00  0.00     0.035 C 
HETATM   12  C7  UNL     1       2.135   7.110   8.956  1.00  0.00    -0.067 C 
HETATM   13  C2  UNL     1       2.753   7.047  10.356  1.00  0.00    -0.009 C 
HETATM   14  C6  UNL     1       2.410   6.241   7.969  1.00  0.00     0.053 C 
HETATM   15  C1  UNL     1       3.334   8.451  10.685  1.00  0.00     0.021 C 
HETATM   16  C3  UNL     1       3.964   6.069  10.372  1.00  0.00     0.022 C 
HETATM   17  C4  UNL     1       3.731   4.778   9.603  1.00  0.00     0.084 C 
HETATM   18  C5  UNL     1       3.290   5.071   8.191  1.00  0.00     0.149 C 
HETATM   19  O1  UNL     1       3.556   4.328   7.250  1.00  0.00    -0.293 OA
HETATM   20  C32 UNL     1       1.865   6.955  12.807  1.00  0.00     0.133 C 
HETATM   21  C31 UNL     1       0.738   6.770  13.793  1.00  0.00     0.091 C 
HETATM   22  O9  UNL     1       2.983   7.253  13.232  1.00  0.00    -0.297 OA
HETATM   23  C30 UNL     1      -0.453   8.931  13.389  1.00  0.00     0.019 C 
BRANCH   3  24
HETATM   24  O2  UNL     1      -1.393   6.697  15.522  1.00  0.00    -0.381 OA
HETATM   25  H19 UNL     1      -2.000   6.057  15.942  1.00  0.00     0.211 HD
ENDBRANCH   3  24
ENDBRANCH   1   3
BRANCH   1  26
HETATM   26  C16 UNL     1      -4.381   7.134  14.535  1.00  0.00     0.260 C 
BRANCH  26  27
HETATM   27  O4  UNL     1      -5.154   6.602  13.457  1.00  0.00    -0.314 OA
BRANCH  27  28
HETATM   28  C17 UNL     1      -6.304   5.992  13.868  1.00  0.00     0.259 C 
HETATM   29  O5  UNL     1      -7.154   5.533  13.115  1.00  0.00    -0.265 OA
BRANCH  28  30
HETATM   30  C18 UNL     1      -6.367   5.989  15.375  1.00  0.00     0.120 C 
BRANCH  30  31
HETATM   31  C19 UNL     1      -7.730   5.520  15.866  1.00  0.00     0.112 C 
BRANCH  31  32
HETATM   32  C20 UNL     1      -8.772   6.618  15.777  1.00  0.00     0.218 C 
HETATM   33  O6  UNL     1      -8.780   7.601  16.508  1.00  0.00    -0.274 OA
HETATM   34  N1  UNL     1      -9.673   6.420  14.754  1.00  0.00    -0.361 N 
HETATM   35  H26 UNL     1      -9.673   5.534  14.263  1.00  0.00     0.162 HD
BRANCH  34  36
HETATM   36  C21 UNL     1     -10.787   7.324  14.533  1.00  0.00     0.127 C 
BRANCH  36  37
HETATM   37  C22 UNL     1     -11.861   6.703  13.639  1.00  0.00     0.058 C 
BRANCH  37  38
HETATM   38  C23 UNL     1     -12.873   7.727  13.189  1.00  0.00    -0.054 A 
HETATM   39  C24 UNL     1     -14.223   7.368  13.026  1.00  0.00     0.010 A 
HETATM   40  C25 UNL     1     -15.172   8.315  12.628  1.00  0.00     0.040 A 
HETATM   41  C26 UNL     1     -14.767   9.625  12.398  1.00  0.00     0.098 A 
HETATM   42  C27 UNL     1     -13.432   9.987  12.563  1.00  0.00     0.099 A 
HETATM   43  C28 UNL     1     -12.483   9.054  12.957  1.00  0.00     0.046 A 
BRANCH  41  44
HETATM   44  O7  UNL     1     -15.646  10.596  12.006  1.00  0.00    -0.358 OA
HETATM   45  H33 UNL     1     -16.526  10.188  11.923  1.00  0.00     0.217 HD
ENDBRANCH  41  44
BRANCH  42  46
HETATM   46  O8  UNL     1     -13.043  11.278  12.341  1.00  0.00    -0.358 OA
HETATM   47  H34 UNL     1     -13.867  11.736  12.079  1.00  0.00     0.217 HD
ENDBRANCH  42  46
ENDBRANCH  37  38
ENDBRANCH  36  37
ENDBRANCH  34  36
ENDBRANCH  31  32
ENDBRANCH  30  31
ENDBRANCH  28  30
ENDBRANCH  27  28
ENDBRANCH  26  27
ENDBRANCH   1  26
TORSDOF 13
ENDMDL
MODEL 4
REMARK minimizedAffinity -8.87940407
REMARK CNNscore 0.466523826
REMARK CNNaffinity 6.57472467
REMARK  13 active torsions:
REMARK  status: ('A' for Active; 'I' for Inactive)
REMARK    1  A    between atoms: C14_15  and  O2_16 
REMARK    2  A    between atoms: C14_15  and  C15_17 
REMARK    3  A    between atoms: C15_17  and  C16_19 
REMARK    4  A    between atoms: C16_19  and  O4_20 
REMARK    5  A    between atoms: O4_20  and  C17_21 
REMARK    6  A    between atoms: C17_21  and  C18_23 
REMARK    7  A    between atoms: C18_23  and  C19_24 
REMARK    8  A    between atoms: C19_24  and  C20_25 
REMARK       I    between atoms: C20_25  and  N1_27 
REMARK    9  A    between atoms: N1_27  and  C21_28 
REMARK   10  A    between atoms: C21_28  and  C22_29 
REMARK   11  A    between atoms: C22_29  and  C23_30 
REMARK   12  A    between atoms: C26_33  and  O7_34 
REMARK   13  A    between atoms: C27_35  and  O8_36 
ROOT
HETATM    1  C15 UNL     1      -3.017   7.712  14.112  1.00  0.00     0.185 C 
HETATM    2  O3  UNL     1      -3.388   8.221  13.049  1.00  0.00    -0.292 OA
ENDROOT
BRANCH   1   3
HETATM    3  C14 UNL     1      -1.754   6.806  14.185  1.00  0.00     0.128 C 
HETATM    4  C13 UNL     1      -2.074   5.441  13.540  1.00  0.00     0.047 C 
HETATM    5  C12 UNL     1      -1.462   5.465  12.137  1.00  0.00     0.009 C 
HETATM    6  C11 UNL     1      -0.920   6.890  11.921  1.00  0.00     0.002 C 
HETATM    7  C10 UNL     1       0.191   6.933  10.854  1.00  0.00     0.003 C 
HETATM    8  C29 UNL     1      -0.551   7.351  13.344  1.00  0.00     0.005 C 
HETATM    9  C9  UNL     1       0.171   8.255  10.059  1.00  0.00     0.010 C 
HETATM   10  C33 UNL     1       1.624   6.543  11.340  1.00  0.00     0.072 C 
HETATM   11  C8  UNL     1       1.081   8.202   8.820  1.00  0.00     0.035 C 
HETATM   12  C7  UNL     1       2.139   7.133   8.962  1.00  0.00    -0.067 C 
HETATM   13  C2  UNL     1       2.764   7.026  10.355  1.00  0.00    -0.009 C 
HETATM   14  C6  UNL     1       2.396   6.287   7.950  1.00  0.00     0.053 C 
HETATM   15  C1  UNL     1       3.367   8.412  10.717  1.00  0.00     0.021 C 
HETATM   16  C3  UNL     1       3.961   6.031  10.339  1.00  0.00     0.022 C 
HETATM   17  C4  UNL     1       3.705   4.763   9.539  1.00  0.00     0.084 C 
HETATM   18  C5  UNL     1       3.260   5.099   8.137  1.00  0.00     0.149 C 
HETATM   19  O1  UNL     1       3.510   4.377   7.176  1.00  0.00    -0.293 OA
HETATM   20  C32 UNL     1       1.889   6.884  12.809  1.00  0.00     0.133 C 
HETATM   21  C31 UNL     1       0.765   6.689  13.797  1.00  0.00     0.091 C 
HETATM   22  O9  UNL     1       3.013   7.154  13.235  1.00  0.00    -0.297 OA
HETATM   23  C30 UNL     1      -0.397   8.876  13.455  1.00  0.00     0.019 C 
BRANCH   3  24
HETATM   24  O2  UNL     1      -1.357   6.602  15.536  1.00  0.00    -0.381 OA
HETATM   25  H19 UNL     1      -1.970   5.960  15.943  1.00  0.00     0.211 HD
ENDBRANCH   3  24
ENDBRANCH   1   3
BRANCH   1  26
HETATM   26  C16 UNL     1      -3.762   7.985  15.422  1.00  0.00     0.260 C 
BRANCH  26  27
HETATM   27  O4  UNL     1      -2.994   8.773  16.334  1.00  0.00    -0.314 OA
BRANCH  27  28
HETATM   28  C17 UNL     1      -3.357  10.089  16.348  1.00  0.00     0.259 C 
HETATM   29  O5  UNL     1      -4.306  10.554  15.730  1.00  0.00    -0.265 OA
BRANCH  28  30
HETATM   30  C18 UNL     1      -2.405  10.869  17.220  1.00  0.00     0.120 C 
BRANCH  30  31
HETATM   31  C19 UNL     1      -2.971  11.051  18.622  1.00  0.00     0.112 C 
BRANCH  31  32
HETATM   32  C20 UNL     1      -3.392  12.484  18.881  1.00  0.00     0.218 C 
HETATM   33  O6  UNL     1      -2.751  13.456  18.499  1.00  0.00    -0.274 OA
HETATM   34  N1  UNL     1      -4.598  12.576  19.542  1.00  0.00    -0.361 N 
HETATM   35  H26 UNL     1      -5.016  11.737  19.922  1.00  0.00     0.162 HD
BRANCH  34  36
HETATM   36  C21 UNL     1      -5.152  13.857  19.939  1.00  0.00     0.127 C 
BRANCH  36  37
HETATM   37  C22 UNL     1      -6.666  13.918  19.726  1.00  0.00     0.058 C 
BRANCH  37  38
HETATM   38  C23 UNL     1      -7.421  13.443  20.942  1.00  0.00    -0.054 A 
HETATM   39  C24 UNL     1      -6.811  13.463  22.209  1.00  0.00     0.010 A 
HETATM   40  C25 UNL     1      -7.510  13.043  23.346  1.00  0.00     0.040 A 
HETATM   41  C26 UNL     1      -8.823  12.609  23.212  1.00  0.00     0.098 A 
HETATM   42  C27 UNL     1      -9.435  12.593  21.960  1.00  0.00     0.099 A 
HETATM   43  C28 UNL     1      -8.749  13.006  20.826  1.00  0.00     0.046 A 
BRANCH  41  44
HETATM   44  O7  UNL     1      -9.559  12.185  24.284  1.00  0.00    -0.358 OA
HETATM   45  H33 UNL     1      -8.995  12.244  25.075  1.00  0.00     0.217 HD
ENDBRANCH  41  44
BRANCH  42  46
HETATM   46  O8  UNL     1     -10.728  12.171  21.838  1.00  0.00    -0.358 OA
HETATM   47  H34 UNL     1     -10.992  11.935  22.749  1.00  0.00     0.217 HD
ENDBRANCH  42  46
ENDBRANCH  37  38
ENDBRANCH  36  37
ENDBRANCH  34  36
ENDBRANCH  31  32
ENDBRANCH  30  31
ENDBRANCH  28  30
ENDBRANCH  27  28
ENDBRANCH  26  27
ENDBRANCH   1  26
TORSDOF 13
ENDMDL
MODEL 5
REMARK minimizedAffinity -9.06192112
REMARK CNNscore 0.460939378
REMARK CNNaffinity 7.26679993
REMARK  13 active torsions:
REMARK  status: ('A' for Active; 'I' for Inactive)
REMARK    1  A    between atoms: C14_15  and  O2_16 
REMARK    2  A    between atoms: C14_15  and  C15_17 
REMARK    3  A    between atoms: C15_17  and  C16_19 
REMARK    4  A    between atoms: C16_19  and  O4_20 
REMARK    5  A    between atoms: O4_20  and  C17_21 
REMARK    6  A    between atoms: C17_21  and  C18_23 
REMARK    7  A    between atoms: C18_23  and  C19_24 
REMARK    8  A    between atoms: C19_24  and  C20_25 
REMARK       I    between atoms: C20_25  and  N1_27 
REMARK    9  A    between atoms: N1_27  and  C21_28 
REMARK   10  A    between atoms: C21_28  and  C22_29 
REMARK   11  A    between atoms: C22_29  and  C23_30 
REMARK   12  A    between atoms: C26_33  and  O7_34 
REMARK   13  A    between atoms: C27_35  and  O8_36 
ROOT
HETATM    1  C15 UNL     1      -2.293   7.710  14.566  1.00  0.00     0.185 C 
HETATM    2  O3  UNL     1      -3.041   7.780  13.585  1.00  0.00    -0.292 OA
ENDROOT
BRANCH   1   3
HETATM    3  C14 UNL     1      -0.990   6.859  14.540  1.00  0.00     0.128 C 
HETATM    4  C13 UNL     1      -1.321   5.447  14.013  1.00  0.00     0.047 C 
HETATM    5  C12 UNL     1      -0.876   5.409  12.549  1.00  0.00     0.009 C 
HETATM    6  C11 UNL     1      -0.428   6.839  12.192  1.00  0.00     0.002 C 
HETATM    7  C10 UNL     1       0.550   6.860  11.001  1.00  0.00     0.003 C 
HETATM    8  C29 UNL     1       0.082   7.398  13.533  1.00  0.00     0.005 C 
HETATM    9  C9  UNL     1       0.378   8.130  10.141  1.00  0.00     0.010 C 
HETATM   10  C33 UNL     1       2.045   6.554  11.336  1.00  0.00     0.072 C 
HETATM   11  C8  UNL     1       1.140   8.036   8.809  1.00  0.00     0.035 C 
HETATM   12  C7  UNL     1       2.255   7.019   8.884  1.00  0.00    -0.067 C 
HETATM   13  C2  UNL     1       3.041   7.020  10.198  1.00  0.00    -0.009 C 
HETATM   14  C6  UNL     1       2.431   6.124   7.898  1.00  0.00     0.053 C 
HETATM   15  C1  UNL     1       3.618   8.448  10.409  1.00  0.00     0.021 C 
HETATM   16  C3  UNL     1       4.272   6.073  10.096  1.00  0.00     0.022 C 
HETATM   17  C4  UNL     1       3.982   4.750   9.403  1.00  0.00     0.084 C 
HETATM   18  C5  UNL     1       3.364   4.984   8.048  1.00  0.00     0.149 C 
HETATM   19  O1  UNL     1       3.534   4.215   7.106  1.00  0.00    -0.293 OA
HETATM   20  C32 UNL     1       2.462   6.993  12.742  1.00  0.00     0.133 C 
HETATM   21  C31 UNL     1       1.469   6.815  13.865  1.00  0.00     0.091 C 
HETATM   22  O9  UNL     1       3.615   7.332  13.016  1.00  0.00    -0.297 OA
HETATM   23  C30 UNL     1       0.178   8.932  13.542  1.00  0.00     0.019 C 
BRANCH   3  24
HETATM   24  O2  UNL     1      -0.431   6.752  15.844  1.00  0.00    -0.381 OA
HETATM   25  H19 UNL     1      -0.964   6.113  16.355  1.00  0.00     0.211 HD
ENDBRANCH   3  24
ENDBRANCH   1   3
BRANCH   1  26
HETATM   26  C16 UNL     1      -2.593   8.497  15.846  1.00  0.00     0.260 C 
BRANCH  26  27
HETATM   27  O4  UNL     1      -2.617   9.908  15.626  1.00  0.00    -0.314 OA
BRANCH  27  28
HETATM   28  C17 UNL     1      -3.867  10.449  15.728  1.00  0.00     0.259 C 
HETATM   29  O5  UNL     1      -4.136  11.622  15.503  1.00  0.00    -0.265 OA
BRANCH  28  30
HETATM   30  C18 UNL     1      -4.844   9.389  16.172  1.00  0.00     0.120 C 
BRANCH  30  31
HETATM   31  C19 UNL     1      -5.862   9.090  15.080  1.00  0.00     0.112 C 
BRANCH  31  32
HETATM   32  C20 UNL     1      -6.779   7.944  15.459  1.00  0.00     0.218 C 
HETATM   33  O6  UNL     1      -6.375   6.862  15.866  1.00  0.00    -0.274 OA
HETATM   34  N1  UNL     1      -8.114   8.269  15.349  1.00  0.00    -0.361 N 
HETATM   35  H26 UNL     1      -8.374   9.140  14.903  1.00  0.00     0.162 HD
BRANCH  34  36
HETATM   36  C21 UNL     1      -9.159   7.295  15.608  1.00  0.00     0.127 C 
BRANCH  36  37
HETATM   37  C22 UNL     1      -9.606   6.581  14.330  1.00  0.00     0.058 C 
BRANCH  37  38
HETATM   38  C23 UNL     1     -10.900   7.147  13.799  1.00  0.00    -0.054 A 
HETATM   39  C24 UNL     1     -12.132   6.612  14.214  1.00  0.00     0.010 A 
HETATM   40  C25 UNL     1     -13.337   7.143  13.742  1.00  0.00     0.040 A 
HETATM   41  C26 UNL     1     -13.306   8.214  12.858  1.00  0.00     0.098 A 
HETATM   42  C27 UNL     1     -12.087   8.752  12.447  1.00  0.00     0.099 A 
HETATM   43  C28 UNL     1     -10.887   8.231  12.909  1.00  0.00     0.046 A 
BRANCH  41  44
HETATM   44  O7  UNL     1     -14.449   8.776  12.360  1.00  0.00    -0.358 OA
HETATM   45  H33 UNL     1     -15.206   8.288  12.727  1.00  0.00     0.217 HD
ENDBRANCH  41  44
BRANCH  42  46
HETATM   46  O8  UNL     1     -12.065   9.809  11.582  1.00  0.00    -0.358 OA
HETATM   47  H34 UNL     1     -13.009   9.993  11.402  1.00  0.00     0.217 HD
ENDBRANCH  42  46
ENDBRANCH  37  38
ENDBRANCH  36  37
ENDBRANCH  34  36
ENDBRANCH  31  32
ENDBRANCH  30  31
ENDBRANCH  28  30
ENDBRANCH  27  28
ENDBRANCH  26  27
ENDBRANCH   1  26
TORSDOF 13
ENDMDL
MODEL 6
REMARK minimizedAffinity -7.98281622
REMARK CNNscore 0.406333894
REMARK CNNaffinity 6.84573507
REMARK  13 active torsions:
REMARK  status: ('A' for Active; 'I' for Inactive)
REMARK    1  A    between atoms: C14_15  and  O2_16 
REMARK    2  A    between atoms: C14_15  and  C15_17 
REMARK    3  A    between atoms: C15_17  and  C16_19 
REMARK    4  A    between atoms: C16_19  and  O4_20 
REMARK    5  A    between atoms: O4_20  and  C17_21 
REMARK    6  A    between atoms: C17_21  and  C18_23 
REMARK    7  A    between atoms: C18_23  and  C19_24 
REMARK    8  A    between atoms: C19_24  and  C20_25 
REMARK       I    between atoms: C20_25  and  N1_27 
REMARK    9  A    between atoms: N1_27  and  C21_28 
REMARK   10  A    between atoms: C21_28  and  C22_29 
REMARK   11  A    between atoms: C22_29  and  C23_30 
REMARK   12  A    between atoms: C26_33  and  O7_34 
REMARK   13  A    between atoms: C27_35  and  O8_36 
ROOT
HETATM    1  C15 UNL     1      -2.323   4.409  12.152  1.00  0.00     0.185 C 
HETATM    2  O3  UNL     1      -1.659   3.467  11.708  1.00  0.00    -0.292 OA
ENDROOT
BRANCH   1   3
HETATM    3  C14 UNL     1      -1.649   5.718  12.654  1.00  0.00     0.128 C 
HETATM    4  C13 UNL     1      -0.951   5.441  14.002  1.00  0.00     0.047 C 
HETATM    5  C12 UNL     1       0.541   5.284  13.699  1.00  0.00     0.009 C 
HETATM    6  C11 UNL     1       0.683   5.324  12.166  1.00  0.00     0.002 C 
HETATM    7  C10 UNL     1       2.097   5.747  11.724  1.00  0.00     0.003 C 
HETATM    8  C29 UNL     1      -0.492   6.216  11.723  1.00  0.00     0.005 C 
HETATM    9  C9  UNL     1       2.518   5.055  10.411  1.00  0.00     0.010 C 
HETATM   10  C33 UNL     1       2.382   7.283  11.715  1.00  0.00     0.072 C 
HETATM   11  C8  UNL     1       4.013   5.246  10.107  1.00  0.00     0.035 C 
HETATM   12  C7  UNL     1       4.570   6.450  10.829  1.00  0.00    -0.067 C 
HETATM   13  C2  UNL     1       3.648   7.673  10.851  1.00  0.00    -0.009 C 
HETATM   14  C6  UNL     1       5.738   6.373  11.488  1.00  0.00     0.053 C 
HETATM   15  C1  UNL     1       3.318   8.050   9.380  1.00  0.00     0.021 C 
HETATM   16  C3  UNL     1       4.390   8.903  11.451  1.00  0.00     0.022 C 
HETATM   17  C4  UNL     1       5.232   8.583  12.677  1.00  0.00     0.084 C 
HETATM   18  C5  UNL     1       6.195   7.460  12.383  1.00  0.00     0.149 C 
HETATM   19  O1  UNL     1       7.291   7.373  12.930  1.00  0.00    -0.293 OA
HETATM   20  C32 UNL     1       1.145   8.136  11.420  1.00  0.00     0.133 C 
HETATM   21  C31 UNL     1      -0.176   7.697  12.005  1.00  0.00     0.091 C 
HETATM   22  O9  UNL     1       1.213   9.234  10.866  1.00  0.00    -0.297 OA
HETATM   23  C30 UNL     1      -0.829   6.061  10.231  1.00  0.00     0.019 C 
BRANCH   3  24
HETATM   24  O2  UNL     1      -2.614   6.748  12.832  1.00  0.00    -0.381 OA
HETATM   25  H19 UNL     1      -3.112   6.564  13.652  1.00  0.00     0.211 HD
ENDBRANCH   3  24
ENDBRANCH   1   3
BRANCH   1  26
HETATM   26  C16 UNL     1      -3.854   4.348  12.189  1.00  0.00     0.260 C 
BRANCH  26  27
HETATM   27  O4  UNL     1      -4.356   3.048  11.874  1.00  0.00    -0.314 OA
BRANCH  27  28
HETATM   28  C17 UNL     1      -5.118   3.025  10.741  1.00  0.00     0.259 C 
HETATM   29  O5  UNL     1      -4.939   3.748   9.769  1.00  0.00    -0.265 OA
BRANCH  28  30
HETATM   30  C18 UNL     1      -6.209   1.992  10.884  1.00  0.00     0.120 C 
BRANCH  30  31
HETATM   31  C19 UNL     1      -6.482   1.684  12.350  1.00  0.00     0.112 C 
BRANCH  31  32
HETATM   32  C20 UNL     1      -7.478   2.653  12.955  1.00  0.00     0.218 C 
HETATM   33  O6  UNL     1      -8.648   2.729  12.601  1.00  0.00    -0.274 OA
HETATM   34  N1  UNL     1      -6.942   3.400  13.982  1.00  0.00    -0.361 N 
HETATM   35  H26 UNL     1      -5.944   3.364  14.147  1.00  0.00     0.162 HD
BRANCH  34  36
HETATM   36  C21 UNL     1      -7.710   4.429  14.657  1.00  0.00     0.127 C 
BRANCH  36  37
HETATM   37  C22 UNL     1      -7.742   5.736  13.863  1.00  0.00     0.058 C 
BRANCH  37  38
HETATM   38  C23 UNL     1      -8.922   6.594  14.244  1.00  0.00    -0.054 A 
HETATM   39  C24 UNL     1      -8.845   7.454  15.353  1.00  0.00     0.010 A 
HETATM   40  C25 UNL     1      -9.928   8.269  15.704  1.00  0.00     0.040 A 
HETATM   41  C26 UNL     1     -11.086   8.223  14.937  1.00  0.00     0.098 A 
HETATM   42  C27 UNL     1     -11.165   7.376  13.833  1.00  0.00     0.099 A 
HETATM   43  C28 UNL     1     -10.097   6.564  13.479  1.00  0.00     0.046 A 
BRANCH  41  44
HETATM   44  O7  UNL     1     -12.178   8.993  15.228  1.00  0.00    -0.358 OA
HETATM   45  H33 UNL     1     -11.973   9.514  16.024  1.00  0.00     0.217 HD
ENDBRANCH  41  44
BRANCH  42  46
HETATM   46  O8  UNL     1     -12.305   7.341  13.081  1.00  0.00    -0.358 OA
HETATM   47  H34 UNL     1     -12.902   7.983  13.516  1.00  0.00     0.217 HD
ENDBRANCH  42  46
ENDBRANCH  37  38
ENDBRANCH  36  37
ENDBRANCH  34  36
ENDBRANCH  31  32
ENDBRANCH  30  31
ENDBRANCH  28  30
ENDBRANCH  27  28
ENDBRANCH  26  27
ENDBRANCH   1  26
TORSDOF 13
ENDMDL
MODEL 7
REMARK minimizedAffinity -9.42174053
REMARK CNNscore 0.388645172
REMARK CNNaffinity 6.99582624
REMARK  13 active torsions:
REMARK  status: ('A' for Active; 'I' for Inactive)
REMARK    1  A    between atoms: C14_15  and  O2_16 
REMARK    2  A    between atoms: C14_15  and  C15_17 
REMARK    3  A    between atoms: C15_17  and  C16_19 
REMARK    4  A    between atoms: C16_19  and  O4_20 
REMARK    5  A    between atoms: O4_20  and  C17_21 
REMARK    6  A    between atoms: C17_21  and  C18_23 
REMARK    7  A    between atoms: C18_23  and  C19_24 
REMARK    8  A    between atoms: C19_24  and  C20_25 
REMARK       I    between atoms: C20_25  and  N1_27 
REMARK    9  A    between atoms: N1_27  and  C21_28 
REMARK   10  A    between atoms: C21_28  and  C22_29 
REMARK   11  A    between atoms: C22_29  and  C23_30 
REMARK   12  A    between atoms: C26_33  and  O7_34 
REMARK   13  A    between atoms: C27_35  and  O8_36 
ROOT
HETATM    1  C15 UNL     1      -2.915   7.603  14.378  1.00  0.00     0.185 C 
HETATM    2  O3  UNL     1      -2.988   8.670  14.997  1.00  0.00    -0.292 OA
ENDROOT
BRANCH   1   3
HETATM    3  C14 UNL     1      -1.624   6.735  14.399  1.00  0.00     0.128 C 
HETATM    4  C13 UNL     1      -1.927   5.364  13.759  1.00  0.00     0.047 C 
HETATM    5  C12 UNL     1      -1.369   5.412  12.334  1.00  0.00     0.009 C 
HETATM    6  C11 UNL     1      -0.879   6.853  12.105  1.00  0.00     0.002 C 
HETATM    7  C10 UNL     1       0.189   6.934  10.997  1.00  0.00     0.003 C 
HETATM    8  C29 UNL     1      -0.470   7.319  13.515  1.00  0.00     0.005 C 
HETATM    9  C9  UNL     1       0.099   8.258  10.210  1.00  0.00     0.010 C 
HETATM   10  C33 UNL     1       1.650   6.585  11.426  1.00  0.00     0.072 C 
HETATM   11  C8  UNL     1       0.962   8.237   8.937  1.00  0.00     0.035 C 
HETATM   12  C7  UNL     1       2.056   7.200   9.034  1.00  0.00    -0.067 C 
HETATM   13  C2  UNL     1       2.737   7.105  10.402  1.00  0.00    -0.009 C 
HETATM   14  C6  UNL     1       2.300   6.365   8.009  1.00  0.00     0.053 C 
HETATM   15  C1  UNL     1       3.312   8.508  10.748  1.00  0.00     0.021 C 
HETATM   16  C3  UNL     1       3.962   6.148  10.335  1.00  0.00     0.022 C 
HETATM   17  C4  UNL     1       3.714   4.876   9.539  1.00  0.00     0.084 C 
HETATM   18  C5  UNL     1       3.207   5.204   8.157  1.00  0.00     0.149 C 
HETATM   19  O1  UNL     1       3.441   4.493   7.184  1.00  0.00    -0.293 OA
HETATM   20  C32 UNL     1       1.960   6.928  12.886  1.00  0.00     0.133 C 
HETATM   21  C31 UNL     1       0.881   6.695  13.915  1.00  0.00     0.091 C 
HETATM   22  O9  UNL     1       3.091   7.231  13.270  1.00  0.00    -0.297 OA
HETATM   23  C30 UNL     1      -0.358   8.848  13.628  1.00  0.00     0.019 C 
BRANCH   3  24
HETATM   24  O2  UNL     1      -1.169   6.538  15.732  1.00  0.00    -0.381 OA
HETATM   25  H19 UNL     1      -1.748   5.876  16.159  1.00  0.00     0.211 HD
ENDBRANCH   3  24
ENDBRANCH   1   3
BRANCH   1  26
HETATM   26  C16 UNL     1      -4.113   7.061  13.591  1.00  0.00     0.260 C 
BRANCH  26  27
HETATM   27  O4  UNL     1      -5.019   6.325  14.415  1.00  0.00    -0.314 OA
BRANCH  27  28
HETATM   28  C17 UNL     1      -6.329   6.636  14.187  1.00  0.00     0.259 C 
HETATM   29  O5  UNL     1      -6.746   7.767  13.971  1.00  0.00    -0.265 OA
BRANCH  28  30
HETATM   30  C18 UNL     1      -7.168   5.385  14.259  1.00  0.00     0.120 C 
BRANCH  30  31
HETATM   31  C19 UNL     1      -8.029   5.230  13.013  1.00  0.00     0.112 C 
BRANCH  31  32
HETATM   32  C20 UNL     1      -9.260   6.114  13.062  1.00  0.00     0.218 C 
HETATM   33  O6  UNL     1      -9.835   6.526  12.062  1.00  0.00    -0.274 OA
HETATM   34  N1  UNL     1      -9.692   6.359  14.347  1.00  0.00    -0.361 N 
HETATM   35  H26 UNL     1      -9.107   6.080  15.125  1.00  0.00     0.162 HD
BRANCH  34  36
HETATM   36  C21 UNL     1     -10.819   7.232  14.618  1.00  0.00     0.127 C 
BRANCH  36  37
HETATM   37  C22 UNL     1     -12.155   6.497  14.499  1.00  0.00     0.058 C 
BRANCH  37  38
HETATM   38  C23 UNL     1     -13.146   7.269  13.665  1.00  0.00    -0.054 A 
HETATM   39  C24 UNL     1     -12.929   8.630  13.383  1.00  0.00     0.010 A 
HETATM   40  C25 UNL     1     -13.832   9.350  12.593  1.00  0.00     0.040 A 
HETATM   41  C26 UNL     1     -14.950   8.703  12.082  1.00  0.00     0.098 A 
HETATM   42  C27 UNL     1     -15.168   7.353  12.353  1.00  0.00     0.099 A 
HETATM   43  C28 UNL     1     -14.278   6.631  13.136  1.00  0.00     0.046 A 
BRANCH  41  44
HETATM   44  O7  UNL     1     -15.870   9.351  11.305  1.00  0.00    -0.358 OA
HETATM   45  H33 UNL     1     -15.587  10.279  11.218  1.00  0.00     0.217 HD
ENDBRANCH  41  44
BRANCH  42  46
HETATM   46  O8  UNL     1     -16.266   6.723  11.841  1.00  0.00    -0.358 OA
HETATM   47  H34 UNL     1     -16.732   7.421  11.337  1.00  0.00     0.217 HD
ENDBRANCH  42  46
ENDBRANCH  37  38
ENDBRANCH  36  37
ENDBRANCH  34  36
ENDBRANCH  31  32
ENDBRANCH  30  31
ENDBRANCH  28  30
ENDBRANCH  27  28
ENDBRANCH  26  27
ENDBRANCH   1  26
TORSDOF 13
ENDMDL
MODEL 8
REMARK minimizedAffinity -9.31843853
REMARK CNNscore 0.387303352
REMARK CNNaffinity 7.34881258
REMARK  13 active torsions:
REMARK  status: ('A' for Active; 'I' for Inactive)
REMARK    1  A    between atoms: C14_15  and  O2_16 
REMARK    2  A    between atoms: C14_15  and  C15_17 
REMARK    3  A    between atoms: C15_17  and  C16_19 
REMARK    4  A    between atoms: C16_19  and  O4_20 
REMARK    5  A    between atoms: O4_20  and  C17_21 
REMARK    6  A    between atoms: C17_21  and  C18_23 
REMARK    7  A    between atoms: C18_23  and  C19_24 
REMARK    8  A    between atoms: C19_24  and  C20_25 
REMARK       I    between atoms: C20_25  and  N1_27 
REMARK    9  A    between atoms: N1_27  and  C21_28 
REMARK   10  A    between atoms: C21_28  and  C22_29 
REMARK   11  A    between atoms: C22_29  and  C23_30 
REMARK   12  A    between atoms: C26_33  and  O7_34 
REMARK   13  A    between atoms: C27_35  and  O8_36 
ROOT
HETATM    1  C15 UNL     1      -1.451   6.369  12.516  1.00  0.00     0.185 C 
HETATM    2  O3  UNL     1      -1.814   5.324  11.966  1.00  0.00    -0.292 OA
ENDROOT
BRANCH   1   3
HETATM    3  C14 UNL     1      -2.267   7.004  13.679  1.00  0.00     0.128 C 
HETATM    4  C13 UNL     1      -2.780   8.391  13.236  1.00  0.00     0.047 C 
HETATM    5  C12 UNL     1      -4.252   8.213  12.858  1.00  0.00     0.009 C 
HETATM    6  C11 UNL     1      -4.546   6.704  12.941  1.00  0.00     0.002 C 
HETATM    7  C10 UNL     1      -6.045   6.415  13.153  1.00  0.00     0.003 C 
HETATM    8  C29 UNL     1      -3.572   6.210  14.026  1.00  0.00     0.005 C 
HETATM    9  C9  UNL     1      -6.480   5.107  12.460  1.00  0.00     0.010 C 
HETATM   10  C33 UNL     1      -6.562   6.521  14.624  1.00  0.00     0.072 C 
HETATM   11  C8  UNL     1      -8.009   4.949  12.425  1.00  0.00     0.035 C 
HETATM   12  C7  UNL     1      -8.672   5.786  13.493  1.00  0.00    -0.067 C 
HETATM   13  C2  UNL     1      -7.951   5.797  14.844  1.00  0.00    -0.009 C 
HETATM   14  C6  UNL     1      -9.745   6.542  13.203  1.00  0.00     0.053 C 
HETATM   15  C1  UNL     1      -7.828   4.326  15.332  1.00  0.00     0.021 C 
HETATM   16  C3  UNL     1      -8.812   6.530  15.914  1.00  0.00     0.022 C 
HETATM   17  C4  UNL     1      -9.472   7.806  15.413  1.00  0.00     0.084 C 
HETATM   18  C5  UNL     1     -10.274   7.535  14.165  1.00  0.00     0.149 C 
HETATM   19  O1  UNL     1     -11.285   8.171  13.882  1.00  0.00    -0.293 OA
HETATM   20  C32 UNL     1      -5.505   6.166  15.674  1.00  0.00     0.133 C 
HETATM   21  C31 UNL     1      -4.083   6.605  15.425  1.00  0.00     0.091 C 
HETATM   22  O9  UNL     1      -5.796   5.685  16.770  1.00  0.00    -0.297 OA
HETATM   23  C30 UNL     1      -3.361   4.688  13.991  1.00  0.00     0.019 C 
BRANCH   3  24
HETATM   24  O2  UNL     1      -1.459   7.154  14.840  1.00  0.00    -0.381 OA
HETATM   25  H19 UNL     1      -0.861   7.915  14.702  1.00  0.00     0.211 HD
ENDBRANCH   3  24
ENDBRANCH   1   3
BRANCH   1  26
HETATM   26  C16 UNL     1      -0.152   7.069  12.105  1.00  0.00     0.260 C 
BRANCH  26  27
HETATM   27  O4  UNL     1       0.033   7.088  10.688  1.00  0.00    -0.314 OA
BRANCH  27  28
HETATM   28  C17 UNL     1       1.137   6.396  10.279  1.00  0.00     0.259 C 
HETATM   29  O5  UNL     1       1.266   5.181  10.365  1.00  0.00    -0.265 OA
BRANCH  28  30
HETATM   30  C18 UNL     1       2.163   7.355   9.729  1.00  0.00     0.120 C 
BRANCH  30  31
HETATM   31  C19 UNL     1       3.494   6.655   9.491  1.00  0.00     0.112 C 
BRANCH  31  32
HETATM   32  C20 UNL     1       4.433   6.807  10.671  1.00  0.00     0.218 C 
HETATM   33  O6  UNL     1       5.588   6.400  10.672  1.00  0.00    -0.274 OA
HETATM   34  N1  UNL     1       3.866   7.498  11.720  1.00  0.00    -0.361 N 
HETATM   35  H26 UNL     1       2.876   7.708  11.693  1.00  0.00     0.162 HD
BRANCH  34  36
HETATM   36  C21 UNL     1       4.575   7.702  12.970  1.00  0.00     0.127 C 
BRANCH  36  37
HETATM   37  C22 UNL     1       5.740   8.680  12.815  1.00  0.00     0.058 C 
BRANCH  37  38
HETATM   38  C23 UNL     1       6.751   8.525  13.925  1.00  0.00    -0.054 A 
HETATM   39  C24 UNL     1       7.961   7.848  13.693  1.00  0.00     0.010 A 
HETATM   40  C25 UNL     1       8.913   7.717  14.710  1.00  0.00     0.040 A 
HETATM   41  C26 UNL     1       8.652   8.270  15.958  1.00  0.00     0.098 A 
HETATM   42  C27 UNL     1       7.456   8.947  16.191  1.00  0.00     0.099 A 
HETATM   43  C28 UNL     1       6.506   9.081  15.189  1.00  0.00     0.046 A 
BRANCH  41  44
HETATM   44  O7  UNL     1       9.541   8.174  16.993  1.00  0.00    -0.358 OA
HETATM   45  H33 UNL     1      10.311   7.668  16.679  1.00  0.00     0.217 HD
ENDBRANCH  41  44
BRANCH  42  46
HETATM   46  O8  UNL     1       7.210   9.493  17.419  1.00  0.00    -0.358 OA
HETATM   47  H34 UNL     1       8.005   9.272  17.945  1.00  0.00     0.217 HD
ENDBRANCH  42  46
ENDBRANCH  37  38
ENDBRANCH  36  37
ENDBRANCH  34  36
ENDBRANCH  31  32
ENDBRANCH  30  31
ENDBRANCH  28  30
ENDBRANCH  27  28
ENDBRANCH  26  27
ENDBRANCH   1  26
TORSDOF 13
ENDMDL
MODEL 9
REMARK minimizedAffinity -9.75725079
REMARK CNNscore 0.353085071
REMARK CNNaffinity 6.79943609
REMARK  13 active torsions:
REMARK  status: ('A' for Active; 'I' for Inactive)
REMARK    1  A    between atoms: C14_15  and  O2_16 
REMARK    2  A    between atoms: C14_15  and  C15_17 
REMARK    3  A    between atoms: C15_17  and  C16_19 
REMARK    4  A    between atoms: C16_19  and  O4_20 
REMARK    5  A    between atoms: O4_20  and  C17_21 
REMARK    6  A    between atoms: C17_21  and  C18_23 
REMARK    7  A    between atoms: C18_23  and  C19_24 
REMARK    8  A    between atoms: C19_24  and  C20_25 
REMARK       I    between atoms: C20_25  and  N1_27 
REMARK    9  A    between atoms: N1_27  and  C21_28 
REMARK   10  A    between atoms: C21_28  and  C22_29 
REMARK   11  A    between atoms: C22_29  and  C23_30 
REMARK   12  A    between atoms: C26_33  and  O7_34 
REMARK   13  A    between atoms: C27_35  and  O8_36 
ROOT
HETATM    1  C15 UNL     1      -2.521   7.613  14.619  1.00  0.00     0.185 C 
HETATM    2  O3  UNL     1      -2.678   8.493  15.472  1.00  0.00    -0.292 OA
ENDROOT
BRANCH   1   3
HETATM    3  C14 UNL     1      -1.231   6.745  14.570  1.00  0.00     0.128 C 
HETATM    4  C13 UNL     1      -1.572   5.369  13.960  1.00  0.00     0.047 C 
HETATM    5  C12 UNL     1      -1.100   5.405  12.504  1.00  0.00     0.009 C 
HETATM    6  C11 UNL     1      -0.625   6.845  12.234  1.00  0.00     0.002 C 
HETATM    7  C10 UNL     1       0.375   6.916  11.064  1.00  0.00     0.003 C 
HETATM    8  C29 UNL     1      -0.133   7.322  13.614  1.00  0.00     0.005 C 
HETATM    9  C9  UNL     1       0.238   8.234  10.273  1.00  0.00     0.010 C 
HETATM   10  C33 UNL     1       1.859   6.570  11.409  1.00  0.00     0.072 C 
HETATM   11  C8  UNL     1       1.024   8.203   8.952  1.00  0.00     0.035 C 
HETATM   12  C7  UNL     1       2.122   7.166   8.991  1.00  0.00    -0.067 C 
HETATM   13  C2  UNL     1       2.883   7.083  10.317  1.00  0.00    -0.009 C 
HETATM   14  C6  UNL     1       2.304   6.324   7.960  1.00  0.00     0.053 C 
HETATM   15  C1  UNL     1       3.477   8.488  10.617  1.00  0.00     0.021 C 
HETATM   16  C3  UNL     1       4.102   6.124  10.185  1.00  0.00     0.022 C 
HETATM   17  C4  UNL     1       3.807   4.846   9.415  1.00  0.00     0.084 C 
HETATM   18  C5  UNL     1       3.218   5.163   8.063  1.00  0.00     0.149 C 
HETATM   19  O1  UNL     1       3.394   4.444   7.083  1.00  0.00    -0.293 OA
HETATM   20  C32 UNL     1       2.256   6.925  12.844  1.00  0.00     0.133 C 
HETATM   21  C31 UNL     1       1.240   6.701  13.937  1.00  0.00     0.091 C 
HETATM   22  O9  UNL     1       3.408   7.230  13.158  1.00  0.00    -0.297 OA
HETATM   23  C30 UNL     1      -0.014   8.852  13.708  1.00  0.00     0.019 C 
BRANCH   3  24
HETATM   24  O2  UNL     1      -0.698   6.558  15.875  1.00  0.00    -0.381 OA
HETATM   25  H19 UNL     1      -1.250   5.900  16.341  1.00  0.00     0.211 HD
ENDBRANCH   3  24
ENDBRANCH   1   3
BRANCH   1  26
HETATM   26  C16 UNL     1      -3.615   7.306  13.591  1.00  0.00     0.260 C 
BRANCH  26  27
HETATM   27  O4  UNL     1      -4.715   6.594  14.160  1.00  0.00    -0.314 OA
BRANCH  27  28
HETATM   28  C17 UNL     1      -5.873   7.318  14.183  1.00  0.00     0.259 C 
HETATM   29  O5  UNL     1      -5.964   8.467  14.595  1.00  0.00    -0.265 OA
BRANCH  28  30
HETATM   30  C18 UNL     1      -7.006   6.482  13.642  1.00  0.00     0.120 C 
BRANCH  30  31
HETATM   31  C19 UNL     1      -8.036   6.191  14.725  1.00  0.00     0.112 C 
BRANCH  31  32
HETATM   32  C20 UNL     1      -9.299   7.008  14.539  1.00  0.00     0.218 C 
HETATM   33  O6  UNL     1      -9.465   8.116  15.034  1.00  0.00    -0.274 OA
HETATM   34  N1  UNL     1     -10.215   6.397  13.710  1.00  0.00    -0.361 N 
HETATM   35  H26 UNL     1     -10.058   5.438  13.426  1.00  0.00     0.162 HD
BRANCH  34  36
HETATM   36  C21 UNL     1     -11.516   6.984  13.448  1.00  0.00     0.127 C 
BRANCH  36  37
HETATM   37  C22 UNL     1     -12.564   6.534  14.467  1.00  0.00     0.058 C 
BRANCH  37  38
HETATM   38  C23 UNL     1     -13.938   6.444  13.852  1.00  0.00    -0.054 A 
HETATM   39  C24 UNL     1     -14.922   5.622  14.430  1.00  0.00     0.010 A 
HETATM   40  C25 UNL     1     -16.206   5.547  13.879  1.00  0.00     0.040 A 
HETATM   41  C26 UNL     1     -16.503   6.301  12.750  1.00  0.00     0.098 A 
HETATM   42  C27 UNL     1     -15.534   7.122  12.177  1.00  0.00     0.099 A 
HETATM   43  C28 UNL     1     -14.258   7.202  12.717  1.00  0.00     0.046 A 
BRANCH  41  44
HETATM   44  O7  UNL     1     -17.738   6.271  12.164  1.00  0.00    -0.358 OA
HETATM   45  H33 UNL     1     -18.293   5.649  12.668  1.00  0.00     0.217 HD
ENDBRANCH  41  44
BRANCH  42  46
HETATM   46  O8  UNL     1     -15.837   7.865  11.071  1.00  0.00    -0.358 OA
HETATM   47  H34 UNL     1     -16.771   7.645  10.881  1.00  0.00     0.217 HD
ENDBRANCH  42  46
ENDBRANCH  37  38
ENDBRANCH  36  37
ENDBRANCH  34  36
ENDBRANCH  31  32
ENDBRANCH  30  31
ENDBRANCH  28  30
ENDBRANCH  27  28
ENDBRANCH  26  27
ENDBRANCH   1  26
TORSDOF 13
ENDMDL
