MODEL 1
REMARK minimizedAffinity -9.24134541
REMARK CNNscore 0.752263427
REMARK CNNaffinity 7.77126837
REMARK  9 active torsions:
REMARK  status: ('A' for Active; 'I' for Inactive)
REMARK    1  A    between atoms: O1_2  and  C2_3 
REMARK    2  A    between atoms: C2_3  and  C3_4 
REMARK    3  A    between atoms: C3_4  and  N1_5 
REMARK       I    between atoms: N1_5  and  C4_6 
REMARK    4  A    between atoms: C4_6  and  C5_8 
REMARK    5  A    between atoms: C5_8  and  C7_10 
REMARK    6  A    between atoms: C15_20  and  C16_21 
REMARK    7  A    between atoms: C16_21  and  O3_22 
REMARK    8  A    between atoms: O3_22  and  C17_23 
REMARK    9  A    between atoms: C26_34  and  O4_35 
ROOT
HETATM    1  C7  UNL     1      -6.577   5.191  14.309  1.00  0.00     0.027 C 
HETATM    2  C8  UNL     1      -6.087   6.448  15.041  1.00  0.00     0.009 C 
HETATM    3  C9  UNL     1      -4.595   6.379  15.350  1.00  0.00     0.010 C 
HETATM    4  C10 UNL     1      -3.719   6.150  14.100  1.00  0.00    -0.033 C 
HETATM    5  C11 UNL     1      -3.803   7.401  13.188  1.00  0.00     0.016 C 
HETATM    6  C12 UNL     1      -2.247   5.977  14.588  1.00  0.00     0.058 C 
HETATM    7  C13 UNL     1      -1.395   5.473  13.478  1.00  0.00     0.008 A 
HETATM    8  C14 UNL     1      -1.852   4.812  12.361  1.00  0.00     0.027 A 
HETATM    9  N2  UNL     1      -0.872   4.493  11.439  1.00  0.00    -0.354 N 
ATOM     10  H2  UNL     1      -1.039   4.053  10.535  1.00  0.00     0.166 HD
HETATM   11  C15 UNL     1       0.313   4.844  11.906  1.00  0.00     0.076 A 
HETATM   12  S1  UNL     1       0.294   5.651  13.428  1.00  0.00    -0.077 SA
HETATM   13  C23 UNL     1      -3.309   4.507  12.093  1.00  0.00     0.040 C 
HETATM   14  C24 UNL     1      -3.447   3.051  11.622  1.00  0.00     0.017 C 
HETATM   15  C25 UNL     1      -4.195   4.840  13.361  1.00  0.00     0.033 C 
HETATM   16  C26 UNL     1      -5.718   4.898  13.049  1.00  0.00     0.128 C 
ENDROOT
BRANCH   1  17
HETATM   17  C5  UNL     1      -8.105   5.214  14.004  1.00  0.00     0.080 C 
HETATM   18  C6  UNL     1      -8.485   4.790  12.584  1.00  0.00     0.020 C 
BRANCH  17  19
HETATM   19  C4  UNL     1      -8.737   6.545  14.421  1.00  0.00     0.222 C 
HETATM   20  N1  UNL     1     -10.106   6.567  14.528  1.00  0.00    -0.359 N 
HETATM   21  H8  UNL     1     -10.642   5.712  14.498  1.00  0.00     0.162 HD
HETATM   22  O2  UNL     1      -8.050   7.551  14.590  1.00  0.00    -0.273 OA
BRANCH  20  23
HETATM   23  C3  UNL     1     -10.827   7.790  14.844  1.00  0.00     0.148 C 
BRANCH  23  24
HETATM   24  C2  UNL     1     -11.573   8.388  13.650  1.00  0.00     0.186 C 
BRANCH  24  25
HETATM   25  O1  UNL     1     -12.069   7.352  12.792  1.00  0.00    -0.394 OA
HETATM   26  C1  UNL     1     -13.414   7.000  13.085  1.00  0.00     0.201 C 
ENDBRANCH  24  25
ENDBRANCH  23  24
ENDBRANCH  20  23
ENDBRANCH  17  19
ENDBRANCH   1  17
BRANCH  16  27
HETATM   27  O4  UNL     1      -6.130   3.642  12.523  1.00  0.00    -0.395 OA
HETATM   28  H35 UNL     1      -6.933   3.776  11.988  1.00  0.00     0.210 HD
ENDBRANCH  16  27
BRANCH  11  29
HETATM   29  C16 UNL     1       1.607   4.603  11.189  1.00  0.00     0.240 C 
BRANCH  29  30
HETATM   30  O3  UNL     1       2.393   5.801  11.180  1.00  0.00    -0.345 OA
BRANCH  30  31
HETATM   31  C17 UNL     1       2.259   6.670  10.132  1.00  0.00     0.070 A 
HETATM   32  C18 UNL     1       3.236   6.986   9.186  1.00  0.00     0.037 A 
HETATM   33  C19 UNL     1       2.959   7.902   8.165  1.00  0.00     0.004 A 
HETATM   34  C20 UNL     1       1.707   8.512   8.089  1.00  0.00     0.024 A 
HETATM   35  C21 UNL     1       0.736   8.204   9.037  1.00  0.00     0.036 A 
HETATM   36 CL1  UNL     1      -0.810   8.956   8.952  1.00  0.00    -0.084 Cl
HETATM   37  C22 UNL     1       1.007   7.291  10.054  1.00  0.00     0.060 A 
ENDBRANCH  30  31
ENDBRANCH  29  30
ENDBRANCH  11  29
TORSDOF 9
ENDMDL
MODEL 2
REMARK minimizedAffinity -8.53587532
REMARK CNNscore 0.651298344
REMARK CNNaffinity 7.46244669
REMARK  9 active torsions:
REMARK  status: ('A' for Active; 'I' for Inactive)
REMARK    1  A    between atoms: O1_2  and  C2_3 
REMARK    2  A    between atoms: C2_3  and  C3_4 
REMARK    3  A    between atoms: C3_4  and  N1_5 
REMARK       I    between atoms: N1_5  and  C4_6 
REMARK    4  A    between atoms: C4_6  and  C5_8 
REMARK    5  A    between atoms: C5_8  and  C7_10 
REMARK    6  A    between atoms: C15_20  and  C16_21 
REMARK    7  A    between atoms: C16_21  and  O3_22 
REMARK    8  A    between atoms: O3_22  and  C17_23 
REMARK    9  A    between atoms: C26_34  and  O4_35 
ROOT
HETATM    1  C7  UNL     1      -8.337   6.830  14.824  1.00  0.00     0.027 C 
HETATM    2  C8  UNL     1      -7.632   8.137  15.211  1.00  0.00     0.009 C 
HETATM    3  C9  UNL     1      -6.163   7.910  15.552  1.00  0.00     0.010 C 
HETATM    4  C10 UNL     1      -5.369   7.225  14.419  1.00  0.00    -0.033 C 
HETATM    5  C11 UNL     1      -5.275   8.192  13.211  1.00  0.00     0.016 C 
HETATM    6  C12 UNL     1      -3.931   6.948  14.959  1.00  0.00     0.058 C 
HETATM    7  C13 UNL     1      -3.201   6.042  14.033  1.00  0.00     0.008 A 
HETATM    8  C14 UNL     1      -3.787   5.196  13.120  1.00  0.00     0.027 A 
HETATM    9  N2  UNL     1      -2.896   4.494  12.330  1.00  0.00    -0.354 N 
ATOM     10  H2  UNL     1      -3.156   3.867  11.569  1.00  0.00     0.166 HD
HETATM   11  C15 UNL     1      -1.659   4.758  12.708  1.00  0.00     0.076 A 
HETATM   12  S1  UNL     1      -1.507   5.924  13.967  1.00  0.00    -0.077 SA
HETATM   13  C23 UNL     1      -5.281   5.072  12.917  1.00  0.00     0.040 C 
HETATM   14  C24 UNL     1      -5.664   3.586  12.840  1.00  0.00     0.017 C 
HETATM   15  C25 UNL     1      -6.068   5.863  14.039  1.00  0.00     0.033 C 
HETATM   16  C26 UNL     1      -7.570   6.083  13.698  1.00  0.00     0.128 C 
ENDROOT
BRANCH   1  17
HETATM   17  C5  UNL     1      -9.849   7.020  14.498  1.00  0.00     0.080 C 
HETATM   18  C6  UNL     1     -10.223   6.810  13.030  1.00  0.00     0.020 C 
BRANCH  17  19
HETATM   19  C4  UNL     1     -10.381   8.338  15.070  1.00  0.00     0.222 C 
HETATM   20  N1  UNL     1     -10.775   8.321  16.386  1.00  0.00    -0.359 N 
HETATM   21  H8  UNL     1     -10.564   7.531  16.979  1.00  0.00     0.162 HD
HETATM   22  O2  UNL     1     -10.501   9.336  14.362  1.00  0.00    -0.273 OA
BRANCH  20  23
HETATM   23  C3  UNL     1     -11.365   9.488  17.020  1.00  0.00     0.148 C 
BRANCH  23  24
HETATM   24  C2  UNL     1     -11.209   9.503  18.542  1.00  0.00     0.186 C 
BRANCH  24  25
HETATM   25  O1  UNL     1     -11.001  10.840  19.016  1.00  0.00    -0.394 OA
HETATM   26  C1  UNL     1     -10.924  11.787  17.960  1.00  0.00     0.201 C 
ENDBRANCH  24  25
ENDBRANCH  23  24
ENDBRANCH  20  23
ENDBRANCH  17  19
ENDBRANCH   1  17
BRANCH  16  27
HETATM   27  O4  UNL     1      -8.193   4.818  13.511  1.00  0.00    -0.395 OA
HETATM   28  H35 UNL     1      -8.977   4.937  12.946  1.00  0.00     0.210 HD
ENDBRANCH  16  27
BRANCH  11  29
HETATM   29  C16 UNL     1      -0.440   4.132  12.100  1.00  0.00     0.240 C 
BRANCH  29  30
HETATM   30  O3  UNL     1       0.680   5.017  12.226  1.00  0.00    -0.345 OA
BRANCH  30  31
HETATM   31  C17 UNL     1       1.219   5.565  11.093  1.00  0.00     0.070 A 
HETATM   32  C18 UNL     1       2.421   5.199  10.486  1.00  0.00     0.037 A 
HETATM   33  C19 UNL     1       2.853   5.854   9.327  1.00  0.00     0.004 A 
HETATM   34  C20 UNL     1       2.089   6.881   8.774  1.00  0.00     0.024 A 
HETATM   35  C21 UNL     1       0.895   7.252   9.385  1.00  0.00     0.036 A 
HETATM   36 CL1  UNL     1      -0.051   8.522   8.710  1.00  0.00    -0.084 Cl
HETATM   37  C22 UNL     1       0.460   6.601  10.538  1.00  0.00     0.060 A 
ENDBRANCH  30  31
ENDBRANCH  29  30
ENDBRANCH  11  29
TORSDOF 9
ENDMDL
MODEL 3
REMARK minimizedAffinity -7.70692635
REMARK CNNscore 0.610216439
REMARK CNNaffinity 7.66739655
REMARK  9 active torsions:
REMARK  status: ('A' for Active; 'I' for Inactive)
REMARK    1  A    between atoms: O1_2  and  C2_3 
REMARK    2  A    between atoms: C2_3  and  C3_4 
REMARK    3  A    between atoms: C3_4  and  N1_5 
REMARK       I    between atoms: N1_5  and  C4_6 
REMARK    4  A    between atoms: C4_6  and  C5_8 
REMARK    5  A    between atoms: C5_8  and  C7_10 
REMARK    6  A    between atoms: C15_20  and  C16_21 
REMARK    7  A    between atoms: C16_21  and  O3_22 
REMARK    8  A    between atoms: O3_22  and  C17_23 
REMARK    9  A    between atoms: C26_34  and  O4_35 
ROOT
HETATM    1  C7  UNL     1      -8.628   8.098  14.646  1.00  0.00     0.027 C 
HETATM    2  C8  UNL     1      -9.460   6.810  14.577  1.00  0.00     0.009 C 
HETATM    3  C9  UNL     1      -8.928   5.848  13.520  1.00  0.00     0.010 C 
HETATM    4  C10 UNL     1      -7.442   5.478  13.718  1.00  0.00    -0.033 C 
HETATM    5  C11 UNL     1      -7.298   4.644  15.017  1.00  0.00     0.016 C 
HETATM    6  C12 UNL     1      -7.014   4.599  12.501  1.00  0.00     0.058 C 
HETATM    7  C13 UNL     1      -5.536   4.444  12.477  1.00  0.00     0.008 A 
HETATM    8  C14 UNL     1      -4.636   5.283  13.093  1.00  0.00     0.027 A 
HETATM    9  N2  UNL     1      -3.314   4.897  12.975  1.00  0.00    -0.354 N 
ATOM     10  H2  UNL     1      -2.524   5.371  13.413  1.00  0.00     0.166 HD
HETATM   11  C15 UNL     1      -3.227   3.824  12.210  1.00  0.00     0.076 A 
HETATM   12  S1  UNL     1      -4.732   3.180  11.673  1.00  0.00    -0.077 SA
HETATM   13  C23 UNL     1      -5.029   6.497  13.905  1.00  0.00     0.040 C 
HETATM   14  C24 UNL     1      -4.141   7.686  13.507  1.00  0.00     0.017 C 
HETATM   15  C25 UNL     1      -6.576   6.796  13.756  1.00  0.00     0.033 C 
HETATM   16  C26 UNL     1      -7.117   7.788  14.825  1.00  0.00     0.128 C 
ENDROOT
BRANCH   1  17
HETATM   17  C5  UNL     1      -9.162   9.118  15.696  1.00  0.00     0.080 C 
HETATM   18  C6  UNL     1     -10.024   8.511  16.805  1.00  0.00     0.020 C 
BRANCH  17  19
HETATM   19  C4  UNL     1      -9.821  10.323  15.016  1.00  0.00     0.222 C 
HETATM   20  N1  UNL     1      -9.245  11.548  15.247  1.00  0.00    -0.359 N 
HETATM   21  H8  UNL     1      -8.344  11.620  15.698  1.00  0.00     0.162 HD
HETATM   22  O2  UNL     1     -10.847  10.195  14.351  1.00  0.00    -0.273 OA
BRANCH  20  23
HETATM   23  C3  UNL     1      -9.822  12.773  14.718  1.00  0.00     0.148 C 
BRANCH  23  24
HETATM   24  C2  UNL     1      -9.247  14.043  15.349  1.00  0.00     0.186 C 
BRANCH  24  25
HETATM   25  O1  UNL     1      -8.507  14.799  14.381  1.00  0.00    -0.394 OA
HETATM   26  C1  UNL     1      -9.194  15.971  13.964  1.00  0.00     0.201 C 
ENDBRANCH  24  25
ENDBRANCH  23  24
ENDBRANCH  20  23
ENDBRANCH  17  19
ENDBRANCH   1  17
BRANCH  16  27
HETATM   27  O4  UNL     1      -6.405   9.014  14.721  1.00  0.00    -0.395 OA
HETATM   28  H35 UNL     1      -6.448   9.475  15.578  1.00  0.00     0.210 HD
ENDBRANCH  16  27
BRANCH  11  29
HETATM   29  C16 UNL     1      -1.937   3.162  11.829  1.00  0.00     0.240 C 
BRANCH  29  30
HETATM   30  O3  UNL     1      -1.283   3.917  10.801  1.00  0.00    -0.345 OA
BRANCH  30  31
HETATM   31  C17 UNL     1      -0.382   4.881  11.163  1.00  0.00     0.070 A 
HETATM   32  C18 UNL     1       0.935   4.672  11.574  1.00  0.00     0.037 A 
HETATM   33  C19 UNL     1       1.746   5.758  11.921  1.00  0.00     0.004 A 
HETATM   34  C20 UNL     1       1.242   7.057  11.864  1.00  0.00     0.024 A 
HETATM   35  C21 UNL     1      -0.074   7.265  11.462  1.00  0.00     0.036 A 
HETATM   36 CL1  UNL     1      -0.704   8.866  11.394  1.00  0.00    -0.084 Cl
HETATM   37  C22 UNL     1      -0.884   6.186  11.114  1.00  0.00     0.060 A 
ENDBRANCH  30  31
ENDBRANCH  29  30
ENDBRANCH  11  29
TORSDOF 9
ENDMDL
MODEL 4
REMARK minimizedAffinity -8.92934418
REMARK CNNscore 0.537171245
REMARK CNNaffinity 7.25691175
REMARK  9 active torsions:
REMARK  status: ('A' for Active; 'I' for Inactive)
REMARK    1  A    between atoms: O1_2  and  C2_3 
REMARK    2  A    between atoms: C2_3  and  C3_4 
REMARK    3  A    between atoms: C3_4  and  N1_5 
REMARK       I    between atoms: N1_5  and  C4_6 
REMARK    4  A    between atoms: C4_6  and  C5_8 
REMARK    5  A    between atoms: C5_8  and  C7_10 
REMARK    6  A    between atoms: C15_20  and  C16_21 
REMARK    7  A    between atoms: C16_21  and  O3_22 
REMARK    8  A    between atoms: O3_22  and  C17_23 
REMARK    9  A    between atoms: C26_34  and  O4_35 
ROOT
HETATM    1  C7  UNL     1      -6.174   6.658  13.722  1.00  0.00     0.027 C 
HETATM    2  C8  UNL     1      -6.017   5.164  14.037  1.00  0.00     0.009 C 
HETATM    3  C9  UNL     1      -4.918   4.519  13.200  1.00  0.00     0.010 C 
HETATM    4  C10 UNL     1      -3.546   5.212  13.350  1.00  0.00    -0.033 C 
HETATM    5  C11 UNL     1      -3.025   4.993  14.794  1.00  0.00     0.016 C 
HETATM    6  C12 UNL     1      -2.566   4.527  12.347  1.00  0.00     0.058 C 
HETATM    7  C13 UNL     1      -1.315   5.321  12.231  1.00  0.00     0.008 A 
HETATM    8  C14 UNL     1      -1.185   6.654  12.546  1.00  0.00     0.027 A 
HETATM    9  N2  UNL     1       0.095   7.157  12.408  1.00  0.00    -0.354 N 
ATOM     10  H2  UNL     1       0.381   8.106  12.648  1.00  0.00     0.166 HD
HETATM   11  C15 UNL     1       0.893   6.224  11.919  1.00  0.00     0.076 A 
HETATM   12  S1  UNL     1       0.163   4.681  11.687  1.00  0.00    -0.077 SA
HETATM   13  C23 UNL     1      -2.312   7.514  13.073  1.00  0.00     0.040 C 
HETATM   14  C24 UNL     1      -2.324   8.855  12.324  1.00  0.00     0.017 C 
HETATM   15  C25 UNL     1      -3.692   6.742  12.994  1.00  0.00     0.033 C 
HETATM   16  C26 UNL     1      -4.818   7.406  13.837  1.00  0.00     0.128 C 
ENDROOT
BRANCH   1  17
HETATM   17  C5  UNL     1      -7.311   7.343  14.538  1.00  0.00     0.080 C 
HETATM   18  C6  UNL     1      -7.160   7.249  16.057  1.00  0.00     0.020 C 
BRANCH  17  19
HETATM   19  C4  UNL     1      -8.693   6.904  14.044  1.00  0.00     0.222 C 
HETATM   20  N1  UNL     1      -9.775   7.405  14.726  1.00  0.00    -0.359 N 
HETATM   21  H8  UNL     1      -9.663   8.148  15.400  1.00  0.00     0.162 HD
HETATM   22  O2  UNL     1      -8.814   6.098  13.124  1.00  0.00    -0.273 OA
BRANCH  20  23
HETATM   23  C3  UNL     1     -11.134   7.004  14.400  1.00  0.00     0.148 C 
BRANCH  23  24
HETATM   24  C2  UNL     1     -11.606   7.497  13.031  1.00  0.00     0.186 C 
BRANCH  24  25
HETATM   25  O1  UNL     1     -12.973   7.926  13.091  1.00  0.00    -0.394 OA
HETATM   26  C1  UNL     1     -13.884   6.837  13.130  1.00  0.00     0.201 C 
ENDBRANCH  24  25
ENDBRANCH  23  24
ENDBRANCH  20  23
ENDBRANCH  17  19
ENDBRANCH   1  17
BRANCH  16  27
HETATM   27  O4  UNL     1      -5.014   8.738  13.379  1.00  0.00    -0.395 OA
HETATM   28  H35 UNL     1      -5.405   9.262  14.100  1.00  0.00     0.210 HD
ENDBRANCH  16  27
BRANCH  11  29
HETATM   29  C16 UNL     1       2.341   6.437  11.597  1.00  0.00     0.240 C 
BRANCH  29  30
HETATM   30  O3  UNL     1       2.484   7.531  10.682  1.00  0.00    -0.345 OA
BRANCH  30  31
HETATM   31  C17 UNL     1       2.300   7.302   9.345  1.00  0.00     0.070 A 
HETATM   32  C18 UNL     1       1.596   8.113   8.454  1.00  0.00     0.037 A 
HETATM   33  C19 UNL     1       1.484   7.749   7.108  1.00  0.00     0.004 A 
HETATM   34  C20 UNL     1       2.069   6.570   6.647  1.00  0.00     0.024 A 
HETATM   35  C21 UNL     1       2.763   5.756   7.538  1.00  0.00     0.036 A 
HETATM   36 CL1  UNL     1       3.484   4.297   6.978  1.00  0.00    -0.084 Cl
HETATM   37  C22 UNL     1       2.879   6.116   8.879  1.00  0.00     0.060 A 
ENDBRANCH  30  31
ENDBRANCH  29  30
ENDBRANCH  11  29
TORSDOF 9
ENDMDL
MODEL 5
REMARK minimizedAffinity -7.86664057
REMARK CNNscore 0.476565391
REMARK CNNaffinity 7.44057608
REMARK  9 active torsions:
REMARK  status: ('A' for Active; 'I' for Inactive)
REMARK    1  A    between atoms: O1_2  and  C2_3 
REMARK    2  A    between atoms: C2_3  and  C3_4 
REMARK    3  A    between atoms: C3_4  and  N1_5 
REMARK       I    between atoms: N1_5  and  C4_6 
REMARK    4  A    between atoms: C4_6  and  C5_8 
REMARK    5  A    between atoms: C5_8  and  C7_10 
REMARK    6  A    between atoms: C15_20  and  C16_21 
REMARK    7  A    between atoms: C16_21  and  O3_22 
REMARK    8  A    between atoms: O3_22  and  C17_23 
REMARK    9  A    between atoms: C26_34  and  O4_35 
ROOT
HETATM    1  C7  UNL     1      -8.742   7.692  14.375  1.00  0.00     0.027 C 
HETATM    2  C8  UNL     1      -9.394   6.317  14.179  1.00  0.00     0.009 C 
HETATM    3  C9  UNL     1      -8.658   5.484  13.134  1.00  0.00     0.010 C 
HETATM    4  C10 UNL     1      -7.159   5.291  13.449  1.00  0.00    -0.033 C 
HETATM    5  C11 UNL     1      -7.018   4.414  14.720  1.00  0.00     0.016 C 
HETATM    6  C12 UNL     1      -6.524   4.536  12.239  1.00  0.00     0.058 C 
HETATM    7  C13 UNL     1      -5.041   4.566  12.339  1.00  0.00     0.008 A 
HETATM    8  C14 UNL     1      -4.309   5.476  13.067  1.00  0.00     0.027 A 
HETATM    9  N2  UNL     1      -2.943   5.263  13.051  1.00  0.00    -0.354 N 
ATOM     10  H2  UNL     1      -2.259   5.807  13.577  1.00  0.00     0.166 HD
HETATM   11  C15 UNL     1      -2.658   4.250  12.253  1.00  0.00     0.076 A 
HETATM   12  S1  UNL     1      -4.019   3.454  11.558  1.00  0.00    -0.077 SA
HETATM   13  C23 UNL     1      -4.919   6.588  13.891  1.00  0.00     0.040 C 
HETATM   14  C24 UNL     1      -4.160   7.897  13.623  1.00  0.00     0.017 C 
HETATM   15  C25 UNL     1      -6.474   6.702  13.618  1.00  0.00     0.033 C 
HETATM   16  C26 UNL     1      -7.223   7.562  14.675  1.00  0.00     0.128 C 
ENDROOT
BRANCH   1  17
HETATM   17  C5  UNL     1      -9.486   8.583  15.415  1.00  0.00     0.080 C 
HETATM   18  C6  UNL     1      -9.432   8.074  16.857  1.00  0.00     0.020 C 
BRANCH  17  19
HETATM   19  C4  UNL     1     -10.908   8.913  14.949  1.00  0.00     0.222 C 
HETATM   20  N1  UNL     1     -11.030   9.901  14.003  1.00  0.00    -0.359 N 
HETATM   21  H8  UNL     1     -10.217  10.264  13.525  1.00  0.00     0.162 HD
HETATM   22  O2  UNL     1     -11.885   8.358  15.447  1.00  0.00    -0.273 OA
BRANCH  20  23
HETATM   23  C3  UNL     1     -12.330  10.354  13.537  1.00  0.00     0.148 C 
BRANCH  23  24
HETATM   24  C2  UNL     1     -12.788   9.676  12.244  1.00  0.00     0.186 C 
BRANCH  24  25
HETATM   25  O1  UNL     1     -14.103   9.126  12.400  1.00  0.00    -0.394 OA
HETATM   26  C1  UNL     1     -14.080   7.763  12.799  1.00  0.00     0.201 C 
ENDBRANCH  24  25
ENDBRANCH  23  24
ENDBRANCH  20  23
ENDBRANCH  17  19
ENDBRANCH   1  17
BRANCH  16  27
HETATM   27  O4  UNL     1      -6.667   8.871  14.686  1.00  0.00    -0.395 OA
HETATM   28  H35 UNL     1      -6.839   9.277  15.553  1.00  0.00     0.210 HD
ENDBRANCH  16  27
BRANCH  11  29
HETATM   29  C16 UNL     1      -1.267   3.773  11.961  1.00  0.00     0.240 C 
BRANCH  29  30
HETATM   30  O3  UNL     1      -0.312   4.752  12.389  1.00  0.00    -0.345 OA
BRANCH  30  31
HETATM   31  C17 UNL     1       0.489   5.346  11.452  1.00  0.00     0.070 A 
HETATM   32  C18 UNL     1       1.778   4.950  11.093  1.00  0.00     0.037 A 
HETATM   33  C19 UNL     1       2.487   5.659  10.116  1.00  0.00     0.004 A 
HETATM   34  C20 UNL     1       1.913   6.769   9.499  1.00  0.00     0.024 A 
HETATM   35  C21 UNL     1       0.630   7.169   9.864  1.00  0.00     0.036 A 
HETATM   36 CL1  UNL     1      -0.083   8.543   9.109  1.00  0.00    -0.084 Cl
HETATM   37  C22 UNL     1      -0.080   6.465  10.834  1.00  0.00     0.060 A 
ENDBRANCH  30  31
ENDBRANCH  29  30
ENDBRANCH  11  29
TORSDOF 9
ENDMDL
MODEL 6
REMARK minimizedAffinity -8.84129333
REMARK CNNscore 0.456797987
REMARK CNNaffinity 7.12462759
REMARK  9 active torsions:
REMARK  status: ('A' for Active; 'I' for Inactive)
REMARK    1  A    between atoms: O1_2  and  C2_3 
REMARK    2  A    between atoms: C2_3  and  C3_4 
REMARK    3  A    between atoms: C3_4  and  N1_5 
REMARK       I    between atoms: N1_5  and  C4_6 
REMARK    4  A    between atoms: C4_6  and  C5_8 
REMARK    5  A    between atoms: C5_8  and  C7_10 
REMARK    6  A    between atoms: C15_20  and  C16_21 
REMARK    7  A    between atoms: C16_21  and  O3_22 
REMARK    8  A    between atoms: O3_22  and  C17_23 
REMARK    9  A    between atoms: C26_34  and  O4_35 
ROOT
HETATM    1  C7  UNL     1      -7.697   6.103  14.017  1.00  0.00     0.027 C 
HETATM    2  C8  UNL     1      -7.519   7.511  14.602  1.00  0.00     0.009 C 
HETATM    3  C9  UNL     1      -6.187   7.658  15.330  1.00  0.00     0.010 C 
HETATM    4  C10 UNL     1      -4.965   7.320  14.449  1.00  0.00    -0.033 C 
HETATM    5  C11 UNL     1      -4.841   8.384  13.328  1.00  0.00     0.016 C 
HETATM    6  C12 UNL     1      -3.700   7.393  15.360  1.00  0.00     0.058 C 
HETATM    7  C13 UNL     1      -2.528   6.807  14.656  1.00  0.00     0.008 A 
HETATM    8  C14 UNL     1      -2.591   5.922  13.604  1.00  0.00     0.027 A 
HETATM    9  N2  UNL     1      -1.364   5.563  13.079  1.00  0.00    -0.354 N 
ATOM     10  H2  UNL     1      -1.228   4.961  12.266  1.00  0.00     0.166 HD
HETATM   11  C15 UNL     1      -0.395   6.114  13.787  1.00  0.00     0.076 A 
HETATM   12  S1  UNL     1      -0.914   7.158  15.056  1.00  0.00    -0.077 SA
HETATM   13  C23 UNL     1      -3.882   5.419  12.997  1.00  0.00     0.040 C 
HETATM   14  C24 UNL     1      -3.792   3.898  12.795  1.00  0.00     0.017 C 
HETATM   15  C25 UNL     1      -5.124   5.861  13.871  1.00  0.00     0.033 C 
HETATM   16  C26 UNL     1      -6.484   5.698  13.135  1.00  0.00     0.128 C 
ENDROOT
BRANCH   1  17
HETATM   17  C5  UNL     1      -9.062   5.907  13.291  1.00  0.00     0.080 C 
HETATM   18  C6  UNL     1      -9.003   6.019  11.766  1.00  0.00     0.020 C 
BRANCH  17  19
HETATM   19  C4  UNL     1     -10.155   6.781  13.914  1.00  0.00     0.222 C 
HETATM   20  N1  UNL     1     -11.369   6.180  14.136  1.00  0.00    -0.359 N 
HETATM   21  H8  UNL     1     -11.475   5.179  14.050  1.00  0.00     0.162 HD
HETATM   22  O2  UNL     1      -9.962   7.974  14.143  1.00  0.00    -0.273 OA
BRANCH  20  23
HETATM   23  C3  UNL     1     -12.506   6.924  14.654  1.00  0.00     0.148 C 
BRANCH  23  24
HETATM   24  C2  UNL     1     -13.367   7.564  13.563  1.00  0.00     0.186 C 
BRANCH  24  25
HETATM   25  O1  UNL     1     -14.387   6.657  13.126  1.00  0.00    -0.394 OA
HETATM   26  C1  UNL     1     -15.373   7.292  12.323  1.00  0.00     0.201 C 
ENDBRANCH  24  25
ENDBRANCH  23  24
ENDBRANCH  20  23
ENDBRANCH  17  19
ENDBRANCH   1  17
BRANCH  16  27
HETATM   27  O4  UNL     1      -6.650   4.335  12.764  1.00  0.00    -0.395 OA
HETATM   28  H35 UNL     1      -7.262   4.289  12.008  1.00  0.00     0.210 HD
ENDBRANCH  16  27
BRANCH  11  29
HETATM   29  C16 UNL     1       1.066   5.900  13.528  1.00  0.00     0.240 C 
BRANCH  29  30
HETATM   30  O3  UNL     1       1.266   5.467  12.176  1.00  0.00    -0.345 OA
BRANCH  30  31
HETATM   31  C17 UNL     1       2.114   6.180  11.374  1.00  0.00     0.070 A 
HETATM   32  C18 UNL     1       3.194   6.958  11.793  1.00  0.00     0.037 A 
HETATM   33  C19 UNL     1       3.976   7.642  10.855  1.00  0.00     0.004 A 
HETATM   34  C20 UNL     1       3.679   7.556   9.496  1.00  0.00     0.024 A 
HETATM   35  C21 UNL     1       2.596   6.788   9.079  1.00  0.00     0.036 A 
HETATM   36 CL1  UNL     1       2.219   6.681   7.402  1.00  0.00    -0.084 Cl
HETATM   37  C22 UNL     1       1.815   6.104  10.009  1.00  0.00     0.060 A 
ENDBRANCH  30  31
ENDBRANCH  29  30
ENDBRANCH  11  29
TORSDOF 9
ENDMDL
MODEL 7
REMARK minimizedAffinity -8.64580631
REMARK CNNscore 0.45542413
REMARK CNNaffinity 7.14778519
REMARK  9 active torsions:
REMARK  status: ('A' for Active; 'I' for Inactive)
REMARK    1  A    between atoms: O1_2  and  C2_3 
REMARK    2  A    between atoms: C2_3  and  C3_4 
REMARK    3  A    between atoms: C3_4  and  N1_5 
REMARK       I    between atoms: N1_5  and  C4_6 
REMARK    4  A    between atoms: C4_6  and  C5_8 
REMARK    5  A    between atoms: C5_8  and  C7_10 
REMARK    6  A    between atoms: C15_20  and  C16_21 
REMARK    7  A    between atoms: C16_21  and  O3_22 
REMARK    8  A    between atoms: O3_22  and  C17_23 
REMARK    9  A    between atoms: C26_34  and  O4_35 
ROOT
HETATM    1  C7  UNL     1      -6.197   4.193  12.207  1.00  0.00     0.027 C 
HETATM    2  C8  UNL     1      -5.643   2.913  11.568  1.00  0.00     0.009 C 
HETATM    3  C9  UNL     1      -4.331   3.166  10.835  1.00  0.00     0.010 C 
HETATM    4  C10 UNL     1      -3.240   3.795  11.728  1.00  0.00    -0.033 C 
HETATM    5  C11 UNL     1      -2.815   2.766  12.807  1.00  0.00     0.016 C 
HETATM    6  C12 UNL     1      -2.014   4.109  10.816  1.00  0.00     0.058 C 
HETATM    7  C13 UNL     1      -1.042   4.969  11.541  1.00  0.00     0.008 A 
HETATM    8  C14 UNL     1      -1.336   5.762  12.627  1.00  0.00     0.027 A 
HETATM    9  N2  UNL     1      -0.250   6.427  13.166  1.00  0.00    -0.354 N 
ATOM     10  H2  UNL     1      -0.277   7.012  14.001  1.00  0.00     0.166 HD
HETATM   11  C15 UNL     1       0.826   6.192  12.437  1.00  0.00     0.076 A 
HETATM   12  S1  UNL     1       0.602   5.093  11.128  1.00  0.00    -0.077 SA
HETATM   13  C23 UNL     1      -2.709   5.866  13.253  1.00  0.00     0.040 C 
HETATM   14  C24 UNL     1      -3.040   7.344  13.513  1.00  0.00     0.017 C 
HETATM   15  C25 UNL     1      -3.790   5.131  12.362  1.00  0.00     0.033 C 
HETATM   16  C26 UNL     1      -5.134   4.884  13.104  1.00  0.00     0.128 C 
ENDROOT
BRANCH   1  17
HETATM   17  C5  UNL     1      -7.556   3.977  12.939  1.00  0.00     0.080 C 
HETATM   18  C6  UNL     1      -8.231   2.633  12.662  1.00  0.00     0.020 C 
BRANCH  17  19
HETATM   19  C4  UNL     1      -8.494   5.172  12.738  1.00  0.00     0.222 C 
HETATM   20  N1  UNL     1      -9.049   5.713  13.871  1.00  0.00    -0.359 N 
HETATM   21  H8  UNL     1      -8.722   5.443  14.788  1.00  0.00     0.162 HD
HETATM   22  O2  UNL     1      -8.774   5.577  11.612  1.00  0.00    -0.273 OA
BRANCH  20  23
HETATM   23  C3  UNL     1     -10.011   6.801  13.804  1.00  0.00     0.148 C 
BRANCH  23  24
HETATM   24  C2  UNL     1      -9.660   7.986  14.705  1.00  0.00     0.186 C 
BRANCH  24  25
HETATM   25  O1  UNL     1      -9.662   7.592  16.083  1.00  0.00    -0.394 OA
HETATM   26  C1  UNL     1      -8.352   7.505  16.626  1.00  0.00     0.201 C 
ENDBRANCH  24  25
ENDBRANCH  23  24
ENDBRANCH  20  23
ENDBRANCH  17  19
ENDBRANCH   1  17
BRANCH  16  27
HETATM   27  O4  UNL     1      -5.666   6.133  13.528  1.00  0.00    -0.395 OA
HETATM   28  H35 UNL     1      -6.258   5.981  14.285  1.00  0.00     0.210 HD
ENDBRANCH  16  27
BRANCH  11  29
HETATM   29  C16 UNL     1       2.173   6.792  12.704  1.00  0.00     0.240 C 
BRANCH  29  30
HETATM   30  O3  UNL     1       2.537   7.675  11.636  1.00  0.00    -0.345 OA
BRANCH  30  31
HETATM   31  C17 UNL     1       1.612   7.957  10.669  1.00  0.00     0.070 A 
HETATM   32  C18 UNL     1       0.361   8.545  10.864  1.00  0.00     0.037 A 
HETATM   33  C19 UNL     1      -0.490   8.770   9.775  1.00  0.00     0.004 A 
HETATM   34  C20 UNL     1      -0.096   8.403   8.488  1.00  0.00     0.024 A 
HETATM   35  C21 UNL     1       1.147   7.809   8.295  1.00  0.00     0.036 A 
HETATM   36 CL1  UNL     1       1.638   7.348   6.710  1.00  0.00    -0.084 Cl
HETATM   37  C22 UNL     1       1.998   7.584   9.376  1.00  0.00     0.060 A 
ENDBRANCH  30  31
ENDBRANCH  29  30
ENDBRANCH  11  29
TORSDOF 9
ENDMDL
MODEL 8
REMARK minimizedAffinity -7.8287816
REMARK CNNscore 0.390903413
REMARK CNNaffinity 7.05712366
REMARK  9 active torsions:
REMARK  status: ('A' for Active; 'I' for Inactive)
REMARK    1  A    between atoms: O1_2  and  C2_3 
REMARK    2  A    between atoms: C2_3  and  C3_4 
REMARK    3  A    between atoms: C3_4  and  N1_5 
REMARK       I    between atoms: N1_5  and  C4_6 
REMARK    4  A    between atoms: C4_6  and  C5_8 
REMARK    5  A    between atoms: C5_8  and  C7_10 
REMARK    6  A    between atoms: C15_20  and  C16_21 
REMARK    7  A    between atoms: C16_21  and  O3_22 
REMARK    8  A    between atoms: O3_22  and  C17_23 
REMARK    9  A    between atoms: C26_34  and  O4_35 
ROOT
HETATM    1  C7  UNL     1       0.216   7.168  12.323  1.00  0.00     0.027 C 
HETATM    2  C8  UNL     1       0.190   8.469  13.136  1.00  0.00     0.009 C 
HETATM    3  C9  UNL     1      -1.216   9.054  13.226  1.00  0.00     0.010 C 
HETATM    4  C10 UNL     1      -2.253   8.071  13.812  1.00  0.00    -0.033 C 
HETATM    5  C11 UNL     1      -1.915   7.810  15.303  1.00  0.00     0.016 C 
HETATM    6  C12 UNL     1      -3.650   8.760  13.722  1.00  0.00     0.058 C 
HETATM    7  C13 UNL     1      -4.727   7.774  14.001  1.00  0.00     0.008 A 
HETATM    8  C14 UNL     1      -4.605   6.408  13.889  1.00  0.00     0.027 A 
HETATM    9  N2  UNL     1      -5.730   5.696  14.259  1.00  0.00    -0.354 N 
ATOM     10  H2  UNL     1      -5.796   4.678  14.289  1.00  0.00     0.166 HD
HETATM   11  C15 UNL     1      -6.706   6.530  14.568  1.00  0.00     0.076 A 
HETATM   12  S1  UNL     1      -6.290   8.201  14.514  1.00  0.00    -0.077 SA
HETATM   13  C23 UNL     1      -3.334   5.703  13.467  1.00  0.00     0.040 C 
HETATM   14  C24 UNL     1      -3.670   4.623  12.427  1.00  0.00     0.017 C 
HETATM   15  C25 UNL     1      -2.256   6.744  12.959  1.00  0.00     0.033 C 
HETATM   16  C26 UNL     1      -0.824   6.146  12.855  1.00  0.00     0.128 C 
ENDROOT
BRANCH   1  17
HETATM   17  C5  UNL     1       1.644   6.559  12.184  1.00  0.00     0.080 C 
HETATM   18  C6  UNL     1       2.746   7.324  12.920  1.00  0.00     0.020 C 
BRANCH  17  19
HETATM   19  C4  UNL     1       1.989   6.274  10.719  1.00  0.00     0.222 C 
HETATM   20  N1  UNL     1       2.634   7.275  10.036  1.00  0.00    -0.359 N 
HETATM   21  H8  UNL     1       3.006   8.078  10.522  1.00  0.00     0.162 HD
HETATM   22  O2  UNL     1       1.647   5.224  10.178  1.00  0.00    -0.273 OA
BRANCH  20  23
HETATM   23  C3  UNL     1       2.948   7.153   8.621  1.00  0.00     0.148 C 
BRANCH  23  24
HETATM   24  C2  UNL     1       1.879   7.747   7.702  1.00  0.00     0.186 C 
BRANCH  24  25
HETATM   25  O1  UNL     1       1.179   8.810   8.361  1.00  0.00    -0.394 OA
HETATM   26  C1  UNL     1      -0.186   8.496   8.603  1.00  0.00     0.201 C 
ENDBRANCH  24  25
ENDBRANCH  23  24
ENDBRANCH  20  23
ENDBRANCH  17  19
ENDBRANCH   1  17
BRANCH  16  27
HETATM   27  O4  UNL     1      -0.848   5.041  11.959  1.00  0.00    -0.395 OA
HETATM   28  H35 UNL     1      -0.105   4.450  12.171  1.00  0.00     0.210 HD
ENDBRANCH  16  27
BRANCH  11  29
HETATM   29  C16 UNL     1      -8.085   6.102  14.969  1.00  0.00     0.240 C 
BRANCH  29  30
HETATM   30  O3  UNL     1      -9.031   6.497  13.968  1.00  0.00    -0.345 OA
BRANCH  30  31
HETATM   31  C17 UNL     1     -10.160   7.168  14.354  1.00  0.00     0.070 A 
HETATM   32  C18 UNL     1     -11.434   7.034  13.800  1.00  0.00     0.037 A 
HETATM   33  C19 UNL     1     -12.501   7.793  14.295  1.00  0.00     0.004 A 
HETATM   34  C20 UNL     1     -12.297   8.693  15.340  1.00  0.00     0.024 A 
HETATM   35  C21 UNL     1     -11.025   8.832  15.887  1.00  0.00     0.036 A 
HETATM   36 CL1  UNL     1     -10.765   9.945  17.174  1.00  0.00    -0.084 Cl
HETATM   37  C22 UNL     1      -9.960   8.077  15.398  1.00  0.00     0.060 A 
ENDBRANCH  30  31
ENDBRANCH  29  30
ENDBRANCH  11  29
TORSDOF 9
ENDMDL
MODEL 9
REMARK minimizedAffinity -7.37183428
REMARK CNNscore 0.344356298
REMARK CNNaffinity 7.00873041
REMARK  9 active torsions:
REMARK  status: ('A' for Active; 'I' for Inactive)
REMARK    1  A    between atoms: O1_2  and  C2_3 
REMARK    2  A    between atoms: C2_3  and  C3_4 
REMARK    3  A    between atoms: C3_4  and  N1_5 
REMARK       I    between atoms: N1_5  and  C4_6 
REMARK    4  A    between atoms: C4_6  and  C5_8 
REMARK    5  A    between atoms: C5_8  and  C7_10 
REMARK    6  A    between atoms: C15_20  and  C16_21 
REMARK    7  A    between atoms: C16_21  and  O3_22 
REMARK    8  A    between atoms: O3_22  and  C17_23 
REMARK    9  A    between atoms: C26_34  and  O4_35 
ROOT
HETATM    1  C7  UNL     1      -2.110   6.020  13.037  1.00  0.00     0.027 C 
HETATM    2  C8  UNL     1      -1.923   7.131  14.078  1.00  0.00     0.009 C 
HETATM    3  C9  UNL     1      -3.141   8.046  14.157  1.00  0.00     0.010 C 
HETATM    4  C10 UNL     1      -4.455   7.292  14.456  1.00  0.00    -0.033 C 
HETATM    5  C11 UNL     1      -4.391   6.713  15.892  1.00  0.00     0.016 C 
HETATM    6  C12 UNL     1      -5.616   8.333  14.380  1.00  0.00     0.058 C 
HETATM    7  C13 UNL     1      -6.929   7.636  14.374  1.00  0.00     0.008 A 
HETATM    8  C14 UNL     1      -7.133   6.324  14.014  1.00  0.00     0.027 A 
HETATM    9  N2  UNL     1      -8.437   5.886  14.145  1.00  0.00    -0.354 N 
ATOM     10  H2  UNL     1      -8.755   4.932  13.975  1.00  0.00     0.166 HD
HETATM   11  C15 UNL     1      -9.210   6.888  14.523  1.00  0.00     0.076 A 
HETATM   12  S1  UNL     1      -8.392   8.375  14.824  1.00  0.00    -0.077 SA
HETATM   13  C23 UNL     1      -6.031   5.385  13.575  1.00  0.00     0.040 C 
HETATM   14  C24 UNL     1      -6.483   4.616  12.324  1.00  0.00     0.017 C 
HETATM   15  C25 UNL     1      -4.673   6.170  13.369  1.00  0.00     0.033 C 
HETATM   16  C26 UNL     1      -3.431   5.238  13.274  1.00  0.00     0.128 C 
ENDROOT
BRANCH   1  17
HETATM   17  C5  UNL     1      -0.871   5.084  12.907  1.00  0.00     0.080 C 
HETATM   18  C6  UNL     1       0.185   5.257  14.000  1.00  0.00     0.020 C 
BRANCH  17  19
HETATM   19  C4  UNL     1      -0.283   5.130  11.493  1.00  0.00     0.222 C 
HETATM   20  N1  UNL     1       0.812   5.938  11.311  1.00  0.00    -0.359 N 
HETATM   21  H8  UNL     1       1.297   6.339  12.101  1.00  0.00     0.162 HD
HETATM   22  O2  UNL     1      -0.810   4.520  10.565  1.00  0.00    -0.273 OA
BRANCH  20  23
HETATM   23  C3  UNL     1       1.414   6.123  10.000  1.00  0.00     0.148 C 
BRANCH  23  24
HETATM   24  C2  UNL     1       2.842   5.583   9.900  1.00  0.00     0.186 C 
BRANCH  24  25
HETATM   25  O1  UNL     1       3.656   6.450   9.099  1.00  0.00    -0.394 OA
HETATM   26  C1  UNL     1       3.483   7.821   9.433  1.00  0.00     0.201 C 
ENDBRANCH  24  25
ENDBRANCH  23  24
ENDBRANCH  20  23
ENDBRANCH  17  19
ENDBRANCH   1  17
BRANCH  16  27
HETATM   27  O4  UNL     1      -3.608   4.340  12.185  1.00  0.00    -0.395 OA
HETATM   28  H35 UNL     1      -3.068   3.546  12.343  1.00  0.00     0.210 HD
ENDBRANCH  16  27
BRANCH  11  29
HETATM   29  C16 UNL     1     -10.693   6.783  14.717  1.00  0.00     0.240 C 
BRANCH  29  30
HETATM   30  O3  UNL     1     -11.354   6.782  13.446  1.00  0.00    -0.345 OA
BRANCH  30  31
HETATM   31  C17 UNL     1     -12.515   7.492  13.305  1.00  0.00     0.070 A 
HETATM   32  C18 UNL     1     -12.631   8.879  13.201  1.00  0.00     0.037 A 
HETATM   33  C19 UNL     1     -13.891   9.473  13.067  1.00  0.00     0.004 A 
HETATM   34  C20 UNL     1     -15.041   8.684  13.042  1.00  0.00     0.024 A 
HETATM   35  C21 UNL     1     -14.926   7.302  13.155  1.00  0.00     0.036 A 
HETATM   36 CL1  UNL     1     -16.341   6.321  13.130  1.00  0.00    -0.084 Cl
HETATM   37  C22 UNL     1     -13.673   6.706  13.287  1.00  0.00     0.060 A 
ENDBRANCH  30  31
ENDBRANCH  29  30
ENDBRANCH  11  29
TORSDOF 9
ENDMDL
