MODEL 1
REMARK minimizedAffinity -10.2289696
REMARK CNNscore 0.622984529
REMARK CNNaffinity 7.33969116
REMARK  5 active torsions:
REMARK  status: ('A' for Active; 'I' for Inactive)
REMARK    1  A    between atoms: C3_3  and  C4_4 
REMARK    2  A    between atoms: C4_4  and  C5_5 
REMARK       I    between atoms: C5_5  and  N1_7 
REMARK    3  A    between atoms: N1_7  and  C6_8 
REMARK    4  A    between atoms: C6_8  and  C7_9 
REMARK    5  A    between atoms: C7_9  and  C8_10 
ROOT
HETATM    1  C1  UNL     1      -0.871  50.021 -20.761  1.00  0.00     0.050 C 
HETATM    2  C2  UNL     1      -0.090  51.221 -20.288  1.00  0.00    -0.036 A 
HETATM    3  C3  UNL     1       0.291  52.234 -21.097  1.00  0.00     0.033 A 
HETATM    4  C16 UNL     1       1.011  53.426 -20.571  1.00  0.00     0.295 A 
HETATM    5  O2  UNL     1       1.304  54.371 -21.301  1.00  0.00    -0.259 OA
HETATM    6  O3  UNL     1       1.340  53.437 -19.230  1.00  0.00    -0.274 OA
HETATM    7  C17 UNL     1       0.963  52.388 -18.380  1.00  0.00     0.093 A 
HETATM    8  C18 UNL     1       1.330  52.520 -17.040  1.00  0.00     0.075 A 
HETATM    9  C19 UNL     1       0.977  51.529 -16.130  1.00  0.00     0.079 A 
HETATM   10  C20 UNL     1       0.283  50.399 -16.567  1.00  0.00    -0.024 A 
HETATM   11  C21 UNL     1      -0.081  50.292 -17.923  1.00  0.00     0.024 A 
HETATM   12  C22 UNL     1       0.254  51.287 -18.853  1.00  0.00     0.005 A 
HETATM   13  C23 UNL     1      -0.109  49.320 -15.602  1.00  0.00     0.044 C 
HETATM   14  C24 UNL     1       0.714  49.421 -14.327  1.00  0.00     0.042 C 
HETATM   15  C25 UNL     1       0.803  50.874 -13.836  1.00  0.00     0.061 C 
HETATM   16  C26 UNL     1       1.763  50.933 -12.639  1.00  0.00     0.046 C 
HETATM   17  C27 UNL     1      -0.557  51.440 -13.397  1.00  0.00     0.046 C 
HETATM   18  O4  UNL     1       1.368  51.738 -14.838  1.00  0.00    -0.340 OA
ENDROOT
BRANCH   3  19
HETATM   19  C4  UNL     1       0.059  52.297 -22.585  1.00  0.00     0.148 C 
BRANCH  19  20
HETATM   20  C5  UNL     1      -1.335  51.789 -22.910  1.00  0.00     0.222 C 
HETATM   21  O1  UNL     1      -2.346  52.424 -22.617  1.00  0.00    -0.273 OA
HETATM   22  N1  UNL     1      -1.362  50.578 -23.556  1.00  0.00    -0.360 N 
HETATM   23  H6  UNL     1      -0.481  50.101 -23.741  1.00  0.00     0.162 HD
BRANCH  22  24
HETATM   24  C6  UNL     1      -2.597  49.881 -23.860  1.00  0.00     0.127 C 
BRANCH  24  25
HETATM   25  C7  UNL     1      -2.605  49.236 -25.251  1.00  0.00     0.060 C 
BRANCH  25  26
HETATM   26  C8  UNL     1      -2.378  50.226 -26.355  1.00  0.00    -0.029 A 
HETATM   27  C9  UNL     1      -3.343  50.780 -27.174  1.00  0.00     0.096 A 
HETATM   28  N2  UNL     1      -2.731  51.652 -28.032  1.00  0.00    -0.365 N 
HETATM   29  C10 UNL     1      -1.377  51.684 -27.794  1.00  0.00     0.043 A 
HETATM   30  H12 UNL     1      -3.203  52.202 -28.738  1.00  0.00     0.165 HD
HETATM   31  C11 UNL     1      -0.371  52.433 -28.416  1.00  0.00     0.032 A 
HETATM   32  C15 UNL     1      -1.123  50.789 -26.755  1.00  0.00    -0.000 A 
HETATM   33  C12 UNL     1       0.940  52.262 -27.957  1.00  0.00     0.026 A 
HETATM   34  C13 UNL     1       1.221  51.370 -26.925  1.00  0.00     0.035 A 
HETATM   35 CL1  UNL     1       2.844  51.189 -26.378  1.00  0.00    -0.084 Cl
HETATM   36  C14 UNL     1       0.208  50.623 -26.318  1.00  0.00     0.038 A 
ENDBRANCH  25  26
ENDBRANCH  24  25
ENDBRANCH  22  24
ENDBRANCH  19  20
ENDBRANCH   3  19
TORSDOF 5
ENDMDL
MODEL 2
REMARK minimizedAffinity -9.68074417
REMARK CNNscore 0.47653082
REMARK CNNaffinity 7.22932243
REMARK  5 active torsions:
REMARK  status: ('A' for Active; 'I' for Inactive)
REMARK    1  A    between atoms: C3_3  and  C4_4 
REMARK    2  A    between atoms: C4_4  and  C5_5 
REMARK       I    between atoms: C5_5  and  N1_7 
REMARK    3  A    between atoms: N1_7  and  C6_8 
REMARK    4  A    between atoms: C6_8  and  C7_9 
REMARK    5  A    between atoms: C7_9  and  C8_10 
ROOT
HETATM    1  C1  UNL     1      -1.200  49.416 -21.209  1.00  0.00     0.050 C 
HETATM    2  C2  UNL     1      -0.605  50.801 -21.257  1.00  0.00    -0.036 A 
HETATM    3  C3  UNL     1      -0.274  51.514 -20.158  1.00  0.00     0.033 A 
HETATM    4  C16 UNL     1       0.365  52.855 -20.258  1.00  0.00     0.295 A 
HETATM    5  O2  UNL     1       0.717  53.473 -19.255  1.00  0.00    -0.259 OA
HETATM    6  O3  UNL     1       0.553  53.384 -21.520  1.00  0.00    -0.274 OA
HETATM    7  C17 UNL     1       0.204  52.662 -22.670  1.00  0.00     0.093 A 
HETATM    8  C18 UNL     1       0.461  53.288 -23.891  1.00  0.00     0.075 A 
HETATM    9  C19 UNL     1       0.159  52.630 -25.077  1.00  0.00     0.079 A 
HETATM   10  C20 UNL     1      -0.423  51.362 -25.041  1.00  0.00    -0.024 A 
HETATM   11  C21 UNL     1      -0.667  50.748 -23.797  1.00  0.00     0.024 A 
HETATM   12  C22 UNL     1      -0.358  51.391 -22.589  1.00  0.00     0.005 A 
HETATM   13  C23 UNL     1      -0.755  50.633 -26.309  1.00  0.00     0.044 C 
HETATM   14  C24 UNL     1      -0.803  51.601 -27.482  1.00  0.00     0.042 C 
HETATM   15  C25 UNL     1       0.392  52.565 -27.457  1.00  0.00     0.061 C 
HETATM   16  C26 UNL     1       0.210  53.607 -28.571  1.00  0.00     0.046 C 
HETATM   17  C27 UNL     1       1.737  51.853 -27.673  1.00  0.00     0.046 C 
HETATM   18  O4  UNL     1       0.449  53.309 -26.227  1.00  0.00    -0.340 OA
ENDROOT
BRANCH   3  19
HETATM   19  C4  UNL     1      -0.502  51.077 -18.733  1.00  0.00     0.148 C 
BRANCH  19  20
HETATM   20  C5  UNL     1      -1.989  50.890 -18.485  1.00  0.00     0.222 C 
HETATM   21  O1  UNL     1      -2.771  51.838 -18.455  1.00  0.00    -0.273 OA
HETATM   22  N1  UNL     1      -2.375  49.584 -18.306  1.00  0.00    -0.360 N 
HETATM   23  H6  UNL     1      -1.662  48.856 -18.320  1.00  0.00     0.162 HD
BRANCH  22  24
HETATM   24  C6  UNL     1      -3.732  49.210 -17.958  1.00  0.00     0.127 C 
BRANCH  24  25
HETATM   25  C7  UNL     1      -4.389  48.280 -18.986  1.00  0.00     0.060 C 
BRANCH  25  26
HETATM   26  C8  UNL     1      -5.311  49.002 -19.922  1.00  0.00    -0.029 A 
HETATM   27  C9  UNL     1      -6.458  49.691 -19.577  1.00  0.00     0.096 A 
HETATM   28  N2  UNL     1      -6.998  50.226 -20.715  1.00  0.00    -0.365 N 
HETATM   29  C10 UNL     1      -6.227  49.903 -21.806  1.00  0.00     0.043 A 
HETATM   30  H12 UNL     1      -7.840  50.786 -20.753  1.00  0.00     0.165 HD
HETATM   31  C11 UNL     1      -6.389  50.240 -23.155  1.00  0.00     0.032 A 
HETATM   32  C15 UNL     1      -5.168  49.123 -21.342  1.00  0.00    -0.000 A 
HETATM   33  C12 UNL     1      -5.432  49.767 -24.059  1.00  0.00     0.026 A 
HETATM   34  C13 UNL     1      -4.367  48.982 -23.623  1.00  0.00     0.035 A 
HETATM   35 CL1  UNL     1      -3.202  48.422 -24.761  1.00  0.00    -0.084 Cl
HETATM   36  C14 UNL     1      -4.222  48.646 -22.274  1.00  0.00     0.038 A 
ENDBRANCH  25  26
ENDBRANCH  24  25
ENDBRANCH  22  24
ENDBRANCH  19  20
ENDBRANCH   3  19
TORSDOF 5
ENDMDL
MODEL 3
REMARK minimizedAffinity -9.77574158
REMARK CNNscore 0.469020158
REMARK CNNaffinity 6.85938835
REMARK  5 active torsions:
REMARK  status: ('A' for Active; 'I' for Inactive)
REMARK    1  A    between atoms: C3_3  and  C4_4 
REMARK    2  A    between atoms: C4_4  and  C5_5 
REMARK       I    between atoms: C5_5  and  N1_7 
REMARK    3  A    between atoms: N1_7  and  C6_8 
REMARK    4  A    between atoms: C6_8  and  C7_9 
REMARK    5  A    between atoms: C7_9  and  C8_10 
ROOT
HETATM    1  C1  UNL     1      -1.240  49.425 -21.046  1.00  0.00     0.050 C 
HETATM    2  C2  UNL     1      -0.535  50.756 -21.126  1.00  0.00    -0.036 A 
HETATM    3  C3  UNL     1      -0.009  51.391 -20.056  1.00  0.00     0.033 A 
HETATM    4  C16 UNL     1       0.730  52.677 -20.196  1.00  0.00     0.295 A 
HETATM    5  O2  UNL     1       1.256  53.221 -19.227  1.00  0.00    -0.259 OA
HETATM    6  O3  UNL     1       0.806  53.241 -21.454  1.00  0.00    -0.274 OA
HETATM    7  C17 UNL     1       0.254  52.600 -22.572  1.00  0.00     0.093 A 
HETATM    8  C18 UNL     1       0.412  53.252 -23.796  1.00  0.00     0.075 A 
HETATM    9  C19 UNL     1      -0.092  52.673 -24.954  1.00  0.00     0.079 A 
HETATM   10  C20 UNL     1      -0.775  51.457 -24.883  1.00  0.00    -0.024 A 
HETATM   11  C21 UNL     1      -0.917  50.815 -23.638  1.00  0.00     0.024 A 
HETATM   12  C22 UNL     1      -0.404  51.378 -22.460  1.00  0.00     0.005 A 
HETATM   13  C23 UNL     1      -1.325  50.813 -26.121  1.00  0.00     0.044 C 
HETATM   14  C24 UNL     1      -1.433  51.830 -27.247  1.00  0.00     0.042 C 
HETATM   15  C25 UNL     1      -0.163  52.688 -27.345  1.00  0.00     0.061 C 
HETATM   16  C26 UNL     1      -0.389  53.787 -28.394  1.00  0.00     0.046 C 
HETATM   17  C27 UNL     1       1.076  51.875 -27.752  1.00  0.00     0.046 C 
HETATM   18  O4  UNL     1       0.112  53.372 -26.109  1.00  0.00    -0.340 OA
ENDROOT
BRANCH   3  19
HETATM   19  C4  UNL     1      -0.096  50.916 -18.628  1.00  0.00     0.148 C 
BRANCH  19  20
HETATM   20  C5  UNL     1      -1.518  51.081 -18.118  1.00  0.00     0.222 C 
HETATM   21  O1  UNL     1      -2.272  51.948 -18.555  1.00  0.00    -0.273 OA
HETATM   22  N1  UNL     1      -1.879  50.184 -17.143  1.00  0.00    -0.360 N 
HETATM   23  H6  UNL     1      -1.187  49.511 -16.816  1.00  0.00     0.162 HD
BRANCH  22  24
HETATM   24  C6  UNL     1      -3.157  50.243 -16.461  1.00  0.00     0.127 C 
BRANCH  24  25
HETATM   25  C7  UNL     1      -3.158  51.190 -15.254  1.00  0.00     0.060 C 
BRANCH  25  26
HETATM   26  C8  UNL     1      -3.080  50.465 -13.943  1.00  0.00    -0.029 A 
HETATM   27  C9  UNL     1      -2.812  49.122 -13.761  1.00  0.00     0.096 A 
HETATM   28  N2  UNL     1      -2.805  48.861 -12.418  1.00  0.00    -0.365 N 
HETATM   29  C10 UNL     1      -3.065  50.010 -11.709  1.00  0.00     0.043 A 
HETATM   30  H12 UNL     1      -2.629  47.957 -12.000  1.00  0.00     0.165 HD
HETATM   31  C11 UNL     1      -3.145  50.217 -10.326  1.00  0.00     0.032 A 
HETATM   32  C15 UNL     1      -3.256  51.032 -12.639  1.00  0.00    -0.000 A 
HETATM   33  C12 UNL     1      -3.425  51.514  -9.881  1.00  0.00     0.026 A 
HETATM   34  C13 UNL     1      -3.625  52.550 -10.790  1.00  0.00     0.035 A 
HETATM   35 CL1  UNL     1      -3.960  54.137 -10.209  1.00  0.00    -0.084 Cl
HETATM   36  C14 UNL     1      -3.550  52.328 -12.168  1.00  0.00     0.038 A 
ENDBRANCH  25  26
ENDBRANCH  24  25
ENDBRANCH  22  24
ENDBRANCH  19  20
ENDBRANCH   3  19
TORSDOF 5
ENDMDL
MODEL 4
REMARK minimizedAffinity -8.76570606
REMARK CNNscore 0.388777524
REMARK CNNaffinity 5.58543777
REMARK  5 active torsions:
REMARK  status: ('A' for Active; 'I' for Inactive)
REMARK    1  A    between atoms: C3_3  and  C4_4 
REMARK    2  A    between atoms: C4_4  and  C5_5 
REMARK       I    between atoms: C5_5  and  N1_7 
REMARK    3  A    between atoms: N1_7  and  C6_8 
REMARK    4  A    between atoms: C6_8  and  C7_9 
REMARK    5  A    between atoms: C7_9  and  C8_10 
ROOT
HETATM    1  C1  UNL     1      -9.948  48.498 -26.803  1.00  0.00     0.050 C 
HETATM    2  C2  UNL     1     -10.638  47.944 -28.024  1.00  0.00    -0.036 A 
HETATM    3  C3  UNL     1     -10.104  47.972 -29.265  1.00  0.00     0.033 A 
HETATM    4  C16 UNL     1     -10.799  47.359 -30.430  1.00  0.00     0.295 A 
HETATM    5  O2  UNL     1     -10.282  47.337 -31.545  1.00  0.00    -0.259 OA
HETATM    6  O3  UNL     1     -12.049  46.812 -30.216  1.00  0.00    -0.274 OA
HETATM    7  C17 UNL     1     -12.622  46.785 -28.937  1.00  0.00     0.093 A 
HETATM    8  C18 UNL     1     -13.878  46.186 -28.839  1.00  0.00     0.075 A 
HETATM    9  C19 UNL     1     -14.506  46.105 -27.601  1.00  0.00     0.079 A 
HETATM   10  C20 UNL     1     -13.889  46.646 -26.472  1.00  0.00    -0.024 A 
HETATM   11  C21 UNL     1     -12.618  47.240 -26.595  1.00  0.00     0.024 A 
HETATM   12  C22 UNL     1     -11.963  47.320 -27.833  1.00  0.00     0.005 A 
HETATM   13  C23 UNL     1     -14.547  46.567 -25.126  1.00  0.00     0.044 C 
HETATM   14  C24 UNL     1     -16.033  46.281 -25.277  1.00  0.00     0.042 C 
HETATM   15  C25 UNL     1     -16.284  45.167 -26.304  1.00  0.00     0.061 C 
HETATM   16  C26 UNL     1     -17.798  45.027 -26.522  1.00  0.00     0.046 C 
HETATM   17  C27 UNL     1     -15.729  43.805 -25.855  1.00  0.00     0.046 C 
HETATM   18  O4  UNL     1     -15.729  45.497 -27.590  1.00  0.00    -0.340 OA
ENDROOT
BRANCH   3  19
HETATM   19  C4  UNL     1      -8.788  48.609 -29.634  1.00  0.00     0.148 C 
BRANCH  19  20
HETATM   20  C5  UNL     1      -7.642  47.724 -29.175  1.00  0.00     0.222 C 
HETATM   21  O1  UNL     1      -7.556  46.543 -29.505  1.00  0.00    -0.273 OA
HETATM   22  N1  UNL     1      -6.723  48.355 -28.373  1.00  0.00    -0.360 N 
HETATM   23  H6  UNL     1      -6.878  49.331 -28.123  1.00  0.00     0.162 HD
BRANCH  22  24
HETATM   24  C6  UNL     1      -5.614  47.655 -27.754  1.00  0.00     0.127 C 
BRANCH  24  25
HETATM   25  C7  UNL     1      -4.303  48.450 -27.779  1.00  0.00     0.060 C 
BRANCH  25  26
HETATM   26  C8  UNL     1      -3.849  48.871 -26.413  1.00  0.00    -0.029 A 
HETATM   27  C9  UNL     1      -4.442  48.539 -25.210  1.00  0.00     0.096 A 
HETATM   28  N2  UNL     1      -3.710  49.098 -24.199  1.00  0.00    -0.365 N 
HETATM   29  C10 UNL     1      -2.642  49.795 -24.713  1.00  0.00     0.043 A 
HETATM   30  H12 UNL     1      -3.917  49.011 -23.213  1.00  0.00     0.165 HD
HETATM   31  C11 UNL     1      -1.632  50.509 -24.057  1.00  0.00     0.032 A 
HETATM   32  C15 UNL     1      -2.710  49.682 -26.102  1.00  0.00    -0.000 A 
HETATM   33  C12 UNL     1      -0.657  51.125 -24.848  1.00  0.00     0.026 A 
HETATM   34  C13 UNL     1      -0.705  51.032 -26.237  1.00  0.00     0.035 A 
HETATM   35 CL1  UNL     1       0.517  51.795 -27.182  1.00  0.00    -0.084 Cl
HETATM   36  C14 UNL     1      -1.722  50.322 -26.880  1.00  0.00     0.038 A 
ENDBRANCH  25  26
ENDBRANCH  24  25
ENDBRANCH  22  24
ENDBRANCH  19  20
ENDBRANCH   3  19
TORSDOF 5
ENDMDL
MODEL 5
REMARK minimizedAffinity -9.90354347
REMARK CNNscore 0.343612105
REMARK CNNaffinity 6.83849192
REMARK  5 active torsions:
REMARK  status: ('A' for Active; 'I' for Inactive)
REMARK    1  A    between atoms: C3_3  and  C4_4 
REMARK    2  A    between atoms: C4_4  and  C5_5 
REMARK       I    between atoms: C5_5  and  N1_7 
REMARK    3  A    between atoms: N1_7  and  C6_8 
REMARK    4  A    between atoms: C6_8  and  C7_9 
REMARK    5  A    between atoms: C7_9  and  C8_10 
ROOT
HETATM    1  C1  UNL     1      -1.312  49.152 -20.878  1.00  0.00     0.050 C 
HETATM    2  C2  UNL     1      -0.650  50.507 -20.890  1.00  0.00    -0.036 A 
HETATM    3  C3  UNL     1      -0.171  51.118 -19.785  1.00  0.00     0.033 A 
HETATM    4  C16 UNL     1       0.528  52.432 -19.857  1.00  0.00     0.295 A 
HETATM    5  O2  UNL     1       1.013  52.954 -18.856  1.00  0.00    -0.259 OA
HETATM    6  O3  UNL     1       0.614  53.045 -21.091  1.00  0.00    -0.274 OA
HETATM    7  C17 UNL     1       0.110  52.430 -22.246  1.00  0.00     0.093 A 
HETATM    8  C18 UNL     1       0.275  53.134 -23.440  1.00  0.00     0.075 A 
HETATM    9  C19 UNL     1      -0.183  52.584 -24.631  1.00  0.00     0.079 A 
HETATM   10  C20 UNL     1      -0.826  51.345 -24.623  1.00  0.00    -0.024 A 
HETATM   11  C21 UNL     1      -0.975  50.651 -23.407  1.00  0.00     0.024 A 
HETATM   12  C22 UNL     1      -0.509  51.184 -22.196  1.00  0.00     0.005 A 
HETATM   13  C23 UNL     1      -1.326  50.731 -25.897  1.00  0.00     0.044 C 
HETATM   14  C24 UNL     1      -1.441  51.786 -26.986  1.00  0.00     0.042 C 
HETATM   15  C25 UNL     1      -0.198  52.688 -27.021  1.00  0.00     0.061 C 
HETATM   16  C26 UNL     1      -0.436  53.820 -28.032  1.00  0.00     0.046 C 
HETATM   17  C27 UNL     1       1.077  51.932 -27.428  1.00  0.00     0.046 C 
HETATM   18  O4  UNL     1       0.025  53.333 -25.754  1.00  0.00    -0.340 OA
ENDROOT
BRANCH   3  19
HETATM   19  C4  UNL     1      -0.275  50.585 -18.378  1.00  0.00     0.148 C 
BRANCH  19  20
HETATM   20  C5  UNL     1      -1.596  51.015 -17.764  1.00  0.00     0.222 C 
HETATM   21  O1  UNL     1      -2.409  51.704 -18.377  1.00  0.00    -0.273 OA
HETATM   22  N1  UNL     1      -1.798  50.566 -16.481  1.00  0.00    -0.360 N 
HETATM   23  H6  UNL     1      -1.064  50.021 -16.031  1.00  0.00     0.162 HD
BRANCH  22  24
HETATM   24  C6  UNL     1      -2.950  50.953 -15.690  1.00  0.00     0.127 C 
BRANCH  24  25
HETATM   25  C7  UNL     1      -2.825  50.576 -14.209  1.00  0.00     0.060 C 
BRANCH  25  26
HETATM   26  C8  UNL     1      -3.134  51.718 -13.287  1.00  0.00    -0.029 A 
HETATM   27  C9  UNL     1      -3.883  52.839 -13.590  1.00  0.00     0.096 A 
HETATM   28  N2  UNL     1      -3.951  53.627 -12.474  1.00  0.00    -0.365 N 
HETATM   29  C10 UNL     1      -3.259  53.046 -11.437  1.00  0.00     0.043 A 
HETATM   30  H12 UNL     1      -4.443  54.509 -12.411  1.00  0.00     0.165 HD
HETATM   31  C11 UNL     1      -3.071  53.485 -10.121  1.00  0.00     0.032 A 
HETATM   32  C15 UNL     1      -2.724  51.852 -11.921  1.00  0.00    -0.000 A 
HETATM   33  C12 UNL     1      -2.312  52.673  -9.271  1.00  0.00     0.026 A 
HETATM   34  C13 UNL     1      -1.762  51.479  -9.731  1.00  0.00     0.035 A 
HETATM   35 CL1  UNL     1      -0.839  50.499  -8.656  1.00  0.00    -0.084 Cl
HETATM   36  C14 UNL     1      -1.951  51.056 -11.049  1.00  0.00     0.038 A 
ENDBRANCH  25  26
ENDBRANCH  24  25
ENDBRANCH  22  24
ENDBRANCH  19  20
ENDBRANCH   3  19
TORSDOF 5
ENDMDL
MODEL 6
REMARK minimizedAffinity -9.65769577
REMARK CNNscore 0.338692069
REMARK CNNaffinity 6.72105551
REMARK  5 active torsions:
REMARK  status: ('A' for Active; 'I' for Inactive)
REMARK    1  A    between atoms: C3_3  and  C4_4 
REMARK    2  A    between atoms: C4_4  and  C5_5 
REMARK       I    between atoms: C5_5  and  N1_7 
REMARK    3  A    between atoms: N1_7  and  C6_8 
REMARK    4  A    between atoms: C6_8  and  C7_9 
REMARK    5  A    between atoms: C7_9  and  C8_10 
ROOT
HETATM    1  C1  UNL     1      -0.790  49.881 -21.002  1.00  0.00     0.050 C 
HETATM    2  C2  UNL     1      -0.164  51.239 -21.203  1.00  0.00    -0.036 A 
HETATM    3  C3  UNL     1       0.301  52.008 -20.194  1.00  0.00     0.033 A 
HETATM    4  C16 UNL     1       0.964  53.317 -20.449  1.00  0.00     0.295 A 
HETATM    5  O2  UNL     1       1.436  53.985 -19.531  1.00  0.00    -0.259 OA
HETATM    6  O3  UNL     1       1.034  53.757 -21.756  1.00  0.00    -0.274 OA
HETATM    7  C17 UNL     1       0.546  52.976 -22.813  1.00  0.00     0.093 A 
HETATM    8  C18 UNL     1       0.692  53.513 -24.093  1.00  0.00     0.075 A 
HETATM    9  C19 UNL     1       0.248  52.792 -25.196  1.00  0.00     0.079 A 
HETATM   10  C20 UNL     1      -0.363  51.549 -25.015  1.00  0.00    -0.024 A 
HETATM   11  C21 UNL     1      -0.493  51.026 -23.714  1.00  0.00     0.024 A 
HETATM   12  C22 UNL     1      -0.041  51.733 -22.590  1.00  0.00     0.005 A 
HETATM   13  C23 UNL     1      -0.846  50.754 -26.190  1.00  0.00     0.044 C 
HETATM   14  C24 UNL     1      -0.989  51.646 -27.414  1.00  0.00     0.042 C 
HETATM   15  C25 UNL     1       0.229  52.566 -27.577  1.00  0.00     0.061 C 
HETATM   16  C26 UNL     1      -0.039  53.541 -28.734  1.00  0.00     0.046 C 
HETATM   17  C27 UNL     1       1.523  51.795 -27.881  1.00  0.00     0.046 C 
HETATM   18  O4  UNL     1       0.436  53.385 -26.412  1.00  0.00    -0.340 OA
ENDROOT
BRANCH   3  19
HETATM   19  C4  UNL     1       0.210  51.671 -18.727  1.00  0.00     0.148 C 
BRANCH  19  20
HETATM   20  C5  UNL     1      -1.247  51.553 -18.316  1.00  0.00     0.222 C 
HETATM   21  O1  UNL     1      -2.109  52.322 -18.737  1.00  0.00    -0.273 OA
HETATM   22  N1  UNL     1      -1.510  50.522 -17.448  1.00  0.00    -0.360 N 
HETATM   23  H6  UNL     1      -0.736  49.944 -17.124  1.00  0.00     0.162 HD
BRANCH  22  24
HETATM   24  C6  UNL     1      -2.820  50.307 -16.863  1.00  0.00     0.127 C 
BRANCH  24  25
HETATM   25  C7  UNL     1      -2.764  49.823 -15.409  1.00  0.00     0.060 C 
BRANCH  25  26
HETATM   26  C8  UNL     1      -2.310  50.888 -14.456  1.00  0.00    -0.029 A 
HETATM   27  C9  UNL     1      -3.112  51.811 -13.811  1.00  0.00     0.096 A 
HETATM   28  N2  UNL     1      -2.319  52.587 -13.012  1.00  0.00    -0.365 N 
HETATM   29  C10 UNL     1      -1.005  52.193 -13.117  1.00  0.00     0.043 A 
HETATM   30  H12 UNL     1      -2.646  53.341 -12.422  1.00  0.00     0.165 HD
HETATM   31  C11 UNL     1       0.138  52.690 -12.480  1.00  0.00     0.032 A 
HETATM   32  C15 UNL     1      -0.966  51.137 -14.027  1.00  0.00    -0.000 A 
HETATM   33  C12 UNL     1       1.362  52.083 -12.781  1.00  0.00     0.026 A 
HETATM   34  C13 UNL     1       1.428  51.030 -13.690  1.00  0.00     0.035 A 
HETATM   35 CL1  UNL     1       2.950  50.298 -14.032  1.00  0.00    -0.084 Cl
HETATM   36  C14 UNL     1       0.281  50.548 -14.325  1.00  0.00     0.038 A 
ENDBRANCH  25  26
ENDBRANCH  24  25
ENDBRANCH  22  24
ENDBRANCH  19  20
ENDBRANCH   3  19
TORSDOF 5
ENDMDL
MODEL 7
REMARK minimizedAffinity -9.65491772
REMARK CNNscore 0.319043547
REMARK CNNaffinity 6.856915
REMARK  5 active torsions:
REMARK  status: ('A' for Active; 'I' for Inactive)
REMARK    1  A    between atoms: C3_3  and  C4_4 
REMARK    2  A    between atoms: C4_4  and  C5_5 
REMARK       I    between atoms: C5_5  and  N1_7 
REMARK    3  A    between atoms: N1_7  and  C6_8 
REMARK    4  A    between atoms: C6_8  and  C7_9 
REMARK    5  A    between atoms: C7_9  and  C8_10 
ROOT
HETATM    1  C1  UNL     1      -0.675  50.002 -21.518  1.00  0.00     0.050 C 
HETATM    2  C2  UNL     1       0.006  51.256 -21.027  1.00  0.00    -0.036 A 
HETATM    3  C3  UNL     1       0.386  52.268 -21.836  1.00  0.00     0.033 A 
HETATM    4  C16 UNL     1       1.002  53.512 -21.297  1.00  0.00     0.295 A 
HETATM    5  O2  UNL     1       1.293  54.454 -22.032  1.00  0.00    -0.259 OA
HETATM    6  O3  UNL     1       1.237  53.574 -19.937  1.00  0.00    -0.274 OA
HETATM    7  C17 UNL     1       0.859  52.526 -19.086  1.00  0.00     0.093 A 
HETATM    8  C18 UNL     1       1.125  52.711 -17.728  1.00  0.00     0.075 A 
HETATM    9  C19 UNL     1       0.765  51.725 -16.817  1.00  0.00     0.079 A 
HETATM   10  C20 UNL     1       0.165  50.548 -17.267  1.00  0.00    -0.024 A 
HETATM   11  C21 UNL     1      -0.098  50.387 -18.641  1.00  0.00     0.024 A 
HETATM   12  C22 UNL     1       0.246  51.376 -19.574  1.00  0.00     0.005 A 
HETATM   13  C23 UNL     1      -0.233  49.472 -16.301  1.00  0.00     0.044 C 
HETATM   14  C24 UNL     1       0.493  49.650 -14.977  1.00  0.00     0.042 C 
HETATM   15  C25 UNL     1       0.469  51.117 -14.522  1.00  0.00     0.061 C 
HETATM   16  C26 UNL     1       1.340  51.260 -13.265  1.00  0.00     0.046 C 
HETATM   17  C27 UNL     1      -0.947  51.617 -14.192  1.00  0.00     0.046 C 
HETATM   18  O4  UNL     1       1.054  51.988 -15.508  1.00  0.00    -0.340 OA
ENDROOT
BRANCH   3  19
HETATM   19  C4  UNL     1       0.255  52.282 -23.338  1.00  0.00     0.148 C 
BRANCH  19  20
HETATM   20  C5  UNL     1      -1.204  52.113 -23.728  1.00  0.00     0.222 C 
HETATM   21  O1  UNL     1      -2.053  52.963 -23.466  1.00  0.00    -0.273 OA
HETATM   22  N1  UNL     1      -1.482  50.944 -24.392  1.00  0.00    -0.360 N 
HETATM   23  H6  UNL     1      -0.728  50.277 -24.549  1.00  0.00     0.162 HD
BRANCH  22  24
HETATM   24  C6  UNL     1      -2.831  50.554 -24.758  1.00  0.00     0.127 C 
BRANCH  24  25
HETATM   25  C7  UNL     1      -2.885  49.289 -25.622  1.00  0.00     0.060 C 
BRANCH  25  26
HETATM   26  C8  UNL     1      -4.250  48.668 -25.664  1.00  0.00    -0.029 A 
HETATM   27  C9  UNL     1      -5.076  48.424 -24.584  1.00  0.00     0.096 A 
HETATM   28  N2  UNL     1      -6.239  47.873 -25.046  1.00  0.00    -0.365 N 
HETATM   29  C10 UNL     1      -6.196  47.748 -26.415  1.00  0.00     0.043 A 
HETATM   30  H12 UNL     1      -7.024  47.600 -24.470  1.00  0.00     0.165 HD
HETATM   31  C11 UNL     1      -7.156  47.252 -27.305  1.00  0.00     0.032 A 
HETATM   32  C15 UNL     1      -4.954  48.226 -26.831  1.00  0.00    -0.000 A 
HETATM   33  C12 UNL     1      -6.835  47.248 -28.667  1.00  0.00     0.026 A 
HETATM   34  C13 UNL     1      -5.599  47.715 -29.107  1.00  0.00     0.035 A 
HETATM   35 CL1  UNL     1      -5.239  47.705 -30.792  1.00  0.00    -0.084 Cl
HETATM   36  C14 UNL     1      -4.647  48.201 -28.208  1.00  0.00     0.038 A 
ENDBRANCH  25  26
ENDBRANCH  24  25
ENDBRANCH  22  24
ENDBRANCH  19  20
ENDBRANCH   3  19
TORSDOF 5
ENDMDL
MODEL 8
REMARK minimizedAffinity -8.6910305
REMARK CNNscore 0.277625024
REMARK CNNaffinity 7.05196619
REMARK  5 active torsions:
REMARK  status: ('A' for Active; 'I' for Inactive)
REMARK    1  A    between atoms: C3_3  and  C4_4 
REMARK    2  A    between atoms: C4_4  and  C5_5 
REMARK       I    between atoms: C5_5  and  N1_7 
REMARK    3  A    between atoms: N1_7  and  C6_8 
REMARK    4  A    between atoms: C6_8  and  C7_9 
REMARK    5  A    between atoms: C7_9  and  C8_10 
ROOT
HETATM    1  C1  UNL     1      -1.968  50.182 -20.974  1.00  0.00     0.050 C 
HETATM    2  C2  UNL     1      -1.108  51.412 -21.122  1.00  0.00    -0.036 A 
HETATM    3  C3  UNL     1      -0.727  52.189 -20.084  1.00  0.00     0.033 A 
HETATM    4  C16 UNL     1       0.171  53.362 -20.273  1.00  0.00     0.295 A 
HETATM    5  O2  UNL     1       0.561  54.030 -19.318  1.00  0.00    -0.259 OA
HETATM    6  O3  UNL     1       0.555  53.675 -21.562  1.00  0.00    -0.274 OA
HETATM    7  C17 UNL     1       0.158  52.885 -22.651  1.00  0.00     0.093 A 
HETATM    8  C18 UNL     1       0.626  53.285 -23.903  1.00  0.00     0.075 A 
HETATM    9  C19 UNL     1       0.291  52.545 -25.030  1.00  0.00     0.079 A 
HETATM   10  C20 UNL     1      -0.532  51.423 -24.907  1.00  0.00    -0.024 A 
HETATM   11  C21 UNL     1      -0.987  51.037 -23.632  1.00  0.00     0.024 A 
HETATM   12  C22 UNL     1      -0.649  51.764 -22.481  1.00  0.00     0.005 A 
HETATM   13  C23 UNL     1      -0.904  50.609 -26.110  1.00  0.00     0.044 C 
HETATM   14  C24 UNL     1      -0.671  51.405 -27.385  1.00  0.00     0.042 C 
HETATM   15  C25 UNL     1       0.686  52.123 -27.352  1.00  0.00     0.061 C 
HETATM   16  C26 UNL     1       0.799  53.024 -28.591  1.00  0.00     0.046 C 
HETATM   17  C27 UNL     1       1.876  51.149 -27.348  1.00  0.00     0.046 C 
HETATM   18  O4  UNL     1       0.796  52.999 -26.216  1.00  0.00    -0.340 OA
ENDROOT
BRANCH   3  19
HETATM   19  C4  UNL     1      -1.145  51.995 -18.648  1.00  0.00     0.148 C 
BRANCH  19  20
HETATM   20  C5  UNL     1      -0.055  51.256 -17.891  1.00  0.00     0.222 C 
HETATM   21  O1  UNL     1       0.102  50.041 -17.991  1.00  0.00    -0.273 OA
HETATM   22  N1  UNL     1       0.731  52.059 -17.101  1.00  0.00    -0.360 N 
HETATM   23  H6  UNL     1       0.521  53.055 -17.051  1.00  0.00     0.162 HD
BRANCH  22  24
HETATM   24  C6  UNL     1       1.758  51.529 -16.225  1.00  0.00     0.127 C 
BRANCH  24  25
HETATM   25  C7  UNL     1       1.366  51.553 -14.743  1.00  0.00     0.060 C 
BRANCH  25  26
HETATM   26  C8  UNL     1       0.374  50.486 -14.385  1.00  0.00    -0.029 A 
HETATM   27  C9  UNL     1       0.536  49.124 -14.551  1.00  0.00     0.096 A 
HETATM   28  N2  UNL     1      -0.583  48.496 -14.077  1.00  0.00    -0.365 N 
HETATM   29  C10 UNL     1      -1.482  49.420 -13.600  1.00  0.00     0.043 A 
HETATM   30  H12 UNL     1      -0.731  47.496 -14.071  1.00  0.00     0.165 HD
HETATM   31  C11 UNL     1      -2.743  49.235 -13.019  1.00  0.00     0.032 A 
HETATM   32  C15 UNL     1      -0.915  50.680 -13.791  1.00  0.00    -0.000 A 
HETATM   33  C12 UNL     1      -3.444  50.376 -12.617  1.00  0.00     0.026 A 
HETATM   34  C13 UNL     1      -2.902  51.646 -12.802  1.00  0.00     0.035 A 
HETATM   35 CL1  UNL     1      -3.789  53.031 -12.289  1.00  0.00    -0.084 Cl
HETATM   36  C14 UNL     1      -1.647  51.818 -13.390  1.00  0.00     0.038 A 
ENDBRANCH  25  26
ENDBRANCH  24  25
ENDBRANCH  22  24
ENDBRANCH  19  20
ENDBRANCH   3  19
TORSDOF 5
ENDMDL
MODEL 9
REMARK minimizedAffinity -10.0274477
REMARK CNNscore 0.245729417
REMARK CNNaffinity 6.49979162
REMARK  5 active torsions:
REMARK  status: ('A' for Active; 'I' for Inactive)
REMARK    1  A    between atoms: C3_3  and  C4_4 
REMARK    2  A    between atoms: C4_4  and  C5_5 
REMARK       I    between atoms: C5_5  and  N1_7 
REMARK    3  A    between atoms: N1_7  and  C6_8 
REMARK    4  A    between atoms: C6_8  and  C7_9 
REMARK    5  A    between atoms: C7_9  and  C8_10 
ROOT
HETATM    1  C1  UNL     1      -1.499  49.079 -19.382  1.00  0.00     0.050 C 
HETATM    2  C2  UNL     1      -0.725  50.371 -19.300  1.00  0.00    -0.036 A 
HETATM    3  C3  UNL     1      -0.251  50.890 -18.146  1.00  0.00     0.033 A 
HETATM    4  C16 UNL     1       0.558  52.140 -18.125  1.00  0.00     0.295 A 
HETATM    5  O2  UNL     1       1.035  52.576 -17.079  1.00  0.00    -0.259 OA
HETATM    6  O3  UNL     1       0.757  52.796 -19.323  1.00  0.00    -0.274 OA
HETATM    7  C17 UNL     1       0.261  52.277 -20.528  1.00  0.00     0.093 A 
HETATM    8  C18 UNL     1       0.545  53.015 -21.678  1.00  0.00     0.075 A 
HETATM    9  C19 UNL     1       0.103  52.558 -22.913  1.00  0.00     0.079 A 
HETATM   10  C20 UNL     1      -0.643  51.380 -22.993  1.00  0.00    -0.024 A 
HETATM   11  C21 UNL     1      -0.911  50.650 -21.819  1.00  0.00     0.024 A 
HETATM   12  C22 UNL     1      -0.462  51.089 -20.564  1.00  0.00     0.005 A 
HETATM   13  C23 UNL     1      -1.128  50.867 -24.317  1.00  0.00     0.044 C 
HETATM   14  C24 UNL     1      -1.099  51.974 -25.359  1.00  0.00     0.042 C 
HETATM   15  C25 UNL     1       0.215  52.766 -25.294  1.00  0.00     0.061 C 
HETATM   16  C26 UNL     1       0.125  53.956 -26.261  1.00  0.00     0.046 C 
HETATM   17  C27 UNL     1       1.441  51.920 -25.677  1.00  0.00     0.046 C 
HETATM   18  O4  UNL     1       0.429  53.334 -23.989  1.00  0.00    -0.340 OA
ENDROOT
BRANCH   3  19
HETATM   19  C4  UNL     1      -0.471  50.309 -16.773  1.00  0.00     0.148 C 
BRANCH  19  20
HETATM   20  C5  UNL     1      -1.791  50.807 -16.209  1.00  0.00     0.222 C 
HETATM   21  O1  UNL     1      -2.722  51.152 -16.934  1.00  0.00    -0.273 OA
HETATM   22  N1  UNL     1      -1.849  50.831 -14.837  1.00  0.00    -0.360 N 
HETATM   23  H6  UNL     1      -1.025  50.553 -14.306  1.00  0.00     0.162 HD
BRANCH  22  24
HETATM   24  C6  UNL     1      -2.984  51.368 -14.112  1.00  0.00     0.127 C 
BRANCH  24  25
HETATM   25  C7  UNL     1      -2.936  51.080 -12.607  1.00  0.00     0.060 C 
BRANCH  25  26
HETATM   26  C8  UNL     1      -2.959  52.327 -11.773  1.00  0.00    -0.029 A 
HETATM   27  C9  UNL     1      -4.079  52.955 -11.263  1.00  0.00     0.096 A 
HETATM   28  N2  UNL     1      -3.672  54.042 -10.539  1.00  0.00    -0.365 N 
HETATM   29  C10 UNL     1      -2.301  54.143 -10.561  1.00  0.00     0.043 A 
HETATM   30  H12 UNL     1      -4.286  54.680 -10.050  1.00  0.00     0.165 HD
HETATM   31  C11 UNL     1      -1.457  55.082  -9.956  1.00  0.00     0.032 A 
HETATM   32  C15 UNL     1      -1.825  53.088 -11.340  1.00  0.00    -0.000 A 
HETATM   33  C12 UNL     1      -0.079  54.933 -10.151  1.00  0.00     0.026 A 
HETATM   34  C13 UNL     1       0.421  53.892 -10.928  1.00  0.00     0.035 A 
HETATM   35 CL1  UNL     1       2.123  53.732 -11.141  1.00  0.00    -0.084 Cl
HETATM   36  C14 UNL     1      -0.433  52.966 -11.533  1.00  0.00     0.038 A 
ENDBRANCH  25  26
ENDBRANCH  24  25
ENDBRANCH  22  24
ENDBRANCH  19  20
ENDBRANCH   3  19
TORSDOF 5
ENDMDL
