MODEL 1
REMARK minimizedAffinity -7.95418882
REMARK CNNscore 0.390855074
REMARK CNNaffinity 6.32444906
REMARK  14 active torsions:
REMARK  status: ('A' for Active; 'I' for Inactive)
REMARK    1  A    between atoms: C19_21  and  O3_22 
REMARK    2  A    between atoms: C19_21  and  C20_23 
REMARK    3  A    between atoms: C20_23  and  C21_25 
REMARK    4  A    between atoms: C21_25  and  O5_26 
REMARK    5  A    between atoms: O5_26  and  C22_27 
REMARK    6  A    between atoms: C22_27  and  C23_29 
REMARK    7  A    between atoms: C23_29  and  C24_30 
REMARK    8  A    between atoms: C24_30  and  C25_31 
REMARK       I    between atoms: C25_31  and  N1_33 
REMARK    9  A    between atoms: N1_33  and  C26_34 
REMARK   10  A    between atoms: C26_34  and  C27_35 
REMARK   11  A    between atoms: C26_34  and  C30_40 
REMARK   12  A    between atoms: C27_35  and  C28_36 
REMARK   13  A    between atoms: C28_36  and  C29_37 
REMARK       I    between atoms: C29_37  and  N2_38 
REMARK   14  A    between atoms: C30_40  and  O10_42 
ROOT
HETATM    1  C20 UNL     1      -2.266  49.690 -18.414  1.00  0.00     0.185 C 
HETATM    2  O4  UNL     1      -2.198  48.541 -18.862  1.00  0.00    -0.292 OA
ENDROOT
BRANCH   1   3
HETATM    3  C19 UNL     1      -1.885  50.930 -19.275  1.00  0.00     0.128 C 
HETATM    4  C14 UNL     1      -1.730  50.630 -20.801  1.00  0.00     0.005 C 
HETATM    5  C13 UNL     1      -3.015  50.670 -21.635  1.00  0.00     0.091 C 
HETATM    6  C15 UNL     1      -1.023  49.267 -21.036  1.00  0.00     0.019 C 
HETATM    7  C16 UNL     1      -0.868  51.845 -21.234  1.00  0.00     0.002 C 
HETATM    8  C12 UNL     1      -2.670  50.659 -23.120  1.00  0.00     0.133 C 
HETATM    9  C11 UNL     1      -1.700  51.752 -23.614  1.00  0.00     0.072 C 
HETATM   10  O2  UNL     1      -3.215  49.846 -23.864  1.00  0.00    -0.297 OA
HETATM   11  C2  UNL     1      -1.355  51.715 -25.148  1.00  0.00    -0.009 C 
HETATM   12  C10 UNL     1      -0.435  51.792 -22.706  1.00  0.00     0.003 C 
HETATM   13  C1  UNL     1      -0.714  50.376 -25.577  1.00  0.00     0.021 C 
HETATM   14  C3  UNL     1      -2.661  51.955 -25.965  1.00  0.00     0.022 C 
HETATM   15  C7  UNL     1      -0.344  52.835 -25.460  1.00  0.00    -0.067 C 
HETATM   16  C4  UNL     1      -2.419  52.319 -27.424  1.00  0.00     0.084 C 
HETATM   17  C5  UNL     1      -1.524  53.524 -27.518  1.00  0.00     0.149 C 
HETATM   18  O1  UNL     1      -1.607  54.338 -28.434  1.00  0.00    -0.293 OA
HETATM   19  C6  UNL     1      -0.453  53.673 -26.507  1.00  0.00     0.053 C 
HETATM   20  C8  UNL     1       0.849  52.957 -24.539  1.00  0.00     0.035 C 
HETATM   21  C9  UNL     1       0.435  53.002 -23.074  1.00  0.00     0.010 C 
HETATM   22  C17 UNL     1       0.223  51.906 -20.173  1.00  0.00     0.009 C 
HETATM   23  C18 UNL     1      -0.472  51.453 -18.876  1.00  0.00     0.047 C 
BRANCH   3  24
HETATM   24  O3  UNL     1      -2.763  52.045 -19.095  1.00  0.00    -0.381 OA
HETATM   25  H25 UNL     1      -3.683  51.741 -19.182  1.00  0.00     0.211 HD
ENDBRANCH   3  24
ENDBRANCH   1   3
BRANCH   1  26
HETATM   26  C21 UNL     1      -2.895  49.935 -17.040  1.00  0.00     0.260 C 
BRANCH  26  27
HETATM   27  O5  UNL     1      -2.569  51.177 -16.420  1.00  0.00    -0.314 OA
BRANCH  27  28
HETATM   28  C22 UNL     1      -2.035  51.047 -15.171  1.00  0.00     0.259 C 
HETATM   29  O6  UNL     1      -0.837  51.061 -14.929  1.00  0.00    -0.265 OA
BRANCH  28  30
HETATM   30  C23 UNL     1      -3.100  51.007 -14.098  1.00  0.00     0.120 C 
BRANCH  30  31
HETATM   31  C24 UNL     1      -2.580  50.769 -12.686  1.00  0.00     0.112 C 
BRANCH  31  32
HETATM   32  C25 UNL     1      -2.498  52.050 -11.881  1.00  0.00     0.218 C 
HETATM   33  O7  UNL     1      -3.477  52.726 -11.588  1.00  0.00    -0.274 OA
HETATM   34  N1  UNL     1      -1.205  52.393 -11.541  1.00  0.00    -0.347 N 
HETATM   35  H32 UNL     1      -0.550  51.622 -11.489  1.00  0.00     0.163 HD
BRANCH  34  36
HETATM   36  C26 UNL     1      -0.971  53.494 -10.599  1.00  0.00     0.182 C 
BRANCH  36  37
HETATM   37  C27 UNL     1       0.401  54.143 -10.805  1.00  0.00     0.045 C 
BRANCH  37  38
HETATM   38  C28 UNL     1       0.794  55.156  -9.724  1.00  0.00     0.105 C 
BRANCH  38  39
HETATM   39  C29 UNL     1       2.232  55.608  -9.876  1.00  0.00     0.215 C 
HETATM   40  N2  UNL     1       2.694  55.570 -11.160  1.00  0.00    -0.370 N 
HETATM   41  H38 UNL     1       3.674  55.789 -11.296  1.00  0.00     0.159 HD
HETATM   42  H39 UNL     1       2.218  55.062 -11.893  1.00  0.00     0.159 HD
HETATM   43  O8  UNL     1       2.946  55.988  -8.958  1.00  0.00    -0.274 OA
ENDBRANCH  38  39
ENDBRANCH  37  38
ENDBRANCH  36  37
BRANCH  36  44
HETATM   44  C30 UNL     1      -1.119  52.961  -9.174  1.00  0.00     0.163 C 
HETATM   45  O9  UNL     1      -0.215  52.520  -8.477  1.00  0.00    -0.648 OA
BRANCH  44  46
HETATM   46  O10 UNL     1      -2.372  53.070  -8.691  1.00  0.00    -0.775 OA
HETATM   47  H40 UNL     1      -2.333  52.675  -7.795  1.00  0.00     0.167 HD
ENDBRANCH  44  46
ENDBRANCH  36  44
ENDBRANCH  34  36
ENDBRANCH  31  32
ENDBRANCH  30  31
ENDBRANCH  28  30
ENDBRANCH  27  28
ENDBRANCH  26  27
ENDBRANCH   1  26
TORSDOF 14
ENDMDL
MODEL 2
REMARK minimizedAffinity -8.16507912
REMARK CNNscore 0.318177193
REMARK CNNaffinity 6.2511363
REMARK  14 active torsions:
REMARK  status: ('A' for Active; 'I' for Inactive)
REMARK    1  A    between atoms: C19_21  and  O3_22 
REMARK    2  A    between atoms: C19_21  and  C20_23 
REMARK    3  A    between atoms: C20_23  and  C21_25 
REMARK    4  A    between atoms: C21_25  and  O5_26 
REMARK    5  A    between atoms: O5_26  and  C22_27 
REMARK    6  A    between atoms: C22_27  and  C23_29 
REMARK    7  A    between atoms: C23_29  and  C24_30 
REMARK    8  A    between atoms: C24_30  and  C25_31 
REMARK       I    between atoms: C25_31  and  N1_33 
REMARK    9  A    between atoms: N1_33  and  C26_34 
REMARK   10  A    between atoms: C26_34  and  C27_35 
REMARK   11  A    between atoms: C26_34  and  C30_40 
REMARK   12  A    between atoms: C27_35  and  C28_36 
REMARK   13  A    between atoms: C28_36  and  C29_37 
REMARK       I    between atoms: C29_37  and  N2_38 
REMARK   14  A    between atoms: C30_40  and  O10_42 
ROOT
HETATM    1  C20 UNL     1      -6.765  48.507 -21.394  1.00  0.00     0.185 C 
HETATM    2  O4  UNL     1      -7.931  48.674 -21.764  1.00  0.00    -0.292 OA
ENDROOT
BRANCH   1   3
HETATM    3  C19 UNL     1      -5.625  48.174 -22.399  1.00  0.00     0.128 C 
HETATM    4  C14 UNL     1      -4.812  49.418 -22.886  1.00  0.00     0.005 C 
HETATM    5  C13 UNL     1      -3.650  49.862 -21.992  1.00  0.00     0.091 C 
HETATM    6  C15 UNL     1      -5.745  50.634 -23.136  1.00  0.00     0.019 C 
HETATM    7  C16 UNL     1      -4.192  48.848 -24.190  1.00  0.00     0.002 C 
HETATM    8  C12 UNL     1      -2.783  50.874 -22.733  1.00  0.00     0.133 C 
HETATM    9  C11 UNL     1      -2.239  50.443 -24.110  1.00  0.00     0.072 C 
HETATM   10  O2  UNL     1      -2.499  51.941 -22.193  1.00  0.00    -0.297 OA
HETATM   11  C2  UNL     1      -1.354  51.507 -24.857  1.00  0.00    -0.009 C 
HETATM   12  C10 UNL     1      -3.398  49.888 -24.992  1.00  0.00     0.003 C 
HETATM   13  C1  UNL     1      -2.110  52.830 -25.114  1.00  0.00     0.021 C 
HETATM   14  C3  UNL     1      -0.078  51.789 -24.006  1.00  0.00     0.022 C 
HETATM   15  C7  UNL     1      -0.937  50.937 -26.228  1.00  0.00    -0.067 C 
HETATM   16  C4  UNL     1       1.031  52.498 -24.772  1.00  0.00     0.084 C 
HETATM   17  C5  UNL     1       1.397  51.714 -26.003  1.00  0.00     0.149 C 
HETATM   18  O1  UNL     1       2.534  51.706 -26.467  1.00  0.00    -0.293 OA
HETATM   19  C6  UNL     1       0.315  50.997 -26.716  1.00  0.00     0.053 C 
HETATM   20  C8  UNL     1      -2.026  50.309 -27.068  1.00  0.00     0.035 C 
HETATM   21  C9  UNL     1      -2.829  49.281 -26.282  1.00  0.00     0.010 C 
HETATM   22  C17 UNL     1      -5.368  48.166 -24.877  1.00  0.00     0.009 C 
HETATM   23  C18 UNL     1      -6.219  47.604 -23.723  1.00  0.00     0.047 C 
BRANCH   3  24
HETATM   24  O3  UNL     1      -4.721  47.169 -21.930  1.00  0.00    -0.381 OA
HETATM   25  H25 UNL     1      -4.432  47.398 -21.030  1.00  0.00     0.211 HD
ENDBRANCH   3  24
ENDBRANCH   1   3
BRANCH   1  26
HETATM   26  C21 UNL     1      -6.380  48.796 -19.940  1.00  0.00     0.260 C 
BRANCH  26  27
HETATM   27  O5  UNL     1      -7.411  49.346 -19.123  1.00  0.00    -0.314 OA
BRANCH  27  28
HETATM   28  C22 UNL     1      -7.929  48.464 -18.219  1.00  0.00     0.259 C 
HETATM   29  O6  UNL     1      -7.266  47.649 -17.594  1.00  0.00    -0.265 OA
BRANCH  28  30
HETATM   30  C23 UNL     1      -9.406  48.690 -17.986  1.00  0.00     0.120 C 
BRANCH  30  31
HETATM   31  C24 UNL     1     -10.329  47.793 -18.801  1.00  0.00     0.112 C 
BRANCH  31  32
HETATM   32  C25 UNL     1     -11.679  47.605 -18.138  1.00  0.00     0.218 C 
HETATM   33  O7  UNL     1     -11.833  47.567 -16.923  1.00  0.00    -0.274 OA
HETATM   34  N1  UNL     1     -12.709  47.448 -19.043  1.00  0.00    -0.347 N 
HETATM   35  H32 UNL     1     -12.553  47.861 -19.955  1.00  0.00     0.163 HD
BRANCH  34  36
HETATM   36  C26 UNL     1     -14.098  47.453 -18.569  1.00  0.00     0.182 C 
BRANCH  36  37
HETATM   37  C27 UNL     1     -14.995  46.538 -19.408  1.00  0.00     0.045 C 
BRANCH  37  38
HETATM   38  C28 UNL     1     -16.482  46.902 -19.378  1.00  0.00     0.105 C 
BRANCH  38  39
HETATM   39  C29 UNL     1     -17.173  46.548 -20.679  1.00  0.00     0.215 C 
HETATM   40  N2  UNL     1     -16.361  46.611 -21.774  1.00  0.00    -0.370 N 
HETATM   41  H38 UNL     1     -16.802  46.459 -22.674  1.00  0.00     0.159 HD
HETATM   42  H39 UNL     1     -15.466  47.081 -21.760  1.00  0.00     0.159 HD
HETATM   43  O8  UNL     1     -18.348  46.224 -20.780  1.00  0.00    -0.274 OA
ENDBRANCH  38  39
ENDBRANCH  37  38
ENDBRANCH  36  37
BRANCH  36  44
HETATM   44  C30 UNL     1     -14.616  48.891 -18.580  1.00  0.00     0.163 C 
HETATM   45  O9  UNL     1     -15.249  49.431 -17.683  1.00  0.00    -0.648 OA
BRANCH  44  46
HETATM   46  O10 UNL     1     -14.259  49.579 -19.682  1.00  0.00    -0.775 OA
HETATM   47  H40 UNL     1     -14.671  50.461 -19.575  1.00  0.00     0.167 HD
ENDBRANCH  44  46
ENDBRANCH  36  44
ENDBRANCH  34  36
ENDBRANCH  31  32
ENDBRANCH  30  31
ENDBRANCH  28  30
ENDBRANCH  27  28
ENDBRANCH  26  27
ENDBRANCH   1  26
TORSDOF 14
ENDMDL
MODEL 3
REMARK minimizedAffinity -9.40668297
REMARK CNNscore 0.312816173
REMARK CNNaffinity 7.082623
REMARK  14 active torsions:
REMARK  status: ('A' for Active; 'I' for Inactive)
REMARK    1  A    between atoms: C19_21  and  O3_22 
REMARK    2  A    between atoms: C19_21  and  C20_23 
REMARK    3  A    between atoms: C20_23  and  C21_25 
REMARK    4  A    between atoms: C21_25  and  O5_26 
REMARK    5  A    between atoms: O5_26  and  C22_27 
REMARK    6  A    between atoms: C22_27  and  C23_29 
REMARK    7  A    between atoms: C23_29  and  C24_30 
REMARK    8  A    between atoms: C24_30  and  C25_31 
REMARK       I    between atoms: C25_31  and  N1_33 
REMARK    9  A    between atoms: N1_33  and  C26_34 
REMARK   10  A    between atoms: C26_34  and  C27_35 
REMARK   11  A    between atoms: C26_34  and  C30_40 
REMARK   12  A    between atoms: C27_35  and  C28_36 
REMARK   13  A    between atoms: C28_36  and  C29_37 
REMARK       I    between atoms: C29_37  and  N2_38 
REMARK   14  A    between atoms: C30_40  and  O10_42 
ROOT
HETATM    1  C20 UNL     1      -7.058  48.310 -23.221  1.00  0.00     0.185 C 
HETATM    2  O4  UNL     1      -8.080  47.711 -22.869  1.00  0.00    -0.292 OA
ENDROOT
BRANCH   1   3
HETATM    3  C19 UNL     1      -6.492  49.513 -22.410  1.00  0.00     0.128 C 
HETATM    4  C14 UNL     1      -4.952  49.445 -22.150  1.00  0.00     0.005 C 
HETATM    5  C13 UNL     1      -4.052  50.000 -23.259  1.00  0.00     0.091 C 
HETATM    6  C15 UNL     1      -4.502  47.997 -21.818  1.00  0.00     0.019 C 
HETATM    7  C16 UNL     1      -4.835  50.412 -20.942  1.00  0.00     0.002 C 
HETATM    8  C12 UNL     1      -2.624  50.142 -22.745  1.00  0.00     0.133 C 
HETATM    9  C11 UNL     1      -2.430  50.972 -21.459  1.00  0.00     0.072 C 
HETATM   10  O2  UNL     1      -1.695  49.664 -23.392  1.00  0.00    -0.297 OA
HETATM   11  C2  UNL     1      -0.949  51.099 -20.946  1.00  0.00    -0.009 C 
HETATM   12  C10 UNL     1      -3.418  50.487 -20.357  1.00  0.00     0.003 C 
HETATM   13  C1  UNL     1      -0.309  49.725 -20.644  1.00  0.00     0.021 C 
HETATM   14  C3  UNL     1      -0.103  51.846 -22.022  1.00  0.00     0.022 C 
HETATM   15  C7  UNL     1      -0.942  51.912 -19.636  1.00  0.00    -0.067 C 
HETATM   16  C4  UNL     1       1.232  52.365 -21.506  1.00  0.00     0.084 C 
HETATM   17  C5  UNL     1       1.018  53.255 -20.312  1.00  0.00     0.149 C 
HETATM   18  O1  UNL     1       1.756  54.202 -20.054  1.00  0.00    -0.293 OA
HETATM   19  C6  UNL     1      -0.078  52.911 -19.379  1.00  0.00     0.053 C 
HETATM   20  C8  UNL     1      -1.953  51.521 -18.582  1.00  0.00     0.035 C 
HETATM   21  C9  UNL     1      -3.363  51.434 -19.150  1.00  0.00     0.010 C 
HETATM   22  C17 UNL     1      -5.963  49.970 -20.020  1.00  0.00     0.009 C 
HETATM   23  C18 UNL     1      -7.090  49.525 -20.971  1.00  0.00     0.047 C 
BRANCH   3  24
HETATM   24  O3  UNL     1      -6.827  50.787 -22.966  1.00  0.00    -0.381 OA
HETATM   25  H25 UNL     1      -6.614  50.785 -23.915  1.00  0.00     0.211 HD
ENDBRANCH   3  24
ENDBRANCH   1   3
BRANCH   1  26
HETATM   26  C21 UNL     1      -6.221  47.768 -24.383  1.00  0.00     0.260 C 
BRANCH  26  27
HETATM   27  O5  UNL     1      -6.411  48.416 -25.639  1.00  0.00    -0.314 OA
BRANCH  27  28
HETATM   28  C22 UNL     1      -5.448  48.123 -26.562  1.00  0.00     0.259 C 
HETATM   29  O6  UNL     1      -5.675  47.856 -27.733  1.00  0.00    -0.265 OA
BRANCH  28  30
HETATM   30  C23 UNL     1      -4.054  48.287 -26.000  1.00  0.00     0.120 C 
BRANCH  30  31
HETATM   31  C24 UNL     1      -3.021  48.811 -26.990  1.00  0.00     0.112 C 
BRANCH  31  32
HETATM   32  C25 UNL     1      -2.719  50.281 -26.782  1.00  0.00     0.218 C 
HETATM   33  O7  UNL     1      -3.585  51.123 -26.571  1.00  0.00    -0.274 OA
HETATM   34  N1  UNL     1      -1.376  50.578 -26.886  1.00  0.00    -0.347 N 
HETATM   35  H32 UNL     1      -0.744  49.813 -26.681  1.00  0.00     0.163 HD
BRANCH  34  36
HETATM   36  C26 UNL     1      -0.898  51.916 -26.517  1.00  0.00     0.182 C 
BRANCH  36  37
HETATM   37  C27 UNL     1      -1.747  52.543 -25.407  1.00  0.00     0.045 C 
BRANCH  37  38
HETATM   38  C28 UNL     1      -0.967  53.439 -24.439  1.00  0.00     0.105 C 
BRANCH  38  39
HETATM   39  C29 UNL     1       0.323  53.939 -25.054  1.00  0.00     0.215 C 
HETATM   40  N2  UNL     1       0.248  55.208 -25.552  1.00  0.00    -0.370 N 
HETATM   41  H38 UNL     1       1.065  55.552 -26.043  1.00  0.00     0.159 HD
HETATM   42  H39 UNL     1      -0.634  55.673 -25.719  1.00  0.00     0.159 HD
HETATM   43  O8  UNL     1       1.363  53.298 -25.112  1.00  0.00    -0.274 OA
ENDBRANCH  38  39
ENDBRANCH  37  38
ENDBRANCH  36  37
BRANCH  36  44
HETATM   44  C30 UNL     1      -0.889  52.797 -27.767  1.00  0.00     0.163 C 
HETATM   45  O9  UNL     1       0.046  52.927 -28.545  1.00  0.00    -0.648 OA
BRANCH  44  46
HETATM   46  O10 UNL     1      -2.066  53.410 -27.996  1.00  0.00    -0.775 OA
HETATM   47  H40 UNL     1      -1.917  53.953 -28.798  1.00  0.00     0.167 HD
ENDBRANCH  44  46
ENDBRANCH  36  44
ENDBRANCH  34  36
ENDBRANCH  31  32
ENDBRANCH  30  31
ENDBRANCH  28  30
ENDBRANCH  27  28
ENDBRANCH  26  27
ENDBRANCH   1  26
TORSDOF 14
ENDMDL
MODEL 4
REMARK minimizedAffinity -9.73288155
REMARK CNNscore 0.29628861
REMARK CNNaffinity 7.26000214
REMARK  14 active torsions:
REMARK  status: ('A' for Active; 'I' for Inactive)
REMARK    1  A    between atoms: C19_21  and  O3_22 
REMARK    2  A    between atoms: C19_21  and  C20_23 
REMARK    3  A    between atoms: C20_23  and  C21_25 
REMARK    4  A    between atoms: C21_25  and  O5_26 
REMARK    5  A    between atoms: O5_26  and  C22_27 
REMARK    6  A    between atoms: C22_27  and  C23_29 
REMARK    7  A    between atoms: C23_29  and  C24_30 
REMARK    8  A    between atoms: C24_30  and  C25_31 
REMARK       I    between atoms: C25_31  and  N1_33 
REMARK    9  A    between atoms: N1_33  and  C26_34 
REMARK   10  A    between atoms: C26_34  and  C27_35 
REMARK   11  A    between atoms: C26_34  and  C30_40 
REMARK   12  A    between atoms: C27_35  and  C28_36 
REMARK   13  A    between atoms: C28_36  and  C29_37 
REMARK       I    between atoms: C29_37  and  N2_38 
REMARK   14  A    between atoms: C30_40  and  O10_42 
ROOT
HETATM    1  C20 UNL     1      -3.287  49.895 -20.497  1.00  0.00     0.185 C 
HETATM    2  O4  UNL     1      -4.036  49.332 -19.692  1.00  0.00    -0.292 OA
ENDROOT
BRANCH   1   3
HETATM    3  C19 UNL     1      -1.793  50.182 -20.167  1.00  0.00     0.128 C 
HETATM    4  C14 UNL     1      -1.476  50.258 -18.638  1.00  0.00     0.005 C 
HETATM    5  C13 UNL     1      -1.190  48.926 -17.936  1.00  0.00     0.091 C 
HETATM    6  C15 UNL     1      -2.604  50.997 -17.867  1.00  0.00     0.019 C 
HETATM    7  C16 UNL     1      -0.142  51.050 -18.673  1.00  0.00     0.002 C 
HETATM    8  C12 UNL     1      -0.612  49.184 -16.550  1.00  0.00     0.133 C 
HETATM    9  C11 UNL     1       0.638  50.084 -16.477  1.00  0.00     0.072 C 
HETATM   10  O2  UNL     1      -1.106  48.625 -15.572  1.00  0.00    -0.297 OA
HETATM   11  C2  UNL     1       1.211  50.341 -15.035  1.00  0.00    -0.009 C 
HETATM   12  C10 UNL     1       0.396  51.398 -17.278  1.00  0.00     0.003 C 
HETATM   13  C1  UNL     1       0.176  51.003 -14.097  1.00  0.00     0.021 C 
HETATM   14  C3  UNL     1       1.674  48.981 -14.427  1.00  0.00     0.022 C 
HETATM   15  C7  UNL     1       2.419  51.292 -15.138  1.00  0.00    -0.067 C 
HETATM   16  C4  UNL     1       2.582  49.126 -13.213  1.00  0.00     0.084 C 
HETATM   17  C5  UNL     1       3.779  49.971 -13.554  1.00  0.00     0.149 C 
HETATM   18  O1  UNL     1       4.876  49.806 -13.028  1.00  0.00    -0.293 OA
HETATM   19  C6  UNL     1       3.587  51.093 -14.501  1.00  0.00     0.053 C 
HETATM   20  C8  UNL     1       2.244  52.532 -15.986  1.00  0.00     0.035 C 
HETATM   21  C9  UNL     1       1.701  52.202 -17.370  1.00  0.00     0.010 C 
HETATM   22  C17 UNL     1      -0.433  52.198 -19.630  1.00  0.00     0.009 C 
HETATM   23  C18 UNL     1      -1.386  51.596 -20.680  1.00  0.00     0.047 C 
BRANCH   3  24
HETATM   24  O3  UNL     1      -0.883  49.277 -20.797  1.00  0.00    -0.381 OA
HETATM   25  H25 UNL     1      -1.179  48.365 -20.637  1.00  0.00     0.211 HD
ENDBRANCH   3  24
ENDBRANCH   1   3
BRANCH   1  26
HETATM   26  C21 UNL     1      -3.775  50.176 -21.921  1.00  0.00     0.260 C 
BRANCH  26  27
HETATM   27  O5  UNL     1      -3.196  49.372 -22.945  1.00  0.00    -0.314 OA
BRANCH  27  28
HETATM   28  C22 UNL     1      -3.811  49.495 -24.158  1.00  0.00     0.259 C 
HETATM   29  O6  UNL     1      -4.607  50.379 -24.440  1.00  0.00    -0.265 OA
BRANCH  28  30
HETATM   30  C23 UNL     1      -3.302  48.482 -25.159  1.00  0.00     0.120 C 
BRANCH  30  31
HETATM   31  C24 UNL     1      -3.875  48.625 -26.564  1.00  0.00     0.112 C 
BRANCH  31  32
HETATM   32  C25 UNL     1      -3.138  49.667 -27.381  1.00  0.00     0.218 C 
HETATM   33  O7  UNL     1      -3.448  49.966 -28.528  1.00  0.00    -0.274 OA
HETATM   34  N1  UNL     1      -2.064  50.219 -26.713  1.00  0.00    -0.347 N 
HETATM   35  H32 UNL     1      -2.125  50.198 -25.701  1.00  0.00     0.163 HD
BRANCH  34  36
HETATM   36  C26 UNL     1      -1.371  51.377 -27.286  1.00  0.00     0.182 C 
BRANCH  36  37
HETATM   37  C27 UNL     1      -0.016  51.625 -26.616  1.00  0.00     0.045 C 
BRANCH  37  38
HETATM   38  C28 UNL     1      -0.098  52.303 -25.245  1.00  0.00     0.105 C 
BRANCH  38  39
HETATM   39  C29 UNL     1       0.392  53.735 -25.297  1.00  0.00     0.215 C 
HETATM   40  N2  UNL     1       1.103  54.121 -24.198  1.00  0.00    -0.370 N 
HETATM   41  H38 UNL     1       1.381  55.094 -24.155  1.00  0.00     0.159 HD
HETATM   42  H39 UNL     1       1.094  53.594 -23.334  1.00  0.00     0.159 HD
HETATM   43  O8  UNL     1       0.195  54.507 -26.225  1.00  0.00    -0.274 OA
ENDBRANCH  38  39
ENDBRANCH  37  38
ENDBRANCH  36  37
BRANCH  36  44
HETATM   44  C30 UNL     1      -2.276  52.602 -27.165  1.00  0.00     0.163 C 
HETATM   45  O9  UNL     1      -3.119  52.787 -26.296  1.00  0.00    -0.648 OA
BRANCH  44  46
HETATM   46  O10 UNL     1      -2.031  53.543 -28.097  1.00  0.00    -0.775 OA
HETATM   47  H40 UNL     1      -2.687  54.250 -27.923  1.00  0.00     0.167 HD
ENDBRANCH  44  46
ENDBRANCH  36  44
ENDBRANCH  34  36
ENDBRANCH  31  32
ENDBRANCH  30  31
ENDBRANCH  28  30
ENDBRANCH  27  28
ENDBRANCH  26  27
ENDBRANCH   1  26
TORSDOF 14
ENDMDL
MODEL 5
REMARK minimizedAffinity -8.18572044
REMARK CNNscore 0.286434203
REMARK CNNaffinity 6.34623718
REMARK  14 active torsions:
REMARK  status: ('A' for Active; 'I' for Inactive)
REMARK    1  A    between atoms: C19_21  and  O3_22 
REMARK    2  A    between atoms: C19_21  and  C20_23 
REMARK    3  A    between atoms: C20_23  and  C21_25 
REMARK    4  A    between atoms: C21_25  and  O5_26 
REMARK    5  A    between atoms: O5_26  and  C22_27 
REMARK    6  A    between atoms: C22_27  and  C23_29 
REMARK    7  A    between atoms: C23_29  and  C24_30 
REMARK    8  A    between atoms: C24_30  and  C25_31 
REMARK       I    between atoms: C25_31  and  N1_33 
REMARK    9  A    between atoms: N1_33  and  C26_34 
REMARK   10  A    between atoms: C26_34  and  C27_35 
REMARK   11  A    between atoms: C26_34  and  C30_40 
REMARK   12  A    between atoms: C27_35  and  C28_36 
REMARK   13  A    between atoms: C28_36  and  C29_37 
REMARK       I    between atoms: C29_37  and  N2_38 
REMARK   14  A    between atoms: C30_40  and  O10_42 
ROOT
HETATM    1  C20 UNL     1      -4.158  48.559 -19.436  1.00  0.00     0.185 C 
HETATM    2  O4  UNL     1      -5.338  48.910 -19.328  1.00  0.00    -0.292 OA
ENDROOT
BRANCH   1   3
HETATM    3  C19 UNL     1      -3.529  48.214 -20.818  1.00  0.00     0.128 C 
HETATM    4  C14 UNL     1      -3.044  49.457 -21.631  1.00  0.00     0.005 C 
HETATM    5  C13 UNL     1      -1.633  49.966 -21.317  1.00  0.00     0.091 C 
HETATM    6  C15 UNL     1      -4.042  50.639 -21.499  1.00  0.00     0.019 C 
HETATM    7  C16 UNL     1      -3.002  48.852 -23.059  1.00  0.00     0.002 C 
HETATM    8  C12 UNL     1      -1.195  50.969 -22.378  1.00  0.00     0.133 C 
HETATM    9  C11 UNL     1      -1.258  50.497 -23.845  1.00  0.00     0.072 C 
HETATM   10  O2  UNL     1      -0.752  52.063 -22.033  1.00  0.00    -0.297 OA
HETATM   11  C2  UNL     1      -0.807  51.552 -24.921  1.00  0.00    -0.009 C 
HETATM   12  C10 UNL     1      -2.656  49.879 -24.147  1.00  0.00     0.003 C 
HETATM   13  C1  UNL     1      -1.653  52.845 -24.871  1.00  0.00     0.021 C 
HETATM   14  C3  UNL     1       0.695  51.900 -24.688  1.00  0.00     0.022 C 
HETATM   15  C7  UNL     1      -0.978  50.939 -26.325  1.00  0.00    -0.067 C 
HETATM   16  C4  UNL     1       1.355  52.605 -25.866  1.00  0.00     0.084 C 
HETATM   17  C5  UNL     1       1.205  51.782 -27.116  1.00  0.00     0.149 C 
HETATM   18  O1  UNL     1       2.044  51.785 -28.013  1.00  0.00    -0.293 OA
HETATM   19  C6  UNL     1      -0.047  51.011 -27.293  1.00  0.00     0.053 C 
HETATM   20  C8  UNL     1      -2.293  50.251 -26.616  1.00  0.00     0.035 C 
HETATM   21  C9  UNL     1      -2.654  49.235 -25.540  1.00  0.00     0.010 C 
HETATM   22  C17 UNL     1      -4.330  48.115 -23.174  1.00  0.00     0.009 C 
HETATM   23  C18 UNL     1      -4.599  47.577 -21.756  1.00  0.00     0.047 C 
BRANCH   3  24
HETATM   24  O3  UNL     1      -2.474  47.251 -20.744  1.00  0.00    -0.381 OA
HETATM   25  H25 UNL     1      -1.845  47.523 -20.053  1.00  0.00     0.211 HD
ENDBRANCH   3  24
ENDBRANCH   1   3
BRANCH   1  26
HETATM   26  C21 UNL     1      -3.232  48.618 -18.219  1.00  0.00     0.260 C 
BRANCH  26  27
HETATM   27  O5  UNL     1      -2.308  49.704 -18.195  1.00  0.00    -0.314 OA
BRANCH  27  28
HETATM   28  C22 UNL     1      -1.758  49.933 -16.967  1.00  0.00     0.259 C 
HETATM   29  O6  UNL     1      -2.295  50.582 -16.081  1.00  0.00    -0.265 OA
BRANCH  28  30
HETATM   30  C23 UNL     1      -0.455  49.188 -16.779  1.00  0.00     0.120 C 
BRANCH  30  31
HETATM   31  C24 UNL     1      -0.350  48.396 -15.481  1.00  0.00     0.112 C 
BRANCH  31  32
HETATM   32  C25 UNL     1       0.296  49.198 -14.370  1.00  0.00     0.218 C 
HETATM   33  O7  UNL     1      -0.316  49.602 -13.388  1.00  0.00    -0.274 OA
HETATM   34  N1  UNL     1       1.633  49.455 -14.595  1.00  0.00    -0.347 N 
HETATM   35  H32 UNL     1       2.108  48.790 -15.194  1.00  0.00     0.163 HD
BRANCH  34  36
HETATM   36  C26 UNL     1       2.447  50.047 -13.527  1.00  0.00     0.182 C 
BRANCH  36  37
HETATM   37  C27 UNL     1       2.737  51.529 -13.780  1.00  0.00     0.045 C 
BRANCH  37  38
HETATM   38  C28 UNL     1       2.101  52.094 -15.055  1.00  0.00     0.105 C 
BRANCH  38  39
HETATM   39  C29 UNL     1       3.148  52.475 -16.082  1.00  0.00     0.215 C 
HETATM   40  N2  UNL     1       2.674  53.256 -17.095  1.00  0.00    -0.370 N 
HETATM   41  H38 UNL     1       3.322  53.468 -17.845  1.00  0.00     0.159 HD
HETATM   42  H39 UNL     1       1.686  53.364 -17.280  1.00  0.00     0.159 HD
HETATM   43  O8  UNL     1       4.323  52.139 -16.038  1.00  0.00    -0.274 OA
ENDBRANCH  38  39
ENDBRANCH  37  38
ENDBRANCH  36  37
BRANCH  36  44
HETATM   44  C30 UNL     1       3.744  49.247 -13.397  1.00  0.00     0.163 C 
HETATM   45  O9  UNL     1       4.813  49.526 -13.923  1.00  0.00    -0.648 OA
BRANCH  44  46
HETATM   46  O10 UNL     1       3.638  48.188 -12.572  1.00  0.00    -0.775 OA
HETATM   47  H40 UNL     1       4.517  47.757 -12.599  1.00  0.00     0.167 HD
ENDBRANCH  44  46
ENDBRANCH  36  44
ENDBRANCH  34  36
ENDBRANCH  31  32
ENDBRANCH  30  31
ENDBRANCH  28  30
ENDBRANCH  27  28
ENDBRANCH  26  27
ENDBRANCH   1  26
TORSDOF 14
ENDMDL
MODEL 6
REMARK minimizedAffinity -7.69695854
REMARK CNNscore 0.282300442
REMARK CNNaffinity 6.06228447
REMARK  14 active torsions:
REMARK  status: ('A' for Active; 'I' for Inactive)
REMARK    1  A    between atoms: C19_21  and  O3_22 
REMARK    2  A    between atoms: C19_21  and  C20_23 
REMARK    3  A    between atoms: C20_23  and  C21_25 
REMARK    4  A    between atoms: C21_25  and  O5_26 
REMARK    5  A    between atoms: O5_26  and  C22_27 
REMARK    6  A    between atoms: C22_27  and  C23_29 
REMARK    7  A    between atoms: C23_29  and  C24_30 
REMARK    8  A    between atoms: C24_30  and  C25_31 
REMARK       I    between atoms: C25_31  and  N1_33 
REMARK    9  A    between atoms: N1_33  and  C26_34 
REMARK   10  A    between atoms: C26_34  and  C27_35 
REMARK   11  A    between atoms: C26_34  and  C30_40 
REMARK   12  A    between atoms: C27_35  and  C28_36 
REMARK   13  A    between atoms: C28_36  and  C29_37 
REMARK       I    between atoms: C29_37  and  N2_38 
REMARK   14  A    between atoms: C30_40  and  O10_42 
ROOT
HETATM    1  C20 UNL     1      -6.709  48.604 -21.087  1.00  0.00     0.185 C 
HETATM    2  O4  UNL     1      -6.471  49.297 -20.092  1.00  0.00    -0.292 OA
ENDROOT
BRANCH   1   3
HETATM    3  C19 UNL     1      -5.593  48.215 -22.101  1.00  0.00     0.128 C 
HETATM    4  C14 UNL     1      -4.782  49.427 -22.661  1.00  0.00     0.005 C 
HETATM    5  C13 UNL     1      -3.596  49.901 -21.814  1.00  0.00     0.091 C 
HETATM    6  C15 UNL     1      -5.709  50.640 -22.946  1.00  0.00     0.019 C 
HETATM    7  C16 UNL     1      -4.195  48.793 -23.950  1.00  0.00     0.002 C 
HETATM    8  C12 UNL     1      -2.738  50.870 -22.618  1.00  0.00     0.133 C 
HETATM    9  C11 UNL     1      -2.227  50.372 -23.986  1.00  0.00     0.072 C 
HETATM   10  O2  UNL     1      -2.432  51.957 -22.133  1.00  0.00    -0.297 OA
HETATM   11  C2  UNL     1      -1.349  51.392 -24.799  1.00  0.00    -0.009 C 
HETATM   12  C10 UNL     1      -3.409  49.789 -24.816  1.00  0.00     0.003 C 
HETATM   13  C1  UNL     1      -2.100  52.709 -25.099  1.00  0.00     0.021 C 
HETATM   14  C3  UNL     1      -0.053  51.701 -23.989  1.00  0.00     0.022 C 
HETATM   15  C7  UNL     1      -0.967  50.757 -26.151  1.00  0.00    -0.067 C 
HETATM   16  C4  UNL     1       1.045  52.363 -24.811  1.00  0.00     0.084 C 
HETATM   17  C5  UNL     1       1.377  51.521 -26.011  1.00  0.00     0.149 C 
HETATM   18  O1  UNL     1       2.504  51.481 -26.499  1.00  0.00    -0.293 OA
HETATM   19  C6  UNL     1       0.274  50.783 -26.668  1.00  0.00     0.053 C 
HETATM   20  C8  UNL     1      -2.080  50.102 -26.938  1.00  0.00     0.035 C 
HETATM   21  C9  UNL     1      -2.874  49.118 -26.089  1.00  0.00     0.010 C 
HETATM   22  C17 UNL     1      -5.391  48.092 -24.580  1.00  0.00     0.009 C 
HETATM   23  C18 UNL     1      -6.221  47.591 -23.384  1.00  0.00     0.047 C 
BRANCH   3  24
HETATM   24  O3  UNL     1      -4.689  47.224 -21.606  1.00  0.00    -0.381 OA
HETATM   25  H25 UNL     1      -4.378  47.490 -20.724  1.00  0.00     0.211 HD
ENDBRANCH   3  24
ENDBRANCH   1   3
BRANCH   1  26
HETATM   26  C21 UNL     1      -8.090  47.966 -21.257  1.00  0.00     0.260 C 
BRANCH  26  27
HETATM   27  O5  UNL     1      -8.096  46.606 -21.686  1.00  0.00    -0.314 OA
BRANCH  27  28
HETATM   28  C22 UNL     1      -9.342  46.048 -21.732  1.00  0.00     0.259 C 
HETATM   29  O6  UNL     1      -9.607  45.003 -22.308  1.00  0.00    -0.265 OA
BRANCH  28  30
HETATM   30  C23 UNL     1     -10.336  46.807 -20.882  1.00  0.00     0.120 C 
BRANCH  30  31
HETATM   31  C24 UNL     1     -11.548  45.997 -20.435  1.00  0.00     0.112 C 
BRANCH  31  32
HETATM   32  C25 UNL     1     -12.334  46.695 -19.344  1.00  0.00     0.218 C 
HETATM   33  O7  UNL     1     -12.200  47.882 -19.071  1.00  0.00    -0.274 OA
HETATM   34  N1  UNL     1     -13.189  45.849 -18.668  1.00  0.00    -0.347 N 
HETATM   35  H32 UNL     1     -13.498  45.036 -19.189  1.00  0.00     0.163 HD
BRANCH  34  36
HETATM   36  C26 UNL     1     -14.160  46.405 -17.719  1.00  0.00     0.182 C 
BRANCH  36  37
HETATM   37  C27 UNL     1     -14.615  47.812 -18.121  1.00  0.00     0.045 C 
BRANCH  37  38
HETATM   38  C28 UNL     1     -16.073  47.902 -18.583  1.00  0.00     0.105 C 
BRANCH  38  39
HETATM   39  C29 UNL     1     -16.432  46.777 -19.531  1.00  0.00     0.215 C 
HETATM   40  N2  UNL     1     -15.863  46.889 -20.767  1.00  0.00    -0.370 N 
HETATM   41  H38 UNL     1     -16.139  46.200 -21.457  1.00  0.00     0.159 HD
HETATM   42  H39 UNL     1     -15.450  47.750 -21.098  1.00  0.00     0.159 HD
HETATM   43  O8  UNL     1     -17.157  45.832 -19.252  1.00  0.00    -0.274 OA
ENDBRANCH  38  39
ENDBRANCH  37  38
ENDBRANCH  36  37
BRANCH  36  44
HETATM   44  C30 UNL     1     -13.538  46.407 -16.323  1.00  0.00     0.163 C 
HETATM   45  O9  UNL     1     -12.341  46.394 -16.072  1.00  0.00    -0.648 OA
BRANCH  44  46
HETATM   46  O10 UNL     1     -14.449  46.486 -15.333  1.00  0.00    -0.775 OA
HETATM   47  H40 UNL     1     -13.926  46.452 -14.505  1.00  0.00     0.167 HD
ENDBRANCH  44  46
ENDBRANCH  36  44
ENDBRANCH  34  36
ENDBRANCH  31  32
ENDBRANCH  30  31
ENDBRANCH  28  30
ENDBRANCH  27  28
ENDBRANCH  26  27
ENDBRANCH   1  26
TORSDOF 14
ENDMDL
MODEL 7
REMARK minimizedAffinity -8.06208515
REMARK CNNscore 0.279550135
REMARK CNNaffinity 6.11675787
REMARK  14 active torsions:
REMARK  status: ('A' for Active; 'I' for Inactive)
REMARK    1  A    between atoms: C19_21  and  O3_22 
REMARK    2  A    between atoms: C19_21  and  C20_23 
REMARK    3  A    between atoms: C20_23  and  C21_25 
REMARK    4  A    between atoms: C21_25  and  O5_26 
REMARK    5  A    between atoms: O5_26  and  C22_27 
REMARK    6  A    between atoms: C22_27  and  C23_29 
REMARK    7  A    between atoms: C23_29  and  C24_30 
REMARK    8  A    between atoms: C24_30  and  C25_31 
REMARK       I    between atoms: C25_31  and  N1_33 
REMARK    9  A    between atoms: N1_33  and  C26_34 
REMARK   10  A    between atoms: C26_34  and  C27_35 
REMARK   11  A    between atoms: C26_34  and  C30_40 
REMARK   12  A    between atoms: C27_35  and  C28_36 
REMARK   13  A    between atoms: C28_36  and  C29_37 
REMARK       I    between atoms: C29_37  and  N2_38 
REMARK   14  A    between atoms: C30_40  and  O10_42 
ROOT
HETATM    1  C20 UNL     1      -7.214  48.460 -23.353  1.00  0.00     0.185 C 
HETATM    2  O4  UNL     1      -7.121  48.464 -24.585  1.00  0.00    -0.292 OA
ENDROOT
BRANCH   1   3
HETATM    3  C19 UNL     1      -6.625  49.608 -22.482  1.00  0.00     0.128 C 
HETATM    4  C14 UNL     1      -5.068  49.574 -22.340  1.00  0.00     0.005 C 
HETATM    5  C13 UNL     1      -4.270  50.253 -23.458  1.00  0.00     0.091 C 
HETATM    6  C15 UNL     1      -4.553  48.119 -22.170  1.00  0.00     0.019 C 
HETATM    7  C16 UNL     1      -4.890  50.437 -21.063  1.00  0.00     0.002 C 
HETATM    8  C12 UNL     1      -2.812  50.402 -23.037  1.00  0.00     0.133 C 
HETATM    9  C11 UNL     1      -2.547  51.125 -21.700  1.00  0.00     0.072 C 
HETATM   10  O2  UNL     1      -1.921  50.013 -23.788  1.00  0.00    -0.297 OA
HETATM   11  C2  UNL     1      -1.036  51.259 -21.285  1.00  0.00    -0.009 C 
HETATM   12  C10 UNL     1      -3.435  50.511 -20.577  1.00  0.00     0.003 C 
HETATM   13  C1  UNL     1      -0.336  49.888 -21.152  1.00  0.00     0.021 C 
HETATM   14  C3  UNL     1      -0.295  52.125 -22.349  1.00  0.00     0.022 C 
HETATM   15  C7  UNL     1      -0.955  51.956 -19.913  1.00  0.00    -0.067 C 
HETATM   16  C4  UNL     1       1.059  52.646 -21.887  1.00  0.00     0.084 C 
HETATM   17  C5  UNL     1       0.909  53.421 -20.607  1.00  0.00     0.149 C 
HETATM   18  O1  UNL     1       1.636  54.368 -20.319  1.00  0.00    -0.293 OA
HETATM   19  C6  UNL     1      -0.104  52.959 -19.631  1.00  0.00     0.053 C 
HETATM   20  C8  UNL     1      -1.873  51.441 -18.827  1.00  0.00     0.035 C 
HETATM   21  C9  UNL     1      -3.318  51.353 -19.299  1.00  0.00     0.010 C 
HETATM   22  C17 UNL     1      -5.933  49.877 -20.105  1.00  0.00     0.009 C 
HETATM   23  C18 UNL     1      -7.114  49.476 -21.008  1.00  0.00     0.047 C 
BRANCH   3  24
HETATM   24  O3  UNL     1      -7.037  50.913 -22.898  1.00  0.00    -0.381 OA
HETATM   25  H25 UNL     1      -6.895  51.000 -23.856  1.00  0.00     0.211 HD
ENDBRANCH   3  24
ENDBRANCH   1   3
BRANCH   1  26
HETATM   26  C21 UNL     1      -8.070  47.397 -22.658  1.00  0.00     0.260 C 
BRANCH  26  27
HETATM   27  O5  UNL     1      -8.785  46.516 -23.520  1.00  0.00    -0.314 OA
BRANCH  27  28
HETATM   28  C22 UNL     1      -8.104  45.374 -23.832  1.00  0.00     0.259 C 
HETATM   29  O6  UNL     1      -7.559  44.651 -23.011  1.00  0.00    -0.265 OA
BRANCH  28  30
HETATM   30  C23 UNL     1      -8.204  45.037 -25.302  1.00  0.00     0.120 C 
BRANCH  30  31
HETATM   31  C24 UNL     1      -9.175  45.903 -26.095  1.00  0.00     0.112 C 
BRANCH  31  32
HETATM   32  C25 UNL     1      -8.866  45.902 -27.579  1.00  0.00     0.218 C 
HETATM   33  O7  UNL     1      -7.735  45.768 -28.031  1.00  0.00    -0.274 OA
HETATM   34  N1  UNL     1      -9.983  46.101 -28.365  1.00  0.00    -0.347 N 
HETATM   35  H32 UNL     1     -10.863  45.823 -27.947  1.00  0.00     0.163 HD
BRANCH  34  36
HETATM   36  C26 UNL     1      -9.886  45.931 -29.819  1.00  0.00     0.182 C 
BRANCH  36  37
HETATM   37  C27 UNL     1     -10.353  47.177 -30.576  1.00  0.00     0.045 C 
BRANCH  37  38
HETATM   38  C28 UNL     1      -9.220  48.062 -31.106  1.00  0.00     0.105 C 
BRANCH  38  39
HETATM   39  C29 UNL     1      -8.833  49.134 -30.109  1.00  0.00     0.215 C 
HETATM   40  N2  UNL     1      -8.760  50.389 -30.640  1.00  0.00    -0.370 N 
HETATM   41  H38 UNL     1      -8.427  51.123 -30.027  1.00  0.00     0.159 HD
HETATM   42  H39 UNL     1      -8.724  50.554 -31.637  1.00  0.00     0.159 HD
HETATM   43  O8  UNL     1      -8.604  48.935 -28.923  1.00  0.00    -0.274 OA
ENDBRANCH  38  39
ENDBRANCH  37  38
ENDBRANCH  36  37
BRANCH  36  44
HETATM   44  C30 UNL     1     -10.700  44.703 -30.226  1.00  0.00     0.163 C 
HETATM   45  O9  UNL     1     -11.790  44.382 -29.769  1.00  0.00    -0.648 OA
BRANCH  44  46
HETATM   46  O10 UNL     1     -10.132  43.989 -31.217  1.00  0.00    -0.775 OA
HETATM   47  H40 UNL     1     -10.735  43.230 -31.360  1.00  0.00     0.167 HD
ENDBRANCH  44  46
ENDBRANCH  36  44
ENDBRANCH  34  36
ENDBRANCH  31  32
ENDBRANCH  30  31
ENDBRANCH  28  30
ENDBRANCH  27  28
ENDBRANCH  26  27
ENDBRANCH   1  26
TORSDOF 14
ENDMDL
MODEL 8
REMARK minimizedAffinity -7.8517704
REMARK CNNscore 0.279397786
REMARK CNNaffinity 6.31987238
REMARK  14 active torsions:
REMARK  status: ('A' for Active; 'I' for Inactive)
REMARK    1  A    between atoms: C19_21  and  O3_22 
REMARK    2  A    between atoms: C19_21  and  C20_23 
REMARK    3  A    between atoms: C20_23  and  C21_25 
REMARK    4  A    between atoms: C21_25  and  O5_26 
REMARK    5  A    between atoms: O5_26  and  C22_27 
REMARK    6  A    between atoms: C22_27  and  C23_29 
REMARK    7  A    between atoms: C23_29  and  C24_30 
REMARK    8  A    between atoms: C24_30  and  C25_31 
REMARK       I    between atoms: C25_31  and  N1_33 
REMARK    9  A    between atoms: N1_33  and  C26_34 
REMARK   10  A    between atoms: C26_34  and  C27_35 
REMARK   11  A    between atoms: C26_34  and  C30_40 
REMARK   12  A    between atoms: C27_35  and  C28_36 
REMARK   13  A    between atoms: C28_36  and  C29_37 
REMARK       I    between atoms: C29_37  and  N2_38 
REMARK   14  A    between atoms: C30_40  and  O10_42 
ROOT
HETATM    1  C20 UNL     1      -3.125  48.962 -18.198  1.00  0.00     0.185 C 
HETATM    2  O4  UNL     1      -4.256  48.712 -17.767  1.00  0.00    -0.292 OA
ENDROOT
BRANCH   1   3
HETATM    3  C19 UNL     1      -2.666  48.498 -19.611  1.00  0.00     0.128 C 
HETATM    4  C14 UNL     1      -2.513  49.656 -20.650  1.00  0.00     0.005 C 
HETATM    5  C13 UNL     1      -1.170  50.394 -20.651  1.00  0.00     0.091 C 
HETATM    6  C15 UNL     1      -3.655  50.698 -20.501  1.00  0.00     0.019 C 
HETATM    7  C16 UNL     1      -2.592  48.850 -21.973  1.00  0.00     0.002 C 
HETATM    8  C12 UNL     1      -1.062  51.272 -21.893  1.00  0.00     0.133 C 
HETATM    9  C11 UNL     1      -1.271  50.577 -23.253  1.00  0.00     0.072 C 
HETATM   10  O2  UNL     1      -0.753  52.456 -21.773  1.00  0.00    -0.297 OA
HETATM   11  C2  UNL     1      -1.162  51.506 -24.518  1.00  0.00    -0.009 C 
HETATM   12  C10 UNL     1      -2.582  49.737 -23.227  1.00  0.00     0.003 C 
HETATM   13  C1  UNL     1      -2.185  52.664 -24.490  1.00  0.00     0.021 C 
HETATM   14  C3  UNL     1       0.284  52.086 -24.595  1.00  0.00     0.022 C 
HETATM   15  C7  UNL     1      -1.444  50.668 -25.780  1.00  0.00    -0.067 C 
HETATM   16  C4  UNL     1       0.637  52.685 -25.949  1.00  0.00     0.084 C 
HETATM   17  C5  UNL     1       0.432  51.668 -27.038  1.00  0.00     0.149 C 
HETATM   18  O1  UNL     1       1.115  51.647 -28.059  1.00  0.00    -0.293 OA
HETATM   19  C6  UNL     1      -0.693  50.717 -26.896  1.00  0.00     0.053 C 
HETATM   20  C8  UNL     1      -2.661  49.772 -25.749  1.00  0.00     0.035 C 
HETATM   21  C9  UNL     1      -2.689  48.893 -24.506  1.00  0.00     0.010 C 
HETATM   22  C17 UNL     1      -3.788  47.931 -21.762  1.00  0.00     0.009 C 
HETATM   23  C18 UNL     1      -3.750  47.586 -20.261  1.00  0.00     0.047 C 
BRANCH   3  24
HETATM   24  O3  UNL     1      -1.472  47.710 -19.597  1.00  0.00    -0.381 OA
HETATM   25  H25 UNL     1      -0.797  48.167 -19.066  1.00  0.00     0.211 HD
ENDBRANCH   3  24
ENDBRANCH   1   3
BRANCH   1  26
HETATM   26  C21 UNL     1      -2.198  49.889 -17.409  1.00  0.00     0.260 C 
BRANCH  26  27
HETATM   27  O5  UNL     1      -2.186  49.699 -15.996  1.00  0.00    -0.314 OA
BRANCH  27  28
HETATM   28  C22 UNL     1      -2.388  50.846 -15.283  1.00  0.00     0.259 C 
HETATM   29  O6  UNL     1      -3.439  51.471 -15.265  1.00  0.00    -0.265 OA
BRANCH  28  30
HETATM   30  C23 UNL     1      -1.199  51.193 -14.416  1.00  0.00     0.120 C 
BRANCH  30  31
HETATM   31  C24 UNL     1      -1.282  50.689 -12.980  1.00  0.00     0.112 C 
BRANCH  31  32
HETATM   32  C25 UNL     1      -1.911  51.707 -12.050  1.00  0.00     0.218 C 
HETATM   33  O7  UNL     1      -3.101  51.705 -11.755  1.00  0.00    -0.274 OA
HETATM   34  N1  UNL     1      -1.014  52.652 -11.597  1.00  0.00    -0.347 N 
HETATM   35  H32 UNL     1      -0.044  52.358 -11.579  1.00  0.00     0.163 HD
BRANCH  34  36
HETATM   36  C26 UNL     1      -1.417  53.585 -10.538  1.00  0.00     0.182 C 
BRANCH  36  37
HETATM   37  C27 UNL     1      -0.537  54.839 -10.512  1.00  0.00     0.045 C 
BRANCH  37  38
HETATM   38  C28 UNL     1      -0.814  55.788  -9.342  1.00  0.00     0.105 C 
BRANCH  38  39
HETATM   39  C29 UNL     1       0.327  55.800  -8.347  1.00  0.00     0.215 C 
HETATM   40  N2  UNL     1      -0.059  55.594  -7.054  1.00  0.00    -0.370 N 
HETATM   41  H38 UNL     1       0.663  55.673  -6.347  1.00  0.00     0.159 HD
HETATM   42  H39 UNL     1      -1.022  55.673  -6.757  1.00  0.00     0.159 HD
HETATM   43  O8  UNL     1       1.504  55.968  -8.636  1.00  0.00    -0.274 OA
ENDBRANCH  38  39
ENDBRANCH  37  38
ENDBRANCH  36  37
BRANCH  36  44
HETATM   44  C30 UNL     1      -1.373  52.855  -9.196  1.00  0.00     0.163 C 
HETATM   45  O9  UNL     1      -2.314  52.717  -8.425  1.00  0.00    -0.648 OA
BRANCH  44  46
HETATM   46  O10 UNL     1      -0.178  52.293  -8.932  1.00  0.00    -0.775 OA
HETATM   47  H40 UNL     1      -0.279  51.887  -8.046  1.00  0.00     0.167 HD
ENDBRANCH  44  46
ENDBRANCH  36  44
ENDBRANCH  34  36
ENDBRANCH  31  32
ENDBRANCH  30  31
ENDBRANCH  28  30
ENDBRANCH  27  28
ENDBRANCH  26  27
ENDBRANCH   1  26
TORSDOF 14
ENDMDL
MODEL 9
REMARK minimizedAffinity -8.90383148
REMARK CNNscore 0.278616816
REMARK CNNaffinity 6.05520248
REMARK  14 active torsions:
REMARK  status: ('A' for Active; 'I' for Inactive)
REMARK    1  A    between atoms: C19_21  and  O3_22 
REMARK    2  A    between atoms: C19_21  and  C20_23 
REMARK    3  A    between atoms: C20_23  and  C21_25 
REMARK    4  A    between atoms: C21_25  and  O5_26 
REMARK    5  A    between atoms: O5_26  and  C22_27 
REMARK    6  A    between atoms: C22_27  and  C23_29 
REMARK    7  A    between atoms: C23_29  and  C24_30 
REMARK    8  A    between atoms: C24_30  and  C25_31 
REMARK       I    between atoms: C25_31  and  N1_33 
REMARK    9  A    between atoms: N1_33  and  C26_34 
REMARK   10  A    between atoms: C26_34  and  C27_35 
REMARK   11  A    between atoms: C26_34  and  C30_40 
REMARK   12  A    between atoms: C27_35  and  C28_36 
REMARK   13  A    between atoms: C28_36  and  C29_37 
REMARK       I    between atoms: C29_37  and  N2_38 
REMARK   14  A    between atoms: C30_40  and  O10_42 
ROOT
HETATM    1  C20 UNL     1      -7.150  48.350 -23.469  1.00  0.00     0.185 C 
HETATM    2  O4  UNL     1      -7.696  47.373 -22.947  1.00  0.00    -0.292 OA
ENDROOT
BRANCH   1   3
HETATM    3  C19 UNL     1      -6.584  49.524 -22.619  1.00  0.00     0.128 C 
HETATM    4  C14 UNL     1      -5.034  49.486 -22.420  1.00  0.00     0.005 C 
HETATM    5  C13 UNL     1      -4.190  50.120 -23.530  1.00  0.00     0.091 C 
HETATM    6  C15 UNL     1      -4.535  48.034 -22.179  1.00  0.00     0.019 C 
HETATM    7  C16 UNL     1      -4.895  50.392 -21.168  1.00  0.00     0.002 C 
HETATM    8  C12 UNL     1      -2.748  50.274 -23.062  1.00  0.00     0.133 C 
HETATM    9  C11 UNL     1      -2.526  51.043 -21.744  1.00  0.00     0.072 C 
HETATM   10  O2  UNL     1      -1.833  49.854 -23.767  1.00  0.00    -0.297 OA
HETATM   11  C2  UNL     1      -1.030  51.182 -21.279  1.00  0.00    -0.009 C 
HETATM   12  C10 UNL     1      -3.458  50.475 -20.632  1.00  0.00     0.003 C 
HETATM   13  C1  UNL     1      -0.345  49.812 -21.073  1.00  0.00     0.021 C 
HETATM   14  C3  UNL     1      -0.245  52.005 -22.346  1.00  0.00     0.022 C 
HETATM   15  C7  UNL     1      -0.993  51.928 -19.930  1.00  0.00    -0.067 C 
HETATM   16  C4  UNL     1       1.095  52.534 -21.853  1.00  0.00     0.084 C 
HETATM   17  C5  UNL     1       0.905  53.356 -20.607  1.00  0.00     0.149 C 
HETATM   18  O1  UNL     1       1.629  54.308 -20.328  1.00  0.00    -0.293 OA
HETATM   19  C6  UNL     1      -0.145  52.935 -19.653  1.00  0.00     0.053 C 
HETATM   20  C8  UNL     1      -1.953  51.457 -18.861  1.00  0.00     0.035 C 
HETATM   21  C9  UNL     1      -3.381  51.361 -19.381  1.00  0.00     0.010 C 
HETATM   22  C17 UNL     1      -5.976  49.874 -20.229  1.00  0.00     0.009 C 
HETATM   23  C18 UNL     1      -7.127  49.448 -21.160  1.00  0.00     0.047 C 
BRANCH   3  24
HETATM   24  O3  UNL     1      -6.971  50.816 -23.095  1.00  0.00    -0.381 OA
HETATM   25  H25 UNL     1      -6.794  50.868 -24.050  1.00  0.00     0.211 HD
ENDBRANCH   3  24
ENDBRANCH   1   3
BRANCH   1  26
HETATM   26  C21 UNL     1      -6.864  48.347 -24.973  1.00  0.00     0.260 C 
BRANCH  26  27
HETATM   27  O5  UNL     1      -7.377  47.234 -25.701  1.00  0.00    -0.314 OA
BRANCH  27  28
HETATM   28  C22 UNL     1      -7.857  47.557 -26.938  1.00  0.00     0.259 C 
HETATM   29  O6  UNL     1      -9.008  47.902 -27.162  1.00  0.00    -0.265 OA
BRANCH  28  30
HETATM   30  C23 UNL     1      -6.768  47.558 -27.987  1.00  0.00     0.120 C 
BRANCH  30  31
HETATM   31  C24 UNL     1      -7.218  47.134 -29.380  1.00  0.00     0.112 C 
BRANCH  31  32
HETATM   32  C25 UNL     1      -6.063  47.056 -30.358  1.00  0.00     0.218 C 
HETATM   33  O7  UNL     1      -4.892  47.215 -30.031  1.00  0.00    -0.274 OA
HETATM   34  N1  UNL     1      -6.468  46.823 -31.656  1.00  0.00    -0.347 N 
HETATM   35  H32 UNL     1      -7.356  46.345 -31.755  1.00  0.00     0.163 HD
BRANCH  34  36
HETATM   36  C26 UNL     1      -5.466  46.525 -32.686  1.00  0.00     0.182 C 
BRANCH  36  37
HETATM   37  C27 UNL     1      -4.319  45.668 -32.141  1.00  0.00     0.045 C 
BRANCH  37  38
HETATM   38  C28 UNL     1      -4.322  44.215 -32.627  1.00  0.00     0.105 C 
BRANCH  38  39
HETATM   39  C29 UNL     1      -5.673  43.560 -32.427  1.00  0.00     0.215 C 
HETATM   40  N2  UNL     1      -6.166  42.948 -33.542  1.00  0.00    -0.370 N 
HETATM   41  H38 UNL     1      -7.102  42.566 -33.474  1.00  0.00     0.159 HD
HETATM   42  H39 UNL     1      -5.793  43.123 -34.466  1.00  0.00     0.159 HD
HETATM   43  O8  UNL     1      -6.296  43.552 -31.373  1.00  0.00    -0.274 OA
ENDBRANCH  38  39
ENDBRANCH  37  38
ENDBRANCH  36  37
BRANCH  36  44
HETATM   44  C30 UNL     1      -4.944  47.842 -33.259  1.00  0.00     0.163 C 
HETATM   45  O9  UNL     1      -5.155  48.265 -34.388  1.00  0.00    -0.648 OA
BRANCH  44  46
HETATM   46  O10 UNL     1      -4.244  48.572 -32.370  1.00  0.00    -0.775 OA
HETATM   47  H40 UNL     1      -3.952  49.364 -32.866  1.00  0.00     0.167 HD
ENDBRANCH  44  46
ENDBRANCH  36  44
ENDBRANCH  34  36
ENDBRANCH  31  32
ENDBRANCH  30  31
ENDBRANCH  28  30
ENDBRANCH  27  28
ENDBRANCH  26  27
ENDBRANCH   1  26
TORSDOF 14
ENDMDL
