MODEL 1
REMARK minimizedAffinity -7.03619099
REMARK CNNscore 0.536880732
REMARK CNNaffinity 6.01623106
REMARK  5 active torsions:
REMARK  status: ('A' for Active; 'I' for Inactive)
REMARK    1  A    between atoms: C3_3  and  C4_4 
REMARK    2  A    between atoms: C4_4  and  O2_6 
REMARK    3  A    between atoms: O2_6  and  C5_7 
REMARK    4  A    between atoms: C5_7  and  C6_8 
REMARK    5  A    between atoms: C12_14  and  C13_15 
ROOT
HETATM    1  C1  UNL     1       1.429  53.614  -4.316  1.00  0.00     0.069 C 
HETATM    2  C2  UNL     1       1.599  53.904  -5.783  1.00  0.00     0.018 C 
HETATM    3  C3  UNL     1       0.874  54.808  -6.477  1.00  0.00     0.052 C 
HETATM    4  C12 UNL     1       1.100  55.079  -7.958  1.00  0.00     0.104 C 
HETATM    5  C22 UNL     1       2.342  54.350  -8.480  1.00  0.00     0.024 C 
HETATM    6  C23 UNL     1       3.013  53.456  -7.723  1.00  0.00     0.020 C 
HETATM    7  C24 UNL     1       4.258  52.750  -8.200  1.00  0.00     0.058 C 
HETATM    8  C25 UNL     1       4.985  53.555  -9.270  1.00  0.00     0.014 C 
HETATM    9  C26 UNL     1       4.032  53.938 -10.393  1.00  0.00     0.084 C 
HETATM   10  C27 UNL     1       2.820  54.670  -9.857  1.00  0.00     0.158 C 
HETATM   11  O5  UNL     1       2.207  55.473 -10.560  1.00  0.00    -0.293 OA
HETATM   12  N1  UNL     1       2.592  53.186  -6.434  1.00  0.00    -0.362 N 
HETATM   13  H22 UNL     1       3.193  52.607  -5.856  1.00  0.00     0.165 HD
ENDROOT
BRANCH   4  14
HETATM   14  C13 UNL     1      -0.140  54.739  -8.766  1.00  0.00     0.029 A 
HETATM   15  C14 UNL     1      -0.822  55.581  -9.560  1.00  0.00     0.154 A 
HETATM   16  O3  UNL     1      -1.950  55.295 -10.289  1.00  0.00    -0.321 OA
HETATM   17  C15 UNL     1      -2.485  54.037 -10.160  1.00  0.00     0.089 A 
HETATM   18  C16 UNL     1      -3.667  53.773 -10.854  1.00  0.00     0.040 A 
HETATM   19  C20 UNL     1      -1.894  53.041  -9.386  1.00  0.00     0.050 A 
HETATM   20  C17 UNL     1      -4.252  52.505 -10.771  1.00  0.00     0.026 A 
HETATM   21  C18 UNL     1      -3.647  51.509 -10.000  1.00  0.00     0.035 A 
HETATM   22 CL1  UNL     1      -4.361  49.944  -9.916  1.00  0.00    -0.084 Cl
HETATM   23  C19 UNL     1      -2.470  51.770  -9.301  1.00  0.00     0.042 A 
HETATM   24  C21 UNL     1      -0.639  53.344  -8.677  1.00  0.00     0.194 A 
HETATM   25  O4  UNL     1      -0.033  52.473  -8.065  1.00  0.00    -0.287 OA
ENDBRANCH   4  14
BRANCH   3  26
HETATM   26  C4  UNL     1      -0.133  55.634  -5.793  1.00  0.00     0.292 C 
HETATM   27  O1  UNL     1      -1.139  55.181  -5.264  1.00  0.00    -0.259 OA
BRANCH  26  28
HETATM   28  O2  UNL     1       0.213  56.937  -5.932  1.00  0.00    -0.313 OA
BRANCH  28  29
HETATM   29  C5  UNL     1       1.246  57.395  -5.055  1.00  0.00     0.217 C 
BRANCH  29  30
HETATM   30  C6  UNL     1       2.564  57.369  -5.793  1.00  0.00    -0.034 A 
HETATM   31  C7  UNL     1       2.672  57.964  -7.059  1.00  0.00     0.009 A 
HETATM   32  C8  UNL     1       3.872  57.908  -7.771  1.00  0.00     0.001 A 
HETATM   33  C9  UNL     1       4.978  57.258  -7.226  1.00  0.00     0.000 A 
HETATM   34  C10 UNL     1       4.888  56.672  -5.960  1.00  0.00     0.001 A 
HETATM   35  C11 UNL     1       3.687  56.729  -5.247  1.00  0.00     0.009 A 
ENDBRANCH  29  30
ENDBRANCH  28  29
ENDBRANCH  26  28
ENDBRANCH   3  26
TORSDOF 5
ENDMDL
MODEL 2
REMARK minimizedAffinity -7.65927696
REMARK CNNscore 0.40749377
REMARK CNNaffinity 5.63369131
REMARK  5 active torsions:
REMARK  status: ('A' for Active; 'I' for Inactive)
REMARK    1  A    between atoms: C3_3  and  C4_4 
REMARK    2  A    between atoms: C4_4  and  O2_6 
REMARK    3  A    between atoms: O2_6  and  C5_7 
REMARK    4  A    between atoms: C5_7  and  C6_8 
REMARK    5  A    between atoms: C12_14  and  C13_15 
ROOT
HETATM    1  C1  UNL     1       4.958  62.572 -34.023  1.00  0.00     0.069 C 
HETATM    2  C2  UNL     1       4.882  63.990 -34.523  1.00  0.00     0.018 C 
HETATM    3  C3  UNL     1       5.953  64.783 -34.749  1.00  0.00     0.052 C 
HETATM    4  C12 UNL     1       5.823  66.206 -35.276  1.00  0.00     0.104 C 
HETATM    5  C22 UNL     1       4.381  66.527 -35.678  1.00  0.00     0.024 C 
HETATM    6  C23 UNL     1       3.363  65.681 -35.415  1.00  0.00     0.020 C 
HETATM    7  C24 UNL     1       1.939  65.958 -35.831  1.00  0.00     0.058 C 
HETATM    8  C25 UNL     1       1.877  66.888 -37.035  1.00  0.00     0.014 C 
HETATM    9  C26 UNL     1       2.695  68.147 -36.783  1.00  0.00     0.084 C 
HETATM   10  C27 UNL     1       4.120  67.807 -36.402  1.00  0.00     0.158 C 
HETATM   11  O5  UNL     1       5.039  68.591 -36.634  1.00  0.00    -0.293 OA
HETATM   12  N1  UNL     1       3.609  64.479 -34.777  1.00  0.00    -0.362 N 
HETATM   13  H22 UNL     1       2.842  63.817 -34.711  1.00  0.00     0.165 HD
ENDROOT
BRANCH   4  14
HETATM   14  C13 UNL     1       6.369  67.207 -34.273  1.00  0.00     0.029 A 
HETATM   15  C14 UNL     1       6.098  67.237 -32.957  1.00  0.00     0.154 A 
HETATM   16  O3  UNL     1       6.574  68.139 -32.038  1.00  0.00    -0.321 OA
HETATM   17  C15 UNL     1       7.366  69.160 -32.504  1.00  0.00     0.089 A 
HETATM   18  C16 UNL     1       7.794  70.109 -31.575  1.00  0.00     0.040 A 
HETATM   19  C20 UNL     1       7.752  69.267 -33.839  1.00  0.00     0.050 A 
HETATM   20  C17 UNL     1       8.614  71.164 -31.988  1.00  0.00     0.026 A 
HETATM   21  C18 UNL     1       9.003  71.259 -33.326  1.00  0.00     0.035 A 
HETATM   22 CL1  UNL     1      10.027  72.550 -33.827  1.00  0.00    -0.084 Cl
HETATM   23  C19 UNL     1       8.574  70.317 -34.259  1.00  0.00     0.042 A 
HETATM   24  C21 UNL     1       7.296  68.242 -34.793  1.00  0.00     0.194 A 
HETATM   25  O4  UNL     1       7.689  68.240 -35.953  1.00  0.00    -0.287 OA
ENDBRANCH   4  14
BRANCH   3  26
HETATM   26  C4  UNL     1       7.315  64.263 -34.559  1.00  0.00     0.292 C 
HETATM   27  O1  UNL     1       7.876  64.204 -33.472  1.00  0.00    -0.259 OA
BRANCH  26  28
HETATM   28  O2  UNL     1       7.832  63.957 -35.773  1.00  0.00    -0.313 OA
BRANCH  28  29
HETATM   29  C5  UNL     1       8.694  62.816 -35.804  1.00  0.00     0.217 C 
BRANCH  29  30
HETATM   30  C6  UNL     1      10.129  63.285 -35.770  1.00  0.00    -0.034 A 
HETATM   31  C7  UNL     1      10.570  64.265 -36.672  1.00  0.00     0.009 A 
HETATM   32  C8  UNL     1      11.905  64.675 -36.680  1.00  0.00     0.001 A 
HETATM   33  C9  UNL     1      12.815  64.112 -35.787  1.00  0.00     0.000 A 
HETATM   34  C10 UNL     1      12.387  63.144 -34.875  1.00  0.00     0.001 A 
HETATM   35  C11 UNL     1      11.050  62.734 -34.865  1.00  0.00     0.009 A 
ENDBRANCH  29  30
ENDBRANCH  28  29
ENDBRANCH  26  28
ENDBRANCH   3  26
TORSDOF 5
ENDMDL
MODEL 3
REMARK minimizedAffinity -7.91773891
REMARK CNNscore 0.306255668
REMARK CNNaffinity 5.85312414
REMARK  5 active torsions:
REMARK  status: ('A' for Active; 'I' for Inactive)
REMARK    1  A    between atoms: C3_3  and  C4_4 
REMARK    2  A    between atoms: C4_4  and  O2_6 
REMARK    3  A    between atoms: O2_6  and  C5_7 
REMARK    4  A    between atoms: C5_7  and  C6_8 
REMARK    5  A    between atoms: C12_14  and  C13_15 
ROOT
HETATM    1  C1  UNL     1       4.672  55.436 -10.590  1.00  0.00     0.069 C 
HETATM    2  C2  UNL     1       3.514  55.423  -9.628  1.00  0.00     0.018 C 
HETATM    3  C3  UNL     1       2.670  54.383  -9.455  1.00  0.00     0.052 C 
HETATM    4  C12 UNL     1       1.525  54.414  -8.451  1.00  0.00     0.104 C 
HETATM    5  C22 UNL     1       1.584  55.664  -7.570  1.00  0.00     0.024 C 
HETATM    6  C23 UNL     1       2.458  56.665  -7.809  1.00  0.00     0.020 C 
HETATM    7  C24 UNL     1       2.560  57.890  -6.936  1.00  0.00     0.058 C 
HETATM    8  C25 UNL     1       2.077  57.611  -5.519  1.00  0.00     0.014 C 
HETATM    9  C26 UNL     1       0.688  56.989  -5.538  1.00  0.00     0.084 C 
HETATM   10  C27 UNL     1       0.656  55.747  -6.403  1.00  0.00     0.158 C 
HETATM   11  O5  UNL     1      -0.153  54.847  -6.184  1.00  0.00    -0.293 OA
HETATM   12  N1  UNL     1       3.342  56.572  -8.868  1.00  0.00    -0.362 N 
HETATM   13  H22 UNL     1       4.065  57.281  -8.939  1.00  0.00     0.165 HD
ENDROOT
BRANCH   4  14
HETATM   14  C13 UNL     1       0.186  54.276  -9.154  1.00  0.00     0.029 A 
HETATM   15  C14 UNL     1      -0.430  55.227  -9.876  1.00  0.00     0.154 A 
HETATM   16  O3  UNL     1      -1.645  55.125 -10.509  1.00  0.00    -0.321 OA
HETATM   17  C15 UNL     1      -2.345  53.955 -10.350  1.00  0.00     0.089 A 
HETATM   18  C16 UNL     1      -3.606  53.881 -10.942  1.00  0.00     0.040 A 
HETATM   19  C20 UNL     1      -1.843  52.865  -9.641  1.00  0.00     0.050 A 
HETATM   20  C17 UNL     1      -4.360  52.709 -10.825  1.00  0.00     0.026 A 
HETATM   21  C18 UNL     1      -3.846  51.618 -10.120  1.00  0.00     0.035 A 
HETATM   22 CL1  UNL     1      -4.771  50.171  -9.994  1.00  0.00    -0.084 Cl
HETATM   23  C19 UNL     1      -2.589  51.689  -9.522  1.00  0.00     0.042 A 
HETATM   24  C21 UNL     1      -0.503  52.967  -9.038  1.00  0.00     0.194 A 
HETATM   25  O4  UNL     1       0.019  52.003  -8.491  1.00  0.00    -0.287 OA
ENDBRANCH   4  14
BRANCH   3  26
HETATM   26  C4  UNL     1       2.877  53.128 -10.194  1.00  0.00     0.292 C 
HETATM   27  O1  UNL     1       3.629  52.237  -9.824  1.00  0.00    -0.259 OA
BRANCH  26  28
HETATM   28  O2  UNL     1       2.170  53.188 -11.349  1.00  0.00    -0.313 OA
BRANCH  28  29
HETATM   29  C5  UNL     1       1.772  51.926 -11.891  1.00  0.00     0.217 C 
BRANCH  29  30
HETATM   30  C6  UNL     1       1.977  51.947 -13.387  1.00  0.00    -0.034 A 
HETATM   31  C7  UNL     1       3.272  51.847 -13.919  1.00  0.00     0.009 A 
HETATM   32  C8  UNL     1       3.480  51.910 -15.299  1.00  0.00     0.001 A 
HETATM   33  C9  UNL     1       2.398  52.074 -16.162  1.00  0.00     0.000 A 
HETATM   34  C10 UNL     1       1.102  52.163 -15.646  1.00  0.00     0.001 A 
HETATM   35  C11 UNL     1       0.893  52.098 -14.265  1.00  0.00     0.009 A 
ENDBRANCH  29  30
ENDBRANCH  28  29
ENDBRANCH  26  28
ENDBRANCH   3  26
TORSDOF 5
ENDMDL
MODEL 4
REMARK minimizedAffinity -9.44432545
REMARK CNNscore 0.255179495
REMARK CNNaffinity 6.31742096
REMARK  5 active torsions:
REMARK  status: ('A' for Active; 'I' for Inactive)
REMARK    1  A    between atoms: C3_3  and  C4_4 
REMARK    2  A    between atoms: C4_4  and  O2_6 
REMARK    3  A    between atoms: O2_6  and  C5_7 
REMARK    4  A    between atoms: C5_7  and  C6_8 
REMARK    5  A    between atoms: C12_14  and  C13_15 
ROOT
HETATM    1  C1  UNL     1      -4.096  48.391 -27.992  1.00  0.00     0.069 C 
HETATM    2  C2  UNL     1      -4.580  48.680 -26.596  1.00  0.00     0.018 C 
HETATM    3  C3  UNL     1      -4.100  49.665 -25.805  1.00  0.00     0.052 C 
HETATM    4  C12 UNL     1      -4.640  49.930 -24.406  1.00  0.00     0.104 C 
HETATM    5  C22 UNL     1      -5.880  49.081 -24.112  1.00  0.00     0.024 C 
HETATM    6  C23 UNL     1      -6.296  48.112 -24.954  1.00  0.00     0.020 C 
HETATM    7  C24 UNL     1      -7.533  47.285 -24.705  1.00  0.00     0.058 C 
HETATM    8  C25 UNL     1      -8.533  48.024 -23.824  1.00  0.00     0.014 C 
HETATM    9  C26 UNL     1      -7.863  48.519 -22.551  1.00  0.00     0.084 C 
HETATM   10  C27 UNL     1      -6.649  49.368 -22.865  1.00  0.00     0.158 C 
HETATM   11  O5  UNL     1      -6.270  50.240 -22.084  1.00  0.00    -0.293 OA
HETATM   12  N1  UNL     1      -5.604  47.871 -26.127  1.00  0.00    -0.362 N 
HETATM   13  H22 UNL     1      -6.019  47.225 -26.791  1.00  0.00     0.165 HD
ENDROOT
BRANCH   4  14
HETATM   14  C13 UNL     1      -3.555  49.733 -23.362  1.00  0.00     0.029 A 
HETATM   15  C14 UNL     1      -2.976  48.566 -23.033  1.00  0.00     0.154 A 
HETATM   16  O3  UNL     1      -2.002  48.367 -22.085  1.00  0.00    -0.321 OA
HETATM   17  C15 UNL     1      -1.609  49.453 -21.344  1.00  0.00     0.089 A 
HETATM   18  C16 UNL     1      -0.666  49.232 -20.339  1.00  0.00     0.040 A 
HETATM   19  C20 UNL     1      -2.102  50.738 -21.566  1.00  0.00     0.050 A 
HETATM   20  C17 UNL     1      -0.216  50.304 -19.561  1.00  0.00     0.026 A 
HETATM   21  C18 UNL     1      -0.710  51.589 -19.796  1.00  0.00     0.035 A 
HETATM   22 CL1  UNL     1      -0.141  52.908 -18.847  1.00  0.00    -0.084 Cl
HETATM   23  C19 UNL     1      -1.656  51.814 -20.794  1.00  0.00     0.042 A 
HETATM   24  C21 UNL     1      -3.086  50.943 -22.643  1.00  0.00     0.194 A 
HETATM   25  O4  UNL     1      -3.474  52.067 -22.938  1.00  0.00    -0.287 OA
ENDBRANCH   4  14
BRANCH   3  26
HETATM   26  C4  UNL     1      -3.067  50.584 -26.307  1.00  0.00     0.292 C 
HETATM   27  O1  UNL     1      -3.313  51.658 -26.839  1.00  0.00    -0.259 OA
BRANCH  26  28
HETATM   28  O2  UNL     1      -1.856  49.997 -26.149  1.00  0.00    -0.313 OA
BRANCH  28  29
HETATM   29  C5  UNL     1      -0.903  50.748 -25.392  1.00  0.00     0.217 C 
BRANCH  29  30
HETATM   30  C6  UNL     1       0.231  51.158 -26.300  1.00  0.00    -0.034 A 
HETATM   31  C7  UNL     1      -0.022  51.470 -27.644  1.00  0.00     0.009 A 
HETATM   32  C8  UNL     1       1.025  51.808 -28.506  1.00  0.00     0.001 A 
HETATM   33  C9  UNL     1       2.335  51.839 -28.033  1.00  0.00     0.000 A 
HETATM   34  C10 UNL     1       2.601  51.542 -26.694  1.00  0.00     0.001 A 
HETATM   35  C11 UNL     1       1.554  51.206 -25.831  1.00  0.00     0.009 A 
ENDBRANCH  29  30
ENDBRANCH  28  29
ENDBRANCH  26  28
ENDBRANCH   3  26
TORSDOF 5
ENDMDL
MODEL 5
REMARK minimizedAffinity -8.85053062
REMARK CNNscore 0.254625976
REMARK CNNaffinity 6.34250498
REMARK  5 active torsions:
REMARK  status: ('A' for Active; 'I' for Inactive)
REMARK    1  A    between atoms: C3_3  and  C4_4 
REMARK    2  A    between atoms: C4_4  and  O2_6 
REMARK    3  A    between atoms: O2_6  and  C5_7 
REMARK    4  A    between atoms: C5_7  and  C6_8 
REMARK    5  A    between atoms: C12_14  and  C13_15 
ROOT
HETATM    1  C1  UNL     1      -5.434  50.330 -20.723  1.00  0.00     0.069 C 
HETATM    2  C2  UNL     1      -5.245  49.914 -22.158  1.00  0.00     0.018 C 
HETATM    3  C3  UNL     1      -4.047  49.780 -22.768  1.00  0.00     0.052 C 
HETATM    4  C12 UNL     1      -3.910  49.336 -24.218  1.00  0.00     0.104 C 
HETATM    5  C22 UNL     1      -5.256  48.897 -24.800  1.00  0.00     0.024 C 
HETATM    6  C23 UNL     1      -6.414  49.067 -24.127  1.00  0.00     0.020 C 
HETATM    7  C24 UNL     1      -7.748  48.612 -24.664  1.00  0.00     0.058 C 
HETATM    8  C25 UNL     1      -7.593  47.465 -25.654  1.00  0.00     0.014 C 
HETATM    9  C26 UNL     1      -6.589  47.825 -26.740  1.00  0.00     0.084 C 
HETATM   10  C27 UNL     1      -5.262  48.241 -26.142  1.00  0.00     0.158 C 
HETATM   11  O5  UNL     1      -4.214  48.094 -26.769  1.00  0.00    -0.293 OA
HETATM   12  N1  UNL     1      -6.404  49.640 -22.869  1.00  0.00    -0.362 N 
HETATM   13  H22 UNL     1      -7.274  49.635 -22.345  1.00  0.00     0.165 HD
ENDROOT
BRANCH   4  14
HETATM   14  C13 UNL     1      -3.254  50.419 -25.056  1.00  0.00     0.029 A 
HETATM   15  C14 UNL     1      -3.821  51.575 -25.439  1.00  0.00     0.154 A 
HETATM   16  O3  UNL     1      -3.248  52.560 -26.205  1.00  0.00    -0.321 OA
HETATM   17  C15 UNL     1      -1.983  52.331 -26.688  1.00  0.00     0.089 A 
HETATM   18  C16 UNL     1      -1.430  53.308 -27.518  1.00  0.00     0.040 A 
HETATM   19  C20 UNL     1      -1.250  51.188 -26.374  1.00  0.00     0.050 A 
HETATM   20  C17 UNL     1      -0.140  53.136 -28.028  1.00  0.00     0.026 A 
HETATM   21  C18 UNL     1       0.590  51.991 -27.702  1.00  0.00     0.035 A 
HETATM   22 CL1  UNL     1       2.186  51.792 -28.319  1.00  0.00    -0.084 Cl
HETATM   23  C19 UNL     1       0.041  51.010 -26.878  1.00  0.00     0.042 A 
HETATM   24  C21 UNL     1      -1.853  50.181 -25.484  1.00  0.00     0.194 A 
HETATM   25  O4  UNL     1      -1.212  49.209 -25.103  1.00  0.00    -0.287 OA
ENDBRANCH   4  14
BRANCH   3  26
HETATM   26  C4  UNL     1      -2.802  49.993 -22.013  1.00  0.00     0.292 C 
HETATM   27  O1  UNL     1      -2.180  49.095 -21.462  1.00  0.00    -0.259 OA
BRANCH  26  28
HETATM   28  O2  UNL     1      -2.541  51.322 -21.981  1.00  0.00    -0.313 OA
BRANCH  28  29
HETATM   29  C5  UNL     1      -1.276  51.712 -22.524  1.00  0.00     0.217 C 
BRANCH  29  30
HETATM   30  C6  UNL     1      -0.438  52.323 -21.427  1.00  0.00    -0.034 A 
HETATM   31  C7  UNL     1       0.605  53.205 -21.748  1.00  0.00     0.009 A 
HETATM   32  C8  UNL     1       1.416  53.742 -20.746  1.00  0.00     0.001 A 
HETATM   33  C9  UNL     1       1.194  53.405 -19.412  1.00  0.00     0.000 A 
HETATM   34  C10 UNL     1       0.150  52.538 -19.077  1.00  0.00     0.001 A 
HETATM   35  C11 UNL     1      -0.663  52.001 -20.079  1.00  0.00     0.009 A 
ENDBRANCH  29  30
ENDBRANCH  28  29
ENDBRANCH  26  28
ENDBRANCH   3  26
TORSDOF 5
ENDMDL
MODEL 6
REMARK minimizedAffinity -7.46367025
REMARK CNNscore 0.227649659
REMARK CNNaffinity 5.76435137
REMARK  5 active torsions:
REMARK  status: ('A' for Active; 'I' for Inactive)
REMARK    1  A    between atoms: C3_3  and  C4_4 
REMARK    2  A    between atoms: C4_4  and  O2_6 
REMARK    3  A    between atoms: O2_6  and  C5_7 
REMARK    4  A    between atoms: C5_7  and  C6_8 
REMARK    5  A    between atoms: C12_14  and  C13_15 
ROOT
HETATM    1  C1  UNL     1      -8.327  47.654 -36.959  1.00  0.00     0.069 C 
HETATM    2  C2  UNL     1      -7.950  47.222 -35.566  1.00  0.00     0.018 C 
HETATM    3  C3  UNL     1      -8.639  46.326 -34.827  1.00  0.00     0.052 C 
HETATM    4  C12 UNL     1      -8.202  45.907 -33.430  1.00  0.00     0.104 C 
HETATM    5  C22 UNL     1      -6.826  46.477 -33.076  1.00  0.00     0.024 C 
HETATM    6  C23 UNL     1      -6.201  47.373 -33.869  1.00  0.00     0.020 C 
HETATM    7  C24 UNL     1      -4.830  47.924 -33.562  1.00  0.00     0.058 C 
HETATM    8  C25 UNL     1      -4.023  46.967 -32.693  1.00  0.00     0.014 C 
HETATM    9  C26 UNL     1      -4.813  46.570 -31.455  1.00  0.00     0.084 C 
HETATM   10  C27 UNL     1      -6.164  45.996 -31.827  1.00  0.00     0.158 C 
HETATM   11  O5  UNL     1      -6.731  45.190 -31.091  1.00  0.00    -0.293 OA
HETATM   12  N1  UNL     1      -6.797  47.791 -35.044  1.00  0.00    -0.362 N 
HETATM   13  H22 UNL     1      -6.244  48.365 -35.673  1.00  0.00     0.165 HD
ENDROOT
BRANCH   4  14
HETATM   14  C13 UNL     1      -9.253  46.280 -32.399  1.00  0.00     0.029 A 
HETATM   15  C14 UNL     1      -9.529  47.521 -31.964  1.00  0.00     0.154 A 
HETATM   16  O3  UNL     1     -10.467  47.876 -31.026  1.00  0.00    -0.321 OA
HETATM   17  C15 UNL     1     -11.167  46.865 -30.416  1.00  0.00     0.089 A 
HETATM   18  C16 UNL     1     -12.073  47.228 -29.419  1.00  0.00     0.040 A 
HETATM   19  C20 UNL     1     -11.010  45.524 -30.761  1.00  0.00     0.050 A 
HETATM   20  C17 UNL     1     -12.825  46.242 -28.772  1.00  0.00     0.026 A 
HETATM   21  C18 UNL     1     -12.668  44.901 -29.129  1.00  0.00     0.035 A 
HETATM   22 CL1  UNL     1     -13.609  43.692 -28.342  1.00  0.00    -0.084 Cl
HETATM   23  C19 UNL     1     -11.760  44.533 -30.121  1.00  0.00     0.042 A 
HETATM   24  C21 UNL     1     -10.057  45.172 -31.827  1.00  0.00     0.194 A 
HETATM   25  O4  UNL     1      -9.957  44.020 -32.230  1.00  0.00    -0.287 OA
ENDBRANCH   4  14
BRANCH   3  26
HETATM   26  C4  UNL     1      -9.821  45.654 -35.387  1.00  0.00     0.292 C 
HETATM   27  O1  UNL     1      -9.820  44.496 -35.785  1.00  0.00    -0.259 OA
BRANCH  26  28
HETATM   28  O2  UNL     1     -10.836  46.549 -35.450  1.00  0.00    -0.313 OA
BRANCH  28  29
HETATM   29  C5  UNL     1     -12.017  46.094 -36.116  1.00  0.00     0.217 C 
BRANCH  29  30
HETATM   30  C6  UNL     1     -12.477  47.160 -37.081  1.00  0.00    -0.034 A 
HETATM   31  C7  UNL     1     -11.535  47.898 -37.814  1.00  0.00     0.009 A 
HETATM   32  C8  UNL     1     -11.946  48.917 -38.677  1.00  0.00     0.001 A 
HETATM   33  C9  UNL     1     -13.301  49.209 -38.819  1.00  0.00     0.000 A 
HETATM   34  C10 UNL     1     -14.251  48.473 -38.104  1.00  0.00     0.001 A 
HETATM   35  C11 UNL     1     -13.841  47.452 -37.242  1.00  0.00     0.009 A 
ENDBRANCH  29  30
ENDBRANCH  28  29
ENDBRANCH  26  28
ENDBRANCH   3  26
TORSDOF 5
ENDMDL
MODEL 7
REMARK minimizedAffinity -7.56443787
REMARK CNNscore 0.222381204
REMARK CNNaffinity 5.3958087
REMARK  5 active torsions:
REMARK  status: ('A' for Active; 'I' for Inactive)
REMARK    1  A    between atoms: C3_3  and  C4_4 
REMARK    2  A    between atoms: C4_4  and  O2_6 
REMARK    3  A    between atoms: O2_6  and  C5_7 
REMARK    4  A    between atoms: C5_7  and  C6_8 
REMARK    5  A    between atoms: C12_14  and  C13_15 
ROOT
HETATM    1  C1  UNL     1      -5.192  47.973 -29.054  1.00  0.00     0.069 C 
HETATM    2  C2  UNL     1      -6.145  47.508 -27.985  1.00  0.00     0.018 C 
HETATM    3  C3  UNL     1      -7.025  46.493 -28.130  1.00  0.00     0.052 C 
HETATM    4  C12 UNL     1      -7.954  46.047 -27.008  1.00  0.00     0.104 C 
HETATM    5  C22 UNL     1      -7.626  46.756 -25.692  1.00  0.00     0.024 C 
HETATM    6  C23 UNL     1      -6.732  47.765 -25.629  1.00  0.00     0.020 C 
HETATM    7  C24 UNL     1      -6.366  48.457 -24.339  1.00  0.00     0.058 C 
HETATM    8  C25 UNL     1      -6.595  47.554 -23.134  1.00  0.00     0.014 C 
HETATM    9  C26 UNL     1      -8.009  46.992 -23.145  1.00  0.00     0.084 C 
HETATM   10  C27 UNL     1      -8.307  46.284 -24.449  1.00  0.00     0.158 C 
HETATM   11  O5  UNL     1      -9.133  45.373 -24.498  1.00  0.00    -0.293 OA
HETATM   12  N1  UNL     1      -6.074  48.178 -26.773  1.00  0.00    -0.362 N 
HETATM   13  H22 UNL     1      -5.321  48.850 -26.664  1.00  0.00     0.165 HD
ENDROOT
BRANCH   4  14
HETATM   14  C13 UNL     1      -9.408  46.230 -27.405  1.00  0.00     0.029 A 
HETATM   15  C14 UNL     1     -10.021  47.401 -27.646  1.00  0.00     0.154 A 
HETATM   16  O3  UNL     1     -11.337  47.587 -27.995  1.00  0.00    -0.321 OA
HETATM   17  C15 UNL     1     -12.139  46.475 -28.052  1.00  0.00     0.089 A 
HETATM   18  C16 UNL     1     -13.489  46.676 -28.345  1.00  0.00     0.040 A 
HETATM   19  C20 UNL     1     -11.657  45.184 -27.843  1.00  0.00     0.050 A 
HETATM   20  C17 UNL     1     -14.352  45.580 -28.431  1.00  0.00     0.026 A 
HETATM   21  C18 UNL     1     -13.859  44.289 -28.227  1.00  0.00     0.035 A 
HETATM   22 CL1  UNL     1     -14.922  42.940 -28.351  1.00  0.00    -0.084 Cl
HETATM   23  C19 UNL     1     -12.514  44.082 -27.929  1.00  0.00     0.042 A 
HETATM   24  C21 UNL     1     -10.226  45.000 -27.549  1.00  0.00     0.194 A 
HETATM   25  O4  UNL     1      -9.739  43.880 -27.454  1.00  0.00    -0.287 OA
ENDBRANCH   4  14
BRANCH   3  26
HETATM   26  C4  UNL     1      -7.067  45.719 -29.380  1.00  0.00     0.292 C 
HETATM   27  O1  UNL     1      -6.746  44.540 -29.461  1.00  0.00    -0.259 OA
BRANCH  26  28
HETATM   28  O2  UNL     1      -7.431  46.548 -30.387  1.00  0.00    -0.313 OA
BRANCH  28  29
HETATM   29  C5  UNL     1      -7.468  45.954 -31.688  1.00  0.00     0.217 C 
BRANCH  29  30
HETATM   30  C6  UNL     1      -6.379  46.565 -32.537  1.00  0.00    -0.034 A 
HETATM   31  C7  UNL     1      -5.032  46.283 -32.262  1.00  0.00     0.009 A 
HETATM   32  C8  UNL     1      -4.014  46.877 -33.011  1.00  0.00     0.001 A 
HETATM   33  C9  UNL     1      -4.329  47.757 -34.044  1.00  0.00     0.000 A 
HETATM   34  C10 UNL     1      -5.666  48.036 -34.338  1.00  0.00     0.001 A 
HETATM   35  C11 UNL     1      -6.686  47.442 -33.589  1.00  0.00     0.009 A 
ENDBRANCH  29  30
ENDBRANCH  28  29
ENDBRANCH  26  28
ENDBRANCH   3  26
TORSDOF 5
ENDMDL
MODEL 8
REMARK minimizedAffinity -8.46778297
REMARK CNNscore 0.207139432
REMARK CNNaffinity 6.52496767
REMARK  5 active torsions:
REMARK  status: ('A' for Active; 'I' for Inactive)
REMARK    1  A    between atoms: C3_3  and  C4_4 
REMARK    2  A    between atoms: C4_4  and  O2_6 
REMARK    3  A    between atoms: O2_6  and  C5_7 
REMARK    4  A    between atoms: C5_7  and  C6_8 
REMARK    5  A    between atoms: C12_14  and  C13_15 
ROOT
HETATM    1  C1  UNL     1      -5.003  52.128 -24.644  1.00  0.00     0.069 C 
HETATM    2  C2  UNL     1      -3.509  52.013 -24.501  1.00  0.00     0.018 C 
HETATM    3  C3  UNL     1      -2.881  51.222 -23.603  1.00  0.00     0.052 C 
HETATM    4  C12 UNL     1      -1.364  51.127 -23.514  1.00  0.00     0.104 C 
HETATM    5  C22 UNL     1      -0.685  51.875 -24.664  1.00  0.00     0.024 C 
HETATM    6  C23 UNL     1      -1.383  52.649 -25.521  1.00  0.00     0.020 C 
HETATM    7  C24 UNL     1      -0.744  53.369 -26.683  1.00  0.00     0.058 C 
HETATM    8  C25 UNL     1       0.536  52.677 -27.135  1.00  0.00     0.014 C 
HETATM    9  C26 UNL     1       1.476  52.463 -25.958  1.00  0.00     0.084 C 
HETATM   10  C27 UNL     1       0.789  51.709 -24.839  1.00  0.00     0.158 C 
HETATM   11  O5  UNL     1       1.436  51.016 -24.055  1.00  0.00    -0.293 OA
HETATM   12  N1  UNL     1      -2.753  52.774 -25.382  1.00  0.00    -0.362 N 
HETATM   13  H22 UNL     1      -3.257  53.259 -26.117  1.00  0.00     0.165 HD
ENDROOT
BRANCH   4  14
HETATM   14  C13 UNL     1      -0.871  51.600 -22.158  1.00  0.00     0.029 A 
HETATM   15  C14 UNL     1      -0.468  52.845 -21.854  1.00  0.00     0.154 A 
HETATM   16  O3  UNL     1      -0.009  53.289 -20.638  1.00  0.00    -0.321 OA
HETATM   17  C15 UNL     1       0.112  52.363 -19.631  1.00  0.00     0.089 A 
HETATM   18  C16 UNL     1       0.639  52.807 -18.417  1.00  0.00     0.040 A 
HETATM   19  C20 UNL     1      -0.274  51.032 -19.778  1.00  0.00     0.050 A 
HETATM   20  C17 UNL     1       0.773  51.912 -17.350  1.00  0.00     0.026 A 
HETATM   21  C18 UNL     1       0.376  50.582 -17.504  1.00  0.00     0.035 A 
HETATM   22 CL1  UNL     1       0.526  49.489 -16.182  1.00  0.00    -0.084 Cl
HETATM   23  C19 UNL     1      -0.146  50.133 -18.715  1.00  0.00     0.042 A 
HETATM   24  C21 UNL     1      -0.840  50.596 -21.066  1.00  0.00     0.194 A 
HETATM   25  O4  UNL     1      -1.283  49.463 -21.210  1.00  0.00    -0.287 OA
ENDBRANCH   4  14
BRANCH   3  26
HETATM   26  C4  UNL     1      -3.660  50.351 -22.710  1.00  0.00     0.292 C 
HETATM   27  O1  UNL     1      -4.214  50.742 -21.691  1.00  0.00    -0.259 OA
BRANCH  26  28
HETATM   28  O2  UNL     1      -3.575  49.079 -23.169  1.00  0.00    -0.313 OA
BRANCH  28  29
HETATM   29  C5  UNL     1      -4.790  48.531 -23.688  1.00  0.00     0.217 C 
BRANCH  29  30
HETATM   30  C6  UNL     1      -4.677  48.422 -25.190  1.00  0.00    -0.034 A 
HETATM   31  C7  UNL     1      -5.804  48.090 -25.957  1.00  0.00     0.009 A 
HETATM   32  C8  UNL     1      -5.703  47.942 -27.342  1.00  0.00     0.001 A 
HETATM   33  C9  UNL     1      -4.476  48.124 -27.977  1.00  0.00     0.000 A 
HETATM   34  C10 UNL     1      -3.348  48.466 -27.226  1.00  0.00     0.001 A 
HETATM   35  C11 UNL     1      -3.449  48.617 -25.840  1.00  0.00     0.009 A 
ENDBRANCH  29  30
ENDBRANCH  28  29
ENDBRANCH  26  28
ENDBRANCH   3  26
TORSDOF 5
ENDMDL
MODEL 9
REMARK minimizedAffinity -8.31621552
REMARK CNNscore 0.182506621
REMARK CNNaffinity 5.82193136
REMARK  5 active torsions:
REMARK  status: ('A' for Active; 'I' for Inactive)
REMARK    1  A    between atoms: C3_3  and  C4_4 
REMARK    2  A    between atoms: C4_4  and  O2_6 
REMARK    3  A    between atoms: O2_6  and  C5_7 
REMARK    4  A    between atoms: C5_7  and  C6_8 
REMARK    5  A    between atoms: C12_14  and  C13_15 
ROOT
HETATM    1  C1  UNL     1      -3.286  50.624 -15.922  1.00  0.00     0.069 C 
HETATM    2  C2  UNL     1      -3.158  49.838 -17.200  1.00  0.00     0.018 C 
HETATM    3  C3  UNL     1      -2.232  50.070 -18.155  1.00  0.00     0.052 C 
HETATM    4  C12 UNL     1      -2.132  49.230 -19.422  1.00  0.00     0.104 C 
HETATM    5  C22 UNL     1      -3.067  48.019 -19.368  1.00  0.00     0.024 C 
HETATM    6  C23 UNL     1      -3.970  47.859 -18.378  1.00  0.00     0.020 C 
HETATM    7  C24 UNL     1      -4.878  46.658 -18.284  1.00  0.00     0.058 C 
HETATM    8  C25 UNL     1      -4.281  45.446 -18.986  1.00  0.00     0.014 C 
HETATM    9  C26 UNL     1      -3.877  45.796 -20.411  1.00  0.00     0.084 C 
HETATM   10  C27 UNL     1      -2.942  46.986 -20.439  1.00  0.00     0.158 C 
HETATM   11  O5  UNL     1      -2.131  47.129 -21.353  1.00  0.00    -0.293 OA
HETATM   12  N1  UNL     1      -4.061  48.797 -17.367  1.00  0.00    -0.362 N 
HETATM   13  H22 UNL     1      -4.660  48.579 -16.577  1.00  0.00     0.165 HD
ENDROOT
BRANCH   4  14
HETATM   14  C13 UNL     1      -2.374  50.081 -20.656  1.00  0.00     0.029 A 
HETATM   15  C14 UNL     1      -3.567  50.511 -21.099  1.00  0.00     0.154 A 
HETATM   16  O3  UNL     1      -3.807  51.271 -22.217  1.00  0.00    -0.321 OA
HETATM   17  C15 UNL     1      -2.731  51.587 -23.010  1.00  0.00     0.089 A 
HETATM   18  C16 UNL     1      -2.989  52.306 -24.178  1.00  0.00     0.040 A 
HETATM   19  C20 UNL     1      -1.424  51.229 -22.686  1.00  0.00     0.050 A 
HETATM   20  C17 UNL     1      -1.932  52.668 -25.019  1.00  0.00     0.026 A 
HETATM   21  C18 UNL     1      -0.624  52.312 -24.683  1.00  0.00     0.035 A 
HETATM   22 CL1  UNL     1       0.677  52.775 -25.711  1.00  0.00    -0.084 Cl
HETATM   23  C19 UNL     1      -0.361  51.590 -23.520  1.00  0.00     0.042 A 
HETATM   24  C21 UNL     1      -1.180  50.483 -21.440  1.00  0.00     0.194 A 
HETATM   25  O4  UNL     1      -0.041  50.233 -21.066  1.00  0.00    -0.287 OA
ENDBRANCH   4  14
BRANCH   3  26
HETATM   26  C4  UNL     1      -1.218  51.119 -17.967  1.00  0.00     0.292 C 
HETATM   27  O1  UNL     1      -1.359  52.276 -18.340  1.00  0.00    -0.259 OA
BRANCH  26  28
HETATM   28  O2  UNL     1      -0.120  50.559 -17.404  1.00  0.00    -0.313 OA
BRANCH  28  29
HETATM   29  C5  UNL     1       0.123  50.919 -16.042  1.00  0.00     0.217 C 
BRANCH  29  30
HETATM   30  C6  UNL     1       1.530  51.455 -15.919  1.00  0.00    -0.034 A 
HETATM   31  C7  UNL     1       2.366  51.004 -14.886  1.00  0.00     0.009 A 
HETATM   32  C8  UNL     1       3.653  51.524 -14.734  1.00  0.00     0.001 A 
HETATM   33  C9  UNL     1       4.120  52.500 -15.613  1.00  0.00     0.000 A 
HETATM   34  C10 UNL     1       3.303  52.949 -16.654  1.00  0.00     0.001 A 
HETATM   35  C11 UNL     1       2.015  52.428 -16.807  1.00  0.00     0.009 A 
ENDBRANCH  29  30
ENDBRANCH  28  29
ENDBRANCH  26  28
ENDBRANCH   3  26
TORSDOF 5
ENDMDL
