MODEL 1
REMARK minimizedAffinity -7.33908081
REMARK CNNscore 0.798276365
REMARK CNNaffinity 7.37242651
REMARK  6 active torsions:
REMARK  status: ('A' for Active; 'I' for Inactive)
REMARK    1  A    between atoms: C2_2  and  C30_31 
REMARK    2  A    between atoms: C3_3  and  C4_4 
REMARK    3  A    between atoms: C4_4  and  C5_5 
REMARK    4  A    between atoms: C5_5  and  C6_6 
REMARK    5  A    between atoms: C6_6  and  C8_8 
REMARK    6  A    between atoms: C30_31  and  O3_33 
ROOT
HETATM    1  C8  UNL     1       4.190  55.101  -7.826  1.00  0.00    -0.002 C 
HETATM    2  C9  UNL     1       3.569  56.521  -7.867  1.00  0.00     0.007 C 
HETATM    3  C10 UNL     1       2.107  56.355  -8.321  1.00  0.00     0.015 C 
HETATM    4  C11 UNL     1       2.139  55.108  -9.227  1.00  0.00    -0.013 C 
HETATM    5  C12 UNL     1       2.699  55.582 -10.600  1.00  0.00     0.021 C 
HETATM    6  C13 UNL     1       0.826  54.406  -9.565  1.00  0.00    -0.070 C 
HETATM    7  C14 UNL     1      -0.335  55.076  -9.694  1.00  0.00    -0.022 C 
HETATM    8  C15 UNL     1      -1.616  54.470 -10.188  1.00  0.00     0.034 C 
HETATM    9  C16 UNL     1      -1.582  52.930 -10.322  1.00  0.00     0.013 C 
HETATM   10  C17 UNL     1      -2.863  52.281 -10.972  1.00  0.00     0.018 C 
HETATM   11  C18 UNL     1      -3.641  51.494  -9.893  1.00  0.00     0.023 C 
HETATM   12  C19 UNL     1      -3.839  53.315 -11.573  1.00  0.00     0.023 C 
HETATM   13  C20 UNL     1      -2.522  51.263 -12.072  1.00  0.00     0.135 C 
HETATM   14  O1  UNL     1      -3.250  51.102 -13.055  1.00  0.00    -0.297 OA
HETATM   15  C21 UNL     1      -1.324  50.360 -11.898  1.00  0.00     0.080 C 
HETATM   16  C22 UNL     1      -0.259  50.901 -10.960  1.00  0.00     0.017 C 
HETATM   17  C23 UNL     1      -0.204  52.443 -10.896  1.00  0.00    -0.031 C 
HETATM   18  C24 UNL     1       0.090  53.022 -12.301  1.00  0.00     0.016 C 
HETATM   19  C25 UNL     1       0.902  52.901  -9.861  1.00  0.00     0.024 C 
HETATM   20  C26 UNL     1       2.338  52.403 -10.170  1.00  0.00     0.010 C 
HETATM   21  C27 UNL     1       3.466  52.936  -9.247  1.00  0.00     0.011 C 
HETATM   22  C28 UNL     1       3.066  54.158  -8.400  1.00  0.00    -0.029 C 
HETATM   23  C29 UNL     1       2.366  53.596  -7.103  1.00  0.00     0.016 C 
ENDROOT
BRANCH   1  24
HETATM   24  C6  UNL     1       5.662  54.967  -8.314  1.00  0.00    -0.014 C 
HETATM   25  C7  UNL     1       5.878  55.048  -9.828  1.00  0.00     0.010 C 
BRANCH  24  26
HETATM   26  C5  UNL     1       6.585  56.033  -7.658  1.00  0.00     0.008 C 
BRANCH  26  27
HETATM   27  C4  UNL     1       7.453  55.484  -6.519  1.00  0.00     0.028 C 
BRANCH  27  28
HETATM   28  C3  UNL     1       7.813  56.567  -5.539  1.00  0.00    -0.013 C 
HETATM   29  C2  UNL     1       8.959  56.699  -4.839  1.00  0.00     0.008 C 
HETATM   30  C1  UNL     1       9.199  57.858  -3.917  1.00  0.00     0.055 C 
BRANCH  29  31
HETATM   31  C30 UNL     1      10.023  55.671  -4.900  1.00  0.00     0.171 C 
HETATM   32  O2  UNL     1      10.054  54.606  -4.314  1.00  0.00    -0.646 OA
BRANCH  31  33
HETATM   33  O3  UNL     1      11.025  56.050  -5.713  1.00  0.00    -0.773 OA
HETATM   34  H46 UNL     1      11.645  55.294  -5.678  1.00  0.00     0.167 HD
ENDBRANCH  31  33
ENDBRANCH  29  31
ENDBRANCH  27  28
ENDBRANCH  26  27
ENDBRANCH  24  26
ENDBRANCH   1  24
TORSDOF 6
ENDMDL
MODEL 2
REMARK minimizedAffinity -7.96859789
REMARK CNNscore 0.619098842
REMARK CNNaffinity 6.1510644
REMARK  6 active torsions:
REMARK  status: ('A' for Active; 'I' for Inactive)
REMARK    1  A    between atoms: C2_2  and  C30_31 
REMARK    2  A    between atoms: C3_3  and  C4_4 
REMARK    3  A    between atoms: C4_4  and  C5_5 
REMARK    4  A    between atoms: C5_5  and  C6_6 
REMARK    5  A    between atoms: C6_6  and  C8_8 
REMARK    6  A    between atoms: C30_31  and  O3_33 
ROOT
HETATM    1  C8  UNL     1     -13.797  45.205 -26.869  1.00  0.00    -0.002 C 
HETATM    2  C9  UNL     1     -14.614  45.754 -28.067  1.00  0.00     0.007 C 
HETATM    3  C10 UNL     1     -13.600  46.114 -29.169  1.00  0.00     0.015 C 
HETATM    4  C11 UNL     1     -12.330  46.509 -28.390  1.00  0.00    -0.013 C 
HETATM    5  C12 UNL     1     -12.565  47.963 -27.883  1.00  0.00     0.021 C 
HETATM    6  C13 UNL     1     -10.996  46.568 -29.131  1.00  0.00    -0.070 C 
HETATM    7  C14 UNL     1     -10.909  46.927 -30.425  1.00  0.00    -0.022 C 
HETATM    8  C15 UNL     1      -9.619  47.167 -31.156  1.00  0.00     0.034 C 
HETATM    9  C16 UNL     1      -8.356  46.737 -30.376  1.00  0.00     0.013 C 
HETATM   10  C17 UNL     1      -6.984  47.106 -31.058  1.00  0.00     0.018 C 
HETATM   11  C18 UNL     1      -6.294  45.814 -31.552  1.00  0.00     0.023 C 
HETATM   12  C19 UNL     1      -7.135  48.037 -32.281  1.00  0.00     0.023 C 
HETATM   13  C20 UNL     1      -5.993  47.766 -30.085  1.00  0.00     0.135 C 
HETATM   14  O1  UNL     1      -5.189  48.623 -30.460  1.00  0.00    -0.297 OA
HETATM   15  C21 UNL     1      -5.926  47.281 -28.657  1.00  0.00     0.080 C 
HETATM   16  C22 UNL     1      -7.192  46.604 -28.162  1.00  0.00     0.017 C 
HETATM   17  C23 UNL     1      -8.481  47.100 -28.854  1.00  0.00    -0.031 C 
HETATM   18  C24 UNL     1      -8.657  48.620 -28.620  1.00  0.00     0.016 C 
HETATM   19  C25 UNL     1      -9.731  46.303 -28.302  1.00  0.00     0.024 C 
HETATM   20  C26 UNL     1      -9.959  46.415 -26.772  1.00  0.00     0.010 C 
HETATM   21  C27 UNL     1     -11.246  45.748 -26.216  1.00  0.00     0.011 C 
HETATM   22  C28 UNL     1     -12.292  45.398 -27.290  1.00  0.00    -0.029 C 
HETATM   23  C29 UNL     1     -11.891  43.983 -27.863  1.00  0.00     0.016 C 
ENDROOT
BRANCH   1  24
HETATM   24  C6  UNL     1     -14.282  45.615 -25.447  1.00  0.00    -0.014 C 
HETATM   25  C7  UNL     1     -13.706  46.923 -24.894  1.00  0.00     0.010 C 
BRANCH  24  26
HETATM   26  C5  UNL     1     -15.831  45.724 -25.375  1.00  0.00     0.008 C 
BRANCH  26  27
HETATM   27  C4  UNL     1     -16.331  46.891 -24.516  1.00  0.00     0.028 C 
BRANCH  27  28
HETATM   28  C3  UNL     1     -17.079  46.397 -23.307  1.00  0.00    -0.013 C 
HETATM   29  C2  UNL     1     -18.403  46.166 -23.194  1.00  0.00     0.008 C 
HETATM   30  C1  UNL     1     -19.012  45.634 -21.930  1.00  0.00     0.055 C 
BRANCH  29  31
HETATM   31  C30 UNL     1     -19.338  46.479 -24.298  1.00  0.00     0.171 C 
HETATM   32  O2  UNL     1     -20.187  45.750 -24.775  1.00  0.00    -0.646 OA
BRANCH  31  33
HETATM   33  O3  UNL     1     -19.147  47.725 -24.765  1.00  0.00    -0.773 OA
HETATM   34  H46 UNL     1     -19.822  47.811 -25.468  1.00  0.00     0.167 HD
ENDBRANCH  31  33
ENDBRANCH  29  31
ENDBRANCH  27  28
ENDBRANCH  26  27
ENDBRANCH  24  26
ENDBRANCH   1  24
TORSDOF 6
ENDMDL
MODEL 3
REMARK minimizedAffinity -7.38956118
REMARK CNNscore 0.586966395
REMARK CNNaffinity 7.05121803
REMARK  6 active torsions:
REMARK  status: ('A' for Active; 'I' for Inactive)
REMARK    1  A    between atoms: C2_2  and  C30_31 
REMARK    2  A    between atoms: C3_3  and  C4_4 
REMARK    3  A    between atoms: C4_4  and  C5_5 
REMARK    4  A    between atoms: C5_5  and  C6_6 
REMARK    5  A    between atoms: C6_6  and  C8_8 
REMARK    6  A    between atoms: C30_31  and  O3_33 
ROOT
HETATM    1  C8  UNL     1       3.977  55.520  -8.883  1.00  0.00    -0.002 C 
HETATM    2  C9  UNL     1       4.745  54.184  -9.057  1.00  0.00     0.007 C 
HETATM    3  C10 UNL     1       3.784  53.208  -9.762  1.00  0.00     0.015 C 
HETATM    4  C11 UNL     1       2.387  53.657  -9.290  1.00  0.00    -0.013 C 
HETATM    5  C12 UNL     1       2.206  53.079  -7.855  1.00  0.00     0.021 C 
HETATM    6  C13 UNL     1       1.158  53.178 -10.058  1.00  0.00    -0.070 C 
HETATM    7  C14 UNL     1       1.109  51.973 -10.657  1.00  0.00    -0.022 C 
HETATM    8  C15 UNL     1      -0.123  51.380 -11.278  1.00  0.00     0.034 C 
HETATM    9  C16 UNL     1      -1.310  52.363 -11.399  1.00  0.00     0.013 C 
HETATM   10  C17 UNL     1      -2.659  51.731 -11.915  1.00  0.00     0.018 C 
HETATM   11  C18 UNL     1      -2.957  52.254 -13.338  1.00  0.00     0.023 C 
HETATM   12  C19 UNL     1      -2.624  50.189 -11.995  1.00  0.00     0.023 C 
HETATM   13  C20 UNL     1      -3.870  52.130 -11.057  1.00  0.00     0.135 C 
HETATM   14  O1  UNL     1      -4.821  51.363 -10.881  1.00  0.00    -0.297 OA
HETATM   15  C21 UNL     1      -3.953  53.531 -10.501  1.00  0.00     0.080 C 
HETATM   16  C22 UNL     1      -2.613  54.230 -10.355  1.00  0.00     0.017 C 
HETATM   17  C23 UNL     1      -1.426  53.269 -10.122  1.00  0.00    -0.031 C 
HETATM   18  C24 UNL     1      -1.654  52.447  -8.831  1.00  0.00     0.016 C 
HETATM   19  C25 UNL     1      -0.076  54.091 -10.029  1.00  0.00     0.024 C 
HETATM   20  C26 UNL     1      -0.032  55.156  -8.903  1.00  0.00     0.010 C 
HETATM   21  C27 UNL     1       1.320  55.892  -8.705  1.00  0.00     0.011 C 
HETATM   22  C28 UNL     1       2.518  55.212  -9.391  1.00  0.00    -0.029 C 
HETATM   23  C29 UNL     1       2.536  55.729 -10.881  1.00  0.00     0.016 C 
ENDROOT
BRANCH   1  24
HETATM   24  C6  UNL     1       4.206  56.288  -7.547  1.00  0.00    -0.014 C 
HETATM   25  C7  UNL     1       5.591  56.130  -6.912  1.00  0.00     0.010 C 
BRANCH  24  26
HETATM   26  C5  UNL     1       3.940  57.811  -7.706  1.00  0.00     0.008 C 
BRANCH  26  27
HETATM   27  C4  UNL     1       2.637  58.284  -7.051  1.00  0.00     0.028 C 
BRANCH  27  28
HETATM   28  C3  UNL     1       2.724  58.216  -5.551  1.00  0.00    -0.013 C 
HETATM   29  C2  UNL     1       1.938  57.514  -4.709  1.00  0.00     0.008 C 
HETATM   30  C1  UNL     1       2.165  57.509  -3.226  1.00  0.00     0.055 C 
BRANCH  29  31
HETATM   31  C30 UNL     1       0.768  56.752  -5.202  1.00  0.00     0.171 C 
HETATM   32  O2  UNL     1      -0.319  57.194  -5.521  1.00  0.00    -0.646 OA
BRANCH  31  33
HETATM   33  O3  UNL     1       1.030  55.435  -5.263  1.00  0.00    -0.773 OA
HETATM   34  H46 UNL     1       0.198  55.052  -5.609  1.00  0.00     0.167 HD
ENDBRANCH  31  33
ENDBRANCH  29  31
ENDBRANCH  27  28
ENDBRANCH  26  27
ENDBRANCH  24  26
ENDBRANCH   1  24
TORSDOF 6
ENDMDL
MODEL 4
REMARK minimizedAffinity -7.03651142
REMARK CNNscore 0.559688032
REMARK CNNaffinity 6.48628759
REMARK  6 active torsions:
REMARK  status: ('A' for Active; 'I' for Inactive)
REMARK    1  A    between atoms: C2_2  and  C30_31 
REMARK    2  A    between atoms: C3_3  and  C4_4 
REMARK    3  A    between atoms: C4_4  and  C5_5 
REMARK    4  A    between atoms: C5_5  and  C6_6 
REMARK    5  A    between atoms: C6_6  and  C8_8 
REMARK    6  A    between atoms: C30_31  and  O3_33 
ROOT
HETATM    1  C8  UNL     1     -11.834  44.274 -36.608  1.00  0.00    -0.002 C 
HETATM    2  C9  UNL     1     -12.039  42.897 -35.925  1.00  0.00     0.007 C 
HETATM    3  C10 UNL     1     -11.639  43.069 -34.448  1.00  0.00     0.015 C 
HETATM    4  C11 UNL     1     -10.554  44.164 -34.483  1.00  0.00    -0.013 C 
HETATM    5  C12 UNL     1      -9.242  43.462 -34.943  1.00  0.00     0.021 C 
HETATM    6  C13 UNL     1     -10.180  44.875 -33.185  1.00  0.00    -0.070 C 
HETATM    7  C14 UNL     1     -10.211  44.254 -31.991  1.00  0.00    -0.022 C 
HETATM    8  C15 UNL     1      -9.695  44.845 -30.711  1.00  0.00     0.034 C 
HETATM    9  C16 UNL     1      -9.328  46.343 -30.804  1.00  0.00     0.013 C 
HETATM   10  C17 UNL     1      -8.652  46.954 -29.518  1.00  0.00     0.018 C 
HETATM   11  C18 UNL     1      -9.636  47.932 -28.837  1.00  0.00     0.023 C 
HETATM   12  C19 UNL     1      -8.264  45.893 -28.465  1.00  0.00     0.023 C 
HETATM   13  C20 UNL     1      -7.395  47.778 -29.839  1.00  0.00     0.135 C 
HETATM   14  O1  UNL     1      -6.436  47.828 -29.064  1.00  0.00    -0.297 OA
HETATM   15  C21 UNL     1      -7.370  48.633 -31.083  1.00  0.00     0.080 C 
HETATM   16  C22 UNL     1      -8.325  48.184 -32.175  1.00  0.00     0.017 C 
HETATM   17  C23 UNL     1      -8.619  46.668 -32.167  1.00  0.00    -0.031 C 
HETATM   18  C24 UNL     1      -7.305  45.871 -32.355  1.00  0.00     0.016 C 
HETATM   19  C25 UNL     1      -9.655  46.313 -33.309  1.00  0.00     0.024 C 
HETATM   20  C26 UNL     1      -9.203  46.685 -34.745  1.00  0.00     0.010 C 
HETATM   21  C27 UNL     1     -10.139  46.237 -35.900  1.00  0.00     0.011 C 
HETATM   22  C28 UNL     1     -11.180  45.178 -35.496  1.00  0.00    -0.029 C 
HETATM   23  C29 UNL     1     -12.411  45.962 -34.896  1.00  0.00     0.016 C 
ENDROOT
BRANCH   1  24
HETATM   24  C6  UNL     1     -11.259  44.257 -38.055  1.00  0.00    -0.014 C 
HETATM   25  C7  UNL     1     -10.926  42.876 -38.629  1.00  0.00     0.010 C 
BRANCH  24  26
HETATM   26  C5  UNL     1     -12.213  44.959 -39.063  1.00  0.00     0.008 C 
BRANCH  26  27
HETATM   27  C4  UNL     1     -12.102  46.488 -39.058  1.00  0.00     0.028 C 
BRANCH  27  28
HETATM   28  C3  UNL     1     -12.672  47.080 -40.319  1.00  0.00    -0.013 C 
HETATM   29  C2  UNL     1     -13.569  48.080 -40.429  1.00  0.00     0.008 C 
HETATM   30  C1  UNL     1     -14.024  48.598 -41.761  1.00  0.00     0.055 C 
BRANCH  29  31
HETATM   31  C30 UNL     1     -14.199  48.687 -39.233  1.00  0.00     0.171 C 
HETATM   32  O2  UNL     1     -13.753  49.581 -38.539  1.00  0.00    -0.646 OA
BRANCH  31  33
HETATM   33  O3  UNL     1     -15.385  48.117 -38.961  1.00  0.00    -0.773 OA
HETATM   34  H46 UNL     1     -15.698  48.606 -38.172  1.00  0.00     0.167 HD
ENDBRANCH  31  33
ENDBRANCH  29  31
ENDBRANCH  27  28
ENDBRANCH  26  27
ENDBRANCH  24  26
ENDBRANCH   1  24
TORSDOF 6
ENDMDL
MODEL 5
REMARK minimizedAffinity -7.3262949
REMARK CNNscore 0.543946326
REMARK CNNaffinity 6.79318857
REMARK  6 active torsions:
REMARK  status: ('A' for Active; 'I' for Inactive)
REMARK    1  A    between atoms: C2_2  and  C30_31 
REMARK    2  A    between atoms: C3_3  and  C4_4 
REMARK    3  A    between atoms: C4_4  and  C5_5 
REMARK    4  A    between atoms: C5_5  and  C6_6 
REMARK    5  A    between atoms: C6_6  and  C8_8 
REMARK    6  A    between atoms: C30_31  and  O3_33 
ROOT
HETATM    1  C8  UNL     1      -3.434  51.309 -11.933  1.00  0.00    -0.002 C 
HETATM    2  C9  UNL     1      -4.227  52.498 -11.330  1.00  0.00     0.007 C 
HETATM    3  C10 UNL     1      -3.193  53.566 -10.931  1.00  0.00     0.015 C 
HETATM    4  C11 UNL     1      -1.934  52.750 -10.576  1.00  0.00    -0.013 C 
HETATM    5  C12 UNL     1      -2.171  52.187  -9.143  1.00  0.00     0.021 C 
HETATM    6  C13 UNL     1      -0.588  53.464 -10.494  1.00  0.00    -0.070 C 
HETATM    7  C14 UNL     1      -0.476  54.741 -10.082  1.00  0.00    -0.022 C 
HETATM    8  C15 UNL     1       0.828  55.440  -9.820  1.00  0.00     0.034 C 
HETATM    9  C16 UNL     1       2.075  54.657 -10.289  1.00  0.00     0.013 C 
HETATM   10  C17 UNL     1       3.460  55.299  -9.900  1.00  0.00     0.018 C 
HETATM   11  C18 UNL     1       4.152  55.834 -11.174  1.00  0.00     0.023 C 
HETATM   12  C19 UNL     1       3.335  56.485  -8.919  1.00  0.00     0.023 C 
HETATM   13  C20 UNL     1       4.437  54.283  -9.287  1.00  0.00     0.135 C 
HETATM   14  O1  UNL     1       5.252  54.609  -8.419  1.00  0.00    -0.297 OA
HETATM   15  C21 UNL     1       4.477  52.875  -9.830  1.00  0.00     0.080 C 
HETATM   16  C22 UNL     1       3.199  52.430 -10.520  1.00  0.00     0.017 C 
HETATM   17  C23 UNL     1       1.925  53.123  -9.988  1.00  0.00    -0.031 C 
HETATM   18  C24 UNL     1       1.753  52.830  -8.477  1.00  0.00     0.016 C 
HETATM   19  C25 UNL     1       0.662  52.625 -10.800  1.00  0.00     0.024 C 
HETATM   20  C26 UNL     1       0.408  51.096 -10.750  1.00  0.00     0.010 C 
HETATM   21  C27 UNL     1      -0.892  50.591 -11.431  1.00  0.00     0.011 C 
HETATM   22  C28 UNL     1      -1.920  51.696 -11.731  1.00  0.00    -0.029 C 
HETATM   23  C29 UNL     1      -1.517  52.319 -13.123  1.00  0.00     0.016 C 
ENDROOT
BRANCH   1  24
HETATM   24  C6  UNL     1      -3.941  49.880 -11.578  1.00  0.00    -0.014 C 
HETATM   25  C7  UNL     1      -3.303  48.728 -12.361  1.00  0.00     0.010 C 
BRANCH  24  26
HETATM   26  C5  UNL     1      -3.765  49.565 -10.066  1.00  0.00     0.008 C 
BRANCH  26  27
HETATM   27  C4  UNL     1      -5.072  49.193  -9.355  1.00  0.00     0.028 C 
BRANCH  27  28
HETATM   28  C3  UNL     1      -6.237  49.221 -10.306  1.00  0.00    -0.013 C 
HETATM   29  C2  UNL     1      -7.551  49.262 -10.002  1.00  0.00     0.008 C 
HETATM   30  C1  UNL     1      -8.611  49.323 -11.062  1.00  0.00     0.055 C 
BRANCH  29  31
HETATM   31  C30 UNL     1      -8.020  49.192  -8.600  1.00  0.00     0.171 C 
HETATM   32  O2  UNL     1      -8.805  49.939  -8.047  1.00  0.00    -0.646 OA
BRANCH  31  33
HETATM   33  O3  UNL     1      -7.457  48.162  -7.944  1.00  0.00    -0.773 OA
HETATM   34  H46 UNL     1      -7.852  48.217  -7.050  1.00  0.00     0.167 HD
ENDBRANCH  31  33
ENDBRANCH  29  31
ENDBRANCH  27  28
ENDBRANCH  26  27
ENDBRANCH  24  26
ENDBRANCH   1  24
TORSDOF 6
ENDMDL
MODEL 6
REMARK minimizedAffinity -7.13505363
REMARK CNNscore 0.425733954
REMARK CNNaffinity 6.04404068
REMARK  6 active torsions:
REMARK  status: ('A' for Active; 'I' for Inactive)
REMARK    1  A    between atoms: C2_2  and  C30_31 
REMARK    2  A    between atoms: C3_3  and  C4_4 
REMARK    3  A    between atoms: C4_4  and  C5_5 
REMARK    4  A    between atoms: C5_5  and  C6_6 
REMARK    5  A    between atoms: C6_6  and  C8_8 
REMARK    6  A    between atoms: C30_31  and  O3_33 
ROOT
HETATM    1  C8  UNL     1      -7.340  48.100 -29.401  1.00  0.00    -0.002 C 
HETATM    2  C9  UNL     1      -5.983  48.385 -30.096  1.00  0.00     0.007 C 
HETATM    3  C10 UNL     1      -6.231  48.285 -31.613  1.00  0.00     0.015 C 
HETATM    4  C11 UNL     1      -7.371  47.253 -31.735  1.00  0.00    -0.013 C 
HETATM    5  C12 UNL     1      -6.709  45.853 -31.570  1.00  0.00     0.021 C 
HETATM    6  C13 UNL     1      -8.148  47.163 -33.045  1.00  0.00    -0.070 C 
HETATM    7  C14 UNL     1      -7.575  47.403 -34.240  1.00  0.00    -0.022 C 
HETATM    8  C15 UNL     1      -8.239  47.166 -35.565  1.00  0.00     0.034 C 
HETATM    9  C16 UNL     1      -9.747  46.841 -35.473  1.00  0.00     0.013 C 
HETATM   10  C17 UNL     1     -10.437  46.448 -36.834  1.00  0.00     0.018 C 
HETATM   11  C18 UNL     1     -11.397  47.580 -37.266  1.00  0.00     0.023 C 
HETATM   12  C19 UNL     1      -9.437  46.235 -37.992  1.00  0.00     0.023 C 
HETATM   13  C20 UNL     1     -11.302  45.183 -36.721  1.00  0.00     0.135 C 
HETATM   14  O1  UNL     1     -11.424  44.395 -37.663  1.00  0.00    -0.297 OA
HETATM   15  C21 UNL     1     -12.107  44.948 -35.466  1.00  0.00     0.080 C 
HETATM   16  C22 UNL     1     -11.573  45.657 -34.234  1.00  0.00     0.017 C 
HETATM   17  C23 UNL     1     -10.047  45.893 -34.258  1.00  0.00    -0.031 C 
HETATM   18  C24 UNL     1      -9.302  44.540 -34.364  1.00  0.00     0.016 C 
HETATM   19  C25 UNL     1      -9.602  46.675 -32.956  1.00  0.00     0.024 C 
HETATM   20  C26 UNL     1      -9.935  45.966 -31.617  1.00  0.00     0.010 C 
HETATM   21  C27 UNL     1      -9.402  46.645 -30.327  1.00  0.00     0.011 C 
HETATM   22  C28 UNL     1      -8.315  47.706 -30.573  1.00  0.00    -0.029 C 
HETATM   23  C29 UNL     1      -9.068  49.057 -30.887  1.00  0.00     0.016 C 
ENDROOT
BRANCH   1  24
HETATM   24  C6  UNL     1      -7.290  47.255 -28.093  1.00  0.00    -0.014 C 
HETATM   25  C7  UNL     1      -7.520  45.750 -28.258  1.00  0.00     0.010 C 
BRANCH  24  26
HETATM   26  C5  UNL     1      -5.943  47.438 -27.340  1.00  0.00     0.008 C 
BRANCH  26  27
HETATM   27  C4  UNL     1      -6.097  47.991 -25.919  1.00  0.00     0.028 C 
BRANCH  27  28
HETATM   28  C3  UNL     1      -4.771  48.426 -25.356  1.00  0.00    -0.013 C 
HETATM   29  C2  UNL     1      -4.399  48.471 -24.060  1.00  0.00     0.008 C 
HETATM   30  C1  UNL     1      -3.022  48.893 -23.642  1.00  0.00     0.055 C 
BRANCH  29  31
HETATM   31  C30 UNL     1      -5.354  48.160 -22.972  1.00  0.00     0.171 C 
HETATM   32  O2  UNL     1      -5.578  47.071 -22.478  1.00  0.00    -0.646 OA
BRANCH  31  33
HETATM   33  O3  UNL     1      -6.002  49.261 -22.556  1.00  0.00    -0.773 OA
HETATM   34  H46 UNL     1      -6.582  48.929 -21.841  1.00  0.00     0.167 HD
ENDBRANCH  31  33
ENDBRANCH  29  31
ENDBRANCH  27  28
ENDBRANCH  26  27
ENDBRANCH  24  26
ENDBRANCH   1  24
TORSDOF 6
ENDMDL
MODEL 7
REMARK minimizedAffinity -9.44716263
REMARK CNNscore 0.270950556
REMARK CNNaffinity 6.62881613
REMARK  6 active torsions:
REMARK  status: ('A' for Active; 'I' for Inactive)
REMARK    1  A    between atoms: C2_2  and  C30_31 
REMARK    2  A    between atoms: C3_3  and  C4_4 
REMARK    3  A    between atoms: C4_4  and  C5_5 
REMARK    4  A    between atoms: C5_5  and  C6_6 
REMARK    5  A    between atoms: C6_6  and  C8_8 
REMARK    6  A    between atoms: C30_31  and  O3_33 
ROOT
HETATM    1  C8  UNL     1      -3.696  47.835 -20.142  1.00  0.00    -0.002 C 
HETATM    2  C9  UNL     1      -4.638  47.220 -21.209  1.00  0.00     0.007 C 
HETATM    3  C10 UNL     1      -4.119  47.684 -22.582  1.00  0.00     0.015 C 
HETATM    4  C11 UNL     1      -3.483  49.059 -22.292  1.00  0.00    -0.013 C 
HETATM    5  C12 UNL     1      -4.661  50.072 -22.195  1.00  0.00     0.021 C 
HETATM    6  C13 UNL     1      -2.533  49.666 -23.322  1.00  0.00    -0.070 C 
HETATM    7  C14 UNL     1      -2.684  49.465 -24.645  1.00  0.00    -0.022 C 
HETATM    8  C15 UNL     1      -1.890  50.168 -25.708  1.00  0.00     0.034 C 
HETATM    9  C16 UNL     1      -0.694  50.988 -25.172  1.00  0.00     0.013 C 
HETATM   10  C17 UNL     1       0.069  51.849 -26.248  1.00  0.00     0.018 C 
HETATM   11  C18 UNL     1       1.468  51.239 -26.494  1.00  0.00     0.023 C 
HETATM   12  C19 UNL     1      -0.649  51.904 -27.614  1.00  0.00     0.023 C 
HETATM   13  C20 UNL     1       0.316  53.295 -25.789  1.00  0.00     0.135 C 
HETATM   14  O1  UNL     1       0.324  54.237 -26.587  1.00  0.00    -0.297 OA
HETATM   15  C21 UNL     1       0.662  53.563 -24.344  1.00  0.00     0.080 C 
HETATM   16  C22 UNL     1       0.191  52.492 -23.375  1.00  0.00     0.017 C 
HETATM   17  C23 UNL     1      -1.072  51.734 -23.843  1.00  0.00    -0.031 C 
HETATM   18  C24 UNL     1      -2.245  52.725 -24.033  1.00  0.00     0.016 C 
HETATM   19  C25 UNL     1      -1.450  50.615 -22.790  1.00  0.00     0.024 C 
HETATM   20  C26 UNL     1      -1.730  51.132 -21.355  1.00  0.00     0.010 C 
HETATM   21  C27 UNL     1      -2.225  50.078 -20.328  1.00  0.00     0.011 C 
HETATM   22  C28 UNL     1      -2.721  48.764 -20.958  1.00  0.00    -0.029 C 
HETATM   23  C29 UNL     1      -1.447  47.857 -21.168  1.00  0.00     0.016 C 
ENDROOT
BRANCH   1  24
HETATM   24  C6  UNL     1      -4.365  48.345 -18.831  1.00  0.00    -0.014 C 
HETATM   25  C7  UNL     1      -3.616  49.453 -18.083  1.00  0.00     0.010 C 
BRANCH  24  26
HETATM   26  C5  UNL     1      -5.813  48.852 -19.081  1.00  0.00     0.008 C 
BRANCH  26  27
HETATM   27  C4  UNL     1      -6.887  48.052 -18.334  1.00  0.00     0.028 C 
BRANCH  27  28
HETATM   28  C3  UNL     1      -8.215  48.134 -19.038  1.00  0.00    -0.013 C 
HETATM   29  C2  UNL     1      -9.444  48.122 -18.484  1.00  0.00     0.008 C 
HETATM   30  C1  UNL     1     -10.690  48.249 -19.310  1.00  0.00     0.055 C 
BRANCH  29  31
HETATM   31  C30 UNL     1      -9.633  47.924 -17.028  1.00  0.00     0.171 C 
HETATM   32  O2  UNL     1     -10.683  47.922 -16.415  1.00  0.00    -0.646 OA
BRANCH  31  33
HETATM   33  O3  UNL     1      -8.458  47.743 -16.401  1.00  0.00    -0.773 OA
HETATM   34  H46 UNL     1      -8.716  47.613 -15.466  1.00  0.00     0.167 HD
ENDBRANCH  31  33
ENDBRANCH  29  31
ENDBRANCH  27  28
ENDBRANCH  26  27
ENDBRANCH  24  26
ENDBRANCH   1  24
TORSDOF 6
ENDMDL
MODEL 8
REMARK minimizedAffinity -8.73192406
REMARK CNNscore 0.22657454
REMARK CNNaffinity 6.39038515
REMARK  6 active torsions:
REMARK  status: ('A' for Active; 'I' for Inactive)
REMARK    1  A    between atoms: C2_2  and  C30_31 
REMARK    2  A    between atoms: C3_3  and  C4_4 
REMARK    3  A    between atoms: C4_4  and  C5_5 
REMARK    4  A    between atoms: C5_5  and  C6_6 
REMARK    5  A    between atoms: C6_6  and  C8_8 
REMARK    6  A    between atoms: C30_31  and  O3_33 
ROOT
HETATM    1  C8  UNL     1      -4.079  47.661 -20.468  1.00  0.00    -0.002 C 
HETATM    2  C9  UNL     1      -5.038  47.178 -21.586  1.00  0.00     0.007 C 
HETATM    3  C10 UNL     1      -4.465  47.695 -22.918  1.00  0.00     0.015 C 
HETATM    4  C11 UNL     1      -3.748  49.004 -22.531  1.00  0.00    -0.013 C 
HETATM    5  C12 UNL     1      -4.861  50.083 -22.384  1.00  0.00     0.021 C 
HETATM    6  C13 UNL     1      -2.743  49.613 -23.505  1.00  0.00    -0.070 C 
HETATM    7  C14 UNL     1      -2.881  49.507 -24.840  1.00  0.00    -0.022 C 
HETATM    8  C15 UNL     1      -2.025  50.224 -25.844  1.00  0.00     0.034 C 
HETATM    9  C16 UNL     1      -0.789  50.927 -25.239  1.00  0.00     0.013 C 
HETATM   10  C17 UNL     1       0.048  51.805 -26.246  1.00  0.00     0.018 C 
HETATM   11  C18 UNL     1       1.409  51.122 -26.511  1.00  0.00     0.023 C 
HETATM   12  C19 UNL     1      -0.640  51.994 -27.615  1.00  0.00     0.023 C 
HETATM   13  C20 UNL     1       0.378  53.199 -25.690  1.00  0.00     0.135 C 
HETATM   14  O1  UNL     1       0.462  54.187 -26.424  1.00  0.00    -0.297 OA
HETATM   15  C21 UNL     1       0.714  53.350 -24.226  1.00  0.00     0.080 C 
HETATM   16  C22 UNL     1       0.158  52.253 -23.336  1.00  0.00     0.017 C 
HETATM   17  C23 UNL     1      -1.142  51.610 -23.869  1.00  0.00    -0.031 C 
HETATM   18  C24 UNL     1      -2.246  52.686 -24.011  1.00  0.00     0.016 C 
HETATM   19  C25 UNL     1      -1.610  50.453 -22.897  1.00  0.00     0.024 C 
HETATM   20  C26 UNL     1      -1.883  50.894 -21.435  1.00  0.00     0.010 C 
HETATM   21  C27 UNL     1      -2.464  49.811 -20.487  1.00  0.00     0.011 C 
HETATM   22  C28 UNL     1      -3.031  48.575 -21.208  1.00  0.00    -0.029 C 
HETATM   23  C29 UNL     1      -1.815  47.603 -21.459  1.00  0.00     0.016 C 
ENDROOT
BRANCH   1  24
HETATM   24  C6  UNL     1      -4.737  48.128 -19.136  1.00  0.00    -0.014 C 
HETATM   25  C7  UNL     1      -6.210  48.541 -19.224  1.00  0.00     0.010 C 
BRANCH  24  26
HETATM   26  C5  UNL     1      -4.626  47.045 -18.027  1.00  0.00     0.008 C 
BRANCH  26  27
HETATM   27  C4  UNL     1      -4.131  45.685 -18.536  1.00  0.00     0.028 C 
BRANCH  27  28
HETATM   28  C3  UNL     1      -3.163  45.061 -17.569  1.00  0.00    -0.013 C 
HETATM   29  C2  UNL     1      -2.923  43.748 -17.372  1.00  0.00     0.008 C 
HETATM   30  C1  UNL     1      -1.895  43.265 -16.393  1.00  0.00     0.055 C 
BRANCH  29  31
HETATM   31  C30 UNL     1      -3.706  42.707 -18.077  1.00  0.00     0.171 C 
HETATM   32  O2  UNL     1      -4.777  42.237 -17.741  1.00  0.00    -0.646 OA
BRANCH  31  33
HETATM   33  O3  UNL     1      -3.083  42.294 -19.193  1.00  0.00    -0.773 OA
HETATM   34  H46 UNL     1      -3.697  41.630 -19.565  1.00  0.00     0.167 HD
ENDBRANCH  31  33
ENDBRANCH  29  31
ENDBRANCH  27  28
ENDBRANCH  26  27
ENDBRANCH  24  26
ENDBRANCH   1  24
TORSDOF 6
ENDMDL
MODEL 9
REMARK minimizedAffinity -7.26863813
REMARK CNNscore 0.204291746
REMARK CNNaffinity 5.75903082
REMARK  6 active torsions:
REMARK  status: ('A' for Active; 'I' for Inactive)
REMARK    1  A    between atoms: C2_2  and  C30_31 
REMARK    2  A    between atoms: C3_3  and  C4_4 
REMARK    3  A    between atoms: C4_4  and  C5_5 
REMARK    4  A    between atoms: C5_5  and  C6_6 
REMARK    5  A    between atoms: C6_6  and  C8_8 
REMARK    6  A    between atoms: C30_31  and  O3_33 
ROOT
HETATM    1  C8  UNL     1      -8.498  47.190 -20.332  1.00  0.00    -0.002 C 
HETATM    2  C9  UNL     1      -7.736  45.977 -19.738  1.00  0.00     0.007 C 
HETATM    3  C10 UNL     1      -6.262  46.401 -19.602  1.00  0.00     0.015 C 
HETATM    4  C11 UNL     1      -6.060  47.413 -20.748  1.00  0.00    -0.013 C 
HETATM    5  C12 UNL     1      -5.885  46.571 -22.046  1.00  0.00     0.021 C 
HETATM    6  C13 UNL     1      -4.842  48.333 -20.715  1.00  0.00    -0.070 C 
HETATM    7  C14 UNL     1      -3.665  47.949 -20.188  1.00  0.00    -0.022 C 
HETATM    8  C15 UNL     1      -2.393  48.741 -20.279  1.00  0.00     0.034 C 
HETATM    9  C16 UNL     1      -2.573  50.175 -20.827  1.00  0.00     0.013 C 
HETATM   10  C17 UNL     1      -1.239  50.978 -21.067  1.00  0.00     0.018 C 
HETATM   11  C18 UNL     1      -1.133  52.116 -20.026  1.00  0.00     0.023 C 
HETATM   12  C19 UNL     1       0.033  50.115 -20.927  1.00  0.00     0.023 C 
HETATM   13  C20 UNL     1      -1.194  51.662 -22.443  1.00  0.00     0.135 C 
HETATM   14  O1  UNL     1      -0.136  51.806 -23.061  1.00  0.00    -0.297 OA
HETATM   15  C21 UNL     1      -2.456  52.268 -23.009  1.00  0.00     0.080 C 
HETATM   16  C22 UNL     1      -3.741  51.673 -22.461  1.00  0.00     0.017 C 
HETATM   17  C23 UNL     1      -3.608  50.201 -22.008  1.00  0.00    -0.031 C 
HETATM   18  C24 UNL     1      -3.168  49.317 -23.201  1.00  0.00     0.016 C 
HETATM   19  C25 UNL     1      -4.983  49.693 -21.414  1.00  0.00     0.024 C 
HETATM   20  C26 UNL     1      -6.188  49.767 -22.388  1.00  0.00     0.010 C 
HETATM   21  C27 UNL     1      -7.523  49.161 -21.879  1.00  0.00     0.011 C 
HETATM   22  C28 UNL     1      -7.377  48.250 -20.647  1.00  0.00    -0.029 C 
HETATM   23  C29 UNL     1      -7.406  49.195 -19.384  1.00  0.00     0.016 C 
ENDROOT
BRANCH   1  24
HETATM   24  C6  UNL     1      -9.606  46.873 -21.379  1.00  0.00    -0.014 C 
HETATM   25  C7  UNL     1      -9.512  45.506 -22.063  1.00  0.00     0.010 C 
BRANCH  24  26
HETATM   26  C5  UNL     1     -11.029  46.986 -20.764  1.00  0.00     0.008 C 
BRANCH  26  27
HETATM   27  C4  UNL     1     -11.095  47.869 -19.512  1.00  0.00     0.028 C 
BRANCH  27  28
HETATM   28  C3  UNL     1     -12.311  47.552 -18.684  1.00  0.00    -0.013 C 
HETATM   29  C2  UNL     1     -13.577  47.973 -18.883  1.00  0.00     0.008 C 
HETATM   30  C1  UNL     1     -14.706  47.545 -17.993  1.00  0.00     0.055 C 
BRANCH  29  31
HETATM   31  C30 UNL     1     -13.912  48.929 -19.962  1.00  0.00     0.171 C 
HETATM   32  O2  UNL     1     -13.845  50.143 -19.919  1.00  0.00    -0.646 OA
BRANCH  31  33
HETATM   33  O3  UNL     1     -14.332  48.293 -21.069  1.00  0.00    -0.773 OA
HETATM   34  H46 UNL     1     -14.505  49.022 -21.700  1.00  0.00     0.167 HD
ENDBRANCH  31  33
ENDBRANCH  29  31
ENDBRANCH  27  28
ENDBRANCH  26  27
ENDBRANCH  24  26
ENDBRANCH   1  24
TORSDOF 6
ENDMDL
