MODEL 1
REMARK minimizedAffinity -8.88291264
REMARK CNNscore 0.394496202
REMARK CNNaffinity 7.51998091
REMARK  13 active torsions:
REMARK  status: ('A' for Active; 'I' for Inactive)
REMARK    1  A    between atoms: C5_6  and  C6_7 
REMARK    2  A    between atoms: C5_6  and  C31_35 
REMARK    3  A    between atoms: C23_24  and  O2_25 
REMARK    4  A    between atoms: C30_33  and  O4_34 
REMARK    5  A    between atoms: C32_37  and  C33_38 
REMARK    6  A    between atoms: C33_38  and  O6_40 
REMARK    7  A    between atoms: C33_38  and  C35_41 
REMARK    8  A    between atoms: C35_41  and  C37_43 
REMARK    9  A    between atoms: C35_41  and  C38_45 
REMARK   10  A    between atoms: C37_43  and  O7_44 
REMARK   11  A    between atoms: C38_45  and  C39_46 
REMARK   12  A    between atoms: C39_46  and  C40_47 
REMARK   13  A    between atoms: C43_51  and  N2_52 
ROOT
HETATM    1  C1  UNL     1      -3.404  11.784  18.821  1.00  0.00     0.010 C 
HETATM    2  C2  UNL     1      -2.408  11.102  17.880  1.00  0.00    -0.014 C 
HETATM    3  C3  UNL     1      -0.976  11.396  18.301  1.00  0.00     0.030 C 
HETATM    4  C4  UNL     1       0.031  10.844  17.302  1.00  0.00     0.169 C 
HETATM    5  O1  UNL     1      -0.573  10.223  16.178  1.00  0.00    -0.377 OA
HETATM    6  C5  UNL     1      -1.554  11.006  15.439  1.00  0.00     0.094 C 
HETATM    7  C45 UNL     1      -2.626  11.551  16.428  1.00  0.00     0.045 C 
ENDROOT
BRANCH   6   8
HETATM    8  C6  UNL     1      -2.107   9.947  14.404  1.00  0.00     0.035 C 
HETATM    9  C7  UNL     1      -0.991   9.034  13.777  1.00  0.00     0.016 C 
HETATM   10  C8  UNL     1      -1.706   7.831  13.115  1.00  0.00     0.026 C 
HETATM   11  C9  UNL     1      -1.204   6.448  13.536  1.00  0.00     0.013 C 
HETATM   12  C30 UNL     1      -3.186   8.038  13.463  1.00  0.00     0.094 C 
HETATM   13  C10 UNL     1      -2.131   5.337  13.006  1.00  0.00     0.043 C 
HETATM   14  C11 UNL     1      -3.591   5.602  13.284  1.00  0.00    -0.006 C 
HETATM   15  C12 UNL     1      -4.055   6.823  13.585  1.00  0.00    -0.030 C 
HETATM   16  C26 UNL     1      -4.558   4.480  13.077  1.00  0.00     0.161 C 
HETATM   17  C13 UNL     1      -5.491   7.141  13.897  1.00  0.00     0.032 C 
HETATM   18  C14 UNL     1      -5.703   8.280  14.953  1.00  0.00    -0.004 C 
HETATM   19  C20 UNL     1      -6.369   5.904  14.275  1.00  0.00    -0.018 C 
HETATM   20  C15 UNL     1      -7.182   8.715  14.915  1.00  0.00     0.010 C 
HETATM   21  C27 UNL     1      -4.693   9.457  14.849  1.00  0.00     0.018 C 
HETATM   22  C16 UNL     1      -8.162   7.504  15.064  1.00  0.00    -0.009 C 
HETATM   23  C17 UNL     1      -8.145   6.965  16.497  1.00  0.00     0.005 C 
HETATM   24  C25 UNL     1      -7.815   6.431  14.015  1.00  0.00     0.002 C 
HETATM   25  C18 UNL     1      -7.324   5.702  16.720  1.00  0.00     0.001 C 
HETATM   26  C19 UNL     1      -6.157   5.463  15.767  1.00  0.00     0.011 C 
HETATM   27  C24 UNL     1      -8.797   5.284  13.801  1.00  0.00     0.037 C 
HETATM   28  C23 UNL     1      -8.409   4.481  12.538  1.00  0.00     0.119 C 
HETATM   29  C22 UNL     1      -6.926   4.609  12.138  1.00  0.00     0.045 C 
HETATM   30  C21 UNL     1      -6.045   4.667  13.389  1.00  0.00     0.072 C 
HETATM   31  C28 UNL     1      -3.230   8.916  14.750  1.00  0.00    -0.002 C 
HETATM   32  C29 UNL     1      -2.886   8.134  16.042  1.00  0.00     0.019 C 
HETATM   33  O3  UNL     1      -4.147   3.416  12.613  1.00  0.00    -0.292 OA
BRANCH  28  34
HETATM   34  O2  UNL     1      -8.729   3.112  12.790  1.00  0.00    -0.396 OA
HETATM   35  H32 UNL     1      -8.476   2.599  12.006  1.00  0.00     0.210 HD
ENDBRANCH  28  34
BRANCH  12  36
HETATM   36  O4  UNL     1      -3.763   8.767  12.356  1.00  0.00    -0.384 OA
HETATM   37  H41 UNL     1      -3.084   9.329  11.946  1.00  0.00     0.211 HD
ENDBRANCH  12  36
ENDBRANCH   6   8
BRANCH   6  38
HETATM   38  C31 UNL     1      -0.768  12.083  14.687  1.00  0.00     0.189 A 
HETATM   39  O5  UNL     1      -1.533  12.923  13.828  1.00  0.00    -0.369 OA
HETATM   40  C32 UNL     1      -0.927  13.584  14.961  1.00  0.00     0.189 A 
BRANCH  40  41
HETATM   41  C33 UNL     1      -0.097  14.795  14.525  1.00  0.00     0.092 C 
HETATM   42  C34 UNL     1      -0.965  16.042  14.812  1.00  0.00     0.049 C 
BRANCH  41  43
HETATM   43  O6  UNL     1      -0.027  14.767  13.086  1.00  0.00    -0.387 OA
HETATM   44  H47 UNL     1       0.193  13.848  12.849  1.00  0.00     0.210 HD
ENDBRANCH  41  43
BRANCH  41  45
HETATM   45  C35 UNL     1       1.380  14.932  15.099  1.00  0.00     0.011 C 
HETATM   46  C36 UNL     1       2.346  13.948  14.369  1.00  0.00     0.020 C 
BRANCH  45  47
HETATM   47  C37 UNL     1       1.430  14.644  16.618  1.00  0.00     0.176 C 
BRANCH  47  48
HETATM   48  O7  UNL     1       2.737  14.232  17.012  1.00  0.00    -0.400 OA
HETATM   49  H53 UNL     1       2.650  13.390  17.498  1.00  0.00     0.209 HD
ENDBRANCH  47  48
ENDBRANCH  45  47
BRANCH  45  50
HETATM   50  C38 UNL     1       1.996  16.354  14.776  1.00  0.00     0.019 C 
BRANCH  50  51
HETATM   51  C39 UNL     1       3.075  16.446  13.680  1.00  0.00     0.039 C 
BRANCH  51  52
HETATM   52  C40 UNL     1       2.473  16.843  12.346  1.00  0.00    -0.053 A 
HETATM   53  C41 UNL     1       2.763  16.127  11.186  1.00  0.00     0.024 A 
HETATM   54  C42 UNL     1       2.188  16.522   9.987  1.00  0.00     0.090 A 
HETATM   55  N1  UNL     1       1.350  17.566   9.957  1.00  0.00    -0.353 N 
HETATM   56  C43 UNL     1       1.005  18.263  11.046  1.00  0.00     0.098 A 
HETATM   57  H60 UNL     1       0.956  17.856   9.067  1.00  0.00     0.166 HD
HETATM   58  C44 UNL     1       1.599  17.932  12.262  1.00  0.00     0.055 A 
BRANCH  56  59
HETATM   59  N2  UNL     1       0.162  19.352  10.923  1.00  0.00    -0.385 N 
HETATM   60  H61 UNL     1      -0.428  19.535  11.736  1.00  0.00     0.157 HD
HETATM   61  H62 UNL     1      -0.320  19.544  10.054  1.00  0.00     0.157 HD
ENDBRANCH  56  59
ENDBRANCH  51  52
ENDBRANCH  50  51
ENDBRANCH  45  50
ENDBRANCH  41  45
ENDBRANCH  40  41
ENDBRANCH   6  38
TORSDOF 13
ENDMDL
MODEL 2
REMARK minimizedAffinity -10.6561375
REMARK CNNscore 0.371308595
REMARK CNNaffinity 7.45217896
REMARK  13 active torsions:
REMARK  status: ('A' for Active; 'I' for Inactive)
REMARK    1  A    between atoms: C5_6  and  C6_7 
REMARK    2  A    between atoms: C5_6  and  C31_35 
REMARK    3  A    between atoms: C23_24  and  O2_25 
REMARK    4  A    between atoms: C30_33  and  O4_34 
REMARK    5  A    between atoms: C32_37  and  C33_38 
REMARK    6  A    between atoms: C33_38  and  O6_40 
REMARK    7  A    between atoms: C33_38  and  C35_41 
REMARK    8  A    between atoms: C35_41  and  C37_43 
REMARK    9  A    between atoms: C35_41  and  C38_45 
REMARK   10  A    between atoms: C37_43  and  O7_44 
REMARK   11  A    between atoms: C38_45  and  C39_46 
REMARK   12  A    between atoms: C39_46  and  C40_47 
REMARK   13  A    between atoms: C43_51  and  N2_52 
ROOT
HETATM    1  C1  UNL     1      -4.143  12.262  19.240  1.00  0.00     0.010 C 
HETATM    2  C2  UNL     1      -3.244  12.084  18.014  1.00  0.00    -0.014 C 
HETATM    3  C3  UNL     1      -4.057  11.641  16.807  1.00  0.00     0.030 C 
HETATM    4  C4  UNL     1      -3.169  11.324  15.613  1.00  0.00     0.169 C 
HETATM    5  O1  UNL     1      -1.783  11.459  15.890  1.00  0.00    -0.377 OA
HETATM    6  C5  UNL     1      -1.266  10.731  17.040  1.00  0.00     0.094 C 
HETATM    7  C45 UNL     1      -2.128  11.067  18.291  1.00  0.00     0.045 C 
ENDROOT
BRANCH   6   8
HETATM    8  C6  UNL     1       0.222  11.257  17.120  1.00  0.00     0.035 C 
HETATM    9  C7  UNL     1       0.479  12.557  16.274  1.00  0.00     0.016 C 
HETATM   10  C8  UNL     1       1.825  13.155  16.754  1.00  0.00     0.026 C 
HETATM   11  C9  UNL     1       1.786  14.628  17.164  1.00  0.00     0.013 C 
HETATM   12  C30 UNL     1       2.245  12.244  17.915  1.00  0.00     0.094 C 
HETATM   13  C10 UNL     1       3.104  15.049  17.843  1.00  0.00     0.043 C 
HETATM   14  C11 UNL     1       3.545  14.093  18.925  1.00  0.00    -0.006 C 
HETATM   15  C12 UNL     1       3.078  12.839  19.009  1.00  0.00    -0.030 C 
HETATM   16  C26 UNL     1       4.642  14.530  19.842  1.00  0.00     0.161 C 
HETATM   17  C13 UNL     1       3.459  11.853  20.078  1.00  0.00     0.032 C 
HETATM   18  C14 UNL     1       2.320  10.865  20.505  1.00  0.00    -0.004 C 
HETATM   19  C20 UNL     1       4.111  12.485  21.351  1.00  0.00    -0.018 C 
HETATM   20  C15 UNL     1       2.944   9.727  21.337  1.00  0.00     0.010 C 
HETATM   21  C27 UNL     1       1.415  10.376  19.340  1.00  0.00     0.018 C 
HETATM   22  C16 UNL     1       3.812  10.264  22.523  1.00  0.00    -0.009 C 
HETATM   23  C17 UNL     1       2.924  10.856  23.621  1.00  0.00     0.005 C 
HETATM   24  C25 UNL     1       4.851  11.266  21.986  1.00  0.00     0.002 C 
HETATM   25  C18 UNL     1       2.825  12.375  23.645  1.00  0.00     0.001 C 
HETATM   26  C19 UNL     1       3.039  13.100  22.320  1.00  0.00     0.011 C 
HETATM   27  C24 UNL     1       5.971  11.717  22.917  1.00  0.00     0.037 C 
HETATM   28  C23 UNL     1       7.045  12.492  22.121  1.00  0.00     0.119 C 
HETATM   29  C22 UNL     1       6.531  13.115  20.807  1.00  0.00     0.045 C 
HETATM   30  C21 UNL     1       5.101  13.630  20.991  1.00  0.00     0.072 C 
HETATM   31  C28 UNL     1       0.944  11.584  18.467  1.00  0.00    -0.002 C 
HETATM   32  C29 UNL     1       0.090  12.540  19.336  1.00  0.00     0.019 C 
HETATM   33  O3  UNL     1       5.199  15.609  19.634  1.00  0.00    -0.292 OA
BRANCH  28  34
HETATM   34  O2  UNL     1       7.555  13.514  22.978  1.00  0.00    -0.396 OA
HETATM   35  H32 UNL     1       8.222  14.014  22.479  1.00  0.00     0.210 HD
ENDBRANCH  28  34
BRANCH  12  36
HETATM   36  O4  UNL     1       3.100  11.228  17.342  1.00  0.00    -0.384 OA
HETATM   37  H41 UNL     1       2.840  11.065  16.420  1.00  0.00     0.211 HD
ENDBRANCH  12  36
ENDBRANCH   6   8
BRANCH   6  38
HETATM   38  C31 UNL     1      -1.257   9.252  16.645  1.00  0.00     0.189 A 
HETATM   39  O5  UNL     1      -2.295   8.454  17.206  1.00  0.00    -0.369 OA
HETATM   40  C32 UNL     1      -2.342   8.609  15.771  1.00  0.00     0.189 A 
BRANCH  40  41
HETATM   41  C33 UNL     1      -2.411   7.253  15.061  1.00  0.00     0.092 C 
HETATM   42  C34 UNL     1      -3.420   6.397  15.860  1.00  0.00     0.049 C 
BRANCH  41  43
HETATM   43  O6  UNL     1      -1.154   6.587  15.297  1.00  0.00    -0.387 OA
HETATM   44  H47 UNL     1      -0.464   7.253  15.123  1.00  0.00     0.210 HD
ENDBRANCH  41  43
BRANCH  41  45
HETATM   45  C35 UNL     1      -2.702   7.244  13.498  1.00  0.00     0.011 C 
HETATM   46  C36 UNL     1      -1.467   6.702  12.713  1.00  0.00     0.020 C 
BRANCH  45  47
HETATM   47  C37 UNL     1      -3.044   8.658  12.974  1.00  0.00     0.176 C 
BRANCH  47  48
HETATM   48  O7  UNL     1      -4.450   8.799  12.781  1.00  0.00    -0.400 OA
HETATM   49  H53 UNL     1      -4.595   9.116  11.869  1.00  0.00     0.209 HD
ENDBRANCH  47  48
ENDBRANCH  45  47
BRANCH  45  50
HETATM   50  C38 UNL     1      -3.847   6.215  13.130  1.00  0.00     0.019 C 
BRANCH  50  51
HETATM   51  C39 UNL     1      -3.443   4.884  12.467  1.00  0.00     0.039 C 
BRANCH  51  52
HETATM   52  C40 UNL     1      -4.637   3.963  12.309  1.00  0.00    -0.053 A 
HETATM   53  C41 UNL     1      -4.576   2.846  11.477  1.00  0.00     0.024 A 
HETATM   54  C42 UNL     1      -5.689   2.026  11.365  1.00  0.00     0.090 A 
HETATM   55  N1  UNL     1      -6.797   2.300  12.066  1.00  0.00    -0.353 N 
HETATM   56  C43 UNL     1      -6.896   3.335  12.909  1.00  0.00     0.098 A 
HETATM   57  H60 UNL     1      -7.611   1.702  11.954  1.00  0.00     0.166 HD
HETATM   58  C44 UNL     1      -5.819   4.211  13.014  1.00  0.00     0.055 A 
BRANCH  56  59
HETATM   59  N2  UNL     1      -8.090   3.569  13.567  1.00  0.00    -0.385 N 
HETATM   60  H61 UNL     1      -7.997   4.005  14.486  1.00  0.00     0.157 HD
HETATM   61  H62 UNL     1      -8.841   2.892  13.543  1.00  0.00     0.157 HD
ENDBRANCH  56  59
ENDBRANCH  51  52
ENDBRANCH  50  51
ENDBRANCH  45  50
ENDBRANCH  41  45
ENDBRANCH  40  41
ENDBRANCH   6  38
TORSDOF 13
ENDMDL
MODEL 3
REMARK minimizedAffinity -10.069315
REMARK CNNscore 0.310296893
REMARK CNNaffinity 7.66563559
REMARK  13 active torsions:
REMARK  status: ('A' for Active; 'I' for Inactive)
REMARK    1  A    between atoms: C5_6  and  C6_7 
REMARK    2  A    between atoms: C5_6  and  C31_35 
REMARK    3  A    between atoms: C23_24  and  O2_25 
REMARK    4  A    between atoms: C30_33  and  O4_34 
REMARK    5  A    between atoms: C32_37  and  C33_38 
REMARK    6  A    between atoms: C33_38  and  O6_40 
REMARK    7  A    between atoms: C33_38  and  C35_41 
REMARK    8  A    between atoms: C35_41  and  C37_43 
REMARK    9  A    between atoms: C35_41  and  C38_45 
REMARK   10  A    between atoms: C37_43  and  O7_44 
REMARK   11  A    between atoms: C38_45  and  C39_46 
REMARK   12  A    between atoms: C39_46  and  C40_47 
REMARK   13  A    between atoms: C43_51  and  N2_52 
ROOT
HETATM    1  C1  UNL     1      -1.088   7.338  11.919  1.00  0.00     0.010 C 
HETATM    2  C2  UNL     1      -1.435   7.725  13.358  1.00  0.00    -0.014 C 
HETATM    3  C3  UNL     1      -1.977   6.528  14.126  1.00  0.00     0.030 C 
HETATM    4  C4  UNL     1      -2.457   6.919  15.516  1.00  0.00     0.169 C 
HETATM    5  O1  UNL     1      -2.345   8.309  15.780  1.00  0.00    -0.377 OA
HETATM    6  C5  UNL     1      -2.962   9.215  14.822  1.00  0.00     0.094 C 
HETATM    7  C45 UNL     1      -2.457   8.870  13.391  1.00  0.00     0.045 C 
ENDROOT
BRANCH   6   8
HETATM    8  C6  UNL     1      -2.488  10.626  15.353  1.00  0.00     0.035 C 
HETATM    9  C7  UNL     1      -3.672  11.611  15.671  1.00  0.00     0.016 C 
HETATM   10  C8  UNL     1      -3.089  12.762  16.528  1.00  0.00     0.026 C 
HETATM   11  C9  UNL     1      -3.818  13.044  17.843  1.00  0.00     0.013 C 
HETATM   12  C30 UNL     1      -1.627  12.356  16.754  1.00  0.00     0.094 C 
HETATM   13  C10 UNL     1      -3.023  14.034  18.716  1.00  0.00     0.043 C 
HETATM   14  C11 UNL     1      -1.566  13.662  18.856  1.00  0.00    -0.006 C 
HETATM   15  C12 UNL     1      -0.955  12.820  18.010  1.00  0.00    -0.030 C 
HETATM   16  C26 UNL     1      -0.759  14.373  19.895  1.00  0.00     0.161 C 
HETATM   17  C13 UNL     1       0.483  12.393  18.116  1.00  0.00     0.032 C 
HETATM   18  C14 UNL     1       0.774  10.925  17.651  1.00  0.00    -0.004 C 
HETATM   19  C20 UNL     1       1.140  12.643  19.512  1.00  0.00    -0.018 C 
HETATM   20  C15 UNL     1       2.299  10.752  17.499  1.00  0.00     0.010 C 
HETATM   21  C27 UNL     1      -0.043  10.463  16.413  1.00  0.00     0.018 C 
HETATM   22  C16 UNL     1       3.078  11.191  18.783  1.00  0.00    -0.009 C 
HETATM   23  C17 UNL     1       2.870  10.181  19.916  1.00  0.00     0.005 C 
HETATM   24  C25 UNL     1       2.663  12.622  19.172  1.00  0.00     0.002 C 
HETATM   25  C18 UNL     1       1.860  10.582  20.983  1.00  0.00     0.001 C 
HETATM   26  C19 UNL     1       0.749  11.536  20.555  1.00  0.00     0.011 C 
HETATM   27  C24 UNL     1       3.482  13.351  20.232  1.00  0.00     0.037 C 
HETATM   28  C23 UNL     1       3.082  14.844  20.279  1.00  0.00     0.119 C 
HETATM   29  C22 UNL     1       1.669  15.137  19.737  1.00  0.00     0.045 C 
HETATM   30  C21 UNL     1       0.710  14.008  20.123  1.00  0.00     0.072 C 
HETATM   31  C28 UNL     1      -1.557  10.806  16.595  1.00  0.00    -0.002 C 
HETATM   32  C29 UNL     1      -2.111  10.037  17.820  1.00  0.00     0.019 C 
HETATM   33  O3  UNL     1      -1.282  15.285  20.537  1.00  0.00    -0.292 OA
BRANCH  28  34
HETATM   34  O2  UNL     1       3.180  15.266  21.640  1.00  0.00    -0.396 OA
HETATM   35  H32 UNL     1       2.917  16.200  21.679  1.00  0.00     0.210 HD
ENDBRANCH  28  34
BRANCH  12  36
HETATM   36  O4  UNL     1      -0.864  12.987  15.700  1.00  0.00    -0.384 OA
HETATM   37  H41 UNL     1      -1.421  13.084  14.909  1.00  0.00     0.211 HD
ENDBRANCH  12  36
ENDBRANCH   6   8
BRANCH   6  38
HETATM   38  C31 UNL     1      -4.475   9.085  15.018  1.00  0.00     0.189 A 
HETATM   39  O5  UNL     1      -5.220   8.718  13.861  1.00  0.00    -0.369 OA
HETATM   40  C32 UNL     1      -5.221   7.748  14.932  1.00  0.00     0.189 A 
BRANCH  40  41
HETATM   41  C33 UNL     1      -6.646   7.347  15.325  1.00  0.00     0.092 C 
HETATM   42  C34 UNL     1      -7.535   8.582  15.053  1.00  0.00     0.049 C 
BRANCH  41  43
HETATM   43  O6  UNL     1      -6.674   7.232  16.762  1.00  0.00    -0.387 OA
HETATM   44  H47 UNL     1      -5.882   6.716  17.001  1.00  0.00     0.210 HD
ENDBRANCH  41  43
BRANCH  41  45
HETATM   45  C35 UNL     1      -7.244   6.012  14.700  1.00  0.00     0.011 C 
HETATM   46  C36 UNL     1      -8.221   6.343  13.530  1.00  0.00     0.020 C 
BRANCH  45  47
HETATM   47  C37 UNL     1      -8.000   5.176  15.759  1.00  0.00     0.176 C 
BRANCH  47  48
HETATM   48  O7  UNL     1      -9.196   5.838  16.166  1.00  0.00    -0.400 OA
HETATM   49  H53 UNL     1      -9.187   5.896  17.140  1.00  0.00     0.209 HD
ENDBRANCH  47  48
ENDBRANCH  45  47
BRANCH  45  50
HETATM   50  C38 UNL     1      -6.118   5.148  14.000  1.00  0.00     0.019 C 
BRANCH  50  51
HETATM   51  C39 UNL     1      -6.352   4.687  12.549  1.00  0.00     0.039 C 
BRANCH  51  52
HETATM   52  C40 UNL     1      -5.360   3.614  12.144  1.00  0.00    -0.053 A 
HETATM   53  C41 UNL     1      -5.791   2.341  11.777  1.00  0.00     0.024 A 
HETATM   54  C42 UNL     1      -4.850   1.390  11.409  1.00  0.00     0.090 A 
HETATM   55  N1  UNL     1      -3.549   1.706  11.390  1.00  0.00    -0.353 N 
HETATM   56  C43 UNL     1      -3.084   2.924  11.693  1.00  0.00     0.098 A 
HETATM   57  H60 UNL     1      -2.872   0.991  11.140  1.00  0.00     0.166 HD
HETATM   58  C44 UNL     1      -3.990   3.894  12.116  1.00  0.00     0.055 A 
BRANCH  56  59
HETATM   59  N2  UNL     1      -1.721   3.159  11.685  1.00  0.00    -0.385 N 
HETATM   60  H61 UNL     1      -1.449   4.113  11.446  1.00  0.00     0.157 HD
HETATM   61  H62 UNL     1      -1.076   2.475  11.310  1.00  0.00     0.157 HD
ENDBRANCH  56  59
ENDBRANCH  51  52
ENDBRANCH  50  51
ENDBRANCH  45  50
ENDBRANCH  41  45
ENDBRANCH  40  41
ENDBRANCH   6  38
TORSDOF 13
ENDMDL
MODEL 4
REMARK minimizedAffinity -10.2237329
REMARK CNNscore 0.27524969
REMARK CNNaffinity 7.98700476
REMARK  13 active torsions:
REMARK  status: ('A' for Active; 'I' for Inactive)
REMARK    1  A    between atoms: C5_6  and  C6_7 
REMARK    2  A    between atoms: C5_6  and  C31_35 
REMARK    3  A    between atoms: C23_24  and  O2_25 
REMARK    4  A    between atoms: C30_33  and  O4_34 
REMARK    5  A    between atoms: C32_37  and  C33_38 
REMARK    6  A    between atoms: C33_38  and  O6_40 
REMARK    7  A    between atoms: C33_38  and  C35_41 
REMARK    8  A    between atoms: C35_41  and  C37_43 
REMARK    9  A    between atoms: C35_41  and  C38_45 
REMARK   10  A    between atoms: C37_43  and  O7_44 
REMARK   11  A    between atoms: C38_45  and  C39_46 
REMARK   12  A    between atoms: C39_46  and  C40_47 
REMARK   13  A    between atoms: C43_51  and  N2_52 
ROOT
HETATM    1  C1  UNL     1      -5.146   3.605   8.624  1.00  0.00     0.010 C 
HETATM    2  C2  UNL     1      -4.565   3.153   9.965  1.00  0.00    -0.014 C 
HETATM    3  C3  UNL     1      -5.427   2.066  10.591  1.00  0.00     0.030 C 
HETATM    4  C4  UNL     1      -4.948   1.698  11.988  1.00  0.00     0.169 C 
HETATM    5  O1  UNL     1      -3.842   2.472  12.425  1.00  0.00    -0.377 OA
HETATM    6  C5  UNL     1      -3.985   3.920  12.368  1.00  0.00     0.094 C 
HETATM    7  C45 UNL     1      -4.433   4.335  10.936  1.00  0.00     0.045 C 
ENDROOT
BRANCH   6   8
HETATM    8  C6  UNL     1      -2.534   4.410  12.758  1.00  0.00     0.035 C 
HETATM    9  C7  UNL     1      -1.469   4.201  11.621  1.00  0.00     0.016 C 
HETATM   10  C8  UNL     1      -0.236   5.063  11.987  1.00  0.00     0.026 C 
HETATM   11  C9  UNL     1       0.251   6.020  10.898  1.00  0.00     0.013 C 
HETATM   12  C30 UNL     1      -0.665   5.806  13.259  1.00  0.00     0.094 C 
HETATM   13  C10 UNL     1       1.319   6.986  11.446  1.00  0.00     0.043 C 
HETATM   14  C11 UNL     1       0.913   7.644  12.743  1.00  0.00    -0.006 C 
HETATM   15  C12 UNL     1      -0.060   7.152  13.524  1.00  0.00    -0.030 C 
HETATM   16  C26 UNL     1       1.727   8.802  13.226  1.00  0.00     0.161 C 
HETATM   17  C13 UNL     1      -0.525   7.777  14.809  1.00  0.00     0.032 C 
HETATM   18  C14 UNL     1      -2.053   7.609  15.114  1.00  0.00    -0.004 C 
HETATM   19  C20 UNL     1      -0.113   9.273  14.998  1.00  0.00    -0.018 C 
HETATM   20  C15 UNL     1      -2.306   7.992  16.586  1.00  0.00     0.010 C 
HETATM   21  C27 UNL     1      -2.648   6.232  14.706  1.00  0.00     0.018 C 
HETATM   22  C16 UNL     1      -1.727   9.402  16.941  1.00  0.00    -0.009 C 
HETATM   23  C17 UNL     1      -2.563  10.510  16.295  1.00  0.00     0.005 C 
HETATM   24  C25 UNL     1      -0.240   9.462  16.542  1.00  0.00     0.002 C 
HETATM   25  C18 UNL     1      -1.981  11.128  15.030  1.00  0.00     0.001 C 
HETATM   26  C19 UNL     1      -1.051  10.249  14.201  1.00  0.00     0.011 C 
HETATM   27  C24 UNL     1       0.593  10.642  17.030  1.00  0.00     0.037 C 
HETATM   28  C23 UNL     1       2.093  10.381  16.761  1.00  0.00     0.119 C 
HETATM   29  C22 UNL     1       2.366   9.370  15.629  1.00  0.00     0.045 C 
HETATM   30  C21 UNL     1       1.338   9.545  14.507  1.00  0.00     0.072 C 
HETATM   31  C28 UNL     1      -2.223   5.861  13.248  1.00  0.00    -0.002 C 
HETATM   32  C29 UNL     1      -2.796   6.913  12.266  1.00  0.00     0.019 C 
HETATM   33  O3  UNL     1       2.737   9.123  12.600  1.00  0.00    -0.292 OA
BRANCH  28  34
HETATM   34  O2  UNL     1       2.694  11.638  16.447  1.00  0.00    -0.396 OA
HETATM   35  H32 UNL     1       3.634  11.479  16.264  1.00  0.00     0.210 HD
ENDBRANCH  28  34
BRANCH  12  36
HETATM   36  O4  UNL     1      -0.214   4.999  14.371  1.00  0.00    -0.384 OA
HETATM   37  H41 UNL     1      -0.204   4.063  14.110  1.00  0.00     0.211 HD
ENDBRANCH  12  36
ENDBRANCH   6   8
BRANCH   6  38
HETATM   38  C31 UNL     1      -4.963   4.301  13.482  1.00  0.00     0.189 A 
HETATM   39  O5  UNL     1      -5.450   5.639  13.449  1.00  0.00    -0.369 OA
HETATM   40  C32 UNL     1      -6.443   4.614  13.231  1.00  0.00     0.189 A 
BRANCH  40  41
HETATM   41  C33 UNL     1      -7.631   4.769  14.185  1.00  0.00     0.092 C 
HETATM   42  C34 UNL     1      -7.344   3.843  15.389  1.00  0.00     0.049 C 
BRANCH  41  43
HETATM   43  O6  UNL     1      -8.767   4.145  13.555  1.00  0.00    -0.387 OA
HETATM   44  H47 UNL     1      -8.769   4.466  12.634  1.00  0.00     0.210 HD
ENDBRANCH  41  43
BRANCH  41  45
HETATM   45  C35 UNL     1      -8.044   6.240  14.628  1.00  0.00     0.011 C 
HETATM   46  C36 UNL     1      -6.996   7.280  14.123  1.00  0.00     0.020 C 
BRANCH  45  47
HETATM   47  C37 UNL     1      -8.164   6.359  16.165  1.00  0.00     0.176 C 
BRANCH  47  48
HETATM   48  O7  UNL     1      -6.974   6.910  16.724  1.00  0.00    -0.400 OA
HETATM   49  H53 UNL     1      -6.670   6.308  17.430  1.00  0.00     0.209 HD
ENDBRANCH  47  48
ENDBRANCH  45  47
BRANCH  45  50
HETATM   50  C38 UNL     1      -9.383   6.700  13.922  1.00  0.00     0.019 C 
BRANCH  50  51
HETATM   51  C39 UNL     1     -10.386   7.537  14.740  1.00  0.00     0.039 C 
BRANCH  51  52
HETATM   52  C40 UNL     1     -11.618   7.874  13.924  1.00  0.00    -0.053 A 
HETATM   53  C41 UNL     1     -12.632   6.936  13.735  1.00  0.00     0.024 A 
HETATM   54  C42 UNL     1     -13.745   7.287  12.985  1.00  0.00     0.090 A 
HETATM   55  N1  UNL     1     -13.845   8.519  12.469  1.00  0.00    -0.353 N 
HETATM   56  C43 UNL     1     -12.921   9.470  12.653  1.00  0.00     0.098 A 
HETATM   57  H60 UNL     1     -14.656   8.752  11.903  1.00  0.00     0.166 HD
HETATM   58  C44 UNL     1     -11.765   9.144  13.358  1.00  0.00     0.055 A 
BRANCH  56  59
HETATM   59  N2  UNL     1     -13.083  10.706  12.056  1.00  0.00    -0.385 N 
HETATM   60  H61 UNL     1     -12.675  11.490  12.567  1.00  0.00     0.157 HD
HETATM   61  H62 UNL     1     -13.954  10.960  11.606  1.00  0.00     0.157 HD
ENDBRANCH  56  59
ENDBRANCH  51  52
ENDBRANCH  50  51
ENDBRANCH  45  50
ENDBRANCH  41  45
ENDBRANCH  40  41
ENDBRANCH   6  38
TORSDOF 13
ENDMDL
MODEL 5
REMARK minimizedAffinity -10.1564207
REMARK CNNscore 0.25604561
REMARK CNNaffinity 7.70635605
REMARK  13 active torsions:
REMARK  status: ('A' for Active; 'I' for Inactive)
REMARK    1  A    between atoms: C5_6  and  C6_7 
REMARK    2  A    between atoms: C5_6  and  C31_35 
REMARK    3  A    between atoms: C23_24  and  O2_25 
REMARK    4  A    between atoms: C30_33  and  O4_34 
REMARK    5  A    between atoms: C32_37  and  C33_38 
REMARK    6  A    between atoms: C33_38  and  O6_40 
REMARK    7  A    between atoms: C33_38  and  C35_41 
REMARK    8  A    between atoms: C35_41  and  C37_43 
REMARK    9  A    between atoms: C35_41  and  C38_45 
REMARK   10  A    between atoms: C37_43  and  O7_44 
REMARK   11  A    between atoms: C38_45  and  C39_46 
REMARK   12  A    between atoms: C39_46  and  C40_47 
REMARK   13  A    between atoms: C43_51  and  N2_52 
ROOT
HETATM    1  C1  UNL     1      -2.588   3.637  10.436  1.00  0.00     0.010 C 
HETATM    2  C2  UNL     1      -2.491   4.259  11.831  1.00  0.00    -0.014 C 
HETATM    3  C3  UNL     1      -3.444   3.572  12.798  1.00  0.00     0.030 C 
HETATM    4  C4  UNL     1      -3.467   4.261  14.155  1.00  0.00     0.169 C 
HETATM    5  O1  UNL     1      -2.642   5.414  14.214  1.00  0.00    -0.377 OA
HETATM    6  C5  UNL     1      -2.851   6.430  13.191  1.00  0.00     0.094 C 
HETATM    7  C45 UNL     1      -2.791   5.763  11.786  1.00  0.00     0.045 C 
ENDROOT
BRANCH   6   8
HETATM    8  C6  UNL     1      -1.669   7.437  13.481  1.00  0.00     0.035 C 
HETATM    9  C7  UNL     1      -1.392   7.663  15.012  1.00  0.00     0.016 C 
HETATM   10  C8  UNL     1      -0.002   8.334  15.130  1.00  0.00     0.026 C 
HETATM   11  C9  UNL     1       0.990   7.645  16.070  1.00  0.00     0.013 C 
HETATM   12  C30 UNL     1       0.513   8.383  13.685  1.00  0.00     0.094 C 
HETATM   13  C10 UNL     1       2.399   8.252  15.930  1.00  0.00     0.043 C 
HETATM   14  C11 UNL     1       2.853   8.370  14.495  1.00  0.00    -0.006 C 
HETATM   15  C12 UNL     1       1.994   8.336  13.465  1.00  0.00    -0.030 C 
HETATM   16  C26 UNL     1       4.294   8.674  14.238  1.00  0.00     0.161 C 
HETATM   17  C13 UNL     1       2.390   8.422  12.017  1.00  0.00     0.032 C 
HETATM   18  C14 UNL     1       1.495   7.590  11.035  1.00  0.00    -0.004 C 
HETATM   19  C20 UNL     1       3.898   8.128  11.730  1.00  0.00    -0.018 C 
HETATM   20  C15 UNL     1       1.803   8.037   9.592  1.00  0.00     0.010 C 
HETATM   21  C27 UNL     1      -0.019   7.581  11.387  1.00  0.00     0.018 C 
HETATM   22  C16 UNL     1       3.333   7.991   9.268  1.00  0.00    -0.009 C 
HETATM   23  C17 UNL     1       3.817   6.544   9.141  1.00  0.00     0.005 C 
HETATM   24  C25 UNL     1       4.107   8.792  10.333  1.00  0.00     0.002 C 
HETATM   25  C18 UNL     1       4.551   5.982  10.352  1.00  0.00     0.001 C 
HETATM   26  C19 UNL     1       4.206   6.588  11.708  1.00  0.00     0.011 C 
HETATM   27  C24 UNL     1       5.578   9.102  10.078  1.00  0.00     0.037 C 
HETATM   28  C23 UNL     1       6.091  10.130  11.112  1.00  0.00     0.119 C 
HETATM   29  C22 UNL     1       5.279  10.169  12.422  1.00  0.00     0.045 C 
HETATM   30  C21 UNL     1       4.829   8.757  12.806  1.00  0.00     0.072 C 
HETATM   31  C28 UNL     1      -0.228   7.257  12.902  1.00  0.00    -0.002 C 
HETATM   32  C29 UNL     1       0.316   5.839  13.200  1.00  0.00     0.019 C 
HETATM   33  O3  UNL     1       5.037   8.897  15.195  1.00  0.00    -0.292 OA
BRANCH  28  34
HETATM   34  O2  UNL     1       7.453   9.806  11.393  1.00  0.00    -0.396 OA
HETATM   35  H32 UNL     1       7.779  10.439  12.052  1.00  0.00     0.210 HD
ENDBRANCH  28  34
BRANCH  12  36
HETATM   36  O4  UNL     1       0.126   9.675  13.162  1.00  0.00    -0.384 OA
HETATM   37  H41 UNL     1      -0.693   9.970  13.595  1.00  0.00     0.211 HD
ENDBRANCH  12  36
ENDBRANCH   6   8
BRANCH   6  38
HETATM   38  C31 UNL     1      -4.183   7.107  13.523  1.00  0.00     0.189 A 
HETATM   39  O5  UNL     1      -5.341   6.520  12.937  1.00  0.00    -0.369 OA
HETATM   40  C32 UNL     1      -5.272   6.446  14.378  1.00  0.00     0.189 A 
BRANCH  40  41
HETATM   41  C33 UNL     1      -6.540   7.007  15.030  1.00  0.00     0.092 C 
HETATM   42  C34 UNL     1      -6.542   8.525  14.738  1.00  0.00     0.049 C 
BRANCH  41  43
HETATM   43  O6  UNL     1      -6.344   6.947  16.458  1.00  0.00    -0.387 OA
HETATM   44  H47 UNL     1      -5.992   6.057  16.640  1.00  0.00     0.210 HD
ENDBRANCH  41  43
BRANCH  41  45
HETATM   45  C35 UNL     1      -7.927   6.313  14.681  1.00  0.00     0.011 C 
HETATM   46  C36 UNL     1      -8.466   5.515  15.909  1.00  0.00     0.020 C 
BRANCH  45  47
HETATM   47  C37 UNL     1      -7.797   5.351  13.478  1.00  0.00     0.176 C 
BRANCH  47  48
HETATM   48  O7  UNL     1      -8.263   4.047  13.820  1.00  0.00    -0.400 OA
HETATM   49  H53 UNL     1      -7.558   3.411  13.595  1.00  0.00     0.209 HD
ENDBRANCH  47  48
ENDBRANCH  45  47
BRANCH  45  50
HETATM   50  C38 UNL     1      -9.060   7.388  14.421  1.00  0.00     0.019 C 
BRANCH  50  51
HETATM   51  C39 UNL     1     -10.419   7.196  15.123  1.00  0.00     0.039 C 
BRANCH  51  52
HETATM   52  C40 UNL     1     -11.439   8.205  14.634  1.00  0.00    -0.053 A 
HETATM   53  C41 UNL     1     -12.375   8.759  15.506  1.00  0.00     0.024 A 
HETATM   54  C42 UNL     1     -13.288   9.682  15.018  1.00  0.00     0.090 A 
HETATM   55  N1  UNL     1     -13.252  10.046  13.729  1.00  0.00    -0.353 N 
HETATM   56  C43 UNL     1     -12.350   9.576  12.859  1.00  0.00     0.098 A 
HETATM   57  H60 UNL     1     -13.943  10.705  13.384  1.00  0.00     0.166 HD
HETATM   58  C44 UNL     1     -11.447   8.610  13.295  1.00  0.00     0.055 A 
BRANCH  56  59
HETATM   59  N2  UNL     1     -12.404   9.974  11.536  1.00  0.00    -0.385 N 
HETATM   60  H61 UNL     1     -11.504  10.002  11.056  1.00  0.00     0.157 HD
HETATM   61  H62 UNL     1     -13.014  10.727  11.241  1.00  0.00     0.157 HD
ENDBRANCH  56  59
ENDBRANCH  51  52
ENDBRANCH  50  51
ENDBRANCH  45  50
ENDBRANCH  41  45
ENDBRANCH  40  41
ENDBRANCH   6  38
TORSDOF 13
ENDMDL
MODEL 6
REMARK minimizedAffinity -10.0337648
REMARK CNNscore 0.200430661
REMARK CNNaffinity 7.22818184
REMARK  13 active torsions:
REMARK  status: ('A' for Active; 'I' for Inactive)
REMARK    1  A    between atoms: C5_6  and  C6_7 
REMARK    2  A    between atoms: C5_6  and  C31_35 
REMARK    3  A    between atoms: C23_24  and  O2_25 
REMARK    4  A    between atoms: C30_33  and  O4_34 
REMARK    5  A    between atoms: C32_37  and  C33_38 
REMARK    6  A    between atoms: C33_38  and  O6_40 
REMARK    7  A    between atoms: C33_38  and  C35_41 
REMARK    8  A    between atoms: C35_41  and  C37_43 
REMARK    9  A    between atoms: C35_41  and  C38_45 
REMARK   10  A    between atoms: C37_43  and  O7_44 
REMARK   11  A    between atoms: C38_45  and  C39_46 
REMARK   12  A    between atoms: C39_46  and  C40_47 
REMARK   13  A    between atoms: C43_51  and  N2_52 
ROOT
HETATM    1  C1  UNL     1      -4.286  13.325  19.468  1.00  0.00     0.010 C 
HETATM    2  C2  UNL     1      -3.384  13.121  18.249  1.00  0.00    -0.014 C 
HETATM    3  C3  UNL     1      -4.205  12.743  17.025  1.00  0.00     0.030 C 
HETATM    4  C4  UNL     1      -3.320  12.401  15.835  1.00  0.00     0.169 C 
HETATM    5  O1  UNL     1      -1.933  12.458  16.130  1.00  0.00    -0.377 OA
HETATM    6  C5  UNL     1      -1.468  11.684  17.272  1.00  0.00     0.094 C 
HETATM    7  C45 UNL     1      -2.326  12.042  18.520  1.00  0.00     0.045 C 
ENDROOT
BRANCH   6   8
HETATM    8  C6  UNL     1       0.045  12.128  17.378  1.00  0.00     0.035 C 
HETATM    9  C7  UNL     1       0.337  13.532  16.732  1.00  0.00     0.016 C 
HETATM   10  C8  UNL     1       1.722  13.992  17.249  1.00  0.00     0.026 C 
HETATM   11  C9  UNL     1       1.764  15.385  17.881  1.00  0.00     0.013 C 
HETATM   12  C30 UNL     1       2.133  12.896  18.241  1.00  0.00     0.094 C 
HETATM   13  C10 UNL     1       3.120  15.641  18.568  1.00  0.00     0.043 C 
HETATM   14  C11 UNL     1       3.546  14.512  19.475  1.00  0.00    -0.006 C 
HETATM   15  C12 UNL     1       3.024  13.280  19.383  1.00  0.00    -0.030 C 
HETATM   16  C26 UNL     1       4.689  14.757  20.408  1.00  0.00     0.161 C 
HETATM   17  C13 UNL     1       3.390  12.126  20.275  1.00  0.00     0.032 C 
HETATM   18  C14 UNL     1       2.219  11.133  20.586  1.00  0.00    -0.004 C 
HETATM   19  C20 UNL     1       4.107  12.527  21.604  1.00  0.00    -0.018 C 
HETATM   20  C15 UNL     1       2.813   9.854  21.212  1.00  0.00     0.010 C 
HETATM   21  C27 UNL     1       1.259  10.867  19.393  1.00  0.00     0.018 C 
HETATM   22  C16 UNL     1       3.740  10.166  22.434  1.00  0.00    -0.009 C 
HETATM   23  C17 UNL     1       2.912  10.618  23.640  1.00  0.00     0.005 C 
HETATM   24  C25 UNL     1       4.808  11.195  22.019  1.00  0.00     0.002 C 
HETATM   25  C18 UNL     1       2.885  12.118  23.900  1.00  0.00     0.001 C 
HETATM   26  C19 UNL     1       3.094  13.029  22.694  1.00  0.00     0.011 C 
HETATM   27  C24 UNL     1       5.974  11.450  22.968  1.00  0.00     0.037 C 
HETATM   28  C23 UNL     1       7.060  12.293  22.261  1.00  0.00     0.119 C 
HETATM   29  C22 UNL     1       6.538  13.132  21.077  1.00  0.00     0.045 C 
HETATM   30  C21 UNL     1       5.139  13.671  21.389  1.00  0.00     0.072 C 
HETATM   31  C28 UNL     1       0.820  12.214  18.733  1.00  0.00    -0.002 C 
HETATM   32  C29 UNL     1       0.037  13.058  19.767  1.00  0.00     0.019 C 
HETATM   33  O3  UNL     1       5.290  15.830  20.347  1.00  0.00    -0.292 OA
BRANCH  28  34
HETATM   34  O2  UNL     1       7.642  13.149  23.245  1.00  0.00    -0.396 OA
HETATM   35  H32 UNL     1       8.316  13.691  22.805  1.00  0.00     0.210 HD
ENDBRANCH  28  34
BRANCH  12  36
HETATM   36  O4  UNL     1       2.923  11.946  17.490  1.00  0.00    -0.384 OA
HETATM   37  H41 UNL     1       2.629  11.939  16.563  1.00  0.00     0.211 HD
ENDBRANCH  12  36
ENDBRANCH   6   8
BRANCH   6  38
HETATM   38  C31 UNL     1      -1.532  10.213  16.850  1.00  0.00     0.189 A 
HETATM   39  O5  UNL     1      -2.270   9.352  17.712  1.00  0.00    -0.369 OA
HETATM   40  C32 UNL     1      -2.825   9.527  16.390  1.00  0.00     0.189 A 
BRANCH  40  41
HETATM   41  C33 UNL     1      -3.078   8.180  15.705  1.00  0.00     0.092 C 
HETATM   42  C34 UNL     1      -4.604   8.093  15.472  1.00  0.00     0.049 C 
BRANCH  41  43
HETATM   43  O6  UNL     1      -2.836   7.153  16.686  1.00  0.00    -0.387 OA
HETATM   44  H47 UNL     1      -1.994   7.390  17.116  1.00  0.00     0.210 HD
ENDBRANCH  41  43
BRANCH  41  45
HETATM   45  C35 UNL     1      -2.238   7.839  14.399  1.00  0.00     0.011 C 
HETATM   46  C36 UNL     1      -0.956   7.029  14.766  1.00  0.00     0.020 C 
BRANCH  45  47
HETATM   47  C37 UNL     1      -1.819   9.120  13.639  1.00  0.00     0.176 C 
BRANCH  47  48
HETATM   48  O7  UNL     1      -2.344   9.115  12.313  1.00  0.00    -0.400 OA
HETATM   49  H53 UNL     1      -1.601   9.271  11.700  1.00  0.00     0.209 HD
ENDBRANCH  47  48
ENDBRANCH  45  47
BRANCH  45  50
HETATM   50  C38 UNL     1      -3.030   6.854  13.445  1.00  0.00     0.019 C 
BRANCH  50  51
HETATM   51  C39 UNL     1      -2.983   5.346  13.758  1.00  0.00     0.039 C 
BRANCH  51  52
HETATM   52  C40 UNL     1      -3.026   4.517  12.489  1.00  0.00    -0.053 A 
HETATM   53  C41 UNL     1      -1.860   4.223  11.785  1.00  0.00     0.024 A 
HETATM   54  C42 UNL     1      -1.943   3.458  10.630  1.00  0.00     0.090 A 
HETATM   55  N1  UNL     1      -3.130   2.996  10.215  1.00  0.00    -0.353 N 
HETATM   56  C43 UNL     1      -4.275   3.216  10.874  1.00  0.00     0.098 A 
HETATM   57  H60 UNL     1      -3.176   2.458   9.356  1.00  0.00     0.166 HD
HETATM   58  C44 UNL     1      -4.243   4.020  12.011  1.00  0.00     0.055 A 
BRANCH  56  59
HETATM   59  N2  UNL     1      -5.464   2.735  10.358  1.00  0.00    -0.385 N 
HETATM   60  H61 UNL     1      -6.172   2.497  11.055  1.00  0.00     0.157 HD
HETATM   61  H62 UNL     1      -5.473   2.094   9.575  1.00  0.00     0.157 HD
ENDBRANCH  56  59
ENDBRANCH  51  52
ENDBRANCH  50  51
ENDBRANCH  45  50
ENDBRANCH  41  45
ENDBRANCH  40  41
ENDBRANCH   6  38
TORSDOF 13
ENDMDL
MODEL 7
REMARK minimizedAffinity -9.37012672
REMARK CNNscore 0.197700396
REMARK CNNaffinity 7.48506546
REMARK  13 active torsions:
REMARK  status: ('A' for Active; 'I' for Inactive)
REMARK    1  A    between atoms: C5_6  and  C6_7 
REMARK    2  A    between atoms: C5_6  and  C31_35 
REMARK    3  A    between atoms: C23_24  and  O2_25 
REMARK    4  A    between atoms: C30_33  and  O4_34 
REMARK    5  A    between atoms: C32_37  and  C33_38 
REMARK    6  A    between atoms: C33_38  and  O6_40 
REMARK    7  A    between atoms: C33_38  and  C35_41 
REMARK    8  A    between atoms: C35_41  and  C37_43 
REMARK    9  A    between atoms: C35_41  and  C38_45 
REMARK   10  A    between atoms: C37_43  and  O7_44 
REMARK   11  A    between atoms: C38_45  and  C39_46 
REMARK   12  A    between atoms: C39_46  and  C40_47 
REMARK   13  A    between atoms: C43_51  and  N2_52 
ROOT
HETATM    1  C1  UNL     1      -0.544  10.552  19.172  1.00  0.00     0.010 C 
HETATM    2  C2  UNL     1      -0.299  10.764  17.677  1.00  0.00    -0.014 C 
HETATM    3  C3  UNL     1       0.612  11.960  17.442  1.00  0.00     0.030 C 
HETATM    4  C4  UNL     1       0.759  12.275  15.960  1.00  0.00     0.169 C 
HETATM    5  O1  UNL     1      -0.014  11.428  15.125  1.00  0.00    -0.377 OA
HETATM    6  C5  UNL     1      -1.436  11.327  15.422  1.00  0.00     0.094 C 
HETATM    7  C45 UNL     1      -1.622  10.962  16.923  1.00  0.00     0.045 C 
ENDROOT
BRANCH   6   8
HETATM    8  C6  UNL     1      -1.902  10.198  14.419  1.00  0.00     0.035 C 
HETATM    9  C7  UNL     1      -0.727   9.298  13.890  1.00  0.00     0.016 C 
HETATM   10  C8  UNL     1      -1.366   8.036  13.260  1.00  0.00     0.026 C 
HETATM   11  C9  UNL     1      -0.835   6.697  13.773  1.00  0.00     0.013 C 
HETATM   12  C30 UNL     1      -2.867   8.204  13.531  1.00  0.00     0.094 C 
HETATM   13  C10 UNL     1      -1.696   5.526  13.261  1.00  0.00     0.043 C 
HETATM   14  C11 UNL     1      -3.176   5.748  13.460  1.00  0.00    -0.006 C 
HETATM   15  C12 UNL     1      -3.697   6.965  13.677  1.00  0.00    -0.030 C 
HETATM   16  C26 UNL     1      -4.091   4.581  13.268  1.00  0.00     0.161 C 
HETATM   17  C13 UNL     1      -5.156   7.242  13.908  1.00  0.00     0.032 C 
HETATM   18  C14 UNL     1      -5.458   8.423  14.893  1.00  0.00    -0.004 C 
HETATM   19  C20 UNL     1      -6.006   5.993  14.310  1.00  0.00    -0.018 C 
HETATM   20  C15 UNL     1      -6.948   8.799  14.767  1.00  0.00     0.010 C 
HETATM   21  C27 UNL     1      -4.487   9.631  14.774  1.00  0.00     0.018 C 
HETATM   22  C16 UNL     1      -7.890   7.561  14.935  1.00  0.00    -0.009 C 
HETATM   23  C17 UNL     1      -7.919   7.096  16.394  1.00  0.00     0.005 C 
HETATM   24  C25 UNL     1      -7.457   6.451  13.959  1.00  0.00     0.002 C 
HETATM   25  C18 UNL     1      -7.065   5.877  16.717  1.00  0.00     0.001 C 
HETATM   26  C19 UNL     1      -5.847   5.635  15.831  1.00  0.00     0.011 C 
HETATM   27  C24 UNL     1      -8.385   5.258  13.762  1.00  0.00     0.037 C 
HETATM   28  C23 UNL     1      -7.911   4.408  12.560  1.00  0.00     0.119 C 
HETATM   29  C22 UNL     1      -6.416   4.573  12.220  1.00  0.00     0.045 C 
HETATM   30  C21 UNL     1      -5.597   4.727  13.504  1.00  0.00     0.072 C 
HETATM   31  C28 UNL     1      -3.002   9.143  14.768  1.00  0.00    -0.002 C 
HETATM   32  C29 UNL     1      -2.691   8.440  16.112  1.00  0.00     0.019 C 
HETATM   33  O3  UNL     1      -3.621   3.512  12.878  1.00  0.00    -0.292 OA
BRANCH  28  34
HETATM   34  O2  UNL     1      -8.193   3.043  12.868  1.00  0.00    -0.396 OA
HETATM   35  H32 UNL     1      -7.886   2.501  12.123  1.00  0.00     0.210 HD
ENDBRANCH  28  34
BRANCH  12  36
HETATM   36  O4  UNL     1      -3.419   8.855  12.363  1.00  0.00    -0.384 OA
HETATM   37  H41 UNL     1      -2.742   9.421  11.956  1.00  0.00     0.211 HD
ENDBRANCH  12  36
ENDBRANCH   6   8
BRANCH   6  38
HETATM   38  C31 UNL     1      -2.060  12.661  15.004  1.00  0.00     0.189 A 
HETATM   39  O5  UNL     1      -3.474  12.659  14.837  1.00  0.00    -0.369 OA
HETATM   40  C32 UNL     1      -2.980  13.481  15.917  1.00  0.00     0.189 A 
BRANCH  40  41
HETATM   41  C33 UNL     1      -3.504  14.917  15.816  1.00  0.00     0.092 C 
HETATM   42  C34 UNL     1      -4.127  15.052  14.408  1.00  0.00     0.049 C 
BRANCH  41  43
HETATM   43  O6  UNL     1      -2.354  15.784  15.751  1.00  0.00    -0.387 OA
HETATM   44  H47 UNL     1      -1.751  15.478  16.453  1.00  0.00     0.210 HD
ENDBRANCH  41  43
BRANCH  41  45
HETATM   45  C35 UNL     1      -4.468  15.442  16.966  1.00  0.00     0.011 C 
HETATM   46  C36 UNL     1      -5.583  16.357  16.372  1.00  0.00     0.020 C 
BRANCH  45  47
HETATM   47  C37 UNL     1      -3.692  16.236  18.042  1.00  0.00     0.176 C 
BRANCH  47  48
HETATM   48  O7  UNL     1      -2.509  15.539  18.429  1.00  0.00    -0.400 OA
HETATM   49  H53 UNL     1      -2.517  15.458  19.402  1.00  0.00     0.209 HD
ENDBRANCH  47  48
ENDBRANCH  45  47
BRANCH  45  50
HETATM   50  C38 UNL     1      -5.283  14.254  17.622  1.00  0.00     0.019 C 
BRANCH  50  51
HETATM   51  C39 UNL     1      -5.007  13.912  19.099  1.00  0.00     0.039 C 
BRANCH  51  52
HETATM   52  C40 UNL     1      -6.298  13.735  19.875  1.00  0.00    -0.053 A 
HETATM   53  C41 UNL     1      -7.535  13.842  19.242  1.00  0.00     0.024 A 
HETATM   54  C42 UNL     1      -8.692  13.669  19.988  1.00  0.00     0.090 A 
HETATM   55  N1  UNL     1      -8.612  13.384  21.294  1.00  0.00    -0.353 N 
HETATM   56  C43 UNL     1      -7.450  13.231  21.942  1.00  0.00     0.098 A 
HETATM   57  H60 UNL     1      -9.469  13.283  21.830  1.00  0.00     0.166 HD
HETATM   58  C44 UNL     1      -6.266  13.445  21.242  1.00  0.00     0.055 A 
BRANCH  56  59
HETATM   59  N2  UNL     1      -7.455  12.973  23.301  1.00  0.00    -0.385 N 
HETATM   60  H61 UNL     1      -6.668  12.416  23.637  1.00  0.00     0.157 HD
HETATM   61  H62 UNL     1      -8.313  12.748  23.788  1.00  0.00     0.157 HD
ENDBRANCH  56  59
ENDBRANCH  51  52
ENDBRANCH  50  51
ENDBRANCH  45  50
ENDBRANCH  41  45
ENDBRANCH  40  41
ENDBRANCH   6  38
TORSDOF 13
ENDMDL
MODEL 8
REMARK minimizedAffinity -10.8326225
REMARK CNNscore 0.195158556
REMARK CNNaffinity 7.31577253
REMARK  13 active torsions:
REMARK  status: ('A' for Active; 'I' for Inactive)
REMARK    1  A    between atoms: C5_6  and  C6_7 
REMARK    2  A    between atoms: C5_6  and  C31_35 
REMARK    3  A    between atoms: C23_24  and  O2_25 
REMARK    4  A    between atoms: C30_33  and  O4_34 
REMARK    5  A    between atoms: C32_37  and  C33_38 
REMARK    6  A    between atoms: C33_38  and  O6_40 
REMARK    7  A    between atoms: C33_38  and  C35_41 
REMARK    8  A    between atoms: C35_41  and  C37_43 
REMARK    9  A    between atoms: C35_41  and  C38_45 
REMARK   10  A    between atoms: C37_43  and  O7_44 
REMARK   11  A    between atoms: C38_45  and  C39_46 
REMARK   12  A    between atoms: C39_46  and  C40_47 
REMARK   13  A    between atoms: C43_51  and  N2_52 
ROOT
HETATM    1  C1  UNL     1       2.079   7.706   6.893  1.00  0.00     0.010 C 
HETATM    2  C2  UNL     1       2.487   7.376   8.330  1.00  0.00    -0.014 C 
HETATM    3  C3  UNL     1       2.740   5.885   8.493  1.00  0.00     0.030 C 
HETATM    4  C4  UNL     1       3.012   5.512   9.944  1.00  0.00     0.169 C 
HETATM    5  O1  UNL     1       2.925   6.615  10.833  1.00  0.00    -0.377 OA
HETATM    6  C5  UNL     1       1.699   7.399  10.795  1.00  0.00     0.094 C 
HETATM    7  C45 UNL     1       1.413   7.833   9.328  1.00  0.00     0.045 C 
ENDROOT
BRANCH   6   8
HETATM    8  C6  UNL     1       2.042   8.595  11.769  1.00  0.00     0.035 C 
HETATM    9  C7  UNL     1       0.927   8.876  12.841  1.00  0.00     0.016 C 
HETATM   10  C8  UNL     1       1.561   9.775  13.932  1.00  0.00     0.026 C 
HETATM   11  C9  UNL     1       1.418   9.272  15.370  1.00  0.00     0.013 C 
HETATM   12  C30 UNL     1       3.029   9.899  13.507  1.00  0.00     0.094 C 
HETATM   13  C10 UNL     1       2.279  10.107  16.337  1.00  0.00     0.043 C 
HETATM   14  C11 UNL     1       3.699  10.289  15.858  1.00  0.00    -0.006 C 
HETATM   15  C12 UNL     1       4.057  10.102  14.579  1.00  0.00    -0.030 C 
HETATM   16  C26 UNL     1       4.701  10.831  16.827  1.00  0.00     0.161 C 
HETATM   17  C13 UNL     1       5.457  10.241  14.052  1.00  0.00     0.032 C 
HETATM   18  C14 UNL     1       5.827   9.262  12.885  1.00  0.00    -0.004 C 
HETATM   19  C20 UNL     1       6.576  10.206  15.143  1.00  0.00    -0.018 C 
HETATM   20  C15 UNL     1       7.141   9.743  12.238  1.00  0.00     0.010 C 
HETATM   21  C27 UNL     1       4.679   8.999  11.871  1.00  0.00     0.018 C 
HETATM   22  C16 UNL     1       8.280   9.955  13.290  1.00  0.00    -0.009 C 
HETATM   23  C17 UNL     1       8.791   8.610  13.814  1.00  0.00     0.005 C 
HETATM   24  C25 UNL     1       7.776  10.884  14.412  1.00  0.00     0.002 C 
HETATM   25  C18 UNL     1       8.270   8.191  15.183  1.00  0.00     0.001 C 
HETATM   26  C19 UNL     1       6.909   8.740  15.599  1.00  0.00     0.011 C 
HETATM   27  C24 UNL     1       8.793  11.437  15.404  1.00  0.00     0.037 C 
HETATM   28  C23 UNL     1       8.146  12.546  16.265  1.00  0.00     0.119 C 
HETATM   29  C22 UNL     1       6.609  12.457  16.360  1.00  0.00     0.045 C 
HETATM   30  C21 UNL     1       6.168  10.992  16.422  1.00  0.00     0.072 C 
HETATM   31  C28 UNL     1       3.352   8.657  12.621  1.00  0.00    -0.002 C 
HETATM   32  C29 UNL     1       3.546   7.354  13.434  1.00  0.00     0.019 C 
HETATM   33  O3  UNL     1       4.320  11.185  17.944  1.00  0.00    -0.292 OA
BRANCH  28  34
HETATM   34  O2  UNL     1       8.720  12.459  17.570  1.00  0.00    -0.396 OA
HETATM   35  H32 UNL     1       8.308  13.145  18.121  1.00  0.00     0.210 HD
ENDBRANCH  28  34
BRANCH  12  36
HETATM   36  O4  UNL     1       3.120  11.102  12.709  1.00  0.00    -0.384 OA
HETATM   37  H41 UNL     1       2.273  11.257  12.257  1.00  0.00     0.211 HD
ENDBRANCH  12  36
ENDBRANCH   6   8
BRANCH   6  38
HETATM   38  C31 UNL     1       0.610   6.529  11.430  1.00  0.00     0.189 A 
HETATM   39  O5  UNL     1       0.953   5.911  12.666  1.00  0.00    -0.369 OA
HETATM   40  C32 UNL     1      -0.102   6.896  12.738  1.00  0.00     0.189 A 
BRANCH  40  41
HETATM   41  C33 UNL     1      -1.355   6.329  13.412  1.00  0.00     0.092 C 
HETATM   42  C34 UNL     1      -0.859   5.309  14.462  1.00  0.00     0.049 C 
BRANCH  41  43
HETATM   43  O6  UNL     1      -2.023   5.501  12.439  1.00  0.00    -0.387 OA
HETATM   44  H47 UNL     1      -2.041   6.022  11.616  1.00  0.00     0.210 HD
ENDBRANCH  41  43
BRANCH  41  45
HETATM   45  C35 UNL     1      -2.411   7.357  14.008  1.00  0.00     0.011 C 
HETATM   46  C36 UNL     1      -2.600   8.571  13.046  1.00  0.00     0.020 C 
BRANCH  45  47
HETATM   47  C37 UNL     1      -1.973   7.884  15.395  1.00  0.00     0.176 C 
BRANCH  47  48
HETATM   48  O7  UNL     1      -2.788   7.331  16.426  1.00  0.00    -0.400 OA
HETATM   49  H53 UNL     1      -3.135   8.071  16.959  1.00  0.00     0.209 HD
ENDBRANCH  47  48
ENDBRANCH  45  47
BRANCH  45  50
HETATM   50  C38 UNL     1      -3.859   6.722  14.081  1.00  0.00     0.019 C 
BRANCH  50  51
HETATM   51  C39 UNL     1      -4.204   5.588  13.096  1.00  0.00     0.039 C 
BRANCH  51  52
HETATM   52  C40 UNL     1      -5.536   4.948  13.438  1.00  0.00    -0.053 A 
HETATM   53  C41 UNL     1      -6.027   3.875  12.696  1.00  0.00     0.024 A 
HETATM   54  C42 UNL     1      -7.247   3.316  13.045  1.00  0.00     0.090 A 
HETATM   55  N1  UNL     1      -7.929   3.793  14.094  1.00  0.00    -0.353 N 
HETATM   56  C43 UNL     1      -7.485   4.795  14.864  1.00  0.00     0.098 A 
HETATM   57  H60 UNL     1      -8.832   3.387  14.322  1.00  0.00     0.166 HD
HETATM   58  C44 UNL     1      -6.288   5.417  14.519  1.00  0.00     0.055 A 
BRANCH  56  59
HETATM   59  N2  UNL     1      -8.268   5.254  15.908  1.00  0.00    -0.385 N 
HETATM   60  H61 UNL     1      -7.750   5.627  16.704  1.00  0.00     0.157 HD
HETATM   61  H62 UNL     1      -9.099   4.754  16.197  1.00  0.00     0.157 HD
ENDBRANCH  56  59
ENDBRANCH  51  52
ENDBRANCH  50  51
ENDBRANCH  45  50
ENDBRANCH  41  45
ENDBRANCH  40  41
ENDBRANCH   6  38
TORSDOF 13
ENDMDL
MODEL 9
REMARK minimizedAffinity -10.6879673
REMARK CNNscore 0.188990489
REMARK CNNaffinity 7.29396963
REMARK  13 active torsions:
REMARK  status: ('A' for Active; 'I' for Inactive)
REMARK    1  A    between atoms: C5_6  and  C6_7 
REMARK    2  A    between atoms: C5_6  and  C31_35 
REMARK    3  A    between atoms: C23_24  and  O2_25 
REMARK    4  A    between atoms: C30_33  and  O4_34 
REMARK    5  A    between atoms: C32_37  and  C33_38 
REMARK    6  A    between atoms: C33_38  and  O6_40 
REMARK    7  A    between atoms: C33_38  and  C35_41 
REMARK    8  A    between atoms: C35_41  and  C37_43 
REMARK    9  A    between atoms: C35_41  and  C38_45 
REMARK   10  A    between atoms: C37_43  and  O7_44 
REMARK   11  A    between atoms: C38_45  and  C39_46 
REMARK   12  A    between atoms: C39_46  and  C40_47 
REMARK   13  A    between atoms: C43_51  and  N2_52 
ROOT
HETATM    1  C1  UNL     1      -1.985  14.560  15.235  1.00  0.00     0.010 C 
HETATM    2  C2  UNL     1      -2.028  13.085  15.640  1.00  0.00    -0.014 C 
HETATM    3  C3  UNL     1      -1.638  12.912  17.100  1.00  0.00     0.030 C 
HETATM    4  C4  UNL     1      -1.539  11.444  17.490  1.00  0.00     0.169 C 
HETATM    5  O1  UNL     1      -1.780  10.558  16.408  1.00  0.00    -0.377 OA
HETATM    6  C5  UNL     1      -0.988  10.756  15.202  1.00  0.00     0.094 C 
HETATM    7  C45 UNL     1      -1.102  12.242  14.752  1.00  0.00     0.045 C 
ENDROOT
BRANCH   6   8
HETATM    8  C6  UNL     1      -1.646   9.724  14.203  1.00  0.00     0.035 C 
HETATM    9  C7  UNL     1      -0.619   8.718  13.567  1.00  0.00     0.016 C 
HETATM   10  C8  UNL     1      -1.439   7.561  12.947  1.00  0.00     0.026 C 
HETATM   11  C9  UNL     1      -1.032   6.152  13.383  1.00  0.00     0.013 C 
HETATM   12  C30 UNL     1      -2.890   7.885  13.327  1.00  0.00     0.094 C 
HETATM   13  C10 UNL     1      -2.053   5.105  12.898  1.00  0.00     0.043 C 
HETATM   14  C11 UNL     1      -3.482   5.484  13.207  1.00  0.00    -0.006 C 
HETATM   15  C12 UNL     1      -3.845   6.742  13.495  1.00  0.00    -0.030 C 
HETATM   16  C26 UNL     1      -4.535   4.435  13.046  1.00  0.00     0.161 C 
HETATM   17  C13 UNL     1      -5.244   7.174  13.836  1.00  0.00     0.032 C 
HETATM   18  C14 UNL     1      -5.342   8.344  14.873  1.00  0.00    -0.004 C 
HETATM   19  C20 UNL     1      -6.202   6.014  14.260  1.00  0.00    -0.018 C 
HETATM   20  C15 UNL     1      -6.784   8.889  14.863  1.00  0.00     0.010 C 
HETATM   21  C27 UNL     1      -4.250   9.439  14.721  1.00  0.00     0.018 C 
HETATM   22  C16 UNL     1      -7.849   7.759  15.061  1.00  0.00    -0.009 C 
HETATM   23  C17 UNL     1      -7.834   7.247  16.504  1.00  0.00     0.005 C 
HETATM   24  C25 UNL     1      -7.611   6.644  14.025  1.00  0.00     0.002 C 
HETATM   25  C18 UNL     1      -7.105   5.929  16.731  1.00  0.00     0.001 C 
HETATM   26  C19 UNL     1      -5.985   5.585  15.755  1.00  0.00     0.011 C 
HETATM   27  C24 UNL     1      -8.682   5.570  13.859  1.00  0.00     0.037 C 
HETATM   28  C23 UNL     1      -8.389   4.718  12.603  1.00  0.00     0.119 C 
HETATM   29  C22 UNL     1      -6.910   4.726  12.164  1.00  0.00     0.045 C 
HETATM   30  C21 UNL     1      -5.995   4.740  13.392  1.00  0.00     0.072 C 
HETATM   31  C28 UNL     1      -2.834   8.788  14.597  1.00  0.00    -0.002 C 
HETATM   32  C29 UNL     1      -2.516   8.006  15.895  1.00  0.00     0.019 C 
HETATM   33  O3  UNL     1      -4.218   3.335  12.594  1.00  0.00    -0.292 OA
BRANCH  28  34
HETATM   34  O2  UNL     1      -8.804   3.382  12.891  1.00  0.00    -0.396 OA
HETATM   35  H32 UNL     1      -8.611   2.837  12.111  1.00  0.00     0.210 HD
ENDBRANCH  28  34
BRANCH  12  36
HETATM   36  O4  UNL     1      -3.440   8.636  12.220  1.00  0.00    -0.384 OA
HETATM   37  H41 UNL     1      -2.731   9.137  11.783  1.00  0.00     0.211 HD
ENDBRANCH  12  36
ENDBRANCH   6   8
BRANCH   6  38
HETATM   38  C31 UNL     1       0.433  10.295  15.539  1.00  0.00     0.189 A 
HETATM   39  O5  UNL     1       1.482  10.960  14.842  1.00  0.00    -0.369 OA
HETATM   40  C32 UNL     1       1.452  11.179  16.270  1.00  0.00     0.189 A 
BRANCH  40  41
HETATM   41  C33 UNL     1       2.803  10.860  16.916  1.00  0.00     0.092 C 
HETATM   42  C34 UNL     1       3.782  10.574  15.754  1.00  0.00     0.049 C 
BRANCH  41  43
HETATM   43  O6  UNL     1       2.673   9.576  17.559  1.00  0.00    -0.387 OA
HETATM   44  H47 UNL     1       1.833   9.611  18.053  1.00  0.00     0.210 HD
ENDBRANCH  41  43
BRANCH  41  45
HETATM   45  C35 UNL     1       3.389  11.896  17.971  1.00  0.00     0.011 C 
HETATM   46  C36 UNL     1       3.592  13.295  17.311  1.00  0.00     0.020 C 
BRANCH  45  47
HETATM   47  C37 UNL     1       4.740  11.416  18.550  1.00  0.00     0.176 C 
BRANCH  47  48
HETATM   48  O7  UNL     1       5.530  10.790  17.541  1.00  0.00    -0.400 OA
HETATM   49  H53 UNL     1       5.798   9.913  17.874  1.00  0.00     0.209 HD
ENDBRANCH  47  48
ENDBRANCH  45  47
BRANCH  45  50
HETATM   50  C38 UNL     1       2.351  12.187  19.130  1.00  0.00     0.019 C 
BRANCH  50  51
HETATM   51  C39 UNL     1       1.762  10.988  19.897  1.00  0.00     0.039 C 
BRANCH  51  52
HETATM   52  C40 UNL     1       2.588  10.660  21.126  1.00  0.00    -0.053 A 
HETATM   53  C41 UNL     1       2.419   9.454  21.802  1.00  0.00     0.024 A 
HETATM   54  C42 UNL     1       3.198   9.191  22.920  1.00  0.00     0.090 A 
HETATM   55  N1  UNL     1       4.112  10.083  23.325  1.00  0.00    -0.353 N 
HETATM   56  C43 UNL     1       4.343  11.238  22.689  1.00  0.00     0.098 A 
HETATM   57  H60 UNL     1       4.657   9.885  24.159  1.00  0.00     0.166 HD
HETATM   58  C44 UNL     1       3.549  11.563  21.593  1.00  0.00     0.055 A 
BRANCH  56  59
HETATM   59  N2  UNL     1       5.280  12.121  23.195  1.00  0.00    -0.385 N 
HETATM   60  H61 UNL     1       5.753  12.695  22.495  1.00  0.00     0.157 HD
HETATM   61  H62 UNL     1       5.901  11.850  23.946  1.00  0.00     0.157 HD
ENDBRANCH  56  59
ENDBRANCH  51  52
ENDBRANCH  50  51
ENDBRANCH  45  50
ENDBRANCH  41  45
ENDBRANCH  40  41
ENDBRANCH   6  38
TORSDOF 13
ENDMDL
