MODEL 1
REMARK minimizedAffinity -7.41226625
REMARK CNNscore 0.538187623
REMARK CNNaffinity 6.97643661
REMARK  13 active torsions:
REMARK  status: ('A' for Active; 'I' for Inactive)
REMARK    1  A    between atoms: C3_3  and  O1_4 
REMARK    2  A    between atoms: N1_14  and  O2_16 
REMARK    3  A    between atoms: O2_16  and  C13_17 
REMARK    4  A    between atoms: C13_17  and  C14_18 
REMARK       I    between atoms: C14_18  and  N2_20 
REMARK    5  A    between atoms: N2_20  and  C15_21 
REMARK    6  A    between atoms: C15_21  and  C16_22 
REMARK    7  A    between atoms: C15_21  and  C21_33 
REMARK       I    between atoms: C16_22  and  N3_24 
REMARK    8  A    between atoms: N3_24  and  C17_25 
REMARK    9  A    between atoms: C17_25  and  C18_26 
REMARK   10  A    between atoms: C17_25  and  C20_30 
REMARK   11  A    between atoms: C18_26  and  C19_27 
REMARK   12  A    between atoms: C19_27  and  O6_29 
REMARK   13  A    between atoms: C20_30  and  O8_32 
ROOT
HETATM    1  C1  UNL     1      -7.239   5.832  13.996  1.00  0.00     0.015 C 
HETATM    2  C2  UNL     1      -6.267   6.342  14.483  1.00  0.00    -0.078 C 
HETATM    3  C3  UNL     1      -5.075   6.978  15.090  1.00  0.00     0.128 C 
HETATM    4  C4  UNL     1      -4.239   5.924  15.833  1.00  0.00     0.052 C 
HETATM    5  C5  UNL     1      -3.182   5.436  14.828  1.00  0.00     0.010 C 
HETATM    6  C6  UNL     1      -3.371   6.274  13.546  1.00  0.00     0.002 C 
HETATM    7  C7  UNL     1      -2.130   6.506  12.644  1.00  0.00    -0.004 C 
HETATM    8  C8  UNL     1      -1.235   5.252  12.537  1.00  0.00     0.010 C 
HETATM    9  C9  UNL     1       0.058   5.349  13.336  1.00  0.00     0.035 C 
HETATM   10  C10 UNL     1       0.873   6.571  12.998  1.00  0.00    -0.069 C 
HETATM   11  C11 UNL     1       2.200   6.560  13.216  1.00  0.00     0.030 C 
HETATM   12  C12 UNL     1       3.063   7.737  12.933  1.00  0.00     0.032 C 
HETATM   13  N1  UNL     1       4.347   7.599  13.097  1.00  0.00    -0.271 N 
ATOM     14  H1  UNL     1       4.795   6.742  13.423  1.00  0.00     0.194 HD
HETATM   15  C24 UNL     1       2.401   9.020  12.461  1.00  0.00     0.060 C 
HETATM   16  C25 UNL     1       0.926   9.059  12.858  1.00  0.00     0.020 C 
HETATM   17  C26 UNL     1       0.143   7.786  12.436  1.00  0.00    -0.016 C 
HETATM   18  C27 UNL     1       0.152   7.720  10.882  1.00  0.00     0.020 C 
HETATM   19  C28 UNL     1      -1.355   7.834  12.926  1.00  0.00     0.002 C 
HETATM   20  C29 UNL     1      -1.563   8.276  14.382  1.00  0.00     0.007 C 
HETATM   21  C30 UNL     1      -3.037   8.514  14.736  1.00  0.00     0.014 C 
HETATM   22  C31 UNL     1      -4.062   7.558  14.051  1.00  0.00     0.003 C 
HETATM   23  C32 UNL     1      -4.766   8.325  12.914  1.00  0.00     0.020 C 
ENDROOT
BRANCH   3  24
HETATM   24  O1  UNL     1      -5.528   7.979  15.991  1.00  0.00    -0.377 OA
HETATM   25  H2  UNL     1      -6.166   7.554  16.588  1.00  0.00     0.211 HD
ENDBRANCH   3  24
BRANCH  13  26
HETATM   26  O2  UNL     1       5.040   8.773  12.768  1.00  0.00    -0.271 OA
BRANCH  26  27
HETATM   27  C13 UNL     1       5.788   9.192  13.904  1.00  0.00     0.303 C 
BRANCH  27  28
HETATM   28  C14 UNL     1       6.227  10.644  13.750  1.00  0.00     0.244 C 
HETATM   29  O3  UNL     1       5.427  11.556  13.544  1.00  0.00    -0.271 OA
HETATM   30  N2  UNL     1       7.583  10.856  13.899  1.00  0.00    -0.346 N 
HETATM   31  H16 UNL     1       8.080  10.127  14.402  1.00  0.00     0.163 HD
BRANCH  30  32
HETATM   32  C15 UNL     1       8.115  12.212  14.028  1.00  0.00     0.180 C 
BRANCH  32  33
HETATM   33  C16 UNL     1       8.453  12.431  15.521  1.00  0.00     0.241 C 
HETATM   34  O4  UNL     1       8.361  13.533  16.062  1.00  0.00    -0.271 OA
HETATM   35  N3  UNL     1       8.852  11.302  16.200  1.00  0.00    -0.344 N 
HETATM   36  H18 UNL     1       8.645  10.397  15.785  1.00  0.00     0.163 HD
BRANCH  35  37
HETATM   37  C17 UNL     1       9.037  11.312  17.653  1.00  0.00     0.192 C 
BRANCH  37  38
HETATM   38  C18 UNL     1      10.273  10.520  18.071  1.00  0.00     0.146 C 
BRANCH  38  39
HETATM   39  C19 UNL     1      10.915  11.097  19.299  1.00  0.00     0.141 C 
HETATM   40  O5  UNL     1      10.533  12.072  19.927  1.00  0.00    -0.650 OA
BRANCH  39  41
HETATM   41  O6  UNL     1      11.986  10.389  19.704  1.00  0.00    -0.776 OA
HETATM   42  H22 UNL     1      12.286  10.835  20.524  1.00  0.00     0.167 HD
ENDBRANCH  39  41
ENDBRANCH  38  39
ENDBRANCH  37  38
BRANCH  37  43
HETATM   43  C20 UNL     1       7.774  10.790  18.349  1.00  0.00     0.164 C 
HETATM   44  O7  UNL     1       7.186  11.298  19.291  1.00  0.00    -0.648 OA
BRANCH  43  45
HETATM   45  O8  UNL     1       7.325   9.632  17.820  1.00  0.00    -0.775 OA
HETATM   46  H23 UNL     1       6.555   9.404  18.384  1.00  0.00     0.167 HD
ENDBRANCH  43  45
ENDBRANCH  37  43
ENDBRANCH  35  37
ENDBRANCH  32  33
BRANCH  32  47
HETATM   47  C21 UNL     1       9.321  12.421  13.084  1.00  0.00     0.009 C 
HETATM   48  C22 UNL     1       9.300  11.449  11.902  1.00  0.00     0.012 C 
HETATM   49  C23 UNL     1       9.465  13.858  12.577  1.00  0.00     0.012 C 
ENDBRANCH  32  47
ENDBRANCH  30  32
ENDBRANCH  27  28
ENDBRANCH  26  27
ENDBRANCH  13  26
TORSDOF 13
ENDMDL
MODEL 2
REMARK minimizedAffinity -7.91515493
REMARK CNNscore 0.493152887
REMARK CNNaffinity 6.80469275
REMARK  13 active torsions:
REMARK  status: ('A' for Active; 'I' for Inactive)
REMARK    1  A    between atoms: C3_3  and  O1_4 
REMARK    2  A    between atoms: N1_14  and  O2_16 
REMARK    3  A    between atoms: O2_16  and  C13_17 
REMARK    4  A    between atoms: C13_17  and  C14_18 
REMARK       I    between atoms: C14_18  and  N2_20 
REMARK    5  A    between atoms: N2_20  and  C15_21 
REMARK    6  A    between atoms: C15_21  and  C16_22 
REMARK    7  A    between atoms: C15_21  and  C21_33 
REMARK       I    between atoms: C16_22  and  N3_24 
REMARK    8  A    between atoms: N3_24  and  C17_25 
REMARK    9  A    between atoms: C17_25  and  C18_26 
REMARK   10  A    between atoms: C17_25  and  C20_30 
REMARK   11  A    between atoms: C18_26  and  C19_27 
REMARK   12  A    between atoms: C19_27  and  O6_29 
REMARK   13  A    between atoms: C20_30  and  O8_32 
ROOT
HETATM    1  C1  UNL     1       5.012   7.539  10.506  1.00  0.00     0.015 C 
HETATM    2  C2  UNL     1       3.834   7.659  10.304  1.00  0.00    -0.078 C 
HETATM    3  C3  UNL     1       2.384   7.817  10.050  1.00  0.00     0.128 C 
HETATM    4  C4  UNL     1       1.897   6.724   9.087  1.00  0.00     0.052 C 
HETATM    5  C5  UNL     1       1.383   5.577   9.972  1.00  0.00     0.010 C 
HETATM    6  C6  UNL     1       1.505   6.057  11.433  1.00  0.00     0.002 C 
HETATM    7  C7  UNL     1       0.514   5.470  12.473  1.00  0.00    -0.004 C 
HETATM    8  C8  UNL     1       0.248   3.964  12.249  1.00  0.00     0.010 C 
HETATM    9  C9  UNL     1      -1.120   3.664  11.649  1.00  0.00     0.035 C 
HETATM   10  C10 UNL     1      -2.257   4.257  12.440  1.00  0.00    -0.069 C 
HETATM   11  C11 UNL     1      -3.480   3.703  12.354  1.00  0.00     0.030 C 
HETATM   12  C12 UNL     1      -4.654   4.250  13.083  1.00  0.00     0.032 C 
HETATM   13  N1  UNL     1      -5.775   3.592  13.004  1.00  0.00    -0.271 N 
ATOM     14  H1  UNL     1      -5.902   2.739  12.460  1.00  0.00     0.194 HD
HETATM   15  C24 UNL     1      -4.475   5.529  13.883  1.00  0.00     0.060 C 
HETATM   16  C25 UNL     1      -3.272   6.328  13.385  1.00  0.00     0.020 C 
HETATM   17  C26 UNL     1      -1.970   5.486  13.295  1.00  0.00    -0.016 C 
HETATM   18  C27 UNL     1      -1.600   5.036  14.738  1.00  0.00     0.020 C 
HETATM   19  C28 UNL     1      -0.771   6.327  12.711  1.00  0.00     0.002 C 
HETATM   20  C29 UNL     1      -1.094   7.165  11.465  1.00  0.00     0.007 C 
HETATM   21  C30 UNL     1       0.038   8.123  11.072  1.00  0.00     0.014 C 
HETATM   22  C31 UNL     1       1.488   7.596  11.311  1.00  0.00     0.003 C 
HETATM   23  C32 UNL     1       2.061   8.285  12.565  1.00  0.00     0.020 C 
ENDROOT
BRANCH   3  24
HETATM   24  O1  UNL     1       2.179   9.105   9.486  1.00  0.00    -0.377 OA
HETATM   25  H2  UNL     1       2.781   9.179   8.726  1.00  0.00     0.211 HD
ENDBRANCH   3  24
BRANCH  13  26
HETATM   26  O2  UNL     1      -6.787   4.203  13.759  1.00  0.00    -0.271 OA
BRANCH  26  27
HETATM   27  C13 UNL     1      -7.773   4.712  12.869  1.00  0.00     0.303 C 
BRANCH  27  28
HETATM   28  C14 UNL     1      -8.170   6.130  13.264  1.00  0.00     0.244 C 
HETATM   29  O3  UNL     1      -7.467   7.107  13.004  1.00  0.00    -0.271 OA
HETATM   30  N2  UNL     1      -9.391   6.233  13.898  1.00  0.00    -0.346 N 
HETATM   31  H16 UNL     1     -10.023   5.452  13.746  1.00  0.00     0.163 HD
BRANCH  30  32
HETATM   32  C15 UNL     1     -10.013   7.540  14.108  1.00  0.00     0.180 C 
BRANCH  32  33
HETATM   33  C16 UNL     1     -11.542   7.343  13.997  1.00  0.00     0.241 C 
HETATM   34  O4  UNL     1     -12.125   6.401  14.534  1.00  0.00    -0.271 OA
HETATM   35  N3  UNL     1     -12.203   8.304  13.265  1.00  0.00    -0.344 N 
HETATM   36  H18 UNL     1     -11.723   9.182  13.087  1.00  0.00     0.163 HD
BRANCH  35  37
HETATM   37  C17 UNL     1     -13.666   8.352  13.216  1.00  0.00     0.192 C 
BRANCH  37  38
HETATM   38  C18 UNL     1     -14.256   7.055  12.670  1.00  0.00     0.146 C 
BRANCH  38  39
HETATM   39  C19 UNL     1     -15.399   6.565  13.511  1.00  0.00     0.141 C 
HETATM   40  O5  UNL     1     -16.559   6.940  13.446  1.00  0.00    -0.650 OA
BRANCH  39  41
HETATM   41  O6  UNL     1     -15.033   5.592  14.366  1.00  0.00    -0.776 OA
HETATM   42  H22 UNL     1     -15.862   5.332  14.820  1.00  0.00     0.167 HD
ENDBRANCH  39  41
ENDBRANCH  38  39
ENDBRANCH  37  38
BRANCH  37  43
HETATM   43  C20 UNL     1     -14.126   9.566  12.399  1.00  0.00     0.164 C 
HETATM   44  O7  UNL     1     -15.263   9.996  12.291  1.00  0.00    -0.648 OA
BRANCH  43  45
HETATM   45  O8  UNL     1     -13.113  10.169  11.741  1.00  0.00    -0.775 OA
HETATM   46  H23 UNL     1     -13.558  10.885  11.239  1.00  0.00     0.167 HD
ENDBRANCH  43  45
ENDBRANCH  37  43
ENDBRANCH  35  37
ENDBRANCH  32  33
BRANCH  32  47
HETATM   47  C21 UNL     1      -9.565   8.151  15.455  1.00  0.00     0.009 C 
HETATM   48  C22 UNL     1      -8.815   7.139  16.324  1.00  0.00     0.012 C 
HETATM   49  C23 UNL     1      -8.736   9.429  15.307  1.00  0.00     0.012 C 
ENDBRANCH  32  47
ENDBRANCH  30  32
ENDBRANCH  27  28
ENDBRANCH  26  27
ENDBRANCH  13  26
TORSDOF 13
ENDMDL
MODEL 3
REMARK minimizedAffinity -7.49178791
REMARK CNNscore 0.422855049
REMARK CNNaffinity 6.56828165
REMARK  13 active torsions:
REMARK  status: ('A' for Active; 'I' for Inactive)
REMARK    1  A    between atoms: C3_3  and  O1_4 
REMARK    2  A    between atoms: N1_14  and  O2_16 
REMARK    3  A    between atoms: O2_16  and  C13_17 
REMARK    4  A    between atoms: C13_17  and  C14_18 
REMARK       I    between atoms: C14_18  and  N2_20 
REMARK    5  A    between atoms: N2_20  and  C15_21 
REMARK    6  A    between atoms: C15_21  and  C16_22 
REMARK    7  A    between atoms: C15_21  and  C21_33 
REMARK       I    between atoms: C16_22  and  N3_24 
REMARK    8  A    between atoms: N3_24  and  C17_25 
REMARK    9  A    between atoms: C17_25  and  C18_26 
REMARK   10  A    between atoms: C17_25  and  C20_30 
REMARK   11  A    between atoms: C18_26  and  C19_27 
REMARK   12  A    between atoms: C19_27  and  O6_29 
REMARK   13  A    between atoms: C20_30  and  O8_32 
ROOT
HETATM    1  C1  UNL     1      -4.731   5.297  12.781  1.00  0.00     0.015 C 
HETATM    2  C2  UNL     1      -3.715   5.804  13.171  1.00  0.00    -0.078 C 
HETATM    3  C3  UNL     1      -2.456   6.418  13.650  1.00  0.00     0.128 C 
HETATM    4  C4  UNL     1      -2.067   7.596  12.742  1.00  0.00     0.052 C 
HETATM    5  C5  UNL     1      -2.661   8.852  13.400  1.00  0.00     0.010 C 
HETATM    6  C6  UNL     1      -3.314   8.393  14.721  1.00  0.00     0.002 C 
HETATM    7  C7  UNL     1      -3.398   9.420  15.881  1.00  0.00    -0.004 C 
HETATM    8  C8  UNL     1      -3.742  10.843  15.386  1.00  0.00     0.010 C 
HETATM    9  C9  UNL     1      -2.559  11.803  15.405  1.00  0.00     0.035 C 
HETATM   10  C10 UNL     1      -1.892  11.894  16.753  1.00  0.00    -0.069 C 
HETATM   11  C11 UNL     1      -1.198  13.002  17.071  1.00  0.00     0.030 C 
HETATM   12  C12 UNL     1      -0.490  13.150  18.370  1.00  0.00     0.032 C 
HETATM   13  N1  UNL     1       0.081  14.294  18.619  1.00  0.00    -0.271 N 
ATOM     14  H1  UNL     1       0.090  15.083  17.974  1.00  0.00     0.194 HD
HETATM   15  C24 UNL     1      -0.487  11.973  19.329  1.00  0.00     0.060 C 
HETATM   16  C25 UNL     1      -0.751  10.660  18.593  1.00  0.00     0.020 C 
HETATM   17  C26 UNL     1      -2.018  10.703  17.696  1.00  0.00    -0.016 C 
HETATM   18  C27 UNL     1      -3.247  10.911  18.627  1.00  0.00     0.020 C 
HETATM   19  C28 UNL     1      -2.216   9.357  16.900  1.00  0.00     0.002 C 
HETATM   20  C29 UNL     1      -0.956   8.795  16.225  1.00  0.00     0.007 C 
HETATM   21  C30 UNL     1      -1.155   7.385  15.654  1.00  0.00     0.014 C 
HETATM   22  C31 UNL     1      -2.566   7.086  15.059  1.00  0.00     0.003 C 
HETATM   23  C32 UNL     1      -3.347   6.212  16.061  1.00  0.00     0.020 C 
ENDROOT
BRANCH   3  24
HETATM   24  O1  UNL     1      -1.447   5.418  13.626  1.00  0.00    -0.377 OA
HETATM   25  H2  UNL     1      -1.450   5.035  12.733  1.00  0.00     0.211 HD
ENDBRANCH   3  24
BRANCH  13  26
HETATM   26  O2  UNL     1       0.684  14.305  19.886  1.00  0.00    -0.271 OA
BRANCH  26  27
HETATM   27  C13 UNL     1       2.060  14.632  19.730  1.00  0.00     0.303 C 
BRANCH  27  28
HETATM   28  C14 UNL     1       2.919  13.373  19.779  1.00  0.00     0.244 C 
HETATM   29  O3  UNL     1       3.030  12.614  18.817  1.00  0.00    -0.271 OA
HETATM   30  N2  UNL     1       3.588  13.177  20.970  1.00  0.00    -0.346 N 
HETATM   31  H16 UNL     1       3.708  14.010  21.539  1.00  0.00     0.163 HD
BRANCH  30  32
HETATM   32  C15 UNL     1       4.635  12.161  21.078  1.00  0.00     0.180 C 
BRANCH  32  33
HETATM   33  C16 UNL     1       5.976  12.904  21.272  1.00  0.00     0.241 C 
HETATM   34  O4  UNL     1       6.032  14.085  21.615  1.00  0.00    -0.271 OA
HETATM   35  N3  UNL     1       7.102  12.143  21.047  1.00  0.00    -0.344 N 
HETATM   36  H18 UNL     1       7.001  11.132  21.041  1.00  0.00     0.163 HD
BRANCH  35  37
HETATM   37  C17 UNL     1       8.440  12.652  21.359  1.00  0.00     0.192 C 
BRANCH  37  38
HETATM   38  C18 UNL     1       9.517  11.952  20.534  1.00  0.00     0.146 C 
BRANCH  38  39
HETATM   39  C19 UNL     1       9.045  11.654  19.140  1.00  0.00     0.141 C 
HETATM   40  O5  UNL     1       9.116  10.580  18.565  1.00  0.00    -0.650 OA
BRANCH  39  41
HETATM   41  O6  UNL     1       8.466  12.717  18.551  1.00  0.00    -0.776 OA
HETATM   42  H22 UNL     1       8.168  12.389  17.677  1.00  0.00     0.167 HD
ENDBRANCH  39  41
ENDBRANCH  38  39
ENDBRANCH  37  38
BRANCH  37  43
HETATM   43  C20 UNL     1       8.715  12.526  22.862  1.00  0.00     0.164 C 
HETATM   44  O7  UNL     1       8.848  13.433  23.668  1.00  0.00    -0.648 OA
BRANCH  43  45
HETATM   45  O8  UNL     1       8.822  11.243  23.270  1.00  0.00    -0.775 OA
HETATM   46  H23 UNL     1       9.037  11.322  24.224  1.00  0.00     0.167 HD
ENDBRANCH  43  45
ENDBRANCH  37  43
ENDBRANCH  35  37
ENDBRANCH  32  33
BRANCH  32  47
HETATM   47  C21 UNL     1       4.312  11.159  22.210  1.00  0.00     0.009 C 
HETATM   48  C22 UNL     1       3.907   9.788  21.666  1.00  0.00     0.012 C 
HETATM   49  C23 UNL     1       5.439  11.004  23.235  1.00  0.00     0.012 C 
ENDBRANCH  32  47
ENDBRANCH  30  32
ENDBRANCH  27  28
ENDBRANCH  26  27
ENDBRANCH  13  26
TORSDOF 13
ENDMDL
MODEL 4
REMARK minimizedAffinity -9.17742825
REMARK CNNscore 0.412280917
REMARK CNNaffinity 6.84565544
REMARK  13 active torsions:
REMARK  status: ('A' for Active; 'I' for Inactive)
REMARK    1  A    between atoms: C3_3  and  O1_4 
REMARK    2  A    between atoms: N1_14  and  O2_16 
REMARK    3  A    between atoms: O2_16  and  C13_17 
REMARK    4  A    between atoms: C13_17  and  C14_18 
REMARK       I    between atoms: C14_18  and  N2_20 
REMARK    5  A    between atoms: N2_20  and  C15_21 
REMARK    6  A    between atoms: C15_21  and  C16_22 
REMARK    7  A    between atoms: C15_21  and  C21_33 
REMARK       I    between atoms: C16_22  and  N3_24 
REMARK    8  A    between atoms: N3_24  and  C17_25 
REMARK    9  A    between atoms: C17_25  and  C18_26 
REMARK   10  A    between atoms: C17_25  and  C20_30 
REMARK   11  A    between atoms: C18_26  and  C19_27 
REMARK   12  A    between atoms: C19_27  and  O6_29 
REMARK   13  A    between atoms: C20_30  and  O8_32 
ROOT
HETATM    1  C1  UNL     1      -8.650   5.500  11.724  1.00  0.00     0.015 C 
HETATM    2  C2  UNL     1      -7.878   5.368  12.634  1.00  0.00    -0.078 C 
HETATM    3  C3  UNL     1      -6.934   5.198  13.762  1.00  0.00     0.128 C 
HETATM    4  C4  UNL     1      -5.626   4.564  13.263  1.00  0.00     0.052 C 
HETATM    5  C5  UNL     1      -4.681   5.734  12.948  1.00  0.00     0.010 C 
HETATM    6  C6  UNL     1      -5.426   7.025  13.348  1.00  0.00     0.002 C 
HETATM    7  C7  UNL     1      -4.574   8.249  13.776  1.00  0.00    -0.004 C 
HETATM    8  C8  UNL     1      -3.301   8.412  12.916  1.00  0.00     0.010 C 
HETATM    9  C9  UNL     1      -2.019   8.010  13.634  1.00  0.00     0.035 C 
HETATM   10  C10 UNL     1      -1.826   8.724  14.947  1.00  0.00    -0.069 C 
HETATM   11  C11 UNL     1      -0.584   8.868  15.442  1.00  0.00     0.030 C 
HETATM   12  C12 UNL     1      -0.319   9.536  16.744  1.00  0.00     0.032 C 
HETATM   13  N1  UNL     1       0.923   9.704  17.096  1.00  0.00    -0.271 N 
ATOM     14  H1  UNL     1       1.722   9.390  16.546  1.00  0.00     0.194 HD
HETATM   15  C24 UNL     1      -1.506   9.992  17.575  1.00  0.00     0.060 C 
HETATM   16  C25 UNL     1      -2.772   9.225  17.197  1.00  0.00     0.020 C 
HETATM   17  C26 UNL     1      -3.065   9.236  15.672  1.00  0.00    -0.016 C 
HETATM   18  C27 UNL     1      -3.333  10.711  15.255  1.00  0.00     0.020 C 
HETATM   19  C28 UNL     1      -4.337   8.376  15.315  1.00  0.00     0.002 C 
HETATM   20  C29 UNL     1      -4.414   6.996  15.985  1.00  0.00     0.007 C 
HETATM   21  C30 UNL     1      -5.764   6.299  15.778  1.00  0.00     0.014 C 
HETATM   22  C31 UNL     1      -6.449   6.541  14.397  1.00  0.00     0.003 C 
HETATM   23  C32 UNL     1      -7.602   7.547  14.591  1.00  0.00     0.020 C 
ENDROOT
BRANCH   3  24
HETATM   24  O1  UNL     1      -7.556   4.361  14.727  1.00  0.00    -0.377 OA
HETATM   25  H2  UNL     1      -7.849   3.561  14.260  1.00  0.00     0.211 HD
ENDBRANCH   3  24
BRANCH  13  26
HETATM   26  O2  UNL     1       1.026  10.369  18.327  1.00  0.00    -0.271 OA
BRANCH  26  27
HETATM   27  C13 UNL     1       2.324  10.945  18.423  1.00  0.00     0.303 C 
BRANCH  27  28
HETATM   28  C14 UNL     1       2.946  10.638  19.782  1.00  0.00     0.244 C 
HETATM   29  O3  UNL     1       2.783   9.560  20.353  1.00  0.00    -0.271 OA
HETATM   30  N2  UNL     1       3.734  11.647  20.297  1.00  0.00    -0.346 N 
HETATM   31  H16 UNL     1       4.079  12.316  19.614  1.00  0.00     0.163 HD
BRANCH  30  32
HETATM   32  C15 UNL     1       4.589  11.405  21.458  1.00  0.00     0.180 C 
BRANCH  32  33
HETATM   33  C16 UNL     1       5.875  12.240  21.262  1.00  0.00     0.241 C 
HETATM   34  O4  UNL     1       5.914  13.450  21.484  1.00  0.00    -0.271 OA
HETATM   35  N3  UNL     1       6.974  11.528  20.833  1.00  0.00    -0.344 N 
HETATM   36  H18 UNL     1       6.955  10.517  20.934  1.00  0.00     0.163 HD
BRANCH  35  37
HETATM   37  C17 UNL     1       8.302  12.142  20.770  1.00  0.00     0.192 C 
BRANCH  37  38
HETATM   38  C18 UNL     1       9.227  11.391  19.816  1.00  0.00     0.146 C 
BRANCH  38  39
HETATM   39  C19 UNL     1      10.669  11.734  20.052  1.00  0.00     0.141 C 
HETATM   40  O5  UNL     1      11.620  10.976  19.951  1.00  0.00    -0.650 OA
BRANCH  39  41
HETATM   41  O6  UNL     1      10.848  13.032  20.362  1.00  0.00    -0.776 OA
HETATM   42  H22 UNL     1      11.818  13.137  20.449  1.00  0.00     0.167 HD
ENDBRANCH  39  41
ENDBRANCH  38  39
ENDBRANCH  37  38
BRANCH  37  43
HETATM   43  C20 UNL     1       8.905  12.240  22.176  1.00  0.00     0.164 C 
HETATM   44  O7  UNL     1       8.942  11.365  23.027  1.00  0.00    -0.648 OA
BRANCH  43  45
HETATM   45  O8  UNL     1       9.423  13.458  22.441  1.00  0.00    -0.775 OA
HETATM   46  H23 UNL     1       9.726  13.383  23.371  1.00  0.00     0.167 HD
ENDBRANCH  43  45
ENDBRANCH  37  43
ENDBRANCH  35  37
ENDBRANCH  32  33
BRANCH  32  47
HETATM   47  C21 UNL     1       3.837  11.726  22.770  1.00  0.00     0.009 C 
HETATM   48  C22 UNL     1       2.691  12.715  22.548  1.00  0.00     0.012 C 
HETATM   49  C23 UNL     1       3.323  10.485  23.505  1.00  0.00     0.012 C 
ENDBRANCH  32  47
ENDBRANCH  30  32
ENDBRANCH  27  28
ENDBRANCH  26  27
ENDBRANCH  13  26
TORSDOF 13
ENDMDL
MODEL 5
REMARK minimizedAffinity -7.72150803
REMARK CNNscore 0.40739131
REMARK CNNaffinity 6.74051285
REMARK  13 active torsions:
REMARK  status: ('A' for Active; 'I' for Inactive)
REMARK    1  A    between atoms: C3_3  and  O1_4 
REMARK    2  A    between atoms: N1_14  and  O2_16 
REMARK    3  A    between atoms: O2_16  and  C13_17 
REMARK    4  A    between atoms: C13_17  and  C14_18 
REMARK       I    between atoms: C14_18  and  N2_20 
REMARK    5  A    between atoms: N2_20  and  C15_21 
REMARK    6  A    between atoms: C15_21  and  C16_22 
REMARK    7  A    between atoms: C15_21  and  C21_33 
REMARK       I    between atoms: C16_22  and  N3_24 
REMARK    8  A    between atoms: N3_24  and  C17_25 
REMARK    9  A    between atoms: C17_25  and  C18_26 
REMARK   10  A    between atoms: C17_25  and  C20_30 
REMARK   11  A    between atoms: C18_26  and  C19_27 
REMARK   12  A    between atoms: C19_27  and  O6_29 
REMARK   13  A    between atoms: C20_30  and  O8_32 
ROOT
HETATM    1  C1  UNL     1       2.725   5.531   7.163  1.00  0.00     0.015 C 
HETATM    2  C2  UNL     1       2.614   6.464   7.911  1.00  0.00    -0.078 C 
HETATM    3  C3  UNL     1       2.488   7.619   8.829  1.00  0.00     0.128 C 
HETATM    4  C4  UNL     1       1.208   8.408   8.509  1.00  0.00     0.052 C 
HETATM    5  C5  UNL     1       0.120   7.844   9.437  1.00  0.00     0.010 C 
HETATM    6  C6  UNL     1       0.806   6.795  10.338  1.00  0.00     0.002 C 
HETATM    7  C7  UNL     1       0.204   6.545  11.745  1.00  0.00    -0.004 C 
HETATM    8  C8  UNL     1      -1.342   6.559  11.738  1.00  0.00     0.010 C 
HETATM    9  C9  UNL     1      -1.948   7.818  12.346  1.00  0.00     0.035 C 
HETATM   10  C10 UNL     1      -1.455   8.096  13.743  1.00  0.00    -0.069 C 
HETATM   11  C11 UNL     1      -2.216   8.829  14.576  1.00  0.00     0.030 C 
HETATM   12  C12 UNL     1      -1.784   9.167  15.958  1.00  0.00     0.032 C 
HETATM   13  N1  UNL     1      -2.627   9.807  16.715  1.00  0.00    -0.271 N 
ATOM     14  H1  UNL     1      -3.555  10.107  16.415  1.00  0.00     0.194 HD
HETATM   15  C24 UNL     1      -0.398   8.737  16.405  1.00  0.00     0.060 C 
HETATM   16  C25 UNL     1       0.520   8.498  15.208  1.00  0.00     0.020 C 
HETATM   17  C26 UNL     1      -0.092   7.545  14.145  1.00  0.00    -0.016 C 
HETATM   18  C27 UNL     1      -0.275   6.151  14.812  1.00  0.00     0.020 C 
HETATM   19  C28 UNL     1       0.854   7.381  12.895  1.00  0.00     0.002 C 
HETATM   20  C29 UNL     1       1.450   8.682  12.339  1.00  0.00     0.007 C 
HETATM   21  C30 UNL     1       2.525   8.446  11.270  1.00  0.00     0.014 C 
HETATM   22  C31 UNL     1       2.288   7.224  10.328  1.00  0.00     0.003 C 
HETATM   23  C32 UNL     1       3.227   6.081  10.762  1.00  0.00     0.020 C 
ENDROOT
BRANCH   3  24
HETATM   24  O1  UNL     1       3.634   8.440   8.656  1.00  0.00    -0.377 OA
HETATM   25  H2  UNL     1       3.707   8.626   7.704  1.00  0.00     0.211 HD
ENDBRANCH   3  24
BRANCH  13  26
HETATM   26  O2  UNL     1      -2.102  10.035  17.996  1.00  0.00    -0.271 OA
BRANCH  26  27
HETATM   27  C13 UNL     1      -2.269  11.411  18.316  1.00  0.00     0.303 C 
BRANCH  27  28
HETATM   28  C14 UNL     1      -0.918  12.066  18.585  1.00  0.00     0.244 C 
HETATM   29  O3  UNL     1      -0.674  12.667  19.631  1.00  0.00    -0.271 OA
HETATM   30  N2  UNL     1       0.015  11.897  17.582  1.00  0.00    -0.346 N 
HETATM   31  H16 UNL     1      -0.161  11.117  16.956  1.00  0.00     0.163 HD
BRANCH  30  32
HETATM   32  C15 UNL     1       1.417  12.248  17.803  1.00  0.00     0.180 C 
BRANCH  32  33
HETATM   33  C16 UNL     1       2.058  11.091  18.603  1.00  0.00     0.241 C 
HETATM   34  O4  UNL     1       2.275   9.987  18.104  1.00  0.00    -0.271 OA
HETATM   35  N3  UNL     1       2.381  11.392  19.908  1.00  0.00    -0.344 N 
HETATM   36  H18 UNL     1       2.435  12.372  20.171  1.00  0.00     0.163 HD
BRANCH  35  37
HETATM   37  C17 UNL     1       3.150  10.461  20.736  1.00  0.00     0.192 C 
BRANCH  37  38
HETATM   38  C18 UNL     1       2.465  10.198  22.075  1.00  0.00     0.146 C 
BRANCH  38  39
HETATM   39  C19 UNL     1       2.540   8.750  22.465  1.00  0.00     0.141 C 
HETATM   40  O5  UNL     1       1.723   7.884  22.195  1.00  0.00    -0.650 OA
BRANCH  39  41
HETATM   41  O6  UNL     1       3.665   8.453  23.140  1.00  0.00    -0.776 OA
HETATM   42  H22 UNL     1       3.616   7.487  23.297  1.00  0.00     0.167 HD
ENDBRANCH  39  41
ENDBRANCH  38  39
ENDBRANCH  37  38
BRANCH  37  43
HETATM   43  C20 UNL     1       4.578  10.983  20.929  1.00  0.00     0.164 C 
HETATM   44  O7  UNL     1       5.532  10.822  20.185  1.00  0.00    -0.648 OA
BRANCH  43  45
HETATM   45  O8  UNL     1       4.731  11.680  22.076  1.00  0.00    -0.775 OA
HETATM   46  H23 UNL     1       5.685  11.908  22.082  1.00  0.00     0.167 HD
ENDBRANCH  43  45
ENDBRANCH  37  43
ENDBRANCH  35  37
ENDBRANCH  32  33
BRANCH  32  47
HETATM   47  C21 UNL     1       2.128  12.541  16.462  1.00  0.00     0.009 C 
HETATM   48  C22 UNL     1       3.641  12.331  16.555  1.00  0.00     0.012 C 
HETATM   49  C23 UNL     1       1.562  11.750  15.280  1.00  0.00     0.012 C 
ENDBRANCH  32  47
ENDBRANCH  30  32
ENDBRANCH  27  28
ENDBRANCH  26  27
ENDBRANCH  13  26
TORSDOF 13
ENDMDL
MODEL 6
REMARK minimizedAffinity -8.18949795
REMARK CNNscore 0.38689962
REMARK CNNaffinity 7.30738974
REMARK  13 active torsions:
REMARK  status: ('A' for Active; 'I' for Inactive)
REMARK    1  A    between atoms: C3_3  and  O1_4 
REMARK    2  A    between atoms: N1_14  and  O2_16 
REMARK    3  A    between atoms: O2_16  and  C13_17 
REMARK    4  A    between atoms: C13_17  and  C14_18 
REMARK       I    between atoms: C14_18  and  N2_20 
REMARK    5  A    between atoms: N2_20  and  C15_21 
REMARK    6  A    between atoms: C15_21  and  C16_22 
REMARK    7  A    between atoms: C15_21  and  C21_33 
REMARK       I    between atoms: C16_22  and  N3_24 
REMARK    8  A    between atoms: N3_24  and  C17_25 
REMARK    9  A    between atoms: C17_25  and  C18_26 
REMARK   10  A    between atoms: C17_25  and  C20_30 
REMARK   11  A    between atoms: C18_26  and  C19_27 
REMARK   12  A    between atoms: C19_27  and  O6_29 
REMARK   13  A    between atoms: C20_30  and  O8_32 
ROOT
HETATM    1  C1  UNL     1      -8.841   7.372  16.398  1.00  0.00     0.015 C 
HETATM    2  C2  UNL     1      -8.271   6.848  15.480  1.00  0.00    -0.078 C 
HETATM    3  C3  UNL     1      -7.578   6.194  14.347  1.00  0.00     0.128 C 
HETATM    4  C4  UNL     1      -7.440   7.180  13.175  1.00  0.00     0.052 C 
HETATM    5  C5  UNL     1      -6.062   7.841  13.338  1.00  0.00     0.010 C 
HETATM    6  C6  UNL     1      -5.389   7.169  14.553  1.00  0.00     0.002 C 
HETATM    7  C7  UNL     1      -3.839   7.112  14.582  1.00  0.00    -0.004 C 
HETATM    8  C8  UNL     1      -3.190   8.410  14.049  1.00  0.00     0.010 C 
HETATM    9  C9  UNL     1      -2.585   8.269  12.659  1.00  0.00     0.035 C 
HETATM   10  C10 UNL     1      -1.592   7.139  12.557  1.00  0.00    -0.069 C 
HETATM   11  C11 UNL     1      -0.639   7.183  11.608  1.00  0.00     0.030 C 
HETATM   12  C12 UNL     1       0.356   6.093  11.430  1.00  0.00     0.032 C 
HETATM   13  N1  UNL     1       1.291   6.268  10.541  1.00  0.00    -0.271 N 
ATOM     14  H1  UNL     1       1.372   7.094   9.949  1.00  0.00     0.194 HD
HETATM   15  C24 UNL     1       0.231   4.853  12.299  1.00  0.00     0.060 C 
HETATM   16  C25 UNL     1      -1.190   4.695  12.836  1.00  0.00     0.020 C 
HETATM   17  C26 UNL     1      -1.729   5.976  13.532  1.00  0.00    -0.016 C 
HETATM   18  C27 UNL     1      -0.841   6.242  14.781  1.00  0.00     0.020 C 
HETATM   19  C28 UNL     1      -3.221   5.796  14.008  1.00  0.00     0.002 C 
HETATM   20  C29 UNL     1      -4.172   5.160  12.984  1.00  0.00     0.007 C 
HETATM   21  C30 UNL     1      -5.546   4.811  13.572  1.00  0.00     0.014 C 
HETATM   22  C31 UNL     1      -6.096   5.800  14.646  1.00  0.00     0.003 C 
HETATM   23  C32 UNL     1      -5.931   5.155  16.037  1.00  0.00     0.020 C 
ENDROOT
BRANCH   3  24
HETATM   24  O1  UNL     1      -8.348   5.065  13.958  1.00  0.00    -0.377 OA
HETATM   25  H2  UNL     1      -9.256   5.380  13.811  1.00  0.00     0.211 HD
ENDBRANCH   3  24
BRANCH  13  26
HETATM   26  O2  UNL     1       2.174   5.178  10.498  1.00  0.00    -0.271 OA
BRANCH  26  27
HETATM   27  C13 UNL     1       3.432   5.633  10.014  1.00  0.00     0.303 C 
BRANCH  27  28
HETATM   28  C14 UNL     1       3.889   6.867  10.784  1.00  0.00     0.244 C 
HETATM   29  O3  UNL     1       3.931   7.985  10.272  1.00  0.00    -0.271 OA
HETATM   30  N2  UNL     1       4.213   6.635  12.106  1.00  0.00    -0.346 N 
HETATM   31  H16 UNL     1       3.817   5.789  12.505  1.00  0.00     0.163 HD
BRANCH  30  32
HETATM   32  C15 UNL     1       4.424   7.751  13.027  1.00  0.00     0.180 C 
BRANCH  32  33
HETATM   33  C16 UNL     1       5.941   8.048  13.047  1.00  0.00     0.241 C 
HETATM   34  O4  UNL     1       6.602   8.171  12.016  1.00  0.00    -0.271 OA
HETATM   35  N3  UNL     1       6.493   8.178  14.302  1.00  0.00    -0.344 N 
HETATM   36  H18 UNL     1       5.866   8.340  15.085  1.00  0.00     0.163 HD
BRANCH  35  37
HETATM   37  C17 UNL     1       7.875   8.630  14.484  1.00  0.00     0.192 C 
BRANCH  37  38
HETATM   38  C18 UNL     1       8.873   7.669  13.842  1.00  0.00     0.146 C 
BRANCH  38  39
HETATM   39  C19 UNL     1      10.222   8.303  13.665  1.00  0.00     0.141 C 
HETATM   40  O5  UNL     1      11.297   7.819  13.981  1.00  0.00    -0.650 OA
BRANCH  39  41
HETATM   41  O6  UNL     1      10.155   9.502  13.057  1.00  0.00    -0.776 OA
HETATM   42  H22 UNL     1      11.087   9.788  12.963  1.00  0.00     0.167 HD
ENDBRANCH  39  41
ENDBRANCH  38  39
ENDBRANCH  37  38
BRANCH  37  43
HETATM   43  C20 UNL     1       8.171   8.834  15.974  1.00  0.00     0.164 C 
HETATM   44  O7  UNL     1       8.846   9.717  16.480  1.00  0.00    -0.648 OA
BRANCH  43  45
HETATM   45  O8  UNL     1       7.603   7.891  16.756  1.00  0.00    -0.775 OA
HETATM   46  H23 UNL     1       7.910   8.124  17.658  1.00  0.00     0.167 HD
ENDBRANCH  43  45
ENDBRANCH  37  43
ENDBRANCH  35  37
ENDBRANCH  32  33
BRANCH  32  47
HETATM   47  C21 UNL     1       3.561   8.968  12.622  1.00  0.00     0.009 C 
HETATM   48  C22 UNL     1       2.162   8.910  13.237  1.00  0.00     0.012 C 
HETATM   49  C23 UNL     1       4.214  10.317  12.932  1.00  0.00     0.012 C 
ENDBRANCH  32  47
ENDBRANCH  30  32
ENDBRANCH  27  28
ENDBRANCH  26  27
ENDBRANCH  13  26
TORSDOF 13
ENDMDL
MODEL 7
REMARK minimizedAffinity -9.63730621
REMARK CNNscore 0.337063521
REMARK CNNaffinity 7.26873589
REMARK  13 active torsions:
REMARK  status: ('A' for Active; 'I' for Inactive)
REMARK    1  A    between atoms: C3_3  and  O1_4 
REMARK    2  A    between atoms: N1_14  and  O2_16 
REMARK    3  A    between atoms: O2_16  and  C13_17 
REMARK    4  A    between atoms: C13_17  and  C14_18 
REMARK       I    between atoms: C14_18  and  N2_20 
REMARK    5  A    between atoms: N2_20  and  C15_21 
REMARK    6  A    between atoms: C15_21  and  C16_22 
REMARK    7  A    between atoms: C15_21  and  C21_33 
REMARK       I    between atoms: C16_22  and  N3_24 
REMARK    8  A    between atoms: N3_24  and  C17_25 
REMARK    9  A    between atoms: C17_25  and  C18_26 
REMARK   10  A    between atoms: C17_25  and  C20_30 
REMARK   11  A    between atoms: C18_26  and  C19_27 
REMARK   12  A    between atoms: C19_27  and  O6_29 
REMARK   13  A    between atoms: C20_30  and  O8_32 
ROOT
HETATM    1  C1  UNL     1     -14.523   9.169  15.685  1.00  0.00     0.015 C 
HETATM    2  C2  UNL     1     -13.740   8.981  14.794  1.00  0.00    -0.078 C 
HETATM    3  C3  UNL     1     -12.783   8.749  13.689  1.00  0.00     0.128 C 
HETATM    4  C4  UNL     1     -11.768   9.901  13.622  1.00  0.00     0.052 C 
HETATM    5  C5  UNL     1     -10.559   9.450  14.457  1.00  0.00     0.010 C 
HETATM    6  C6  UNL     1     -10.857   8.010  14.926  1.00  0.00     0.002 C 
HETATM    7  C7  UNL     1      -9.652   7.070  15.190  1.00  0.00    -0.004 C 
HETATM    8  C8  UNL     1      -8.473   7.799  15.872  1.00  0.00     0.010 C 
HETATM    9  C9  UNL     1      -7.300   8.078  14.941  1.00  0.00     0.035 C 
HETATM   10  C10 UNL     1      -6.786   6.841  14.251  1.00  0.00    -0.069 C 
HETATM   11  C11 UNL     1      -5.513   6.810  13.814  1.00  0.00     0.030 C 
HETATM   12  C12 UNL     1      -4.946   5.636  13.100  1.00  0.00     0.032 C 
HETATM   13  N1  UNL     1      -3.680   5.669  12.795  1.00  0.00    -0.271 N 
ATOM     14  H1  UNL     1      -3.061   6.454  12.997  1.00  0.00     0.194 HD
HETATM   15  C24 UNL     1      -5.866   4.470  12.784  1.00  0.00     0.060 C 
HETATM   16  C25 UNL     1      -7.330   4.908  12.774  1.00  0.00     0.020 C 
HETATM   17  C26 UNL     1      -7.749   5.675  14.058  1.00  0.00    -0.016 C 
HETATM   18  C27 UNL     1      -7.618   4.694  15.257  1.00  0.00     0.020 C 
HETATM   19  C28 UNL     1      -9.243   6.171  13.978  1.00  0.00     0.002 C 
HETATM   20  C29 UNL     1      -9.652   6.838  12.656  1.00  0.00     0.007 C 
HETATM   21  C30 UNL     1     -11.160   7.101  12.553  1.00  0.00     0.014 C 
HETATM   22  C31 UNL     1     -11.873   7.494  13.884  1.00  0.00     0.003 C 
HETATM   23  C32 UNL     1     -12.662   6.273  14.397  1.00  0.00     0.020 C 
ENDROOT
BRANCH   3  24
HETATM   24  O1  UNL     1     -13.525   8.671  12.480  1.00  0.00    -0.377 OA
HETATM   25  H2  UNL     1     -14.080   9.468  12.437  1.00  0.00     0.211 HD
ENDBRANCH   3  24
BRANCH  13  26
HETATM   26  O2  UNL     1      -3.273   4.490  12.153  1.00  0.00    -0.271 OA
BRANCH  26  27
HETATM   27  C13 UNL     1      -1.939   4.194  12.550  1.00  0.00     0.303 C 
BRANCH  27  28
HETATM   28  C14 UNL     1      -1.200   5.471  12.937  1.00  0.00     0.244 C 
HETATM   29  O3  UNL     1      -1.211   5.917  14.084  1.00  0.00    -0.271 OA
HETATM   30  N2  UNL     1      -0.492   6.062  11.910  1.00  0.00    -0.346 N 
HETATM   31  H16 UNL     1      -0.265   5.447  11.134  1.00  0.00     0.163 HD
BRANCH  30  32
HETATM   32  C15 UNL     1       0.459   7.139  12.185  1.00  0.00     0.180 C 
BRANCH  32  33
HETATM   33  C16 UNL     1       1.875   6.578  11.921  1.00  0.00     0.241 C 
HETATM   34  O4  UNL     1       2.063   5.440  11.491  1.00  0.00    -0.271 OA
HETATM   35  N3  UNL     1       2.907   7.450  12.189  1.00  0.00    -0.344 N 
HETATM   36  H18 UNL     1       2.686   8.439  12.271  1.00  0.00     0.163 HD
BRANCH  35  37
HETATM   37  C17 UNL     1       4.289   7.130  11.825  1.00  0.00     0.192 C 
BRANCH  37  38
HETATM   38  C18 UNL     1       5.236   8.289  12.127  1.00  0.00     0.146 C 
BRANCH  38  39
HETATM   39  C19 UNL     1       6.624   8.020  11.623  1.00  0.00     0.141 C 
HETATM   40  O5  UNL     1       7.359   7.110  11.975  1.00  0.00    -0.650 OA
BRANCH  39  41
HETATM   41  O6  UNL     1       7.004   8.885  10.665  1.00  0.00    -0.776 OA
HETATM   42  H22 UNL     1       7.896   8.584  10.394  1.00  0.00     0.167 HD
ENDBRANCH  39  41
ENDBRANCH  38  39
ENDBRANCH  37  38
BRANCH  37  43
HETATM   43  C20 UNL     1       4.363   6.713  10.352  1.00  0.00     0.164 C 
HETATM   44  O7  UNL     1       4.108   7.400   9.375  1.00  0.00    -0.648 OA
BRANCH  43  45
HETATM   45  O8  UNL     1       4.748   5.429  10.189  1.00  0.00    -0.775 OA
HETATM   46  H23 UNL     1       4.708   5.298   9.217  1.00  0.00     0.167 HD
ENDBRANCH  43  45
ENDBRANCH  37  43
ENDBRANCH  35  37
ENDBRANCH  32  33
BRANCH  32  47
HETATM   47  C21 UNL     1       0.124   8.394  11.347  1.00  0.00     0.009 C 
HETATM   48  C22 UNL     1       0.272   8.137   9.845  1.00  0.00     0.012 C 
HETATM   49  C23 UNL     1      -1.257   8.982  11.643  1.00  0.00     0.012 C 
ENDBRANCH  32  47
ENDBRANCH  30  32
ENDBRANCH  27  28
ENDBRANCH  26  27
ENDBRANCH  13  26
TORSDOF 13
ENDMDL
MODEL 8
REMARK minimizedAffinity -7.751647
REMARK CNNscore 0.30760026
REMARK CNNaffinity 6.26409101
REMARK  13 active torsions:
REMARK  status: ('A' for Active; 'I' for Inactive)
REMARK    1  A    between atoms: C3_3  and  O1_4 
REMARK    2  A    between atoms: N1_14  and  O2_16 
REMARK    3  A    between atoms: O2_16  and  C13_17 
REMARK    4  A    between atoms: C13_17  and  C14_18 
REMARK       I    between atoms: C14_18  and  N2_20 
REMARK    5  A    between atoms: N2_20  and  C15_21 
REMARK    6  A    between atoms: C15_21  and  C16_22 
REMARK    7  A    between atoms: C15_21  and  C21_33 
REMARK       I    between atoms: C16_22  and  N3_24 
REMARK    8  A    between atoms: N3_24  and  C17_25 
REMARK    9  A    between atoms: C17_25  and  C18_26 
REMARK   10  A    between atoms: C17_25  and  C20_30 
REMARK   11  A    between atoms: C18_26  and  C19_27 
REMARK   12  A    between atoms: C19_27  and  O6_29 
REMARK   13  A    between atoms: C20_30  and  O8_32 
ROOT
HETATM    1  C1  UNL     1      -2.612   3.575  10.051  1.00  0.00     0.015 C 
HETATM    2  C2  UNL     1      -1.939   3.988  10.956  1.00  0.00    -0.078 C 
HETATM    3  C3  UNL     1      -1.104   4.487  12.073  1.00  0.00     0.128 C 
HETATM    4  C4  UNL     1      -0.128   5.558  11.562  1.00  0.00     0.052 C 
HETATM    5  C5  UNL     1      -0.827   6.909  11.785  1.00  0.00     0.010 C 
HETATM    6  C6  UNL     1      -2.162   6.605  12.496  1.00  0.00     0.002 C 
HETATM    7  C7  UNL     1      -2.757   7.702  13.417  1.00  0.00    -0.004 C 
HETATM    8  C8  UNL     1      -2.581   9.122  12.835  1.00  0.00     0.010 C 
HETATM    9  C9  UNL     1      -1.506   9.944  13.534  1.00  0.00     0.035 C 
HETATM   10  C10 UNL     1      -1.710  10.041  15.024  1.00  0.00    -0.069 C 
HETATM   11  C11 UNL     1      -1.184  11.082  15.695  1.00  0.00     0.030 C 
HETATM   12  C12 UNL     1      -1.321  11.228  17.168  1.00  0.00     0.032 C 
HETATM   13  N1  UNL     1      -0.852  12.314  17.714  1.00  0.00    -0.271 N 
ATOM     14  H1  UNL     1      -0.382  13.058  17.198  1.00  0.00     0.194 HD
HETATM   15  C24 UNL     1      -2.006  10.117  17.944  1.00  0.00     0.060 C 
HETATM   16  C25 UNL     1      -1.971   8.800  17.170  1.00  0.00     0.020 C 
HETATM   17  C26 UNL     1      -2.494   8.930  15.713  1.00  0.00    -0.016 C 
HETATM   18  C27 UNL     1      -3.996   9.327  15.786  1.00  0.00     0.020 C 
HETATM   19  C28 UNL     1      -2.374   7.569  14.927  1.00  0.00     0.002 C 
HETATM   20  C29 UNL     1      -1.035   6.832  15.077  1.00  0.00     0.007 C 
HETATM   21  C30 UNL     1      -1.052   5.420  14.474  1.00  0.00     0.014 C 
HETATM   22  C31 UNL     1      -1.905   5.245  13.180  1.00  0.00     0.003 C 
HETATM   23  C32 UNL     1      -3.217   4.525  13.550  1.00  0.00     0.020 C 
ENDROOT
BRANCH   3  24
HETATM   24  O1  UNL     1      -0.392   3.381  12.611  1.00  0.00    -0.377 OA
HETATM   25  H2  UNL     1       0.061   2.948  11.868  1.00  0.00     0.211 HD
ENDBRANCH   3  24
BRANCH  13  26
HETATM   26  O2  UNL     1      -1.072  12.334  19.099  1.00  0.00    -0.271 OA
BRANCH  26  27
HETATM   27  C13 UNL     1       0.081  12.872  19.734  1.00  0.00     0.303 C 
BRANCH  27  28
HETATM   28  C14 UNL     1       1.055  11.759  20.108  1.00  0.00     0.244 C 
HETATM   29  O3  UNL     1       1.019  10.648  19.580  1.00  0.00    -0.271 OA
HETATM   30  N2  UNL     1       1.997  12.109  21.054  1.00  0.00    -0.346 N 
HETATM   31  H16 UNL     1       2.158  13.108  21.152  1.00  0.00     0.163 HD
BRANCH  30  32
HETATM   32  C15 UNL     1       3.140  11.238  21.325  1.00  0.00     0.180 C 
BRANCH  32  33
HETATM   33  C16 UNL     1       4.357  12.150  21.597  1.00  0.00     0.241 C 
HETATM   34  O4  UNL     1       4.257  13.224  22.189  1.00  0.00    -0.271 OA
HETATM   35  N3  UNL     1       5.562  11.666  21.138  1.00  0.00    -0.344 N 
HETATM   36  H18 UNL     1       5.624  10.677  20.912  1.00  0.00     0.163 HD
BRANCH  35  37
HETATM   37  C17 UNL     1       6.826  12.329  21.471  1.00  0.00     0.192 C 
BRANCH  37  38
HETATM   38  C18 UNL     1       6.854  12.793  22.924  1.00  0.00     0.146 C 
BRANCH  38  39
HETATM   39  C19 UNL     1       8.251  13.091  23.387  1.00  0.00     0.141 C 
HETATM   40  O5  UNL     1       8.703  14.190  23.664  1.00  0.00    -0.650 OA
BRANCH  39  41
HETATM   41  O6  UNL     1       9.000  11.981  23.521  1.00  0.00    -0.776 OA
HETATM   42  H22 UNL     1       9.862  12.299  23.862  1.00  0.00     0.167 HD
ENDBRANCH  39  41
ENDBRANCH  38  39
ENDBRANCH  37  38
BRANCH  37  43
HETATM   43  C20 UNL     1       7.082  13.492  20.505  1.00  0.00     0.164 C 
HETATM   44  O7  UNL     1       6.256  14.098  19.842  1.00  0.00    -0.648 OA
BRANCH  43  45
HETATM   45  O8  UNL     1       8.389  13.822  20.417  1.00  0.00    -0.775 OA
HETATM   46  H23 UNL     1       8.401  14.536  19.745  1.00  0.00     0.167 HD
ENDBRANCH  43  45
ENDBRANCH  37  43
ENDBRANCH  35  37
ENDBRANCH  32  33
BRANCH  32  47
HETATM   47  C21 UNL     1       2.825  10.266  22.485  1.00  0.00     0.009 C 
HETATM   48  C22 UNL     1       3.654   8.982  22.400  1.00  0.00     0.012 C 
HETATM   49  C23 UNL     1       2.974  10.894  23.873  1.00  0.00     0.012 C 
ENDBRANCH  32  47
ENDBRANCH  30  32
ENDBRANCH  27  28
ENDBRANCH  26  27
ENDBRANCH  13  26
TORSDOF 13
ENDMDL
MODEL 9
REMARK minimizedAffinity -8.1976757
REMARK CNNscore 0.304168284
REMARK CNNaffinity 7.12902975
REMARK  13 active torsions:
REMARK  status: ('A' for Active; 'I' for Inactive)
REMARK    1  A    between atoms: C3_3  and  O1_4 
REMARK    2  A    between atoms: N1_14  and  O2_16 
REMARK    3  A    between atoms: O2_16  and  C13_17 
REMARK    4  A    between atoms: C13_17  and  C14_18 
REMARK       I    between atoms: C14_18  and  N2_20 
REMARK    5  A    between atoms: N2_20  and  C15_21 
REMARK    6  A    between atoms: C15_21  and  C16_22 
REMARK    7  A    between atoms: C15_21  and  C21_33 
REMARK       I    between atoms: C16_22  and  N3_24 
REMARK    8  A    between atoms: N3_24  and  C17_25 
REMARK    9  A    between atoms: C17_25  and  C18_26 
REMARK   10  A    between atoms: C17_25  and  C20_30 
REMARK   11  A    between atoms: C18_26  and  C19_27 
REMARK   12  A    between atoms: C19_27  and  O6_29 
REMARK   13  A    between atoms: C20_30  and  O8_32 
ROOT
HETATM    1  C1  UNL     1       2.102   7.184  14.160  1.00  0.00     0.015 C 
HETATM    2  C2  UNL     1       1.081   7.634  13.715  1.00  0.00    -0.078 C 
HETATM    3  C3  UNL     1      -0.171   8.200  13.164  1.00  0.00     0.128 C 
HETATM    4  C4  UNL     1      -0.588   7.425  11.903  1.00  0.00     0.052 C 
HETATM    5  C5  UNL     1      -1.560   6.333  12.379  1.00  0.00     0.010 C 
HETATM    6  C6  UNL     1      -1.756   6.544  13.895  1.00  0.00     0.002 C 
HETATM    7  C7  UNL     1      -3.099   6.087  14.522  1.00  0.00    -0.004 C 
HETATM    8  C8  UNL     1      -3.604   4.753  13.928  1.00  0.00     0.010 C 
HETATM    9  C9  UNL     1      -4.779   4.910  12.972  1.00  0.00     0.035 C 
HETATM   10  C10 UNL     1      -5.940   5.655  13.578  1.00  0.00    -0.069 C 
HETATM   11  C11 UNL     1      -7.178   5.456  13.090  1.00  0.00     0.030 C 
HETATM   12  C12 UNL     1      -8.366   6.176  13.619  1.00  0.00     0.032 C 
HETATM   13  N1  UNL     1      -9.533   5.851  13.139  1.00  0.00    -0.271 N 
ATOM     14  H1  UNL     1      -9.679   5.150  12.412  1.00  0.00     0.194 HD
HETATM   15  C24 UNL     1      -8.153   7.231  14.690  1.00  0.00     0.060 C 
HETATM   16  C25 UNL     1      -6.718   7.755  14.672  1.00  0.00     0.020 C 
HETATM   17  C26 UNL     1      -5.652   6.626  14.717  1.00  0.00    -0.016 C 
HETATM   18  C27 UNL     1      -5.806   5.888  16.077  1.00  0.00     0.020 C 
HETATM   19  C28 UNL     1      -4.188   7.204  14.624  1.00  0.00     0.002 C 
HETATM   20  C29 UNL     1      -3.963   8.272  13.544  1.00  0.00     0.007 C 
HETATM   21  C30 UNL     1      -2.590   8.950  13.642  1.00  0.00     0.014 C 
HETATM   22  C31 UNL     1      -1.412   8.035  14.100  1.00  0.00     0.003 C 
HETATM   23  C32 UNL     1      -1.082   8.358  15.571  1.00  0.00     0.020 C 
ENDROOT
BRANCH   3  24
HETATM   24  O1  UNL     1       0.068   9.565  12.852  1.00  0.00    -0.377 OA
HETATM   25  H2  UNL     1       0.860   9.592  12.290  1.00  0.00     0.211 HD
ENDBRANCH   3  24
BRANCH  13  26
HETATM   26  O2  UNL     1     -10.564   6.585  13.744  1.00  0.00    -0.271 OA
BRANCH  26  27
HETATM   27  C13 UNL     1     -11.182   7.399  12.755  1.00  0.00     0.303 C 
BRANCH  27  28
HETATM   28  C14 UNL     1     -12.616   7.731  13.155  1.00  0.00     0.244 C 
HETATM   29  O3  UNL     1     -13.575   7.503  12.417  1.00  0.00    -0.271 OA
HETATM   30  N2  UNL     1     -12.753   8.269  14.418  1.00  0.00    -0.346 N 
HETATM   31  H16 UNL     1     -11.979   8.087  15.051  1.00  0.00     0.163 HD
BRANCH  30  32
HETATM   32  C15 UNL     1     -14.075   8.403  15.031  1.00  0.00     0.180 C 
BRANCH  32  33
HETATM   33  C16 UNL     1     -14.925   9.293  14.095  1.00  0.00     0.241 C 
HETATM   34  O4  UNL     1     -14.559  10.412  13.738  1.00  0.00    -0.271 OA
HETATM   35  N3  UNL     1     -16.115   8.735  13.682  1.00  0.00    -0.344 N 
HETATM   36  H18 UNL     1     -16.229   7.729  13.780  1.00  0.00     0.163 HD
BRANCH  35  37
HETATM   37  C17 UNL     1     -16.944   9.378  12.660  1.00  0.00     0.192 C 
BRANCH  37  38
HETATM   38  C18 UNL     1     -18.432   9.229  12.964  1.00  0.00     0.146 C 
BRANCH  38  39
HETATM   39  C19 UNL     1     -19.239   9.024  11.715  1.00  0.00     0.141 C 
HETATM   40  O5  UNL     1     -19.870   9.878  11.112  1.00  0.00    -0.650 OA
BRANCH  39  41
HETATM   41  O6  UNL     1     -19.174   7.760  11.259  1.00  0.00    -0.776 OA
HETATM   42  H22 UNL     1     -19.698   7.765  10.430  1.00  0.00     0.167 HD
ENDBRANCH  39  41
ENDBRANCH  38  39
ENDBRANCH  37  38
BRANCH  37  43
HETATM   43  C20 UNL     1     -16.596   8.824  11.274  1.00  0.00     0.164 C 
HETATM   44  O7  UNL     1     -16.098   7.740  11.014  1.00  0.00    -0.648 OA
BRANCH  43  45
HETATM   45  O8  UNL     1     -16.888   9.687  10.276  1.00  0.00    -0.775 OA
HETATM   46  H23 UNL     1     -16.577   9.221   9.471  1.00  0.00     0.167 HD
ENDBRANCH  43  45
ENDBRANCH  37  43
ENDBRANCH  35  37
ENDBRANCH  32  33
BRANCH  32  47
HETATM   47  C21 UNL     1     -14.699   7.014  15.298  1.00  0.00     0.009 C 
HETATM   48  C22 UNL     1     -15.272   6.904  16.713  1.00  0.00     0.012 C 
HETATM   49  C23 UNL     1     -15.758   6.606  14.271  1.00  0.00     0.012 C 
ENDBRANCH  32  47
ENDBRANCH  30  32
ENDBRANCH  27  28
ENDBRANCH  26  27
ENDBRANCH  13  26
TORSDOF 13
ENDMDL
