MODEL 1
REMARK minimizedAffinity -6.70905781
REMARK CNNscore 0.618000269
REMARK CNNaffinity 6.72391939
REMARK  4 active torsions:
REMARK  status: ('A' for Active; 'I' for Inactive)
REMARK    1  A    between atoms: C4_4  and  C5_5 
REMARK    2  A    between atoms: C5_5  and  C6_6 
REMARK    3  A    between atoms: C6_6  and  C7_7 
REMARK    4  A    between atoms: C7_7  and  C9_9 
ROOT
HETATM    1  C9  UNL     1     -14.125 -11.748  27.056  1.00  0.00    -0.002 C 
HETATM    2  C10 UNL     1     -15.685 -11.734  27.052  1.00  0.00     0.007 C 
HETATM    3  C11 UNL     1     -16.143 -10.597  27.982  1.00  0.00     0.015 C 
HETATM    4  C12 UNL     1     -14.878 -10.187  28.758  1.00  0.00    -0.013 C 
HETATM    5  C13 UNL     1     -14.750 -11.195  29.946  1.00  0.00     0.021 C 
HETATM    6  C14 UNL     1     -14.844  -8.795  29.384  1.00  0.00    -0.070 C 
HETATM    7  C15 UNL     1     -15.950  -8.197  29.858  1.00  0.00    -0.022 C 
HETATM    8  C16 UNL     1     -15.964  -6.888  30.582  1.00  0.00     0.034 C 
HETATM    9  C17 UNL     1     -14.631  -6.108  30.540  1.00  0.00     0.013 C 
HETATM   10  C18 UNL     1     -14.633  -4.853  31.490  1.00  0.00     0.018 C 
HETATM   11  C19 UNL     1     -15.361  -5.057  32.833  1.00  0.00     0.023 C 
HETATM   12  C20 UNL     1     -15.323  -3.670  30.775  1.00  0.00     0.023 C 
HETATM   13  C21 UNL     1     -13.190  -4.416  31.764  1.00  0.00     0.135 C 
HETATM   14  O1  UNL     1     -12.868  -3.762  32.756  1.00  0.00    -0.297 OA
HETATM   15  C22 UNL     1     -12.178  -4.749  30.705  1.00  0.00     0.080 C 
HETATM   16  C23 UNL     1     -12.055  -6.252  30.514  1.00  0.00     0.017 C 
HETATM   17  C24 UNL     1     -13.383  -7.063  30.670  1.00  0.00    -0.031 C 
HETATM   18  C25 UNL     1     -13.353  -7.771  32.046  1.00  0.00     0.016 C 
HETATM   19  C26 UNL     1     -13.474  -8.121  29.492  1.00  0.00     0.024 C 
HETATM   20  C27 UNL     1     -12.310  -9.141  29.438  1.00  0.00     0.010 C 
HETATM   21  C28 UNL     1     -12.388 -10.189  28.299  1.00  0.00     0.011 C 
HETATM   22  C29 UNL     1     -13.779 -10.336  27.645  1.00  0.00    -0.029 C 
HETATM   23  C30 UNL     1     -13.909  -9.289  26.493  1.00  0.00     0.016 C 
ENDROOT
BRANCH   1  24
HETATM   24  C7  UNL     1     -13.549 -12.175  25.673  1.00  0.00    -0.014 C 
HETATM   25  C8  UNL     1     -14.086 -13.555  25.250  1.00  0.00     0.010 C 
BRANCH  24  26
HETATM   26  C6  UNL     1     -12.004 -12.161  25.577  1.00  0.00     0.008 C 
BRANCH  26  27
HETATM   27  C5  UNL     1     -11.427 -12.571  24.219  1.00  0.00     0.028 C 
BRANCH  27  28
HETATM   28  C4  UNL     1     -10.031 -12.133  23.840  1.00  0.00    -0.025 C 
HETATM   29  C2  UNL     1      -8.842 -12.192  24.473  1.00  0.00    -0.091 C 
HETATM   30  C1  UNL     1      -7.610 -11.622  23.814  1.00  0.00     0.042 C 
HETATM   31  C3  UNL     1      -8.592 -12.800  25.822  1.00  0.00     0.042 C 
ENDBRANCH  27  28
ENDBRANCH  26  27
ENDBRANCH  24  26
ENDBRANCH   1  24
TORSDOF 4
ENDMDL
MODEL 2
REMARK minimizedAffinity -6.77559137
REMARK CNNscore 0.579461992
REMARK CNNaffinity 5.28555441
REMARK  4 active torsions:
REMARK  status: ('A' for Active; 'I' for Inactive)
REMARK    1  A    between atoms: C4_4  and  C5_5 
REMARK    2  A    between atoms: C5_5  and  C6_6 
REMARK    3  A    between atoms: C6_6  and  C7_7 
REMARK    4  A    between atoms: C7_7  and  C9_9 
ROOT
HETATM    1  C9  UNL     1      -7.915  -9.578  12.097  1.00  0.00    -0.002 C 
HETATM    2  C10 UNL     1      -9.273  -9.285  11.387  1.00  0.00     0.007 C 
HETATM    3  C11 UNL     1      -9.034  -9.371   9.869  1.00  0.00     0.015 C 
HETATM    4  C12 UNL     1      -7.502  -9.384   9.711  1.00  0.00    -0.013 C 
HETATM    5  C13 UNL     1      -7.046  -7.890   9.764  1.00  0.00     0.021 C 
HETATM    6  C14 UNL     1      -6.922  -9.954   8.419  1.00  0.00    -0.070 C 
HETATM    7  C15 UNL     1      -7.557  -9.840   7.240  1.00  0.00    -0.022 C 
HETATM    8  C16 UNL     1      -6.991 -10.275   5.925  1.00  0.00     0.034 C 
HETATM    9  C17 UNL     1      -5.699 -11.118   6.020  1.00  0.00     0.013 C 
HETATM   10  C18 UNL     1      -5.030 -11.363   4.617  1.00  0.00     0.018 C 
HETATM   11  C19 UNL     1      -5.096 -10.166   3.649  1.00  0.00     0.023 C 
HETATM   12  C20 UNL     1      -5.728 -12.551   3.918  1.00  0.00     0.023 C 
HETATM   13  C21 UNL     1      -3.566 -11.770   4.811  1.00  0.00     0.135 C 
HETATM   14  O1  UNL     1      -2.711 -11.624   3.937  1.00  0.00    -0.297 OA
HETATM   15  C22 UNL     1      -3.227 -12.450   6.108  1.00  0.00     0.080 C 
HETATM   16  C23 UNL     1      -3.495 -11.537   7.294  1.00  0.00     0.017 C 
HETATM   17  C24 UNL     1      -4.736 -10.596   7.156  1.00  0.00    -0.031 C 
HETATM   18  C25 UNL     1      -4.224  -9.168   6.851  1.00  0.00     0.016 C 
HETATM   19  C26 UNL     1      -5.551 -10.627   8.516  1.00  0.00     0.024 C 
HETATM   20  C27 UNL     1      -4.757 -10.168   9.764  1.00  0.00     0.010 C 
HETATM   21  C28 UNL     1      -5.541 -10.181  11.101  1.00  0.00     0.011 C 
HETATM   22  C29 UNL     1      -7.077 -10.248  10.953  1.00  0.00    -0.029 C 
HETATM   23  C30 UNL     1      -7.510 -11.745  10.853  1.00  0.00     0.016 C 
ENDROOT
BRANCH   1  24
HETATM   24  C7  UNL     1      -8.121 -10.324  13.449  1.00  0.00    -0.014 C 
HETATM   25  C8  UNL     1      -7.523 -11.742  13.397  1.00  0.00     0.010 C 
BRANCH  24  26
HETATM   26  C6  UNL     1      -9.587 -10.391  13.942  1.00  0.00     0.008 C 
BRANCH  26  27
HETATM   27  C5  UNL     1      -9.781 -10.212  15.450  1.00  0.00     0.028 C 
BRANCH  27  28
HETATM   28  C4  UNL     1     -10.944  -9.393  15.959  1.00  0.00    -0.025 C 
HETATM   29  C2  UNL     1     -11.442  -9.164  17.192  1.00  0.00    -0.091 C 
HETATM   30  C1  UNL     1     -12.667  -8.298  17.359  1.00  0.00     0.042 C 
HETATM   31  C3  UNL     1     -10.881  -9.692  18.479  1.00  0.00     0.042 C 
ENDBRANCH  27  28
ENDBRANCH  26  27
ENDBRANCH  24  26
ENDBRANCH   1  24
TORSDOF 4
ENDMDL
MODEL 3
REMARK minimizedAffinity -8.10058594
REMARK CNNscore 0.509757638
REMARK CNNaffinity 6.70085382
REMARK  4 active torsions:
REMARK  status: ('A' for Active; 'I' for Inactive)
REMARK    1  A    between atoms: C4_4  and  C5_5 
REMARK    2  A    between atoms: C5_5  and  C6_6 
REMARK    3  A    between atoms: C6_6  and  C7_7 
REMARK    4  A    between atoms: C7_7  and  C9_9 
ROOT
HETATM    1  C9  UNL     1      -0.856  12.586  18.353  1.00  0.00    -0.002 C 
HETATM    2  C10 UNL     1      -2.213  13.345  18.464  1.00  0.00     0.007 C 
HETATM    3  C11 UNL     1      -3.254  12.564  17.641  1.00  0.00     0.015 C 
HETATM    4  C12 UNL     1      -2.429  11.565  16.808  1.00  0.00    -0.013 C 
HETATM    5  C13 UNL     1      -1.931  12.353  15.553  1.00  0.00     0.021 C 
HETATM    6  C14 UNL     1      -3.139  10.326  16.271  1.00  0.00    -0.070 C 
HETATM    7  C15 UNL     1      -4.435  10.344  15.913  1.00  0.00    -0.022 C 
HETATM    8  C16 UNL     1      -5.156   9.198  15.276  1.00  0.00     0.034 C 
HETATM    9  C17 UNL     1      -4.380   7.862  15.276  1.00  0.00     0.013 C 
HETATM   10  C18 UNL     1      -5.083   6.752  14.409  1.00  0.00     0.018 C 
HETATM   11  C19 UNL     1      -5.736   7.261  13.109  1.00  0.00     0.023 C 
HETATM   12  C20 UNL     1      -6.198   6.081  15.243  1.00  0.00     0.023 C 
HETATM   13  C21 UNL     1      -4.073   5.653  14.065  1.00  0.00     0.135 C 
HETATM   14  O1  UNL     1      -4.206   4.904  13.096  1.00  0.00    -0.297 OA
HETATM   15  C22 UNL     1      -2.937   5.464  15.029  1.00  0.00     0.080 C 
HETATM   16  C23 UNL     1      -2.075   6.714  15.116  1.00  0.00     0.017 C 
HETATM   17  C24 UNL     1      -2.841   8.071  15.000  1.00  0.00    -0.031 C 
HETATM   18  C25 UNL     1      -2.593   8.643  13.583  1.00  0.00     0.016 C 
HETATM   19  C26 UNL     1      -2.293   9.060  16.112  1.00  0.00     0.024 C 
HETATM   20  C27 UNL     1      -0.779   9.372  16.022  1.00  0.00     0.010 C 
HETATM   21  C28 UNL     1      -0.229  10.345  17.095  1.00  0.00     0.011 C 
HETATM   22  C29 UNL     1      -1.303  11.175  17.832  1.00  0.00    -0.029 C 
HETATM   23  C30 UNL     1      -1.824  10.355  19.054  1.00  0.00     0.016 C 
ENDROOT
BRANCH   1  24
HETATM   24  C7  UNL     1      -0.021  12.701  19.663  1.00  0.00    -0.014 C 
HETATM   25  C8  UNL     1       0.190  14.174  20.059  1.00  0.00     0.010 C 
BRANCH  24  26
HETATM   26  C6  UNL     1       1.340  11.964  19.638  1.00  0.00     0.008 C 
BRANCH  26  27
HETATM   27  C5  UNL     1       1.420  10.704  20.504  1.00  0.00     0.028 C 
BRANCH  27  28
HETATM   28  C4  UNL     1       2.465  10.613  21.592  1.00  0.00    -0.025 C 
HETATM   29  C2  UNL     1       2.788   9.653  22.482  1.00  0.00    -0.091 C 
HETATM   30  C1  UNL     1       3.893   9.896  23.482  1.00  0.00     0.042 C 
HETATM   31  C3  UNL     1       2.149   8.300  22.589  1.00  0.00     0.042 C 
ENDBRANCH  27  28
ENDBRANCH  26  27
ENDBRANCH  24  26
ENDBRANCH   1  24
TORSDOF 4
ENDMDL
MODEL 4
REMARK minimizedAffinity -8.61985779
REMARK CNNscore 0.482648998
REMARK CNNaffinity 7.04065704
REMARK  4 active torsions:
REMARK  status: ('A' for Active; 'I' for Inactive)
REMARK    1  A    between atoms: C4_4  and  C5_5 
REMARK    2  A    between atoms: C5_5  and  C6_6 
REMARK    3  A    between atoms: C6_6  and  C7_7 
REMARK    4  A    between atoms: C7_7  and  C9_9 
ROOT
HETATM    1  C9  UNL     1      -3.600   7.309  14.518  1.00  0.00    -0.002 C 
HETATM    2  C10 UNL     1      -3.987   8.640  13.801  1.00  0.00     0.007 C 
HETATM    3  C11 UNL     1      -2.882   8.954  12.775  1.00  0.00     0.015 C 
HETATM    4  C12 UNL     1      -1.727   8.001  13.135  1.00  0.00    -0.013 C 
HETATM    5  C13 UNL     1      -0.938   8.692  14.294  1.00  0.00     0.021 C 
HETATM    6  C14 UNL     1      -0.696   7.690  12.053  1.00  0.00    -0.070 C 
HETATM    7  C15 UNL     1      -0.344   8.592  11.120  1.00  0.00    -0.022 C 
HETATM    8  C16 UNL     1       0.738   8.388  10.107  1.00  0.00     0.034 C 
HETATM    9  C17 UNL     1       1.284   6.945  10.021  1.00  0.00     0.013 C 
HETATM   10  C18 UNL     1       2.557   6.832   9.104  1.00  0.00     0.018 C 
HETATM   11  C19 UNL     1       3.536   8.018   9.204  1.00  0.00     0.023 C 
HETATM   12  C20 UNL     1       2.117   6.732   7.626  1.00  0.00     0.023 C 
HETATM   13  C21 UNL     1       3.308   5.536   9.425  1.00  0.00     0.135 C 
HETATM   14  O1  UNL     1       4.505   5.381   9.185  1.00  0.00    -0.297 OA
HETATM   15  C22 UNL     1       2.484   4.405   9.974  1.00  0.00     0.080 C 
HETATM   16  C23 UNL     1       1.852   4.781  11.305  1.00  0.00     0.017 C 
HETATM   17  C24 UNL     1       1.402   6.272  11.443  1.00  0.00    -0.031 C 
HETATM   18  C25 UNL     1       2.436   7.005  12.331  1.00  0.00     0.016 C 
HETATM   19  C26 UNL     1      -0.039   6.309  12.104  1.00  0.00     0.024 C 
HETATM   20  C27 UNL     1      -0.130   5.665  13.509  1.00  0.00     0.010 C 
HETATM   21  C28 UNL     1      -1.529   5.702  14.175  1.00  0.00     0.011 C 
HETATM   22  C29 UNL     1      -2.518   6.710  13.552  1.00  0.00    -0.029 C 
HETATM   23  C30 UNL     1      -3.263   6.020  12.365  1.00  0.00     0.016 C 
ENDROOT
BRANCH   1  24
HETATM   24  C7  UNL     1      -4.858   6.470  14.892  1.00  0.00    -0.014 C 
HETATM   25  C8  UNL     1      -4.961   5.205  14.020  1.00  0.00     0.010 C 
BRANCH  24  26
HETATM   26  C6  UNL     1      -6.197   7.246  14.852  1.00  0.00     0.008 C 
BRANCH  26  27
HETATM   27  C5  UNL     1      -7.454   6.398  15.064  1.00  0.00     0.028 C 
BRANCH  27  28
HETATM   28  C4  UNL     1      -7.564   5.049  14.393  1.00  0.00    -0.025 C 
HETATM   29  C2  UNL     1      -8.108   4.638  13.229  1.00  0.00    -0.091 C 
HETATM   30  C1  UNL     1      -8.076   3.175  12.859  1.00  0.00     0.042 C 
HETATM   31  C3  UNL     1      -8.766   5.517  12.207  1.00  0.00     0.042 C 
ENDBRANCH  27  28
ENDBRANCH  26  27
ENDBRANCH  24  26
ENDBRANCH   1  24
TORSDOF 4
ENDMDL
MODEL 5
REMARK minimizedAffinity -7.45140171
REMARK CNNscore 0.481772184
REMARK CNNaffinity 6.25316477
REMARK  4 active torsions:
REMARK  status: ('A' for Active; 'I' for Inactive)
REMARK    1  A    between atoms: C4_4  and  C5_5 
REMARK    2  A    between atoms: C5_5  and  C6_6 
REMARK    3  A    between atoms: C6_6  and  C7_7 
REMARK    4  A    between atoms: C7_7  and  C9_9 
ROOT
HETATM    1  C9  UNL     1       2.241   7.589  11.095  1.00  0.00    -0.002 C 
HETATM    2  C10 UNL     1       3.044   6.356  10.578  1.00  0.00     0.007 C 
HETATM    3  C11 UNL     1       4.476   6.467  11.133  1.00  0.00     0.015 C 
HETATM    4  C12 UNL     1       4.577   7.903  11.680  1.00  0.00    -0.013 C 
HETATM    5  C13 UNL     1       4.912   8.813  10.454  1.00  0.00     0.021 C 
HETATM    6  C14 UNL     1       5.651   8.195  12.725  1.00  0.00    -0.070 C 
HETATM    7  C15 UNL     1       6.837   7.562  12.727  1.00  0.00    -0.022 C 
HETATM    8  C16 UNL     1       7.969   7.882  13.651  1.00  0.00     0.034 C 
HETATM    9  C17 UNL     1       7.612   8.842  14.808  1.00  0.00     0.013 C 
HETATM   10  C18 UNL     1       8.877   9.315  15.617  1.00  0.00     0.018 C 
HETATM   11  C19 UNL     1      10.132   9.577  14.761  1.00  0.00     0.023 C 
HETATM   12  C20 UNL     1       9.254   8.235  16.655  1.00  0.00     0.023 C 
HETATM   13  C21 UNL     1       8.536  10.582  16.407  1.00  0.00     0.135 C 
HETATM   14  O1  UNL     1       9.390  11.386  16.780  1.00  0.00    -0.297 OA
HETATM   15  C22 UNL     1       7.095  10.761  16.793  1.00  0.00     0.080 C 
HETATM   16  C23 UNL     1       6.205  10.868  15.565  1.00  0.00     0.017 C 
HETATM   17  C24 UNL     1       6.628   9.985  14.346  1.00  0.00    -0.031 C 
HETATM   18  C25 UNL     1       7.288  10.907  13.293  1.00  0.00     0.016 C 
HETATM   19  C26 UNL     1       5.335   9.284  13.753  1.00  0.00     0.024 C 
HETATM   20  C27 UNL     1       4.232  10.253  13.264  1.00  0.00     0.010 C 
HETATM   21  C28 UNL     1       2.965   9.585  12.671  1.00  0.00     0.011 C 
HETATM   22  C29 UNL     1       3.137   8.103  12.276  1.00  0.00    -0.029 C 
HETATM   23  C30 UNL     1       2.846   7.209  13.524  1.00  0.00     0.016 C 
ENDROOT
BRANCH   1  24
HETATM   24  C7  UNL     1       0.745   7.235  11.352  1.00  0.00    -0.014 C 
HETATM   25  C8  UNL     1       0.410   5.826  10.831  1.00  0.00     0.010 C 
BRANCH  24  26
HETATM   26  C6  UNL     1      -0.273   8.258  10.793  1.00  0.00     0.008 C 
BRANCH  26  27
HETATM   27  C5  UNL     1       0.097   8.884   9.445  1.00  0.00     0.028 C 
BRANCH  27  28
HETATM   28  C4  UNL     1       0.509   7.991   8.298  1.00  0.00    -0.025 C 
HETATM   29  C2  UNL     1       1.644   7.878   7.578  1.00  0.00    -0.091 C 
HETATM   30  C1  UNL     1       1.721   6.881   6.448  1.00  0.00     0.042 C 
HETATM   31  C3  UNL     1       2.903   8.666   7.792  1.00  0.00     0.042 C 
ENDBRANCH  27  28
ENDBRANCH  26  27
ENDBRANCH  24  26
ENDBRANCH   1  24
TORSDOF 4
ENDMDL
MODEL 6
REMARK minimizedAffinity -7.25845861
REMARK CNNscore 0.440760195
REMARK CNNaffinity 6.54931116
REMARK  4 active torsions:
REMARK  status: ('A' for Active; 'I' for Inactive)
REMARK    1  A    between atoms: C4_4  and  C5_5 
REMARK    2  A    between atoms: C5_5  and  C6_6 
REMARK    3  A    between atoms: C6_6  and  C7_7 
REMARK    4  A    between atoms: C7_7  and  C9_9 
ROOT
HETATM    1  C9  UNL     1     -12.747  10.294  23.039  1.00  0.00    -0.002 C 
HETATM    2  C10 UNL     1     -13.104  10.943  24.412  1.00  0.00     0.007 C 
HETATM    3  C11 UNL     1     -13.619   9.824  25.337  1.00  0.00     0.015 C 
HETATM    4  C12 UNL     1     -13.865   8.624  24.404  1.00  0.00    -0.013 C 
HETATM    5  C13 UNL     1     -15.279   8.845  23.775  1.00  0.00     0.021 C 
HETATM    6  C14 UNL     1     -13.896   7.231  25.027  1.00  0.00    -0.070 C 
HETATM    7  C15 UNL     1     -14.356   7.015  26.271  1.00  0.00    -0.022 C 
HETATM    8  C16 UNL     1     -14.518   5.664  26.894  1.00  0.00     0.034 C 
HETATM    9  C17 UNL     1     -13.875   4.502  26.103  1.00  0.00     0.013 C 
HETATM   10  C18 UNL     1     -14.257   3.090  26.682  1.00  0.00     0.018 C 
HETATM   11  C19 UNL     1     -15.709   2.966  27.185  1.00  0.00     0.023 C 
HETATM   12  C20 UNL     1     -13.334   2.759  27.876  1.00  0.00     0.023 C 
HETATM   13  C21 UNL     1     -14.002   2.014  25.621  1.00  0.00     0.135 C 
HETATM   14  O1  UNL     1     -14.572   0.923  25.627  1.00  0.00    -0.297 OA
HETATM   15  C22 UNL     1     -12.940   2.319  24.603  1.00  0.00     0.080 C 
HETATM   16  C23 UNL     1     -13.304   3.542  23.777  1.00  0.00     0.017 C 
HETATM   17  C24 UNL     1     -14.059   4.675  24.545  1.00  0.00    -0.031 C 
HETATM   18  C25 UNL     1     -15.551   4.617  24.142  1.00  0.00     0.016 C 
HETATM   19  C26 UNL     1     -13.420   6.072  24.148  1.00  0.00     0.024 C 
HETATM   20  C27 UNL     1     -13.482   6.413  22.639  1.00  0.00     0.010 C 
HETATM   21  C28 UNL     1     -12.871   7.779  22.234  1.00  0.00     0.011 C 
HETATM   22  C29 UNL     1     -12.666   8.770  23.400  1.00  0.00    -0.029 C 
HETATM   23  C30 UNL     1     -11.270   8.504  24.048  1.00  0.00     0.016 C 
ENDROOT
BRANCH   1  24
HETATM   24  C7  UNL     1     -11.533  11.000  22.366  1.00  0.00    -0.014 C 
HETATM   25  C8  UNL     1     -11.021  10.194  21.159  1.00  0.00     0.010 C 
BRANCH  24  26
HETATM   26  C6  UNL     1     -10.356  11.324  23.318  1.00  0.00     0.008 C 
BRANCH  26  27
HETATM   27  C5  UNL     1      -9.679  12.679  23.089  1.00  0.00     0.028 C 
BRANCH  27  28
HETATM   28  C4  UNL     1      -8.225  12.725  22.680  1.00  0.00    -0.025 C 
HETATM   29  C2  UNL     1      -7.215  13.574  22.960  1.00  0.00    -0.091 C 
HETATM   30  C1  UNL     1      -5.854  13.349  22.349  1.00  0.00     0.042 C 
HETATM   31  C3  UNL     1      -7.294  14.769  23.864  1.00  0.00     0.042 C 
ENDBRANCH  27  28
ENDBRANCH  26  27
ENDBRANCH  24  26
ENDBRANCH   1  24
TORSDOF 4
ENDMDL
MODEL 7
REMARK minimizedAffinity -7.52093124
REMARK CNNscore 0.42777887
REMARK CNNaffinity 6.67313051
REMARK  4 active torsions:
REMARK  status: ('A' for Active; 'I' for Inactive)
REMARK    1  A    between atoms: C4_4  and  C5_5 
REMARK    2  A    between atoms: C5_5  and  C6_6 
REMARK    3  A    between atoms: C6_6  and  C7_7 
REMARK    4  A    between atoms: C7_7  and  C9_9 
ROOT
HETATM    1  C9  UNL     1      -1.283  11.309  17.072  1.00  0.00    -0.002 C 
HETATM    2  C10 UNL     1      -2.468  11.866  17.920  1.00  0.00     0.007 C 
HETATM    3  C11 UNL     1      -3.745  11.128  17.477  1.00  0.00     0.015 C 
HETATM    4  C12 UNL     1      -3.352  10.407  16.174  1.00  0.00    -0.013 C 
HETATM    5  C13 UNL     1      -3.489  11.465  15.032  1.00  0.00     0.021 C 
HETATM    6  C14 UNL     1      -4.194   9.210  15.740  1.00  0.00    -0.070 C 
HETATM    7  C15 UNL     1      -5.513   9.136  15.988  1.00  0.00    -0.022 C 
HETATM    8  C16 UNL     1      -6.412   8.048  15.490  1.00  0.00     0.034 C 
HETATM    9  C17 UNL     1      -5.682   6.838  14.865  1.00  0.00     0.013 C 
HETATM   10  C18 UNL     1      -6.668   5.829  14.168  1.00  0.00     0.018 C 
HETATM   11  C19 UNL     1      -7.846   6.485  13.421  1.00  0.00     0.023 C 
HETATM   12  C20 UNL     1      -7.274   4.887  15.232  1.00  0.00     0.023 C 
HETATM   13  C21 UNL     1      -5.889   4.942  13.192  1.00  0.00     0.135 C 
HETATM   14  O1  UNL     1      -6.419   4.373  12.238  1.00  0.00    -0.297 OA
HETATM   15  C22 UNL     1      -4.436   4.718  13.506  1.00  0.00     0.080 C 
HETATM   16  C23 UNL     1      -3.660   6.026  13.483  1.00  0.00     0.017 C 
HETATM   17  C24 UNL     1      -4.434   7.279  14.007  1.00  0.00    -0.031 C 
HETATM   18  C25 UNL     1      -4.860   8.126  12.784  1.00  0.00     0.016 C 
HETATM   19  C26 UNL     1      -3.474   8.107  14.961  1.00  0.00     0.024 C 
HETATM   20  C27 UNL     1      -2.169   8.610  14.297  1.00  0.00     0.010 C 
HETATM   21  C28 UNL     1      -1.224   9.430  15.212  1.00  0.00     0.011 C 
HETATM   22  C29 UNL     1      -1.878   9.974  16.501  1.00  0.00    -0.029 C 
HETATM   23  C30 UNL     1      -1.776   8.887  17.617  1.00  0.00     0.016 C 
ENDROOT
BRANCH   1  24
HETATM   24  C7  UNL     1       0.045  11.283  17.885  1.00  0.00    -0.014 C 
HETATM   25  C8  UNL     1       1.041  10.270  17.290  1.00  0.00     0.010 C 
BRANCH  24  26
HETATM   26  C6  UNL     1      -0.123  11.025  19.403  1.00  0.00     0.008 C 
BRANCH  26  27
HETATM   27  C5  UNL     1       1.030  11.515  20.283  1.00  0.00     0.028 C 
BRANCH  27  28
HETATM   28  C4  UNL     1       1.757  10.533  21.173  1.00  0.00    -0.025 C 
HETATM   29  C2  UNL     1       3.062  10.251  21.361  1.00  0.00    -0.091 C 
HETATM   30  C1  UNL     1       3.464   9.162  22.327  1.00  0.00     0.042 C 
HETATM   31  C3  UNL     1       4.216  10.937  20.692  1.00  0.00     0.042 C 
ENDBRANCH  27  28
ENDBRANCH  26  27
ENDBRANCH  24  26
ENDBRANCH   1  24
TORSDOF 4
ENDMDL
MODEL 8
REMARK minimizedAffinity -7.3248477
REMARK CNNscore 0.423364043
REMARK CNNaffinity 7.19788122
REMARK  4 active torsions:
REMARK  status: ('A' for Active; 'I' for Inactive)
REMARK    1  A    between atoms: C4_4  and  C5_5 
REMARK    2  A    between atoms: C5_5  and  C6_6 
REMARK    3  A    between atoms: C6_6  and  C7_7 
REMARK    4  A    between atoms: C7_7  and  C9_9 
ROOT
HETATM    1  C9  UNL     1      -8.789   6.758  14.728  1.00  0.00    -0.002 C 
HETATM    2  C10 UNL     1      -8.240   8.079  15.348  1.00  0.00     0.007 C 
HETATM    3  C11 UNL     1      -6.711   8.077  15.171  1.00  0.00     0.015 C 
HETATM    4  C12 UNL     1      -6.363   6.635  14.758  1.00  0.00    -0.013 C 
HETATM    5  C13 UNL     1      -6.276   5.812  16.084  1.00  0.00     0.021 C 
HETATM    6  C14 UNL     1      -5.042   6.399  14.031  1.00  0.00    -0.070 C 
HETATM    7  C15 UNL     1      -3.948   7.138  14.280  1.00  0.00    -0.022 C 
HETATM    8  C16 UNL     1      -2.598   6.884  13.686  1.00  0.00     0.034 C 
HETATM    9  C17 UNL     1      -2.578   5.849  12.539  1.00  0.00     0.013 C 
HETATM   10  C18 UNL     1      -1.118   5.460  12.099  1.00  0.00     0.018 C 
HETATM   11  C19 UNL     1      -0.100   5.350  13.251  1.00  0.00     0.023 C 
HETATM   12  C20 UNL     1      -0.578   6.525  11.118  1.00  0.00     0.023 C 
HETATM   13  C21 UNL     1      -1.149   4.135  11.331  1.00  0.00     0.135 C 
HETATM   14  O1  UNL     1      -0.167   3.398  11.231  1.00  0.00    -0.297 OA
HETATM   15  C22 UNL     1      -2.428   3.808  10.614  1.00  0.00     0.080 C 
HETATM   16  C23 UNL     1      -3.587   3.672  11.589  1.00  0.00     0.017 C 
HETATM   17  C24 UNL     1      -3.553   4.640  12.816  1.00  0.00    -0.031 C 
HETATM   18  C25 UNL     1      -3.108   3.828  14.056  1.00  0.00     0.016 C 
HETATM   19  C26 UNL     1      -5.004   5.244  13.027  1.00  0.00     0.024 C 
HETATM   20  C27 UNL     1      -6.115   4.199  13.291  1.00  0.00     0.010 C 
HETATM   21  C28 UNL     1      -7.539   4.772  13.509  1.00  0.00     0.011 C 
HETATM   22  C29 UNL     1      -7.588   6.279  13.840  1.00  0.00    -0.029 C 
HETATM   23  C30 UNL     1      -7.626   7.089  12.505  1.00  0.00     0.016 C 
ENDROOT
BRANCH   1  24
HETATM   24  C7  UNL     1     -10.195   6.961  14.089  1.00  0.00    -0.014 C 
HETATM   25  C8  UNL     1     -10.228   6.440  12.641  1.00  0.00     0.010 C 
BRANCH  24  26
HETATM   26  C6  UNL     1     -10.731   8.414  14.137  1.00  0.00     0.008 C 
BRANCH  26  27
HETATM   27  C5  UNL     1     -12.096   8.589  14.807  1.00  0.00     0.028 C 
BRANCH  27  28
HETATM   28  C4  UNL     1     -13.287   9.000  13.975  1.00  0.00    -0.025 C 
HETATM   29  C2  UNL     1     -14.106   8.328  13.141  1.00  0.00    -0.091 C 
HETATM   30  C1  UNL     1     -15.212   9.061  12.420  1.00  0.00     0.042 C 
HETATM   31  C3  UNL     1     -14.044   6.859  12.841  1.00  0.00     0.042 C 
ENDBRANCH  27  28
ENDBRANCH  26  27
ENDBRANCH  24  26
ENDBRANCH   1  24
TORSDOF 4
ENDMDL
MODEL 9
REMARK minimizedAffinity -7.10860395
REMARK CNNscore 0.420385242
REMARK CNNaffinity 6.8379426
REMARK  4 active torsions:
REMARK  status: ('A' for Active; 'I' for Inactive)
REMARK    1  A    between atoms: C4_4  and  C5_5 
REMARK    2  A    between atoms: C5_5  and  C6_6 
REMARK    3  A    between atoms: C6_6  and  C7_7 
REMARK    4  A    between atoms: C7_7  and  C9_9 
ROOT
HETATM    1  C9  UNL     1      -7.317   6.304  13.961  1.00  0.00    -0.002 C 
HETATM    2  C10 UNL     1      -7.049   4.947  14.682  1.00  0.00     0.007 C 
HETATM    3  C11 UNL     1      -5.524   4.789  14.827  1.00  0.00     0.015 C 
HETATM    4  C12 UNL     1      -4.927   5.874  13.911  1.00  0.00    -0.013 C 
HETATM    5  C13 UNL     1      -4.918   5.269  12.469  1.00  0.00     0.021 C 
HETATM    6  C14 UNL     1      -3.495   6.328  14.183  1.00  0.00    -0.070 C 
HETATM    7  C15 UNL     1      -2.560   5.492  14.665  1.00  0.00    -0.022 C 
HETATM    8  C16 UNL     1      -1.117   5.846  14.845  1.00  0.00     0.034 C 
HETATM    9  C17 UNL     1      -0.790   7.347  14.679  1.00  0.00     0.013 C 
HETATM   10  C18 UNL     1       0.757   7.633  14.663  1.00  0.00     0.018 C 
HETATM   11  C19 UNL     1       1.604   6.577  13.926  1.00  0.00     0.023 C 
HETATM   12  C20 UNL     1       1.281   7.700  16.115  1.00  0.00     0.023 C 
HETATM   13  C21 UNL     1       1.019   9.008  14.040  1.00  0.00     0.135 C 
HETATM   14  O1  UNL     1       2.096   9.315  13.529  1.00  0.00    -0.297 OA
HETATM   15  C22 UNL     1      -0.088  10.017  14.161  1.00  0.00     0.080 C 
HETATM   16  C23 UNL     1      -1.344   9.545  13.447  1.00  0.00     0.017 C 
HETATM   17  C24 UNL     1      -1.620   8.008  13.512  1.00  0.00    -0.031 C 
HETATM   18  C25 UNL     1      -1.251   7.395  12.139  1.00  0.00     0.016 C 
HETATM   19  C26 UNL     1      -3.155   7.780  13.837  1.00  0.00     0.024 C 
HETATM   20  C27 UNL     1      -4.139   8.385  12.806  1.00  0.00     0.010 C 
HETATM   21  C28 UNL     1      -5.644   8.164  13.103  1.00  0.00     0.011 C 
HETATM   22  C29 UNL     1      -5.946   7.049  14.128  1.00  0.00    -0.029 C 
HETATM   23  C30 UNL     1      -5.903   7.659  15.565  1.00  0.00     0.016 C 
ENDROOT
BRANCH   1  24
HETATM   24  C7  UNL     1      -8.631   6.974  14.462  1.00  0.00    -0.014 C 
HETATM   25  C8  UNL     1      -8.925   6.595  15.926  1.00  0.00     0.010 C 
BRANCH  24  26
HETATM   26  C6  UNL     1      -9.879   6.698  13.588  1.00  0.00     0.008 C 
BRANCH  26  27
HETATM   27  C5  UNL     1     -11.227   6.924  14.278  1.00  0.00     0.028 C 
BRANCH  27  28
HETATM   28  C4  UNL     1     -12.482   7.038  13.444  1.00  0.00    -0.025 C 
HETATM   29  C2  UNL     1     -13.650   7.689  13.618  1.00  0.00    -0.091 C 
HETATM   30  C1  UNL     1     -14.740   7.567  12.581  1.00  0.00     0.042 C 
HETATM   31  C3  UNL     1     -14.001   8.571  14.780  1.00  0.00     0.042 C 
ENDBRANCH  27  28
ENDBRANCH  26  27
ENDBRANCH  24  26
ENDBRANCH   1  24
TORSDOF 4
ENDMDL
