MODEL 1
REMARK minimizedAffinity -6.96408463
REMARK CNNscore 0.680765808
REMARK CNNaffinity 5.7063427
REMARK  11 active torsions:
REMARK  status: ('A' for Active; 'I' for Inactive)
REMARK    1  A    between atoms: C3_4  and  O2_5 
REMARK    2  A    between atoms: O2_5  and  C4_6 
REMARK    3  A    between atoms: C7_9  and  C8_10 
REMARK    4  A    between atoms: N1_11  and  C9_13 
REMARK    5  A    between atoms: C9_13  and  C10_14 
REMARK    6  A    between atoms: C10_14  and  O3_15 
REMARK    7  A    between atoms: C16_21  and  C17_22 
REMARK    8  A    between atoms: C23_30  and  O6_31 
REMARK    9  A    between atoms: C27_35  and  O7_36 
REMARK   10  A    between atoms: C30_39  and  O8_40 
REMARK   11  A    between atoms: C31_41  and  O9_42 
ROOT
HETATM    1  C4  UNL     1     -12.040   9.718  18.733  1.00  0.00     0.127 C 
HETATM    2  C5  UNL     1     -11.192   9.404  19.970  1.00  0.00     0.033 C 
HETATM    3  C6  UNL     1     -11.725  10.098  21.225  1.00  0.00     0.021 C 
HETATM    4  C7  UNL     1     -13.204   9.750  21.542  1.00  0.00     0.026 C 
HETATM    5  C11 UNL     1     -13.405   8.231  21.941  1.00  0.00     0.009 C 
HETATM    6  C12 UNL     1     -12.513   7.725  23.095  1.00  0.00     0.007 C 
HETATM    7  C13 UNL     1     -12.731   6.241  23.390  1.00  0.00     0.013 C 
HETATM    8  C14 UNL     1     -14.201   5.918  23.751  1.00  0.00    -0.005 C 
HETATM    9  C15 UNL     1     -14.533   6.511  25.134  1.00  0.00     0.019 C 
HETATM   10  C16 UNL     1     -14.492   4.384  23.705  1.00  0.00     0.028 C 
HETATM   11  C21 UNL     1     -14.606   4.077  22.198  1.00  0.00     0.013 C 
HETATM   12  C22 UNL     1     -15.005   5.392  21.516  1.00  0.00     0.040 C 
HETATM   13  C23 UNL     1     -15.153   6.439  22.638  1.00  0.00     0.070 C 
HETATM   14  C24 UNL     1     -14.899   7.904  22.194  1.00  0.00     0.026 C 
HETATM   15  C25 UNL     1     -15.755   8.263  20.962  1.00  0.00     0.011 C 
HETATM   16  C26 UNL     1     -15.552   9.700  20.506  1.00  0.00     0.039 C 
HETATM   17  C27 UNL     1     -14.078  10.083  20.280  1.00  0.00     0.073 C 
HETATM   18  C28 UNL     1     -13.516   9.387  19.008  1.00  0.00     0.071 C 
ENDROOT
BRANCH   1  19
HETATM   19  O2  UNL     1     -11.811  11.095  18.414  1.00  0.00    -0.356 OA
BRANCH  19  20
HETATM   20  C3  UNL     1     -11.421  11.345  17.060  1.00  0.00     0.263 C 
HETATM   21  O1  UNL     1     -10.827  12.640  17.012  1.00  0.00    -0.354 OA
HETATM   22  C2  UNL     1     -10.005  12.921  15.871  1.00  0.00     0.151 C 
HETATM   23  C1  UNL     1      -8.569  13.109  16.351  1.00  0.00     0.042 C 
HETATM   24  C31 UNL     1     -10.126  11.894  14.728  1.00  0.00     0.175 C 
HETATM   25  C30 UNL     1      -9.954  10.451  15.228  1.00  0.00     0.154 C 
HETATM   26  C29 UNL     1     -10.404  10.279  16.677  1.00  0.00     0.095 C 
BRANCH  24  27
HETATM   27  O9  UNL     1     -11.435  12.000  14.140  1.00  0.00    -0.390 OA
HETATM   28  H47 UNL     1     -11.554  12.919  13.844  1.00  0.00     0.210 HD
ENDBRANCH  24  27
BRANCH  25  29
HETATM   29  O8  UNL     1      -8.592  10.033  15.121  1.00  0.00    -0.393 OA
HETATM   30  H45 UNL     1      -8.416   9.846  14.180  1.00  0.00     0.210 HD
ENDBRANCH  25  29
ENDBRANCH  19  20
ENDBRANCH   1  19
BRANCH  17  31
HETATM   31  O7  UNL     1     -14.092  11.506  20.070  1.00  0.00    -0.389 OA
HETATM   32  H39 UNL     1     -13.726  11.702  19.182  1.00  0.00     0.210 HD
ENDBRANCH  17  31
BRANCH   4  33
HETATM   33  C8  UNL     1     -13.622  10.706  22.670  1.00  0.00     0.068 C 
HETATM   34  N1  UNL     1     -12.759  11.330  23.401  1.00  0.00    -0.399 N 
ATOM     35  H1  UNL     1     -11.753  11.204  23.292  1.00  0.00     0.158 HD
BRANCH  34  36
HETATM   36  C9  UNL     1     -13.340  12.236  24.405  1.00  0.00     0.144 C 
BRANCH  36  37
HETATM   37  C10 UNL     1     -13.920  11.488  25.609  1.00  0.00     0.183 C 
BRANCH  37  38
HETATM   38  O3  UNL     1     -13.085  10.400  26.001  1.00  0.00    -0.399 OA
HETATM   39  H16 UNL     1     -13.459  10.039  26.822  1.00  0.00     0.209 HD
ENDBRANCH  37  38
ENDBRANCH  36  37
ENDBRANCH  34  36
ENDBRANCH   4  33
BRANCH  13  40
HETATM   40  O6  UNL     1     -16.518   6.340  23.080  1.00  0.00    -0.389 OA
HETATM   41  H33 UNL     1     -16.674   7.045  23.733  1.00  0.00     0.210 HD
ENDBRANCH  13  40
BRANCH  10  42
HETATM   42  C17 UNL     1     -13.569   3.481  24.477  1.00  0.00    -0.045 A 
HETATM   43  C18 UNL     1     -12.562   2.727  24.036  1.00  0.00     0.087 A 
HETATM   44  C19 UNL     1     -12.045   1.980  25.180  1.00  0.00     0.283 A 
HETATM   45  O4  UNL     1     -11.116   1.195  25.132  1.00  0.00    -0.260 OA
HETATM   46  O5  UNL     1     -12.770   2.294  26.286  1.00  0.00    -0.314 OA
HETATM   47  C20 UNL     1     -13.761   3.257  25.934  1.00  0.00     0.213 A 
ENDBRANCH  10  42
TORSDOF 11
ENDMDL
MODEL 2
REMARK minimizedAffinity -10.2175274
REMARK CNNscore 0.603681505
REMARK CNNaffinity 6.6650939
REMARK  11 active torsions:
REMARK  status: ('A' for Active; 'I' for Inactive)
REMARK    1  A    between atoms: C3_4  and  O2_5 
REMARK    2  A    between atoms: O2_5  and  C4_6 
REMARK    3  A    between atoms: C7_9  and  C8_10 
REMARK    4  A    between atoms: N1_11  and  C9_13 
REMARK    5  A    between atoms: C9_13  and  C10_14 
REMARK    6  A    between atoms: C10_14  and  O3_15 
REMARK    7  A    between atoms: C16_21  and  C17_22 
REMARK    8  A    between atoms: C23_30  and  O6_31 
REMARK    9  A    between atoms: C27_35  and  O7_36 
REMARK   10  A    between atoms: C30_39  and  O8_40 
REMARK   11  A    between atoms: C31_41  and  O9_42 
ROOT
HETATM    1  C4  UNL     1      -4.633   7.482  14.526  1.00  0.00     0.127 C 
HETATM    2  C5  UNL     1      -4.320   8.205  13.212  1.00  0.00     0.033 C 
HETATM    3  C6  UNL     1      -3.417   9.421  13.426  1.00  0.00     0.021 C 
HETATM    4  C7  UNL     1      -2.076   9.079  14.130  1.00  0.00     0.026 C 
HETATM    5  C11 UNL     1      -1.134   8.167  13.242  1.00  0.00     0.009 C 
HETATM    6  C12 UNL     1      -0.833   8.704  11.827  1.00  0.00     0.007 C 
HETATM    7  C13 UNL     1       0.042   7.748  11.016  1.00  0.00     0.013 C 
HETATM    8  C14 UNL     1       1.396   7.454  11.708  1.00  0.00    -0.005 C 
HETATM    9  C15 UNL     1       2.279   8.716  11.667  1.00  0.00     0.019 C 
HETATM   10  C16 UNL     1       2.126   6.228  11.071  1.00  0.00     0.028 C 
HETATM   11  C21 UNL     1       1.366   5.013  11.639  1.00  0.00     0.013 C 
HETATM   12  C22 UNL     1       0.730   5.475  12.957  1.00  0.00     0.040 C 
HETATM   13  C23 UNL     1       1.157   6.943  13.157  1.00  0.00     0.070 C 
HETATM   14  C24 UNL     1       0.170   7.796  13.996  1.00  0.00     0.026 C 
HETATM   15  C25 UNL     1      -0.151   7.108  15.338  1.00  0.00     0.011 C 
HETATM   16  C26 UNL     1      -1.101   7.922  16.203  1.00  0.00     0.039 C 
HETATM   17  C27 UNL     1      -2.394   8.348  15.483  1.00  0.00     0.073 C 
HETATM   18  C28 UNL     1      -3.327   7.125  15.255  1.00  0.00     0.071 C 
ENDROOT
BRANCH   1  19
HETATM   19  O2  UNL     1      -5.493   8.344  15.279  1.00  0.00    -0.356 OA
BRANCH  19  20
HETATM   20  C3  UNL     1      -6.795   7.817  15.546  1.00  0.00     0.263 C 
HETATM   21  O1  UNL     1      -7.558   7.914  14.345  1.00  0.00    -0.354 OA
HETATM   22  C2  UNL     1      -8.724   7.083  14.263  1.00  0.00     0.151 C 
HETATM   23  C1  UNL     1      -8.507   6.063  13.149  1.00  0.00     0.042 C 
HETATM   24  C31 UNL     1      -9.142   6.433  15.597  1.00  0.00     0.175 C 
HETATM   25  C30 UNL     1      -7.966   5.721  16.285  1.00  0.00     0.154 C 
HETATM   26  C29 UNL     1      -6.620   6.359  15.948  1.00  0.00     0.095 C 
BRANCH  24  27
HETATM   27  O9  UNL     1      -9.613   7.459  16.489  1.00  0.00    -0.390 OA
HETATM   28  H47 UNL     1     -10.342   7.926  16.045  1.00  0.00     0.210 HD
ENDBRANCH  24  27
BRANCH  25  29
HETATM   29  O8  UNL     1      -7.921   4.341  15.918  1.00  0.00    -0.393 OA
HETATM   30  H45 UNL     1      -8.630   3.884  16.408  1.00  0.00     0.210 HD
ENDBRANCH  25  29
ENDBRANCH  19  20
ENDBRANCH   1  19
BRANCH  17  31
HETATM   31  O7  UNL     1      -3.035   9.268  16.384  1.00  0.00    -0.389 OA
HETATM   32  H39 UNL     1      -3.917   8.916  16.626  1.00  0.00     0.210 HD
ENDBRANCH  17  31
BRANCH   4  33
HETATM   33  C8  UNL     1      -1.427  10.431  14.465  1.00  0.00     0.068 C 
HETATM   34  N1  UNL     1      -2.125  11.490  14.710  1.00  0.00    -0.399 N 
ATOM     35  H1  UNL     1      -3.144  11.498  14.669  1.00  0.00     0.158 HD
BRANCH  34  36
HETATM   36  C9  UNL     1      -1.336  12.683  15.054  1.00  0.00     0.144 C 
BRANCH  36  37
HETATM   37  C10 UNL     1      -1.776  13.926  14.273  1.00  0.00     0.183 C 
BRANCH  37  38
HETATM   38  O3  UNL     1      -0.993  14.107  13.095  1.00  0.00    -0.399 OA
HETATM   39  H16 UNL     1      -1.389  14.846  12.604  1.00  0.00     0.209 HD
ENDBRANCH  37  38
ENDBRANCH  36  37
ENDBRANCH  34  36
ENDBRANCH   4  33
BRANCH  13  40
HETATM   40  O6  UNL     1       2.407   6.887  13.865  1.00  0.00    -0.389 OA
HETATM   41  H33 UNL     1       2.670   7.800  14.084  1.00  0.00     0.210 HD
ENDBRANCH  13  40
BRANCH  10  42
HETATM   42  C17 UNL     1       2.308   6.231   9.578  1.00  0.00    -0.045 A 
HETATM   43  C18 UNL     1       1.738   7.011   8.659  1.00  0.00     0.087 A 
HETATM   44  C19 UNL     1       2.195   6.545   7.351  1.00  0.00     0.283 A 
HETATM   45  O4  UNL     1       1.867   7.038   6.288  1.00  0.00    -0.260 OA
HETATM   46  O5  UNL     1       3.021   5.480   7.517  1.00  0.00    -0.314 OA
HETATM   47  C20 UNL     1       3.164   5.214   8.910  1.00  0.00     0.213 A 
ENDBRANCH  10  42
TORSDOF 11
ENDMDL
MODEL 3
REMARK minimizedAffinity -6.46548271
REMARK CNNscore 0.556491196
REMARK CNNaffinity 5.95253754
REMARK  11 active torsions:
REMARK  status: ('A' for Active; 'I' for Inactive)
REMARK    1  A    between atoms: C3_4  and  O2_5 
REMARK    2  A    between atoms: O2_5  and  C4_6 
REMARK    3  A    between atoms: C7_9  and  C8_10 
REMARK    4  A    between atoms: N1_11  and  C9_13 
REMARK    5  A    between atoms: C9_13  and  C10_14 
REMARK    6  A    between atoms: C10_14  and  O3_15 
REMARK    7  A    between atoms: C16_21  and  C17_22 
REMARK    8  A    between atoms: C23_30  and  O6_31 
REMARK    9  A    between atoms: C27_35  and  O7_36 
REMARK   10  A    between atoms: C30_39  and  O8_40 
REMARK   11  A    between atoms: C31_41  and  O9_42 
ROOT
HETATM    1  C4  UNL     1     -17.218  -6.609   7.099  1.00  0.00     0.127 C 
HETATM    2  C5  UNL     1     -17.180  -7.332   8.450  1.00  0.00     0.033 C 
HETATM    3  C6  UNL     1     -15.751  -7.665   8.883  1.00  0.00     0.021 C 
HETATM    4  C7  UNL     1     -14.824  -6.422   8.964  1.00  0.00     0.026 C 
HETATM    5  C11 UNL     1     -15.250  -5.414  10.109  1.00  0.00     0.009 C 
HETATM    6  C12 UNL     1     -15.386  -6.029  11.518  1.00  0.00     0.007 C 
HETATM    7  C13 UNL     1     -15.844  -5.007  12.557  1.00  0.00     0.013 C 
HETATM    8  C14 UNL     1     -14.884  -3.797  12.660  1.00  0.00    -0.005 C 
HETATM    9  C15 UNL     1     -13.558  -4.245  13.302  1.00  0.00     0.019 C 
HETATM   10  C16 UNL     1     -15.524  -2.607  13.447  1.00  0.00     0.028 C 
HETATM   11  C21 UNL     1     -16.498  -1.978  12.432  1.00  0.00     0.013 C 
HETATM   12  C22 UNL     1     -15.972  -2.346  11.038  1.00  0.00     0.040 C 
HETATM   13  C23 UNL     1     -14.679  -3.155  11.259  1.00  0.00     0.070 C 
HETATM   14  C24 UNL     1     -14.341  -4.158  10.124  1.00  0.00     0.026 C 
HETATM   15  C25 UNL     1     -14.349  -3.459   8.750  1.00  0.00     0.011 C 
HETATM   16  C26 UNL     1     -14.001  -4.403   7.609  1.00  0.00     0.039 C 
HETATM   17  C27 UNL     1     -14.853  -5.686   7.577  1.00  0.00     0.073 C 
HETATM   18  C28 UNL     1     -16.310  -5.369   7.139  1.00  0.00     0.071 C 
ENDROOT
BRANCH   1  19
HETATM   19  O2  UNL     1     -16.837  -7.568   6.106  1.00  0.00    -0.356 OA
BRANCH  19  20
HETATM   20  C3  UNL     1     -17.819  -8.569   5.823  1.00  0.00     0.263 C 
HETATM   21  O1  UNL     1     -19.015  -7.905   5.423  1.00  0.00    -0.354 OA
HETATM   22  C2  UNL     1     -19.973  -8.695   4.706  1.00  0.00     0.151 C 
HETATM   23  C1  UNL     1     -20.088  -8.140   3.289  1.00  0.00     0.042 C 
HETATM   24  C31 UNL     1     -19.701 -10.212   4.735  1.00  0.00     0.175 C 
HETATM   25  C30 UNL     1     -18.254 -10.546   4.335  1.00  0.00     0.154 C 
HETATM   26  C29 UNL     1     -17.279  -9.424   4.684  1.00  0.00     0.095 C 
BRANCH  24  27
HETATM   27  O9  UNL     1     -19.907 -10.698   6.073  1.00  0.00    -0.390 OA
HETATM   28  H47 UNL     1     -20.815 -10.467   6.336  1.00  0.00     0.210 HD
ENDBRANCH  24  27
BRANCH  25  29
HETATM   29  O8  UNL     1     -18.162 -10.811   2.934  1.00  0.00    -0.393 OA
HETATM   30  H45 UNL     1     -18.528 -11.702   2.780  1.00  0.00     0.210 HD
ENDBRANCH  25  29
ENDBRANCH  19  20
ENDBRANCH   1  19
BRANCH  17  31
HETATM   31  O7  UNL     1     -14.232  -6.518   6.582  1.00  0.00    -0.389 OA
HETATM   32  H39 UNL     1     -14.881  -6.705   5.872  1.00  0.00     0.210 HD
ENDBRANCH  17  31
BRANCH   4  33
HETATM   33  C8  UNL     1     -13.406  -6.975   9.176  1.00  0.00     0.068 C 
HETATM   34  N1  UNL     1     -13.045  -8.135   8.737  1.00  0.00    -0.399 N 
ATOM     35  H1  UNL     1     -13.685  -8.762   8.250  1.00  0.00     0.158 HD
BRANCH  34  36
HETATM   36  C9  UNL     1     -11.639  -8.482   8.994  1.00  0.00     0.144 C 
BRANCH  36  37
HETATM   37  C10 UNL     1     -10.722  -8.147   7.813  1.00  0.00     0.183 C 
BRANCH  37  38
HETATM   38  O3  UNL     1     -11.436  -7.488   6.769  1.00  0.00    -0.399 OA
HETATM   39  H16 UNL     1     -10.779  -7.219   6.105  1.00  0.00     0.209 HD
ENDBRANCH  37  38
ENDBRANCH  36  37
ENDBRANCH  34  36
ENDBRANCH   4  33
BRANCH  13  40
HETATM   40  O6  UNL     1     -13.622  -2.182  11.320  1.00  0.00    -0.389 OA
HETATM   41  H33 UNL     1     -12.775  -2.661  11.375  1.00  0.00     0.210 HD
ENDBRANCH  13  40
BRANCH  10  42
HETATM   42  C17 UNL     1     -16.109  -2.907  14.799  1.00  0.00    -0.045 A 
HETATM   43  C18 UNL     1     -15.488  -3.140  15.956  1.00  0.00     0.087 A 
HETATM   44  C19 UNL     1     -16.516  -3.460  16.944  1.00  0.00     0.283 A 
HETATM   45  O4  UNL     1     -16.295  -3.724  18.112  1.00  0.00    -0.260 OA
HETATM   46  O5  UNL     1     -17.737  -3.427  16.350  1.00  0.00    -0.314 OA
HETATM   47  C20 UNL     1     -17.577  -3.069  14.978  1.00  0.00     0.213 A 
ENDBRANCH  10  42
TORSDOF 11
ENDMDL
MODEL 4
REMARK minimizedAffinity -6.72148943
REMARK CNNscore 0.494594693
REMARK CNNaffinity 6.31900167
REMARK  11 active torsions:
REMARK  status: ('A' for Active; 'I' for Inactive)
REMARK    1  A    between atoms: C3_4  and  O2_5 
REMARK    2  A    between atoms: O2_5  and  C4_6 
REMARK    3  A    between atoms: C7_9  and  C8_10 
REMARK    4  A    between atoms: N1_11  and  C9_13 
REMARK    5  A    between atoms: C9_13  and  C10_14 
REMARK    6  A    between atoms: C10_14  and  O3_15 
REMARK    7  A    between atoms: C16_21  and  C17_22 
REMARK    8  A    between atoms: C23_30  and  O6_31 
REMARK    9  A    between atoms: C27_35  and  O7_36 
REMARK   10  A    between atoms: C30_39  and  O8_40 
REMARK   11  A    between atoms: C31_41  and  O9_42 
ROOT
HETATM    1  C4  UNL     1      -0.814   8.374  14.031  1.00  0.00     0.127 C 
HETATM    2  C5  UNL     1      -1.854   9.236  13.309  1.00  0.00     0.033 C 
HETATM    3  C6  UNL     1      -3.266   9.012  13.855  1.00  0.00     0.021 C 
HETATM    4  C7  UNL     1      -3.386   9.271  15.381  1.00  0.00     0.026 C 
HETATM    5  C11 UNL     1      -3.162  10.791  15.765  1.00  0.00     0.009 C 
HETATM    6  C12 UNL     1      -4.053  11.803  15.014  1.00  0.00     0.007 C 
HETATM    7  C13 UNL     1      -3.746  13.249  15.403  1.00  0.00     0.013 C 
HETATM    8  C14 UNL     1      -3.917  13.503  16.921  1.00  0.00    -0.005 C 
HETATM    9  C15 UNL     1      -5.412  13.445  17.286  1.00  0.00     0.019 C 
HETATM   10  C16 UNL     1      -3.274  14.856  17.365  1.00  0.00     0.028 C 
HETATM   11  C21 UNL     1      -1.764  14.549  17.402  1.00  0.00     0.013 C 
HETATM   12  C22 UNL     1      -1.632  13.035  17.615  1.00  0.00     0.040 C 
HETATM   13  C23 UNL     1      -3.067  12.485  17.733  1.00  0.00     0.070 C 
HETATM   14  C24 UNL     1      -3.231  11.004  17.299  1.00  0.00     0.026 C 
HETATM   15  C25 UNL     1      -2.212  10.102  18.024  1.00  0.00     0.011 C 
HETATM   16  C26 UNL     1      -2.352   8.636  17.643  1.00  0.00     0.039 C 
HETATM   17  C27 UNL     1      -2.328   8.379  16.125  1.00  0.00     0.073 C 
HETATM   18  C28 UNL     1      -0.902   8.602  15.549  1.00  0.00     0.071 C 
ENDROOT
BRANCH   1  19
HETATM   19  O2  UNL     1      -1.057   7.018  13.639  1.00  0.00    -0.356 OA
BRANCH  19  20
HETATM   20  C3  UNL     1      -0.118   6.480  12.703  1.00  0.00     0.263 C 
HETATM   21  O1  UNL     1      -0.589   6.783  11.392  1.00  0.00    -0.354 OA
HETATM   22  C2  UNL     1       0.378   6.713  10.336  1.00  0.00     0.151 C 
HETATM   23  C1  UNL     1       0.574   8.117   9.772  1.00  0.00     0.042 C 
HETATM   24  C31 UNL     1       1.705   6.035  10.729  1.00  0.00     0.175 C 
HETATM   25  C30 UNL     1       2.295   6.625  12.020  1.00  0.00     0.154 C 
HETATM   26  C29 UNL     1       1.218   7.164  12.959  1.00  0.00     0.095 C 
BRANCH  24  27
HETATM   27  O9  UNL     1       1.465   4.634  10.959  1.00  0.00    -0.390 OA
HETATM   28  H47 UNL     1       1.071   4.265  10.150  1.00  0.00     0.210 HD
ENDBRANCH  24  27
BRANCH  25  29
HETATM   29  O8  UNL     1       3.213   7.680  11.725  1.00  0.00    -0.393 OA
HETATM   30  H45 UNL     1       4.037   7.269  11.405  1.00  0.00     0.210 HD
ENDBRANCH  25  29
ENDBRANCH  19  20
ENDBRANCH   1  19
BRANCH  17  31
HETATM   31  O7  UNL     1      -2.684   6.993  15.977  1.00  0.00    -0.389 OA
HETATM   32  H39 UNL     1      -1.951   6.520  15.531  1.00  0.00     0.210 HD
ENDBRANCH  17  31
BRANCH   4  33
HETATM   33  C8  UNL     1      -4.785   8.773  15.777  1.00  0.00     0.068 C 
HETATM   34  N1  UNL     1      -5.363   7.788  15.174  1.00  0.00    -0.399 N 
ATOM     35  H1  UNL     1      -4.939   7.303  14.383  1.00  0.00     0.158 HD
BRANCH  34  36
HETATM   36  C9  UNL     1      -6.682   7.422  15.714  1.00  0.00     0.144 C 
BRANCH  36  37
HETATM   37  C10 UNL     1      -6.730   5.978  16.223  1.00  0.00     0.183 C 
BRANCH  37  38
HETATM   38  O3  UNL     1      -8.046   5.434  16.129  1.00  0.00    -0.399 OA
HETATM   39  H16 UNL     1      -7.980   4.496  16.372  1.00  0.00     0.209 HD
ENDBRANCH  37  38
ENDBRANCH  36  37
ENDBRANCH  34  36
ENDBRANCH   4  33
BRANCH  13  40
HETATM   40  O6  UNL     1      -3.402  12.578  19.128  1.00  0.00    -0.389 OA
HETATM   41  H33 UNL     1      -4.273  12.160  19.257  1.00  0.00     0.210 HD
ENDBRANCH  13  40
BRANCH  10  42
HETATM   42  C17 UNL     1      -3.660  16.090  16.596  1.00  0.00    -0.045 A 
HETATM   43  C18 UNL     1      -3.824  16.250  15.283  1.00  0.00     0.087 A 
HETATM   44  C19 UNL     1      -4.117  17.663  15.051  1.00  0.00     0.283 A 
HETATM   45  O4  UNL     1      -4.324  18.157  13.958  1.00  0.00    -0.260 OA
HETATM   46  O5  UNL     1      -4.106  18.325  16.238  1.00  0.00    -0.314 OA
HETATM   47  C20 UNL     1      -3.835  17.396  17.286  1.00  0.00     0.213 A 
ENDBRANCH  10  42
TORSDOF 11
ENDMDL
MODEL 5
REMARK minimizedAffinity -8.37226009
REMARK CNNscore 0.437480718
REMARK CNNaffinity 6.97676611
REMARK  11 active torsions:
REMARK  status: ('A' for Active; 'I' for Inactive)
REMARK    1  A    between atoms: C3_4  and  O2_5 
REMARK    2  A    between atoms: O2_5  and  C4_6 
REMARK    3  A    between atoms: C7_9  and  C8_10 
REMARK    4  A    between atoms: N1_11  and  C9_13 
REMARK    5  A    between atoms: C9_13  and  C10_14 
REMARK    6  A    between atoms: C10_14  and  O3_15 
REMARK    7  A    between atoms: C16_21  and  C17_22 
REMARK    8  A    between atoms: C23_30  and  O6_31 
REMARK    9  A    between atoms: C27_35  and  O7_36 
REMARK   10  A    between atoms: C30_39  and  O8_40 
REMARK   11  A    between atoms: C31_41  and  O9_42 
ROOT
HETATM    1  C4  UNL     1      -6.551   6.833  13.879  1.00  0.00     0.127 C 
HETATM    2  C5  UNL     1      -5.983   8.065  13.167  1.00  0.00     0.033 C 
HETATM    3  C6  UNL     1      -5.076   8.891  14.081  1.00  0.00     0.021 C 
HETATM    4  C7  UNL     1      -3.894   8.079  14.676  1.00  0.00     0.026 C 
HETATM    5  C11 UNL     1      -2.854   7.614  13.575  1.00  0.00     0.009 C 
HETATM    6  C12 UNL     1      -2.290   8.737  12.680  1.00  0.00     0.007 C 
HETATM    7  C13 UNL     1      -1.331   8.204  11.615  1.00  0.00     0.013 C 
HETATM    8  C14 UNL     1      -0.133   7.438  12.226  1.00  0.00    -0.005 C 
HETATM    9  C15 UNL     1       0.800   8.432  12.944  1.00  0.00     0.019 C 
HETATM   10  C16 UNL     1       0.640   6.606  11.152  1.00  0.00     0.028 C 
HETATM   11  C21 UNL     1      -0.262   5.376  10.923  1.00  0.00     0.013 C 
HETATM   12  C22 UNL     1      -1.094   5.203  12.201  1.00  0.00     0.040 C 
HETATM   13  C23 UNL     1      -0.642   6.313  13.171  1.00  0.00     0.070 C 
HETATM   14  C24 UNL     1      -1.720   6.757  14.195  1.00  0.00     0.026 C 
HETATM   15  C25 UNL     1      -2.299   5.542  14.947  1.00  0.00     0.011 C 
HETATM   16  C26 UNL     1      -3.346   5.936  15.978  1.00  0.00     0.039 C 
HETATM   17  C27 UNL     1      -4.474   6.822  15.417  1.00  0.00     0.073 C 
HETATM   18  C28 UNL     1      -5.408   6.001  14.484  1.00  0.00     0.071 C 
ENDROOT
BRANCH   1  19
HETATM   19  O2  UNL     1      -7.488   7.312  14.850  1.00  0.00    -0.356 OA
BRANCH  19  20
HETATM   20  C3  UNL     1      -8.861   7.051  14.546  1.00  0.00     0.263 C 
HETATM   21  O1  UNL     1      -9.619   8.190  14.947  1.00  0.00    -0.354 OA
HETATM   22  C2  UNL     1     -10.925   8.321  14.369  1.00  0.00     0.151 C 
HETATM   23  C1  UNL     1     -10.936   9.566  13.487  1.00  0.00     0.042 C 
HETATM   24  C31 UNL     1     -11.428   7.063  13.635  1.00  0.00     0.175 C 
HETATM   25  C30 UNL     1     -10.396   6.531  12.627  1.00  0.00     0.154 C 
HETATM   26  C29 UNL     1      -8.961   6.849  13.040  1.00  0.00     0.095 C 
BRANCH  24  27
HETATM   27  O9  UNL     1     -11.672   6.024  14.600  1.00  0.00    -0.390 OA
HETATM   28  H47 UNL     1     -12.307   6.367  15.252  1.00  0.00     0.210 HD
ENDBRANCH  24  27
BRANCH  25  29
HETATM   29  O8  UNL     1     -10.627   7.075  11.326  1.00  0.00    -0.393 OA
HETATM   30  H45 UNL     1     -11.399   6.613  10.949  1.00  0.00     0.210 HD
ENDBRANCH  25  29
ENDBRANCH  19  20
ENDBRANCH   1  19
BRANCH  17  31
HETATM   31  O7  UNL     1      -5.219   7.249  16.571  1.00  0.00    -0.389 OA
HETATM   32  H39 UNL     1      -6.144   6.938  16.487  1.00  0.00     0.210 HD
ENDBRANCH  17  31
BRANCH   4  33
HETATM   33  C8  UNL     1      -3.252   8.994  15.730  1.00  0.00     0.068 C 
HETATM   34  N1  UNL     1      -3.865  10.020  16.219  1.00  0.00    -0.399 N 
ATOM     35  H1  UNL     1      -4.797  10.300  15.915  1.00  0.00     0.158 HD
BRANCH  34  36
HETATM   36  C9  UNL     1      -3.114  10.756  17.249  1.00  0.00     0.144 C 
BRANCH  36  37
HETATM   37  C10 UNL     1      -2.427   9.827  18.255  1.00  0.00     0.183 C 
BRANCH  37  38
HETATM   38  O3  UNL     1      -3.269   9.557  19.375  1.00  0.00    -0.399 OA
HETATM   39  H16 UNL     1      -2.813   8.890  19.915  1.00  0.00     0.209 HD
ENDBRANCH  37  38
ENDBRANCH  36  37
ENDBRANCH  34  36
ENDBRANCH   4  33
BRANCH  13  40
HETATM   40  O6  UNL     1       0.463   5.757  13.903  1.00  0.00    -0.389 OA
HETATM   41  H33 UNL     1       0.725   6.400  14.587  1.00  0.00     0.210 HD
ENDBRANCH  13  40
BRANCH  10  42
HETATM   42  C17 UNL     1       1.078   7.323   9.905  1.00  0.00    -0.045 A 
HETATM   43  C18 UNL     1       2.310   7.619   9.490  1.00  0.00     0.087 A 
HETATM   44  C19 UNL     1       2.178   8.395   8.259  1.00  0.00     0.283 A 
HETATM   45  O4  UNL     1       3.113   8.828   7.611  1.00  0.00    -0.260 OA
HETATM   46  O5  UNL     1       0.861   8.560   7.970  1.00  0.00    -0.314 OA
HETATM   47  C20 UNL     1       0.081   7.896   8.962  1.00  0.00     0.213 A 
ENDBRANCH  10  42
TORSDOF 11
ENDMDL
MODEL 6
REMARK minimizedAffinity -7.98788929
REMARK CNNscore 0.436120629
REMARK CNNaffinity 6.4830513
REMARK  11 active torsions:
REMARK  status: ('A' for Active; 'I' for Inactive)
REMARK    1  A    between atoms: C3_4  and  O2_5 
REMARK    2  A    between atoms: O2_5  and  C4_6 
REMARK    3  A    between atoms: C7_9  and  C8_10 
REMARK    4  A    between atoms: N1_11  and  C9_13 
REMARK    5  A    between atoms: C9_13  and  C10_14 
REMARK    6  A    between atoms: C10_14  and  O3_15 
REMARK    7  A    between atoms: C16_21  and  C17_22 
REMARK    8  A    between atoms: C23_30  and  O6_31 
REMARK    9  A    between atoms: C27_35  and  O7_36 
REMARK   10  A    between atoms: C30_39  and  O8_40 
REMARK   11  A    between atoms: C31_41  and  O9_42 
ROOT
HETATM    1  C4  UNL     1       0.124   8.083  12.003  1.00  0.00     0.127 C 
HETATM    2  C5  UNL     1      -1.205   8.838  11.890  1.00  0.00     0.033 C 
HETATM    3  C6  UNL     1      -2.273   8.268  12.824  1.00  0.00     0.021 C 
HETATM    4  C7  UNL     1      -1.843   8.250  14.316  1.00  0.00     0.026 C 
HETATM    5  C11 UNL     1      -1.672   9.703  14.921  1.00  0.00     0.009 C 
HETATM    6  C12 UNL     1      -2.890  10.636  14.763  1.00  0.00     0.007 C 
HETATM    7  C13 UNL     1      -2.632  12.032  15.329  1.00  0.00     0.013 C 
HETATM    8  C14 UNL     1      -2.252  12.002  16.829  1.00  0.00    -0.005 C 
HETATM    9  C15 UNL     1      -3.484  11.605  17.664  1.00  0.00     0.019 C 
HETATM   10  C16 UNL     1      -1.652  13.363  17.309  1.00  0.00     0.028 C 
HETATM   11  C21 UNL     1      -0.213  13.344  16.758  1.00  0.00     0.013 C 
HETATM   12  C22 UNL     1       0.165  11.868  16.576  1.00  0.00     0.040 C 
HETATM   13  C23 UNL     1      -1.047  11.045  17.057  1.00  0.00     0.070 C 
HETATM   14  C24 UNL     1      -1.186   9.650  16.393  1.00  0.00     0.026 C 
HETATM   15  C25 UNL     1       0.128   8.851  16.508  1.00  0.00     0.011 C 
HETATM   16  C26 UNL     1       0.029   7.466  15.887  1.00  0.00     0.039 C 
HETATM   17  C27 UNL     1      -0.488   7.466  14.437  1.00  0.00     0.073 C 
HETATM   18  C28 UNL     1       0.584   8.043  13.470  1.00  0.00     0.071 C 
ENDROOT
BRANCH   1  19
HETATM   19  O2  UNL     1      -0.088   6.787  11.432  1.00  0.00    -0.356 OA
BRANCH  19  20
HETATM   20  C3  UNL     1       1.080   6.168  10.887  1.00  0.00     0.263 C 
HETATM   21  O1  UNL     1       1.065   6.376   9.476  1.00  0.00    -0.354 OA
HETATM   22  C2  UNL     1       2.315   6.213   8.795  1.00  0.00     0.151 C 
HETATM   23  C1  UNL     1       2.732   7.568   8.229  1.00  0.00     0.042 C 
HETATM   24  C31 UNL     1       3.421   5.550   9.638  1.00  0.00     0.175 C 
HETATM   25  C30 UNL     1       3.589   6.229  11.007  1.00  0.00     0.154 C 
HETATM   26  C29 UNL     1       2.289   6.852  11.512  1.00  0.00     0.095 C 
BRANCH  24  27
HETATM   27  O9  UNL     1       3.069   4.174   9.873  1.00  0.00    -0.390 OA
HETATM   28  H47 UNL     1       2.940   3.749   9.007  1.00  0.00     0.210 HD
ENDBRANCH  24  27
BRANCH  25  29
HETATM   29  O8  UNL     1       4.591   7.246  10.953  1.00  0.00    -0.393 OA
HETATM   30  H45 UNL     1       5.459   6.801  10.943  1.00  0.00     0.210 HD
ENDBRANCH  25  29
ENDBRANCH  19  20
ENDBRANCH   1  19
BRANCH  17  31
HETATM   31  O7  UNL     1      -0.708   6.080  14.121  1.00  0.00    -0.389 OA
HETATM   32  H39 UNL     1      -0.145   5.832  13.359  1.00  0.00     0.210 HD
ENDBRANCH  17  31
BRANCH   4  33
HETATM   33  C8  UNL     1      -2.924   7.440  15.049  1.00  0.00     0.068 C 
HETATM   34  N1  UNL     1      -3.882   6.842  14.422  1.00  0.00    -0.399 N 
ATOM     35  H1  UNL     1      -3.993   6.894  13.410  1.00  0.00     0.158 HD
BRANCH  34  36
HETATM   36  C9  UNL     1      -4.800   6.079  15.282  1.00  0.00     0.144 C 
BRANCH  36  37
HETATM   37  C10 UNL     1      -6.215   6.668  15.303  1.00  0.00     0.183 C 
BRANCH  37  38
HETATM   38  O3  UNL     1      -6.686   6.847  16.638  1.00  0.00    -0.399 OA
HETATM   39  H16 UNL     1      -7.537   7.312  16.575  1.00  0.00     0.209 HD
ENDBRANCH  37  38
ENDBRANCH  36  37
ENDBRANCH  34  36
ENDBRANCH   4  33
BRANCH  13  40
HETATM   40  O6  UNL     1      -0.843  10.847  18.466  1.00  0.00    -0.389 OA
HETATM   41  H33 UNL     1      -1.548  10.258  18.792  1.00  0.00     0.210 HD
ENDBRANCH  13  40
BRANCH  10  42
HETATM   42  C17 UNL     1      -2.439  14.609  17.010  1.00  0.00    -0.045 A 
HETATM   43  C18 UNL     1      -3.602  15.016  17.520  1.00  0.00     0.087 A 
HETATM   44  C19 UNL     1      -3.970  16.250  16.830  1.00  0.00     0.283 A 
HETATM   45  O4  UNL     1      -4.980  16.893  17.052  1.00  0.00    -0.260 OA
HETATM   46  O5  UNL     1      -3.021  16.549  15.906  1.00  0.00    -0.314 OA
HETATM   47  C20 UNL     1      -1.994  15.560  15.958  1.00  0.00     0.213 A 
ENDBRANCH  10  42
TORSDOF 11
ENDMDL
MODEL 7
REMARK minimizedAffinity -8.29079437
REMARK CNNscore 0.376053154
REMARK CNNaffinity 6.49258852
REMARK  11 active torsions:
REMARK  status: ('A' for Active; 'I' for Inactive)
REMARK    1  A    between atoms: C3_4  and  O2_5 
REMARK    2  A    between atoms: O2_5  and  C4_6 
REMARK    3  A    between atoms: C7_9  and  C8_10 
REMARK    4  A    between atoms: N1_11  and  C9_13 
REMARK    5  A    between atoms: C9_13  and  C10_14 
REMARK    6  A    between atoms: C10_14  and  O3_15 
REMARK    7  A    between atoms: C16_21  and  C17_22 
REMARK    8  A    between atoms: C23_30  and  O6_31 
REMARK    9  A    between atoms: C27_35  and  O7_36 
REMARK   10  A    between atoms: C30_39  and  O8_40 
REMARK   11  A    between atoms: C31_41  and  O9_42 
ROOT
HETATM    1  C4  UNL     1       0.383   7.502  12.642  1.00  0.00     0.127 C 
HETATM    2  C5  UNL     1      -0.144   8.877  12.218  1.00  0.00     0.033 C 
HETATM    3  C6  UNL     1      -1.673   8.922  12.185  1.00  0.00     0.021 C 
HETATM    4  C7  UNL     1      -2.332   8.538  13.538  1.00  0.00     0.026 C 
HETATM    5  C11 UNL     1      -2.033   9.589  14.684  1.00  0.00     0.009 C 
HETATM    6  C12 UNL     1      -2.390  11.053  14.351  1.00  0.00     0.007 C 
HETATM    7  C13 UNL     1      -2.030  12.012  15.485  1.00  0.00     0.013 C 
HETATM    8  C14 UNL     1      -2.732  11.645  16.816  1.00  0.00    -0.005 C 
HETATM    9  C15 UNL     1      -4.241  11.934  16.698  1.00  0.00     0.019 C 
HETATM   10  C16 UNL     1      -2.103  12.392  18.036  1.00  0.00     0.028 C 
HETATM   11  C21 UNL     1      -0.795  11.621  18.304  1.00  0.00     0.013 C 
HETATM   12  C22 UNL     1      -1.001  10.208  17.742  1.00  0.00     0.040 C 
HETATM   13  C23 UNL     1      -2.438  10.164  17.186  1.00  0.00     0.070 C 
HETATM   14  C24 UNL     1      -2.655   9.147  16.034  1.00  0.00     0.026 C 
HETATM   15  C25 UNL     1      -2.155   7.745  16.435  1.00  0.00     0.011 C 
HETATM   16  C26 UNL     1      -2.369   6.711  15.340  1.00  0.00     0.039 C 
HETATM   17  C27 UNL     1      -1.802   7.124  13.969  1.00  0.00     0.073 C 
HETATM   18  C28 UNL     1      -0.248   7.086  13.981  1.00  0.00     0.071 C 
ENDROOT
BRANCH   1  19
HETATM   19  O2  UNL     1       0.097   6.600  11.568  1.00  0.00    -0.356 OA
BRANCH  19  20
HETATM   20  C3  UNL     1       1.245   6.020  10.942  1.00  0.00     0.263 C 
HETATM   21  O1  UNL     1       1.150   6.269   9.542  1.00  0.00    -0.354 OA
HETATM   22  C2  UNL     1       2.365   6.150   8.790  1.00  0.00     0.151 C 
HETATM   23  C1  UNL     1       2.727   7.528   8.244  1.00  0.00     0.042 C 
HETATM   24  C31 UNL     1       3.526   5.483   9.553  1.00  0.00     0.175 C 
HETATM   25  C30 UNL     1       3.755   6.126  10.931  1.00  0.00     0.154 C 
HETATM   26  C29 UNL     1       2.473   6.708  11.522  1.00  0.00     0.095 C 
BRANCH  24  27
HETATM   27  O9  UNL     1       3.212   4.095   9.765  1.00  0.00    -0.390 OA
HETATM   28  H47 UNL     1       3.044   3.693   8.895  1.00  0.00     0.210 HD
ENDBRANCH  24  27
BRANCH  25  29
HETATM   29  O8  UNL     1       4.734   7.163  10.854  1.00  0.00    -0.393 OA
HETATM   30  H45 UNL     1       5.608   6.736  10.784  1.00  0.00     0.210 HD
ENDBRANCH  25  29
ENDBRANCH  19  20
ENDBRANCH   1  19
BRANCH  17  31
HETATM   31  O7  UNL     1      -2.290   6.131  13.050  1.00  0.00    -0.389 OA
HETATM   32  H39 UNL     1      -1.527   5.677  12.635  1.00  0.00     0.210 HD
ENDBRANCH  17  31
BRANCH   4  33
HETATM   33  C8  UNL     1      -3.835   8.410  13.246  1.00  0.00     0.068 C 
HETATM   34  N1  UNL     1      -4.530   7.396  13.640  1.00  0.00    -0.399 N 
ATOM     35  H1  UNL     1      -4.119   6.609  14.142  1.00  0.00     0.158 HD
BRANCH  34  36
HETATM   36  C9  UNL     1      -5.962   7.462  13.308  1.00  0.00     0.144 C 
BRANCH  36  37
HETATM   37  C10 UNL     1      -6.698   6.152  13.608  1.00  0.00     0.183 C 
BRANCH  37  38
HETATM   38  O3  UNL     1      -5.922   5.017  13.228  1.00  0.00    -0.399 OA
HETATM   39  H16 UNL     1      -6.403   4.231  13.537  1.00  0.00     0.209 HD
ENDBRANCH  37  38
ENDBRANCH  36  37
ENDBRANCH  34  36
ENDBRANCH   4  33
BRANCH  13  40
HETATM   40  O6  UNL     1      -3.267   9.766  18.291  1.00  0.00    -0.389 OA
HETATM   41  H33 UNL     1      -4.174   9.644  17.958  1.00  0.00     0.210 HD
ENDBRANCH  13  40
BRANCH  10  42
HETATM   42  C17 UNL     1      -1.959  13.886  17.933  1.00  0.00    -0.045 A 
HETATM   43  C18 UNL     1      -2.098  14.815  18.879  1.00  0.00     0.087 A 
HETATM   44  C19 UNL     1      -1.935  16.117  18.236  1.00  0.00     0.283 A 
HETATM   45  O4  UNL     1      -2.000  17.187  18.813  1.00  0.00    -0.260 OA
HETATM   46  O5  UNL     1      -1.717  15.938  16.908  1.00  0.00    -0.314 OA
HETATM   47  C20 UNL     1      -1.702  14.541  16.623  1.00  0.00     0.213 A 
ENDBRANCH  10  42
TORSDOF 11
ENDMDL
MODEL 8
REMARK minimizedAffinity -6.69457769
REMARK CNNscore 0.366763264
REMARK CNNaffinity 5.446033
REMARK  11 active torsions:
REMARK  status: ('A' for Active; 'I' for Inactive)
REMARK    1  A    between atoms: C3_4  and  O2_5 
REMARK    2  A    between atoms: O2_5  and  C4_6 
REMARK    3  A    between atoms: C7_9  and  C8_10 
REMARK    4  A    between atoms: N1_11  and  C9_13 
REMARK    5  A    between atoms: C9_13  and  C10_14 
REMARK    6  A    between atoms: C10_14  and  O3_15 
REMARK    7  A    between atoms: C16_21  and  C17_22 
REMARK    8  A    between atoms: C23_30  and  O6_31 
REMARK    9  A    between atoms: C27_35  and  O7_36 
REMARK   10  A    between atoms: C30_39  and  O8_40 
REMARK   11  A    between atoms: C31_41  and  O9_42 
ROOT
HETATM    1  C4  UNL     1     -14.118   6.047  24.462  1.00  0.00     0.127 C 
HETATM    2  C5  UNL     1     -13.032   6.096  23.384  1.00  0.00     0.033 C 
HETATM    3  C6  UNL     1     -13.566   6.625  22.051  1.00  0.00     0.021 C 
HETATM    4  C7  UNL     1     -14.213   8.032  22.161  1.00  0.00     0.026 C 
HETATM    5  C11 UNL     1     -13.164   9.162  22.525  1.00  0.00     0.009 C 
HETATM    6  C12 UNL     1     -11.933   9.247  21.599  1.00  0.00     0.007 C 
HETATM    7  C13 UNL     1     -10.947  10.328  22.041  1.00  0.00     0.013 C 
HETATM    8  C14 UNL     1     -11.594  11.733  22.098  1.00  0.00    -0.005 C 
HETATM    9  C15 UNL     1     -11.892  12.221  20.668  1.00  0.00     0.019 C 
HETATM   10  C16 UNL     1     -10.705  12.757  22.876  1.00  0.00     0.028 C 
HETATM   11  C21 UNL     1     -10.934  12.392  24.356  1.00  0.00     0.013 C 
HETATM   12  C22 UNL     1     -12.301  11.699  24.427  1.00  0.00     0.040 C 
HETATM   13  C23 UNL     1     -12.866  11.701  22.992  1.00  0.00     0.070 C 
HETATM   14  C24 UNL     1     -13.852  10.543  22.683  1.00  0.00     0.026 C 
HETATM   15  C25 UNL     1     -14.974  10.478  23.739  1.00  0.00     0.011 C 
HETATM   16  C26 UNL     1     -15.977   9.368  23.462  1.00  0.00     0.039 C 
HETATM   17  C27 UNL     1     -15.336   7.982  23.258  1.00  0.00     0.073 C 
HETATM   18  C28 UNL     1     -14.785   7.426  24.601  1.00  0.00     0.071 C 
ENDROOT
BRANCH   1  19
HETATM   19  O2  UNL     1     -15.027   5.006  24.088  1.00  0.00    -0.356 OA
BRANCH  19  20
HETATM   20  C3  UNL     1     -14.792   3.743  24.716  1.00  0.00     0.263 C 
HETATM   21  O1  UNL     1     -13.882   3.012  23.897  1.00  0.00    -0.354 OA
HETATM   22  C2  UNL     1     -13.196   1.921  24.523  1.00  0.00     0.151 C 
HETATM   23  C1  UNL     1     -11.707   2.254  24.568  1.00  0.00     0.042 C 
HETATM   24  C31 UNL     1     -13.761   1.516  25.899  1.00  0.00     0.175 C 
HETATM   25  C30 UNL     1     -13.914   2.723  26.838  1.00  0.00     0.154 C 
HETATM   26  C29 UNL     1     -14.171   4.023  26.079  1.00  0.00     0.095 C 
BRANCH  24  27
HETATM   27  O9  UNL     1     -15.065   0.935  25.717  1.00  0.00    -0.390 OA
HETATM   28  H47 UNL     1     -14.972   0.185  25.105  1.00  0.00     0.210 HD
ENDBRANCH  24  27
BRANCH  25  29
HETATM   29  O8  UNL     1     -12.749   2.891  27.648  1.00  0.00    -0.393 OA
HETATM   30  H45 UNL     1     -12.774   2.207  28.342  1.00  0.00     0.210 HD
ENDBRANCH  25  29
ENDBRANCH  19  20
ENDBRANCH   1  19
BRANCH  17  31
HETATM   31  O7  UNL     1     -16.410   7.140  22.804  1.00  0.00    -0.389 OA
HETATM   32  H39 UNL     1     -16.528   6.403  23.439  1.00  0.00     0.210 HD
ENDBRANCH  17  31
BRANCH   4  33
HETATM   33  C8  UNL     1     -14.889   8.284  20.804  1.00  0.00     0.068 C 
HETATM   34  N1  UNL     1     -15.332   7.322  20.065  1.00  0.00    -0.399 N 
ATOM     35  H1  UNL     1     -15.234   6.340  20.324  1.00  0.00     0.158 HD
BRANCH  34  36
HETATM   36  C9  UNL     1     -15.988   7.752  18.820  1.00  0.00     0.144 C 
BRANCH  36  37
HETATM   37  C10 UNL     1     -15.033   8.486  17.873  1.00  0.00     0.183 C 
BRANCH  37  38
HETATM   38  O3  UNL     1     -14.330   7.574  17.030  1.00  0.00    -0.399 OA
HETATM   39  H16 UNL     1     -13.825   8.110  16.396  1.00  0.00     0.209 HD
ENDBRANCH  37  38
ENDBRANCH  36  37
ENDBRANCH  34  36
ENDBRANCH   4  33
BRANCH  13  40
HETATM   40  O6  UNL     1     -13.583  12.940  22.862  1.00  0.00    -0.389 OA
HETATM   41  H33 UNL     1     -14.027  12.941  21.995  1.00  0.00     0.210 HD
ENDBRANCH  13  40
BRANCH  10  42
HETATM   42  C17 UNL     1      -9.265  12.878  22.459  1.00  0.00    -0.045 A 
HETATM   43  C18 UNL     1      -8.164  12.856  23.210  1.00  0.00     0.087 A 
HETATM   44  C19 UNL     1      -7.028  13.098  22.323  1.00  0.00     0.283 A 
HETATM   45  O4  UNL     1      -5.866  13.141  22.683  1.00  0.00    -0.260 OA
HETATM   46  O5  UNL     1      -7.479  13.275  21.054  1.00  0.00    -0.314 OA
HETATM   47  C20 UNL     1      -8.898  13.139  21.042  1.00  0.00     0.213 A 
ENDBRANCH  10  42
TORSDOF 11
ENDMDL
MODEL 9
REMARK minimizedAffinity -6.45057631
REMARK CNNscore 0.342042685
REMARK CNNaffinity 5.65034866
REMARK  11 active torsions:
REMARK  status: ('A' for Active; 'I' for Inactive)
REMARK    1  A    between atoms: C3_4  and  O2_5 
REMARK    2  A    between atoms: O2_5  and  C4_6 
REMARK    3  A    between atoms: C7_9  and  C8_10 
REMARK    4  A    between atoms: N1_11  and  C9_13 
REMARK    5  A    between atoms: C9_13  and  C10_14 
REMARK    6  A    between atoms: C10_14  and  O3_15 
REMARK    7  A    between atoms: C16_21  and  C17_22 
REMARK    8  A    between atoms: C23_30  and  O6_31 
REMARK    9  A    between atoms: C27_35  and  O7_36 
REMARK   10  A    between atoms: C30_39  and  O8_40 
REMARK   11  A    between atoms: C31_41  and  O9_42 
ROOT
HETATM    1  C4  UNL     1     -11.691   9.396  24.361  1.00  0.00     0.127 C 
HETATM    2  C5  UNL     1     -12.554   9.053  25.579  1.00  0.00     0.033 C 
HETATM    3  C6  UNL     1     -14.046   9.041  25.243  1.00  0.00     0.021 C 
HETATM    4  C7  UNL     1     -14.411   8.066  24.091  1.00  0.00     0.026 C 
HETATM    5  C11 UNL     1     -14.187   6.547  24.480  1.00  0.00     0.009 C 
HETATM    6  C12 UNL     1     -14.891   6.082  25.771  1.00  0.00     0.007 C 
HETATM    7  C13 UNL     1     -14.589   4.621  26.104  1.00  0.00     0.013 C 
HETATM    8  C14 UNL     1     -15.003   3.656  24.966  1.00  0.00    -0.005 C 
HETATM    9  C15 UNL     1     -16.540   3.592  24.880  1.00  0.00     0.019 C 
HETATM   10  C16 UNL     1     -14.384   2.233  25.150  1.00  0.00     0.028 C 
HETATM   11  C21 UNL     1     -12.918   2.412  24.709  1.00  0.00     0.013 C 
HETATM   12  C22 UNL     1     -12.893   3.614  23.756  1.00  0.00     0.040 C 
HETATM   13  C23 UNL     1     -14.351   4.098  23.626  1.00  0.00     0.070 C 
HETATM   14  C24 UNL     1     -14.505   5.605  23.290  1.00  0.00     0.026 C 
HETATM   15  C25 UNL     1     -13.666   5.982  22.052  1.00  0.00     0.011 C 
HETATM   16  C26 UNL     1     -13.805   7.449  21.674  1.00  0.00     0.039 C 
HETATM   17  C27 UNL     1     -13.537   8.423  22.837  1.00  0.00     0.073 C 
HETATM   18  C28 UNL     1     -12.025   8.450  23.195  1.00  0.00     0.071 C 
ENDROOT
BRANCH   1  19
HETATM   19  O2  UNL     1     -11.925  10.777  24.064  1.00  0.00    -0.356 OA
BRANCH  19  20
HETATM   20  C3  UNL     1     -10.749  11.548  23.803  1.00  0.00     0.263 C 
HETATM   21  O1  UNL     1     -10.382  11.333  22.442  1.00  0.00    -0.354 OA
HETATM   22  C2  UNL     1      -9.504  12.304  21.858  1.00  0.00     0.151 C 
HETATM   23  C1  UNL     1     -10.262  13.029  20.750  1.00  0.00     0.042 C 
HETATM   24  C31 UNL     1      -8.854  13.269  22.870  1.00  0.00     0.175 C 
HETATM   25  C30 UNL     1      -9.893  13.910  23.805  1.00  0.00     0.154 C 
HETATM   26  C29 UNL     1     -11.106  13.011  24.031  1.00  0.00     0.095 C 
BRANCH  24  27
HETATM   27  O9  UNL     1      -7.926  12.534  23.687  1.00  0.00    -0.390 OA
HETATM   28  H47 UNL     1      -7.281  12.109  23.095  1.00  0.00     0.210 HD
ENDBRANCH  24  27
BRANCH  25  29
HETATM   29  O8  UNL     1     -10.344  15.162  23.284  1.00  0.00    -0.393 OA
HETATM   30  H45 UNL     1      -9.637  15.815  23.439  1.00  0.00     0.210 HD
ENDBRANCH  25  29
ENDBRANCH  19  20
ENDBRANCH   1  19
BRANCH  17  31
HETATM   31  O7  UNL     1     -13.925   9.714  22.336  1.00  0.00    -0.389 OA
HETATM   32  H39 UNL     1     -13.149  10.312  22.357  1.00  0.00     0.210 HD
ENDBRANCH  17  31
BRANCH   4  33
HETATM   33  C8  UNL     1     -15.878   8.364  23.744  1.00  0.00     0.068 C 
HETATM   34  N1  UNL     1     -16.804   7.468  23.832  1.00  0.00    -0.399 N 
ATOM     35  H1  UNL     1     -16.613   6.505  24.109  1.00  0.00     0.158 HD
BRANCH  34  36
HETATM   36  C9  UNL     1     -18.157   7.944  23.501  1.00  0.00     0.144 C 
BRANCH  36  37
HETATM   37  C10 UNL     1     -18.762   7.212  22.299  1.00  0.00     0.183 C 
BRANCH  37  38
HETATM   38  O3  UNL     1     -17.918   6.152  21.854  1.00  0.00    -0.399 OA
HETATM   39  H16 UNL     1     -18.406   5.675  21.162  1.00  0.00     0.209 HD
ENDBRANCH  37  38
ENDBRANCH  36  37
ENDBRANCH  34  36
ENDBRANCH   4  33
BRANCH  13  40
HETATM   40  O6  UNL     1     -14.912   3.341  22.540  1.00  0.00    -0.389 OA
HETATM   41  H33 UNL     1     -15.810   3.679  22.371  1.00  0.00     0.210 HD
ENDBRANCH  13  40
BRANCH  10  42
HETATM   42  C17 UNL     1     -14.578   1.560  26.481  1.00  0.00    -0.045 A 
HETATM   43  C18 UNL     1     -15.614   0.848  26.924  1.00  0.00     0.087 A 
HETATM   44  C19 UNL     1     -15.334   0.492  28.313  1.00  0.00     0.283 A 
HETATM   45  O4  UNL     1     -16.075  -0.163  29.023  1.00  0.00    -0.260 OA
HETATM   46  O5  UNL     1     -14.135   1.016  28.678  1.00  0.00    -0.314 OA
HETATM   47  C20 UNL     1     -13.571   1.707  27.565  1.00  0.00     0.213 A 
ENDBRANCH  10  42
TORSDOF 11
ENDMDL
