MODEL 1
REMARK minimizedAffinity -7.32020998
REMARK CNNscore 0.499436319
REMARK CNNaffinity 6.83738327
REMARK  5 active torsions:
REMARK  status: ('A' for Active; 'I' for Inactive)
REMARK    1  A    between atoms: O1_2  and  C2_3 
REMARK    2  A    between atoms: C12_15  and  C13_16 
REMARK    3  A    between atoms: C13_16  and  C15_18 
REMARK    4  A    between atoms: C15_18  and  C16_19 
REMARK    5  A    between atoms: C16_19  and  C17_21 
ROOT
HETATM    1  C2  UNL     1      -0.965  51.348  -8.932  1.00  0.00     0.270 C 
HETATM    2  O2  UNL     1      -1.470  50.811 -10.158  1.00  0.00    -0.347 OA
HETATM    3  C3  UNL     1      -1.749  51.894 -11.070  1.00  0.00     0.089 C 
HETATM    4  C4  UNL     1      -0.565  51.938 -12.051  1.00  0.00     0.118 C 
HETATM    5  C5  UNL     1       0.773  52.230 -11.403  1.00  0.00     0.135 C 
HETATM    6  O3  UNL     1       1.807  52.040 -12.052  1.00  0.00    -0.297 OA
HETATM    7  C6  UNL     1       0.839  52.834  -9.997  1.00  0.00     0.078 C 
HETATM    8  C7  UNL     1      -0.552  52.815  -9.238  1.00  0.00     0.027 C 
HETATM    9  C8  UNL     1      -0.516  53.610  -7.898  1.00  0.00     0.016 C 
HETATM   10  C9  UNL     1       0.296  54.915  -7.883  1.00  0.00     0.011 C 
HETATM   11  C10 UNL     1       1.694  54.707  -8.485  1.00  0.00    -0.032 C 
HETATM   12  C11 UNL     1       2.460  53.696  -7.574  1.00  0.00     0.016 C 
HETATM   13  C12 UNL     1       2.559  55.987  -8.673  1.00  0.00    -0.002 C 
HETATM   14  C21 UNL     1       3.595  55.544  -9.742  1.00  0.00     0.006 C 
HETATM   15  C22 UNL     1       3.004  54.294 -10.445  1.00  0.00     0.011 C 
HETATM   16  C23 UNL     1       1.532  54.233  -9.978  1.00  0.00    -0.025 C 
HETATM   17  C24 UNL     1       0.770  55.240 -10.901  1.00  0.00     0.016 C 
HETATM   18  C25 UNL     1      -1.689  53.184 -10.216  1.00  0.00     0.036 C 
HETATM   19  C26 UNL     1      -3.042  53.557  -9.605  1.00  0.00     0.016 C 
HETATM   20  C27 UNL     1      -4.085  53.805 -10.689  1.00  0.00     0.079 C 
HETATM   21  C28 UNL     1      -3.855  52.965 -11.929  1.00  0.00     0.137 C 
HETATM   22  O5  UNL     1      -4.266  53.360 -13.020  1.00  0.00    -0.297 OA
HETATM   23  C29 UNL     1      -3.140  51.623 -11.756  1.00  0.00     0.045 C 
HETATM   24  C30 UNL     1      -3.016  50.929 -13.130  1.00  0.00     0.026 C 
HETATM   25  C31 UNL     1      -4.067  50.711 -10.915  1.00  0.00     0.026 C 
ENDROOT
BRANCH  13  26
HETATM   26  C13 UNL     1       3.116  56.701  -7.408  1.00  0.00    -0.007 C 
HETATM   27  C14 UNL     1       2.053  57.681  -6.873  1.00  0.00     0.011 C 
BRANCH  26  28
HETATM   28  C15 UNL     1       4.435  57.475  -7.596  1.00  0.00     0.087 C 
BRANCH  28  29
HETATM   29  C16 UNL     1       5.537  56.947  -6.689  1.00  0.00     0.149 C 
HETATM   30  O4  UNL     1       6.321  57.692  -6.109  1.00  0.00    -0.293 OA
BRANCH  29  31
HETATM   31  C17 UNL     1       5.581  55.467  -6.498  1.00  0.00     0.052 C 
HETATM   32  C18 UNL     1       6.206  54.596  -7.312  1.00  0.00    -0.084 C 
HETATM   33  C19 UNL     1       6.212  53.125  -6.994  1.00  0.00     0.043 C 
HETATM   34  C20 UNL     1       6.930  54.958  -8.582  1.00  0.00     0.043 C 
ENDBRANCH  29  31
ENDBRANCH  28  29
ENDBRANCH  26  28
ENDBRANCH  13  26
BRANCH   1  35
HETATM   35  O1  UNL     1       0.126  50.592  -8.434  1.00  0.00    -0.365 OA
HETATM   36  C1  UNL     1      -0.209  49.877  -7.254  1.00  0.00     0.204 C 
ENDBRANCH   1  35
TORSDOF 5
ENDMDL
MODEL 2
REMARK minimizedAffinity -6.83834171
REMARK CNNscore 0.473014593
REMARK CNNaffinity 6.7846427
REMARK  5 active torsions:
REMARK  status: ('A' for Active; 'I' for Inactive)
REMARK    1  A    between atoms: O1_2  and  C2_3 
REMARK    2  A    between atoms: C12_15  and  C13_16 
REMARK    3  A    between atoms: C13_16  and  C15_18 
REMARK    4  A    between atoms: C15_18  and  C16_19 
REMARK    5  A    between atoms: C16_19  and  C17_21 
ROOT
HETATM    1  C2  UNL     1      -0.480  51.252  -8.988  1.00  0.00     0.270 C 
HETATM    2  O2  UNL     1      -1.158  50.750 -10.143  1.00  0.00    -0.347 OA
HETATM    3  C3  UNL     1      -1.510  51.855 -11.002  1.00  0.00     0.089 C 
HETATM    4  C4  UNL     1      -0.462  51.868 -12.127  1.00  0.00     0.118 C 
HETATM    5  C5  UNL     1       0.959  52.103 -11.655  1.00  0.00     0.135 C 
HETATM    6  O3  UNL     1       1.893  51.883 -12.433  1.00  0.00    -0.297 OA
HETATM    7  C6  UNL     1       1.228  52.685 -10.264  1.00  0.00     0.078 C 
HETATM    8  C7  UNL     1      -0.053  52.707  -9.332  1.00  0.00     0.027 C 
HETATM    9  C8  UNL     1       0.185  53.482  -8.001  1.00  0.00     0.016 C 
HETATM   10  C9  UNL     1       1.040  54.756  -8.080  1.00  0.00     0.011 C 
HETATM   11  C10 UNL     1       2.340  54.505  -8.859  1.00  0.00    -0.032 C 
HETATM   12  C11 UNL     1       3.178  53.455  -8.063  1.00  0.00     0.016 C 
HETATM   13  C12 UNL     1       3.222  55.755  -9.146  1.00  0.00    -0.002 C 
HETATM   14  C21 UNL     1       4.095  55.288 -10.344  1.00  0.00     0.006 C 
HETATM   15  C22 UNL     1       3.371  54.071 -10.975  1.00  0.00     0.011 C 
HETATM   16  C23 UNL     1       1.970  54.057 -10.323  1.00  0.00    -0.025 C 
HETATM   17  C24 UNL     1       1.135  55.104 -11.131  1.00  0.00     0.016 C 
HETATM   18  C25 UNL     1      -1.292  53.131 -10.152  1.00  0.00     0.036 C 
HETATM   19  C26 UNL     1      -2.541  53.544  -9.368  1.00  0.00     0.016 C 
HETATM   20  C27 UNL     1      -3.704  53.844 -10.307  1.00  0.00     0.079 C 
HETATM   21  C28 UNL     1      -3.667  53.014 -11.573  1.00  0.00     0.137 C 
HETATM   22  O5  UNL     1      -4.200  53.437 -12.599  1.00  0.00    -0.297 OA
HETATM   23  C29 UNL     1      -2.988  51.643 -11.505  1.00  0.00     0.045 C 
HETATM   24  C30 UNL     1      -3.068  50.963 -12.890  1.00  0.00     0.026 C 
HETATM   25  C31 UNL     1      -3.833  50.755 -10.559  1.00  0.00     0.026 C 
ENDROOT
BRANCH  13  26
HETATM   26  C13 UNL     1       3.964  56.431  -7.958  1.00  0.00    -0.007 C 
HETATM   27  C14 UNL     1       5.350  55.778  -7.791  1.00  0.00     0.011 C 
BRANCH  26  28
HETATM   28  C15 UNL     1       3.242  56.385  -6.597  1.00  0.00     0.087 C 
BRANCH  28  29
HETATM   29  C16 UNL     1       2.621  57.727  -6.239  1.00  0.00     0.149 C 
HETATM   30  O4  UNL     1       2.573  58.660  -7.037  1.00  0.00    -0.293 OA
BRANCH  29  31
HETATM   31  C17 UNL     1       2.019  57.835  -4.877  1.00  0.00     0.052 C 
HETATM   32  C18 UNL     1       2.503  58.587  -3.871  1.00  0.00    -0.084 C 
HETATM   33  C19 UNL     1       1.786  58.644  -2.549  1.00  0.00     0.043 C 
HETATM   34  C20 UNL     1       3.759  59.415  -3.930  1.00  0.00     0.043 C 
ENDBRANCH  29  31
ENDBRANCH  28  29
ENDBRANCH  26  28
ENDBRANCH  13  26
BRANCH   1  35
HETATM   35  O1  UNL     1       0.636  50.450  -8.641  1.00  0.00    -0.365 OA
HETATM   36  C1  UNL     1       0.565  49.152  -9.212  1.00  0.00     0.204 C 
ENDBRANCH   1  35
TORSDOF 5
ENDMDL
MODEL 3
REMARK minimizedAffinity -8.18689632
REMARK CNNscore 0.451316863
REMARK CNNaffinity 6.65208817
REMARK  5 active torsions:
REMARK  status: ('A' for Active; 'I' for Inactive)
REMARK    1  A    between atoms: O1_2  and  C2_3 
REMARK    2  A    between atoms: C12_15  and  C13_16 
REMARK    3  A    between atoms: C13_16  and  C15_18 
REMARK    4  A    between atoms: C15_18  and  C16_19 
REMARK    5  A    between atoms: C16_19  and  C17_21 
ROOT
HETATM    1  C2  UNL     1      -5.638  46.324 -20.056  1.00  0.00     0.270 C 
HETATM    2  O2  UNL     1      -6.955  45.768 -20.015  1.00  0.00    -0.347 OA
HETATM    3  C3  UNL     1      -7.912  46.797 -20.346  1.00  0.00     0.089 C 
HETATM    4  C4  UNL     1      -8.299  46.559 -21.815  1.00  0.00     0.118 C 
HETATM    5  C5  UNL     1      -7.149  46.686 -22.793  1.00  0.00     0.135 C 
HETATM    6  O3  UNL     1      -7.295  46.272 -23.948  1.00  0.00    -0.297 OA
HETATM    7  C6  UNL     1      -5.855  47.394 -22.381  1.00  0.00     0.078 C 
HETATM    8  C7  UNL     1      -5.757  47.670 -20.823  1.00  0.00     0.027 C 
HETATM    9  C8  UNL     1      -4.538  48.565 -20.447  1.00  0.00     0.016 C 
HETATM   10  C9  UNL     1      -4.195  49.717 -21.406  1.00  0.00     0.011 C 
HETATM   11  C10 UNL     1      -4.145  49.231 -22.862  1.00  0.00    -0.032 C 
HETATM   12  C11 UNL     1      -2.984  48.194 -22.980  1.00  0.00     0.016 C 
HETATM   13  C12 UNL     1      -3.964  50.330 -23.949  1.00  0.00    -0.002 C 
HETATM   14  C21 UNL     1      -4.488  49.630 -25.233  1.00  0.00     0.006 C 
HETATM   15  C22 UNL     1      -5.360  48.436 -24.766  1.00  0.00     0.011 C 
HETATM   16  C23 UNL     1      -5.561  48.658 -23.250  1.00  0.00    -0.025 C 
HETATM   17  C24 UNL     1      -6.731  49.689 -23.141  1.00  0.00     0.016 C 
HETATM   18  C25 UNL     1      -7.129  48.131 -20.285  1.00  0.00     0.036 C 
HETATM   19  C26 UNL     1      -7.154  48.772 -18.894  1.00  0.00     0.016 C 
HETATM   20  C27 UNL     1      -8.581  49.089 -18.461  1.00  0.00     0.079 C 
HETATM   21  C28 UNL     1      -9.596  48.115 -19.025  1.00  0.00     0.137 C 
HETATM   22  O5  UNL     1     -10.764  48.472 -19.184  1.00  0.00    -0.297 OA
HETATM   23  C29 UNL     1      -9.120  46.695 -19.341  1.00  0.00     0.045 C 
HETATM   24  C30 UNL     1     -10.304  45.870 -19.892  1.00  0.00     0.026 C 
HETATM   25  C31 UNL     1      -8.741  46.025 -17.997  1.00  0.00     0.026 C 
ENDROOT
BRANCH  13  26
HETATM   26  C13 UNL     1      -2.592  51.054 -24.053  1.00  0.00    -0.007 C 
HETATM   27  C14 UNL     1      -2.466  52.066 -22.896  1.00  0.00     0.011 C 
BRANCH  26  28
HETATM   28  C15 UNL     1      -2.319  51.797 -25.376  1.00  0.00     0.087 C 
BRANCH  28  29
HETATM   29  C16 UNL     1      -1.436  50.984 -26.310  1.00  0.00     0.149 C 
HETATM   30  O4  UNL     1      -1.882  50.416 -27.303  1.00  0.00    -0.293 OA
BRANCH  29  31
HETATM   31  C17 UNL     1       0.021  50.959 -25.986  1.00  0.00     0.052 C 
HETATM   32  C18 UNL     1       1.009  51.342 -26.818  1.00  0.00    -0.084 C 
HETATM   33  C19 UNL     1       2.443  51.306 -26.364  1.00  0.00     0.043 C 
HETATM   34  C20 UNL     1       0.819  51.816 -28.234  1.00  0.00     0.043 C 
ENDBRANCH  29  31
ENDBRANCH  28  29
ENDBRANCH  26  28
ENDBRANCH  13  26
BRANCH   1  35
HETATM   35  O1  UNL     1      -4.715  45.447 -20.681  1.00  0.00    -0.365 OA
HETATM   36  C1  UNL     1      -3.994  44.664 -19.741  1.00  0.00     0.204 C 
ENDBRANCH   1  35
TORSDOF 5
ENDMDL
MODEL 4
REMARK minimizedAffinity -8.46287346
REMARK CNNscore 0.437961221
REMARK CNNaffinity 7.01978159
REMARK  5 active torsions:
REMARK  status: ('A' for Active; 'I' for Inactive)
REMARK    1  A    between atoms: O1_2  and  C2_3 
REMARK    2  A    between atoms: C12_15  and  C13_16 
REMARK    3  A    between atoms: C13_16  and  C15_18 
REMARK    4  A    between atoms: C15_18  and  C16_19 
REMARK    5  A    between atoms: C16_19  and  C17_21 
ROOT
HETATM    1  C2  UNL     1      -3.308  47.364 -19.985  1.00  0.00     0.270 C 
HETATM    2  O2  UNL     1      -3.571  47.866 -18.672  1.00  0.00    -0.347 OA
HETATM    3  C3  UNL     1      -3.076  49.219 -18.574  1.00  0.00     0.089 C 
HETATM    4  C4  UNL     1      -4.303  50.132 -18.727  1.00  0.00     0.118 C 
HETATM    5  C5  UNL     1      -5.012  50.009 -20.061  1.00  0.00     0.135 C 
HETATM    6  O3  UNL     1      -6.137  50.502 -20.189  1.00  0.00    -0.297 OA
HETATM    7  C6  UNL     1      -4.308  49.359 -21.256  1.00  0.00     0.078 C 
HETATM    8  C7  UNL     1      -2.973  48.601 -20.865  1.00  0.00     0.027 C 
HETATM    9  C8  UNL     1      -2.167  48.121 -22.109  1.00  0.00     0.016 C 
HETATM   10  C9  UNL     1      -2.132  49.064 -23.323  1.00  0.00     0.011 C 
HETATM   11  C10 UNL     1      -3.541  49.557 -23.685  1.00  0.00    -0.032 C 
HETATM   12  C11 UNL     1      -4.386  48.316 -24.110  1.00  0.00     0.016 C 
HETATM   13  C12 UNL     1      -3.625  50.642 -24.797  1.00  0.00    -0.002 C 
HETATM   14  C21 UNL     1      -5.016  51.286 -24.541  1.00  0.00     0.006 C 
HETATM   15  C22 UNL     1      -5.414  50.922 -23.088  1.00  0.00     0.011 C 
HETATM   16  C23 UNL     1      -4.128  50.345 -22.454  1.00  0.00    -0.025 C 
HETATM   17  C24 UNL     1      -3.292  51.593 -22.022  1.00  0.00     0.016 C 
HETATM   18  C25 UNL     1      -2.186  49.428 -19.824  1.00  0.00     0.036 C 
HETATM   19  C26 UNL     1      -0.724  49.040 -19.585  1.00  0.00     0.016 C 
HETATM   20  C27 UNL     1      -0.108  49.879 -18.471  1.00  0.00     0.079 C 
HETATM   21  C28 UNL     1      -1.117  50.289 -17.418  1.00  0.00     0.137 C 
HETATM   22  O5  UNL     1      -0.929  51.310 -16.755  1.00  0.00    -0.297 OA
HETATM   23  C29 UNL     1      -2.326  49.377 -17.198  1.00  0.00     0.045 C 
HETATM   24  C30 UNL     1      -3.218  49.968 -16.084  1.00  0.00     0.026 C 
HETATM   25  C31 UNL     1      -1.796  48.035 -16.634  1.00  0.00     0.026 C 
ENDROOT
BRANCH  13  26
HETATM   26  C13 UNL     1      -3.299  50.233 -26.262  1.00  0.00    -0.007 C 
HETATM   27  C14 UNL     1      -4.002  48.898 -26.581  1.00  0.00     0.011 C 
BRANCH  26  28
HETATM   28  C15 UNL     1      -1.804  50.084 -26.605  1.00  0.00     0.087 C 
BRANCH  28  29
HETATM   29  C16 UNL     1      -1.234  51.355 -27.218  1.00  0.00     0.149 C 
HETATM   30  O4  UNL     1      -1.930  52.341 -27.445  1.00  0.00    -0.293 OA
BRANCH  29  31
HETATM   31  C17 UNL     1       0.236  51.360 -27.480  1.00  0.00     0.052 C 
HETATM   32  C18 UNL     1       1.185  51.674 -26.578  1.00  0.00    -0.084 C 
HETATM   33  C19 UNL     1       2.641  51.607 -26.951  1.00  0.00     0.043 C 
HETATM   34  C20 UNL     1       0.928  52.117 -25.163  1.00  0.00     0.043 C 
ENDBRANCH  29  31
ENDBRANCH  28  29
ENDBRANCH  26  28
ENDBRANCH  13  26
BRANCH   1  35
HETATM   35  O1  UNL     1      -4.410  46.639 -20.503  1.00  0.00    -0.365 OA
HETATM   36  C1  UNL     1      -4.086  45.281 -20.766  1.00  0.00     0.204 C 
ENDBRANCH   1  35
TORSDOF 5
ENDMDL
MODEL 5
REMARK minimizedAffinity -7.08770943
REMARK CNNscore 0.314463824
REMARK CNNaffinity 5.75574541
REMARK  5 active torsions:
REMARK  status: ('A' for Active; 'I' for Inactive)
REMARK    1  A    between atoms: O1_2  and  C2_3 
REMARK    2  A    between atoms: C12_15  and  C13_16 
REMARK    3  A    between atoms: C13_16  and  C15_18 
REMARK    4  A    between atoms: C15_18  and  C16_19 
REMARK    5  A    between atoms: C16_19  and  C17_21 
ROOT
HETATM    1  C2  UNL     1     -16.148  44.875 -26.181  1.00  0.00     0.270 C 
HETATM    2  O2  UNL     1     -17.137  44.628 -27.184  1.00  0.00    -0.347 OA
HETATM    3  C3  UNL     1     -18.191  43.819 -26.620  1.00  0.00     0.089 C 
HETATM    4  C4  UNL     1     -19.344  44.785 -26.301  1.00  0.00     0.118 C 
HETATM    5  C5  UNL     1     -19.001  45.851 -25.279  1.00  0.00     0.135 C 
HETATM    6  O3  UNL     1     -19.760  46.816 -25.141  1.00  0.00    -0.297 OA
HETATM    7  C6  UNL     1     -17.777  45.690 -24.371  1.00  0.00     0.078 C 
HETATM    8  C7  UNL     1     -16.809  44.519 -24.821  1.00  0.00     0.027 C 
HETATM    9  C8  UNL     1     -15.684  44.237 -23.780  1.00  0.00     0.016 C 
HETATM   10  C9  UNL     1     -16.069  44.324 -22.295  1.00  0.00     0.011 C 
HETATM   11  C10 UNL     1     -16.840  45.618 -21.996  1.00  0.00    -0.032 C 
HETATM   12  C11 UNL     1     -15.884  46.820 -22.278  1.00  0.00     0.016 C 
HETATM   13  C12 UNL     1     -17.426  45.754 -20.560  1.00  0.00    -0.002 C 
HETATM   14  C21 UNL     1     -18.540  46.820 -20.745  1.00  0.00     0.006 C 
HETATM   15  C22 UNL     1     -18.866  46.865 -22.261  1.00  0.00     0.011 C 
HETATM   16  C23 UNL     1     -18.158  45.628 -22.858  1.00  0.00    -0.025 C 
HETATM   17  C24 UNL     1     -19.126  44.432 -22.580  1.00  0.00     0.016 C 
HETATM   18  C25 UNL     1     -17.639  43.296 -25.271  1.00  0.00     0.036 C 
HETATM   19  C26 UNL     1     -16.899  41.963 -25.408  1.00  0.00     0.016 C 
HETATM   20  C27 UNL     1     -17.822  40.875 -25.947  1.00  0.00     0.079 C 
HETATM   21  C28 UNL     1     -18.886  41.417 -26.879  1.00  0.00     0.137 C 
HETATM   22  O5  UNL     1     -19.951  40.812 -27.009  1.00  0.00    -0.297 OA
HETATM   23  C29 UNL     1     -18.566  42.695 -27.658  1.00  0.00     0.045 C 
HETATM   24  C30 UNL     1     -19.772  43.067 -28.549  1.00  0.00     0.026 C 
HETATM   25  C31 UNL     1     -17.415  42.362 -28.639  1.00  0.00     0.026 C 
ENDROOT
BRANCH  13  26
HETATM   26  C13 UNL     1     -16.443  45.963 -19.373  1.00  0.00    -0.007 C 
HETATM   27  C14 UNL     1     -16.555  47.419 -18.877  1.00  0.00     0.011 C 
BRANCH  26  28
HETATM   28  C15 UNL     1     -14.959  45.665 -19.663  1.00  0.00     0.087 C 
BRANCH  28  29
HETATM   29  C16 UNL     1     -14.073  45.980 -18.467  1.00  0.00     0.149 C 
HETATM   30  O4  UNL     1     -14.448  45.807 -17.312  1.00  0.00    -0.293 OA
BRANCH  29  31
HETATM   31  C17 UNL     1     -12.694  46.462 -18.776  1.00  0.00     0.052 C 
HETATM   32  C18 UNL     1     -12.393  47.651 -19.333  1.00  0.00    -0.084 C 
HETATM   33  C19 UNL     1     -10.959  48.043 -19.563  1.00  0.00     0.043 C 
HETATM   34  C20 UNL     1     -13.396  48.679 -19.784  1.00  0.00     0.043 C 
ENDBRANCH  29  31
ENDBRANCH  28  29
ENDBRANCH  26  28
ENDBRANCH  13  26
BRANCH   1  35
HETATM   35  O1  UNL     1     -15.695  46.218 -26.206  1.00  0.00    -0.365 OA
HETATM   36  C1  UNL     1     -14.332  46.321 -26.592  1.00  0.00     0.204 C 
ENDBRANCH   1  35
TORSDOF 5
ENDMDL
MODEL 6
REMARK minimizedAffinity -6.83511734
REMARK CNNscore 0.294867873
REMARK CNNaffinity 5.78641129
REMARK  5 active torsions:
REMARK  status: ('A' for Active; 'I' for Inactive)
REMARK    1  A    between atoms: O1_2  and  C2_3 
REMARK    2  A    between atoms: C12_15  and  C13_16 
REMARK    3  A    between atoms: C13_16  and  C15_18 
REMARK    4  A    between atoms: C15_18  and  C16_19 
REMARK    5  A    between atoms: C16_19  and  C17_21 
ROOT
HETATM    1  C2  UNL     1     -15.658  42.989 -25.172  1.00  0.00     0.270 C 
HETATM    2  O2  UNL     1     -16.995  43.281 -25.587  1.00  0.00    -0.347 OA
HETATM    3  C3  UNL     1     -17.145  44.710 -25.730  1.00  0.00     0.089 C 
HETATM    4  C4  UNL     1     -17.048  44.998 -27.237  1.00  0.00     0.118 C 
HETATM    5  C5  UNL     1     -15.719  44.622 -27.862  1.00  0.00     0.135 C 
HETATM    6  O3  UNL     1     -15.627  44.576 -29.093  1.00  0.00    -0.297 OA
HETATM    7  C6  UNL     1     -14.488  44.386 -26.982  1.00  0.00     0.078 C 
HETATM    8  C7  UNL     1     -14.828  44.276 -25.438  1.00  0.00     0.027 C 
HETATM    9  C8  UNL     1     -13.554  44.239 -24.543  1.00  0.00     0.016 C 
HETATM   10  C9  UNL     1     -12.382  45.142 -24.960  1.00  0.00     0.011 C 
HETATM   11  C10 UNL     1     -12.060  44.980 -26.453  1.00  0.00    -0.032 C 
HETATM   12  C11 UNL     1     -11.592  43.509 -26.684  1.00  0.00     0.016 C 
HETATM   13  C12 UNL     1     -10.997  45.955 -27.037  1.00  0.00    -0.002 C 
HETATM   14  C21 UNL     1     -11.299  45.916 -28.561  1.00  0.00     0.006 C 
HETATM   15  C22 UNL     1     -12.741  45.366 -28.716  1.00  0.00     0.011 C 
HETATM   16  C23 UNL     1     -13.332  45.390 -27.288  1.00  0.00    -0.025 C 
HETATM   17  C24 UNL     1     -13.807  46.863 -27.068  1.00  0.00     0.016 C 
HETATM   18  C25 UNL     1     -15.893  45.329 -25.060  1.00  0.00     0.036 C 
HETATM   19  C26 UNL     1     -16.096  45.613 -23.569  1.00  0.00     0.016 C 
HETATM   20  C27 UNL     1     -17.238  46.600 -23.348  1.00  0.00     0.079 C 
HETATM   21  C28 UNL     1     -18.320  46.491 -24.401  1.00  0.00     0.137 C 
HETATM   22  O5  UNL     1     -19.024  47.468 -24.658  1.00  0.00    -0.297 OA
HETATM   23  C29 UNL     1     -18.516  45.134 -25.083  1.00  0.00     0.045 C 
HETATM   24  C30 UNL     1     -19.666  45.238 -26.108  1.00  0.00     0.026 C 
HETATM   25  C31 UNL     1     -19.015  44.142 -24.003  1.00  0.00     0.026 C 
ENDROOT
BRANCH  13  26
HETATM   26  C13 UNL     1      -9.512  45.779 -26.611  1.00  0.00    -0.007 C 
HETATM   27  C14 UNL     1      -9.201  46.749 -25.453  1.00  0.00     0.011 C 
BRANCH  26  28
HETATM   28  C15 UNL     1      -8.461  45.996 -27.718  1.00  0.00     0.087 C 
BRANCH  28  29
HETATM   29  C16 UNL     1      -8.051  47.456 -27.832  1.00  0.00     0.149 C 
HETATM   30  O4  UNL     1      -8.847  48.375 -27.658  1.00  0.00    -0.293 OA
BRANCH  29  31
HETATM   31  C17 UNL     1      -6.609  47.717 -28.114  1.00  0.00     0.052 C 
HETATM   32  C18 UNL     1      -5.669  47.974 -27.184  1.00  0.00    -0.084 C 
HETATM   33  C19 UNL     1      -4.235  48.185 -27.589  1.00  0.00     0.043 C 
HETATM   34  C20 UNL     1      -5.918  48.088 -25.704  1.00  0.00     0.043 C 
ENDBRANCH  29  31
ENDBRANCH  28  29
ENDBRANCH  26  28
ENDBRANCH  13  26
BRANCH   1  35
HETATM   35  O1  UNL     1     -15.123  41.872 -25.861  1.00  0.00    -0.365 OA
HETATM   36  C1  UNL     1     -16.132  41.088 -26.481  1.00  0.00     0.204 C 
ENDBRANCH   1  35
TORSDOF 5
ENDMDL
MODEL 7
REMARK minimizedAffinity -6.62563372
REMARK CNNscore 0.290507376
REMARK CNNaffinity 5.80217743
REMARK  5 active torsions:
REMARK  status: ('A' for Active; 'I' for Inactive)
REMARK    1  A    between atoms: O1_2  and  C2_3 
REMARK    2  A    between atoms: C12_15  and  C13_16 
REMARK    3  A    between atoms: C13_16  and  C15_18 
REMARK    4  A    between atoms: C15_18  and  C16_19 
REMARK    5  A    between atoms: C16_19  and  C17_21 
ROOT
HETATM    1  C2  UNL     1     -12.418  44.288 -18.733  1.00  0.00     0.270 C 
HETATM    2  O2  UNL     1     -11.545  44.995 -17.849  1.00  0.00    -0.347 OA
HETATM    3  C3  UNL     1     -11.427  46.364 -18.294  1.00  0.00     0.089 C 
HETATM    4  C4  UNL     1     -12.352  47.187 -17.382  1.00  0.00     0.118 C 
HETATM    5  C5  UNL     1     -13.817  46.810 -17.472  1.00  0.00     0.135 C 
HETATM    6  O3  UNL     1     -14.598  47.228 -16.611  1.00  0.00    -0.297 OA
HETATM    7  C6  UNL     1     -14.336  45.995 -18.660  1.00  0.00     0.078 C 
HETATM    8  C7  UNL     1     -13.182  45.369 -19.547  1.00  0.00     0.027 C 
HETATM    9  C8  UNL     1     -13.717  44.717 -20.858  1.00  0.00     0.016 C 
HETATM   10  C9  UNL     1     -14.867  45.440 -21.577  1.00  0.00     0.011 C 
HETATM   11  C10 UNL     1     -15.992  45.807 -20.597  1.00  0.00    -0.032 C 
HETATM   12  C11 UNL     1     -16.585  44.478 -20.032  1.00  0.00     0.016 C 
HETATM   13  C12 UNL     1     -17.145  46.682 -21.169  1.00  0.00    -0.002 C 
HETATM   14  C21 UNL     1     -17.769  47.303 -19.889  1.00  0.00     0.006 C 
HETATM   15  C22 UNL     1     -16.705  47.177 -18.768  1.00  0.00     0.011 C 
HETATM   16  C23 UNL     1     -15.405  46.769 -19.496  1.00  0.00    -0.025 C 
HETATM   17  C24 UNL     1     -14.812  48.105 -20.050  1.00  0.00     0.016 C 
HETATM   18  C25 UNL     1     -12.037  46.392 -19.717  1.00  0.00     0.036 C 
HETATM   19  C26 UNL     1     -11.005  46.111 -20.812  1.00  0.00     0.016 C 
HETATM   20  C27 UNL     1      -9.891  47.152 -20.798  1.00  0.00     0.079 C 
HETATM   21  C28 UNL     1      -9.611  47.694 -19.412  1.00  0.00     0.137 C 
HETATM   22  O5  UNL     1      -9.129  48.819 -19.280  1.00  0.00    -0.297 OA
HETATM   23  C29 UNL     1      -9.912  46.784 -18.218  1.00  0.00     0.045 C 
HETATM   24  C30 UNL     1      -9.549  47.520 -16.909  1.00  0.00     0.026 C 
HETATM   25  C31 UNL     1      -8.940  45.581 -18.297  1.00  0.00     0.026 C 
ENDROOT
BRANCH  13  26
HETATM   26  C13 UNL     1     -18.127  46.043 -22.191  1.00  0.00    -0.007 C 
HETATM   27  C14 UNL     1     -18.436  44.596 -21.756  1.00  0.00     0.011 C 
BRANCH  26  28
HETATM   28  C15 UNL     1     -17.653  46.015 -23.657  1.00  0.00     0.087 C 
BRANCH  28  29
HETATM   29  C16 UNL     1     -18.740  46.485 -24.613  1.00  0.00     0.149 C 
HETATM   30  O4  UNL     1     -19.007  47.673 -24.768  1.00  0.00    -0.293 OA
BRANCH  29  31
HETATM   31  C17 UNL     1     -19.434  45.421 -25.398  1.00  0.00     0.052 C 
HETATM   32  C18 UNL     1     -18.906  44.759 -26.446  1.00  0.00    -0.084 C 
HETATM   33  C19 UNL     1     -19.691  43.677 -27.137  1.00  0.00     0.043 C 
HETATM   34  C20 UNL     1     -17.544  45.010 -27.036  1.00  0.00     0.043 C 
ENDBRANCH  29  31
ENDBRANCH  28  29
ENDBRANCH  26  28
ENDBRANCH  13  26
BRANCH   1  35
HETATM   35  O1  UNL     1     -13.310  43.441 -18.028  1.00  0.00    -0.365 OA
HETATM   36  C1  UNL     1     -12.968  42.069 -18.161  1.00  0.00     0.204 C 
ENDBRANCH   1  35
TORSDOF 5
ENDMDL
MODEL 8
REMARK minimizedAffinity -8.44676685
REMARK CNNscore 0.288721681
REMARK CNNaffinity 6.87493563
REMARK  5 active torsions:
REMARK  status: ('A' for Active; 'I' for Inactive)
REMARK    1  A    between atoms: O1_2  and  C2_3 
REMARK    2  A    between atoms: C12_15  and  C13_16 
REMARK    3  A    between atoms: C13_16  and  C15_18 
REMARK    4  A    between atoms: C15_18  and  C16_19 
REMARK    5  A    between atoms: C16_19  and  C17_21 
ROOT
HETATM    1  C2  UNL     1      -5.924  48.361 -20.176  1.00  0.00     0.270 C 
HETATM    2  O2  UNL     1      -5.958  47.889 -18.826  1.00  0.00    -0.347 OA
HETATM    3  C3  UNL     1      -4.689  47.283 -18.504  1.00  0.00     0.089 C 
HETATM    4  C4  UNL     1      -3.913  48.330 -17.688  1.00  0.00     0.118 C 
HETATM    5  C5  UNL     1      -3.619  49.614 -18.437  1.00  0.00     0.135 C 
HETATM    6  O3  UNL     1      -3.231  50.601 -17.804  1.00  0.00    -0.297 OA
HETATM    7  C6  UNL     1      -3.718  49.661 -19.965  1.00  0.00     0.078 C 
HETATM    8  C7  UNL     1      -4.426  48.388 -20.589  1.00  0.00     0.027 C 
HETATM    9  C8  UNL     1      -4.339  48.355 -22.145  1.00  0.00     0.016 C 
HETATM   10  C9  UNL     1      -3.024  48.833 -22.781  1.00  0.00     0.011 C 
HETATM   11  C10 UNL     1      -2.581  50.181 -22.192  1.00  0.00    -0.032 C 
HETATM   12  C11 UNL     1      -3.665  51.242 -22.560  1.00  0.00     0.016 C 
HETATM   13  C12 UNL     1      -1.183  50.699 -22.637  1.00  0.00    -0.002 C 
HETATM   14  C21 UNL     1      -0.821  51.711 -21.515  1.00  0.00     0.006 C 
HETATM   15  C22 UNL     1      -1.723  51.371 -20.301  1.00  0.00     0.011 C 
HETATM   16  C23 UNL     1      -2.355  50.003 -20.643  1.00  0.00    -0.025 C 
HETATM   17  C24 UNL     1      -1.267  48.946 -20.263  1.00  0.00     0.016 C 
HETATM   18  C25 UNL     1      -3.953  47.113 -19.856  1.00  0.00     0.036 C 
HETATM   19  C26 UNL     1      -4.249  45.769 -20.529  1.00  0.00     0.016 C 
HETATM   20  C27 UNL     1      -3.809  44.605 -19.649  1.00  0.00     0.079 C 
HETATM   21  C28 UNL     1      -3.912  44.915 -18.170  1.00  0.00     0.137 C 
HETATM   22  O5  UNL     1      -3.185  44.326 -17.369  1.00  0.00    -0.297 OA
HETATM   23  C29 UNL     1      -4.961  45.939 -17.729  1.00  0.00     0.045 C 
HETATM   24  C30 UNL     1      -4.906  46.100 -16.194  1.00  0.00     0.026 C 
HETATM   25  C31 UNL     1      -6.354  45.332 -18.030  1.00  0.00     0.026 C 
ENDROOT
BRANCH  13  26
HETATM   26  C13 UNL     1      -1.001  51.183 -24.105  1.00  0.00    -0.007 C 
HETATM   27  C14 UNL     1      -1.422  52.663 -24.204  1.00  0.00     0.011 C 
BRANCH  26  28
HETATM   28  C15 UNL     1      -1.773  50.389 -25.178  1.00  0.00     0.087 C 
BRANCH  28  29
HETATM   29  C16 UNL     1      -1.217  50.635 -26.573  1.00  0.00     0.149 C 
HETATM   30  O4  UNL     1      -1.945  50.845 -27.539  1.00  0.00    -0.293 OA
BRANCH  29  31
HETATM   31  C17 UNL     1       0.270  50.662 -26.696  1.00  0.00     0.052 C 
HETATM   32  C18 UNL     1       1.004  51.743 -27.022  1.00  0.00    -0.084 C 
HETATM   33  C19 UNL     1       2.505  51.656 -27.079  1.00  0.00     0.043 C 
HETATM   34  C20 UNL     1       0.449  53.100 -27.363  1.00  0.00     0.043 C 
ENDBRANCH  29  31
ENDBRANCH  28  29
ENDBRANCH  26  28
ENDBRANCH  13  26
BRANCH   1  35
HETATM   35  O1  UNL     1      -6.523  49.639 -20.304  1.00  0.00    -0.365 OA
HETATM   36  C1  UNL     1      -7.312  49.749 -21.480  1.00  0.00     0.204 C 
ENDBRANCH   1  35
TORSDOF 5
ENDMDL
MODEL 9
REMARK minimizedAffinity -8.61252213
REMARK CNNscore 0.261010528
REMARK CNNaffinity 6.71274424
REMARK  5 active torsions:
REMARK  status: ('A' for Active; 'I' for Inactive)
REMARK    1  A    between atoms: O1_2  and  C2_3 
REMARK    2  A    between atoms: C12_15  and  C13_16 
REMARK    3  A    between atoms: C13_16  and  C15_18 
REMARK    4  A    between atoms: C15_18  and  C16_19 
REMARK    5  A    between atoms: C16_19  and  C17_21 
ROOT
HETATM    1  C2  UNL     1      -2.430  46.968 -19.883  1.00  0.00     0.270 C 
HETATM    2  O2  UNL     1      -3.209  46.668 -18.722  1.00  0.00    -0.347 OA
HETATM    3  C3  UNL     1      -3.336  47.860 -17.917  1.00  0.00     0.089 C 
HETATM    4  C4  UNL     1      -4.737  48.423 -18.211  1.00  0.00     0.118 C 
HETATM    5  C5  UNL     1      -4.957  48.830 -19.654  1.00  0.00     0.135 C 
HETATM    6  O3  UNL     1      -6.107  49.053 -20.045  1.00  0.00    -0.297 OA
HETATM    7  C6  UNL     1      -3.764  49.046 -20.589  1.00  0.00     0.078 C 
HETATM    8  C7  UNL     1      -2.393  48.517 -19.995  1.00  0.00     0.027 C 
HETATM    9  C8  UNL     1      -1.165  48.923 -20.864  1.00  0.00     0.016 C 
HETATM   10  C9  UNL     1      -1.185  50.328 -21.488  1.00  0.00     0.011 C 
HETATM   11  C10 UNL     1      -2.523  50.604 -22.190  1.00  0.00    -0.032 C 
HETATM   12  C11 UNL     1      -2.661  49.591 -23.370  1.00  0.00     0.016 C 
HETATM   13  C12 UNL     1      -2.733  52.049 -22.727  1.00  0.00    -0.002 C 
HETATM   14  C21 UNL     1      -4.278  52.145 -22.856  1.00  0.00     0.006 C 
HETATM   15  C22 UNL     1      -4.870  51.022 -21.966  1.00  0.00     0.011 C 
HETATM   16  C23 UNL     1      -3.679  50.511 -21.123  1.00  0.00    -0.025 C 
HETATM   17  C24 UNL     1      -3.553  51.525 -19.940  1.00  0.00     0.016 C 
HETATM   18  C25 UNL     1      -2.305  48.863 -18.492  1.00  0.00     0.036 C 
HETATM   19  C26 UNL     1      -0.930  48.748 -17.828  1.00  0.00     0.016 C 
HETATM   20  C27 UNL     1      -1.017  49.028 -16.332  1.00  0.00     0.079 C 
HETATM   21  C28 UNL     1      -2.346  48.615 -15.733  1.00  0.00     0.137 C 
HETATM   22  O5  UNL     1      -2.762  49.176 -14.719  1.00  0.00    -0.297 OA
HETATM   23  C29 UNL     1      -3.105  47.470 -16.409  1.00  0.00     0.045 C 
HETATM   24  C30 UNL     1      -4.419  47.204 -15.641  1.00  0.00     0.026 C 
HETATM   25  C31 UNL     1      -2.257  46.186 -16.234  1.00  0.00     0.026 C 
ENDROOT
BRANCH  13  26
HETATM   26  C13 UNL     1      -1.895  52.517 -23.952  1.00  0.00    -0.007 C 
HETATM   27  C14 UNL     1      -2.528  51.952 -25.240  1.00  0.00     0.011 C 
BRANCH  26  28
HETATM   28  C15 UNL     1      -0.403  52.129 -23.938  1.00  0.00     0.087 C 
BRANCH  28  29
HETATM   29  C16 UNL     1       0.434  53.067 -24.795  1.00  0.00     0.149 C 
HETATM   30  O4  UNL     1       1.126  53.956 -24.307  1.00  0.00    -0.293 OA
BRANCH  29  31
HETATM   31  C17 UNL     1       0.412  52.813 -26.266  1.00  0.00     0.052 C 
HETATM   32  C18 UNL     1       1.273  52.019 -26.930  1.00  0.00    -0.084 C 
HETATM   33  C19 UNL     1       1.128  51.811 -28.413  1.00  0.00     0.043 C 
HETATM   34  C20 UNL     1       2.435  51.287 -26.313  1.00  0.00     0.043 C 
ENDBRANCH  29  31
ENDBRANCH  28  29
ENDBRANCH  26  28
ENDBRANCH  13  26
BRANCH   1  35
HETATM   35  O1  UNL     1      -2.973  46.374 -21.050  1.00  0.00    -0.365 OA
HETATM   36  C1  UNL     1      -3.913  45.353 -20.748  1.00  0.00     0.204 C 
ENDBRANCH   1  35
TORSDOF 5
ENDMDL
