MODEL 1
REMARK minimizedAffinity -7.4651103
REMARK CNNscore 0.632524252
REMARK CNNaffinity 7.31523275
REMARK  8 active torsions:
REMARK  status: ('A' for Active; 'I' for Inactive)
REMARK    1  A    between atoms: C2_2  and  C3_3 
REMARK    2  A    between atoms: C2_2  and  C29_30 
REMARK    3  A    between atoms: C3_3  and  C4_4 
REMARK    4  A    between atoms: C4_4  and  C5_5 
REMARK    5  A    between atoms: C5_5  and  C7_7 
REMARK    6  A    between atoms: C29_30  and  C31_32 
REMARK    7  A    between atoms: C31_32  and  O2_33 
REMARK    8  A    between atoms: O2_33  and  C32_34 
ROOT
HETATM    1  C7  UNL     1       2.176  52.714 -10.296  1.00  0.00    -0.002 C 
HETATM    2  C8  UNL     1       3.566  52.140  -9.996  1.00  0.00     0.006 C 
HETATM    3  C9  UNL     1       4.550  53.263 -10.256  1.00  0.00     0.011 C 
HETATM    4  C10 UNL     1       3.837  54.593  -9.880  1.00  0.00    -0.032 C 
HETATM    5  C11 UNL     1       4.162  55.611 -10.998  1.00  0.00     0.016 C 
HETATM    6  C12 UNL     1       4.387  55.100  -8.487  1.00  0.00     0.004 C 
HETATM    7  C13 UNL     1       5.834  55.622  -8.508  1.00  0.00     0.007 C 
HETATM    8  C14 UNL     1       6.262  56.008  -7.097  1.00  0.00     0.007 C 
HETATM    9  C15 UNL     1       5.498  57.237  -6.557  1.00  0.00     0.010 C 
HETATM   10  C16 UNL     1       5.868  57.548  -5.063  1.00  0.00     0.018 C 
HETATM   11  C17 UNL     1       7.337  58.028  -4.978  1.00  0.00     0.023 C 
HETATM   12  C18 UNL     1       5.713  56.336  -4.125  1.00  0.00     0.023 C 
HETATM   13  C19 UNL     1       4.995  58.684  -4.507  1.00  0.00     0.135 C 
HETATM   14  O1  UNL     1       5.371  59.397  -3.572  1.00  0.00    -0.297 OA
HETATM   15  C20 UNL     1       3.644  58.926  -5.125  1.00  0.00     0.080 C 
HETATM   16  C21 UNL     1       3.091  57.639  -5.698  1.00  0.00     0.018 C 
HETATM   17  C22 UNL     1       3.976  57.137  -6.824  1.00  0.00    -0.026 A 
HETATM   18  C23 UNL     1       3.517  57.560  -8.207  1.00  0.00     0.021 A 
HETATM   19  C24 UNL     1       3.429  56.098  -7.833  1.00  0.00    -0.027 A 
HETATM   20  C25 UNL     1       2.046  55.521  -7.579  1.00  0.00     0.011 C 
HETATM   21  C26 UNL     1       1.817  54.202  -8.309  1.00  0.00     0.011 C 
HETATM   22  C27 UNL     1       2.284  54.209  -9.804  1.00  0.00    -0.032 C 
HETATM   23  C28 UNL     1       1.361  55.198 -10.541  1.00  0.00     0.016 C 
ENDROOT
BRANCH   1  24
HETATM   24  C5  UNL     1       1.658  52.327 -11.719  1.00  0.00    -0.014 C 
HETATM   25  C6  UNL     1       0.489  51.345 -11.788  1.00  0.00     0.010 C 
BRANCH  24  26
HETATM   26  C4  UNL     1       2.833  52.043 -12.700  1.00  0.00     0.009 C 
BRANCH  26  27
HETATM   27  C3  UNL     1       2.579  51.014 -13.809  1.00  0.00     0.034 C 
BRANCH  27  28
HETATM   28  C2  UNL     1       2.676  51.620 -15.200  1.00  0.00    -0.083 C 
HETATM   29  C1  UNL     1       3.761  52.344 -15.535  1.00  0.00     0.015 C 
BRANCH  28  30
HETATM   30  C29 UNL     1       1.507  51.353 -16.155  1.00  0.00     0.034 C 
HETATM   31  C30 UNL     1       0.219  50.922 -15.439  1.00  0.00     0.017 C 
BRANCH  30  32
HETATM   32  C31 UNL     1       1.209  52.573 -17.053  1.00  0.00     0.187 C 
BRANCH  32  33
HETATM   33  O2  UNL     1       1.064  52.205 -18.437  1.00  0.00    -0.321 OA
BRANCH  33  34
HETATM   34  C32 UNL     1       0.008  52.765 -19.087  1.00  0.00     0.254 C 
HETATM   35  C33 UNL     1       0.488  53.847 -20.005  1.00  0.00     0.126 C 
HETATM   36  O3  UNL     1      -1.164  52.444 -18.951  1.00  0.00    -0.266 OA
ENDBRANCH  33  34
ENDBRANCH  32  33
ENDBRANCH  30  32
ENDBRANCH  28  30
ENDBRANCH  27  28
ENDBRANCH  26  27
ENDBRANCH  24  26
ENDBRANCH   1  24
TORSDOF 8
ENDMDL
MODEL 2
REMARK minimizedAffinity -7.7063756
REMARK CNNscore 0.412566334
REMARK CNNaffinity 6.84853363
REMARK  8 active torsions:
REMARK  status: ('A' for Active; 'I' for Inactive)
REMARK    1  A    between atoms: C2_2  and  C3_3 
REMARK    2  A    between atoms: C2_2  and  C29_30 
REMARK    3  A    between atoms: C3_3  and  C4_4 
REMARK    4  A    between atoms: C4_4  and  C5_5 
REMARK    5  A    between atoms: C5_5  and  C7_7 
REMARK    6  A    between atoms: C29_30  and  C31_32 
REMARK    7  A    between atoms: C31_32  and  O2_33 
REMARK    8  A    between atoms: O2_33  and  C32_34 
ROOT
HETATM    1  C7  UNL     1      -6.600  49.739 -22.141  1.00  0.00    -0.002 C 
HETATM    2  C8  UNL     1      -6.664  49.936 -20.622  1.00  0.00     0.006 C 
HETATM    3  C9  UNL     1      -5.442  49.240 -20.057  1.00  0.00     0.011 C 
HETATM    4  C10 UNL     1      -4.305  49.384 -21.108  1.00  0.00    -0.032 C 
HETATM    5  C11 UNL     1      -3.607  48.008 -21.209  1.00  0.00     0.016 C 
HETATM    6  C12 UNL     1      -3.287  50.491 -20.623  1.00  0.00     0.004 C 
HETATM    7  C13 UNL     1      -2.422  50.097 -19.414  1.00  0.00     0.007 C 
HETATM    8  C14 UNL     1      -1.542  51.273 -19.004  1.00  0.00     0.007 C 
HETATM    9  C15 UNL     1      -0.465  51.607 -20.059  1.00  0.00     0.010 C 
HETATM   10  C16 UNL     1       0.354  52.891 -19.675  1.00  0.00     0.018 C 
HETATM   11  C17 UNL     1       1.217  52.604 -18.423  1.00  0.00     0.023 C 
HETATM   12  C18 UNL     1      -0.529  54.115 -19.369  1.00  0.00     0.023 C 
HETATM   13  C19 UNL     1       1.321  53.282 -20.803  1.00  0.00     0.135 C 
HETATM   14  O1  UNL     1       2.349  53.930 -20.586  1.00  0.00    -0.297 OA
HETATM   15  C20 UNL     1       0.998  52.859 -22.212  1.00  0.00     0.080 C 
HETATM   16  C21 UNL     1      -0.499  52.729 -22.390  1.00  0.00     0.018 C 
HETATM   17  C22 UNL     1      -1.046  51.634 -21.494  1.00  0.00    -0.026 A 
HETATM   18  C23 UNL     1      -1.184  50.286 -22.178  1.00  0.00     0.021 A 
HETATM   19  C24 UNL     1      -2.441  51.025 -21.780  1.00  0.00    -0.027 A 
HETATM   20  C25 UNL     1      -3.271  51.645 -22.892  1.00  0.00     0.011 C 
HETATM   21  C26 UNL     1      -4.756  51.319 -22.767  1.00  0.00     0.011 C 
HETATM   22  C27 UNL     1      -5.056  49.814 -22.456  1.00  0.00    -0.032 C 
HETATM   23  C28 UNL     1      -4.612  49.018 -23.698  1.00  0.00     0.016 C 
ENDROOT
BRANCH   1  24
HETATM   24  C5  UNL     1      -7.509  48.567 -22.637  1.00  0.00    -0.014 C 
HETATM   25  C6  UNL     1      -7.014  47.146 -22.370  1.00  0.00     0.010 C 
BRANCH  24  26
HETATM   26  C4  UNL     1      -8.053  48.830 -24.071  1.00  0.00     0.009 C 
BRANCH  26  27
HETATM   27  C3  UNL     1      -9.063  47.819 -24.629  1.00  0.00     0.034 C 
BRANCH  27  28
HETATM   28  C2  UNL     1      -8.492  46.995 -25.773  1.00  0.00    -0.083 C 
HETATM   29  C1  UNL     1      -8.339  45.666 -25.621  1.00  0.00     0.015 C 
BRANCH  28  30
HETATM   30  C29 UNL     1      -8.127  47.750 -27.056  1.00  0.00     0.034 C 
HETATM   31  C30 UNL     1      -7.119  47.003 -27.940  1.00  0.00     0.017 C 
BRANCH  30  32
HETATM   32  C31 UNL     1      -9.378  48.099 -27.891  1.00  0.00     0.187 C 
BRANCH  32  33
HETATM   33  O2  UNL     1     -10.452  47.164 -27.676  1.00  0.00    -0.321 OA
BRANCH  33  34
HETATM   34  C32 UNL     1     -11.631  47.706 -27.267  1.00  0.00     0.254 C 
HETATM   35  C33 UNL     1     -12.776  46.907 -27.809  1.00  0.00     0.126 C 
HETATM   36  O3  UNL     1     -11.753  48.700 -26.565  1.00  0.00    -0.266 OA
ENDBRANCH  33  34
ENDBRANCH  32  33
ENDBRANCH  30  32
ENDBRANCH  28  30
ENDBRANCH  27  28
ENDBRANCH  26  27
ENDBRANCH  24  26
ENDBRANCH   1  24
TORSDOF 8
ENDMDL
MODEL 3
REMARK minimizedAffinity -6.9479413
REMARK CNNscore 0.402119905
REMARK CNNaffinity 5.8215766
REMARK  8 active torsions:
REMARK  status: ('A' for Active; 'I' for Inactive)
REMARK    1  A    between atoms: C2_2  and  C3_3 
REMARK    2  A    between atoms: C2_2  and  C29_30 
REMARK    3  A    between atoms: C3_3  and  C4_4 
REMARK    4  A    between atoms: C4_4  and  C5_5 
REMARK    5  A    between atoms: C5_5  and  C7_7 
REMARK    6  A    between atoms: C29_30  and  C31_32 
REMARK    7  A    between atoms: C31_32  and  O2_33 
REMARK    8  A    between atoms: O2_33  and  C32_34 
ROOT
HETATM    1  C7  UNL     1     -12.168  45.433 -26.910  1.00  0.00    -0.002 C 
HETATM    2  C8  UNL     1     -12.506  44.686 -28.206  1.00  0.00     0.006 C 
HETATM    3  C9  UNL     1     -12.526  45.734 -29.301  1.00  0.00     0.011 C 
HETATM    4  C10 UNL     1     -11.463  46.807 -28.929  1.00  0.00    -0.032 C 
HETATM    5  C11 UNL     1     -12.104  48.189 -29.196  1.00  0.00     0.016 C 
HETATM    6  C12 UNL     1     -10.182  46.602 -29.831  1.00  0.00     0.004 C 
HETATM    7  C13 UNL     1     -10.362  46.973 -31.313  1.00  0.00     0.007 C 
HETATM    8  C14 UNL     1      -9.082  46.662 -32.081  1.00  0.00     0.007 C 
HETATM    9  C15 UNL     1      -7.905  47.575 -31.675  1.00  0.00     0.010 C 
HETATM   10  C16 UNL     1      -6.569  47.163 -32.390  1.00  0.00     0.018 C 
HETATM   11  C17 UNL     1      -6.679  47.448 -33.907  1.00  0.00     0.023 C 
HETATM   12  C18 UNL     1      -6.210  45.675 -32.214  1.00  0.00     0.023 C 
HETATM   13  C19 UNL     1      -5.388  47.994 -31.865  1.00  0.00     0.135 C 
HETATM   14  O1  UNL     1      -4.375  48.190 -32.544  1.00  0.00    -0.297 OA
HETATM   15  C20 UNL     1      -5.475  48.582 -30.482  1.00  0.00     0.080 C 
HETATM   16  C21 UNL     1      -6.362  47.727 -29.603  1.00  0.00     0.018 C 
HETATM   17  C22 UNL     1      -7.783  47.714 -30.137  1.00  0.00    -0.026 A 
HETATM   18  C23 UNL     1      -8.697  48.738 -29.490  1.00  0.00     0.021 A 
HETATM   19  C24 UNL     1      -8.950  47.272 -29.220  1.00  0.00    -0.027 A 
HETATM   20  C25 UNL     1      -8.605  46.744 -27.837  1.00  0.00     0.011 C 
HETATM   21  C26 UNL     1      -9.727  45.906 -27.233  1.00  0.00     0.011 C 
HETATM   22  C27 UNL     1     -11.150  46.542 -27.380  1.00  0.00    -0.032 C 
HETATM   23  C28 UNL     1     -11.146  47.819 -26.519  1.00  0.00     0.016 C 
ENDROOT
BRANCH   1  24
HETATM   24  C5  UNL     1     -13.436  45.756 -26.052  1.00  0.00    -0.014 C 
HETATM   25  C6  UNL     1     -14.665  46.270 -26.799  1.00  0.00     0.010 C 
BRANCH  24  26
HETATM   26  C4  UNL     1     -13.066  46.529 -24.753  1.00  0.00     0.009 C 
BRANCH  26  27
HETATM   27  C3  UNL     1     -13.345  45.823 -23.420  1.00  0.00     0.034 C 
BRANCH  27  28
HETATM   28  C2  UNL     1     -14.175  46.674 -22.471  1.00  0.00    -0.083 C 
HETATM   29  C1  UNL     1     -15.275  47.299 -22.931  1.00  0.00     0.015 C 
BRANCH  28  30
HETATM   30  C29 UNL     1     -13.697  46.758 -21.017  1.00  0.00     0.034 C 
HETATM   31  C30 UNL     1     -12.176  46.915 -20.883  1.00  0.00     0.017 C 
BRANCH  30  32
HETATM   32  C31 UNL     1     -14.398  47.898 -20.248  1.00  0.00     0.187 C 
BRANCH  32  33
HETATM   33  O2  UNL     1     -13.759  48.176 -18.988  1.00  0.00    -0.321 OA
BRANCH  33  34
HETATM   34  C32 UNL     1     -14.591  48.279 -17.916  1.00  0.00     0.254 C 
HETATM   35  C33 UNL     1     -15.487  49.468 -18.076  1.00  0.00     0.126 C 
HETATM   36  O3  UNL     1     -14.612  47.521 -16.956  1.00  0.00    -0.266 OA
ENDBRANCH  33  34
ENDBRANCH  32  33
ENDBRANCH  30  32
ENDBRANCH  28  30
ENDBRANCH  27  28
ENDBRANCH  26  27
ENDBRANCH  24  26
ENDBRANCH   1  24
TORSDOF 8
ENDMDL
MODEL 4
REMARK minimizedAffinity -7.3200407
REMARK CNNscore 0.371136189
REMARK CNNaffinity 5.81375694
REMARK  8 active torsions:
REMARK  status: ('A' for Active; 'I' for Inactive)
REMARK    1  A    between atoms: C2_2  and  C3_3 
REMARK    2  A    between atoms: C2_2  and  C29_30 
REMARK    3  A    between atoms: C3_3  and  C4_4 
REMARK    4  A    between atoms: C4_4  and  C5_5 
REMARK    5  A    between atoms: C5_5  and  C7_7 
REMARK    6  A    between atoms: C29_30  and  C31_32 
REMARK    7  A    between atoms: C31_32  and  O2_33 
REMARK    8  A    between atoms: O2_33  and  C32_34 
ROOT
HETATM    1  C7  UNL     1     -13.627  45.043 -26.797  1.00  0.00    -0.002 C 
HETATM    2  C8  UNL     1     -13.767  44.929 -28.320  1.00  0.00     0.006 C 
HETATM    3  C9  UNL     1     -13.390  46.287 -28.878  1.00  0.00     0.011 C 
HETATM    4  C10 UNL     1     -12.296  46.879 -27.944  1.00  0.00    -0.032 C 
HETATM    5  C11 UNL     1     -12.655  48.365 -27.714  1.00  0.00     0.016 C 
HETATM    6  C12 UNL     1     -10.886  46.748 -28.648  1.00  0.00     0.004 C 
HETATM    7  C13 UNL     1     -10.672  47.676 -29.856  1.00  0.00     0.007 C 
HETATM    8  C14 UNL     1      -9.311  47.400 -30.483  1.00  0.00     0.007 C 
HETATM    9  C15 UNL     1      -8.137  47.810 -29.567  1.00  0.00     0.010 C 
HETATM   10  C16 UNL     1      -6.748  47.411 -30.179  1.00  0.00     0.018 C 
HETATM   11  C17 UNL     1      -6.471  48.259 -31.444  1.00  0.00     0.023 C 
HETATM   12  C18 UNL     1      -6.654  45.926 -30.577  1.00  0.00     0.023 C 
HETATM   13  C19 UNL     1      -5.609  47.702 -29.189  1.00  0.00     0.135 C 
HETATM   14  O1  UNL     1      -4.452  47.908 -29.569  1.00  0.00    -0.297 OA
HETATM   15  C20 UNL     1      -5.921  47.734 -27.717  1.00  0.00     0.080 C 
HETATM   16  C21 UNL     1      -7.096  46.832 -27.410  1.00  0.00     0.018 C 
HETATM   17  C22 UNL     1      -8.347  47.333 -28.108  1.00  0.00    -0.026 A 
HETATM   18  C23 UNL     1      -9.226  48.216 -27.243  1.00  0.00     0.021 A 
HETATM   19  C24 UNL     1      -9.741  46.851 -27.639  1.00  0.00    -0.027 A 
HETATM   20  C25 UNL     1      -9.797  45.782 -26.560  1.00  0.00     0.011 C 
HETATM   21  C26 UNL     1     -11.134  45.050 -26.528  1.00  0.00     0.011 C 
HETATM   22  C27 UNL     1     -12.381  45.993 -26.612  1.00  0.00    -0.032 C 
HETATM   23  C28 UNL     1     -12.388  46.820 -25.313  1.00  0.00     0.016 C 
ENDROOT
BRANCH   1  24
HETATM   24  C5  UNL     1     -14.995  45.293 -26.082  1.00  0.00    -0.014 C 
HETATM   25  C6  UNL     1     -16.261  45.025 -26.895  1.00  0.00     0.010 C 
BRANCH  24  26
HETATM   26  C4  UNL     1     -14.985  46.624 -25.274  1.00  0.00     0.009 C 
BRANCH  26  27
HETATM   27  C3  UNL     1     -16.312  47.065 -24.643  1.00  0.00     0.034 C 
BRANCH  27  28
HETATM   28  C2  UNL     1     -16.503  46.510 -23.240  1.00  0.00    -0.083 C 
HETATM   29  C1  UNL     1     -15.569  46.747 -22.300  1.00  0.00     0.015 C 
BRANCH  28  30
HETATM   30  C29 UNL     1     -17.782  45.704 -22.982  1.00  0.00     0.034 C 
HETATM   31  C30 UNL     1     -17.757  44.302 -23.606  1.00  0.00     0.017 C 
BRANCH  30  32
HETATM   32  C31 UNL     1     -18.091  45.588 -21.474  1.00  0.00     0.187 C 
BRANCH  32  33
HETATM   33  O2  UNL     1     -19.010  46.602 -21.029  1.00  0.00    -0.321 OA
BRANCH  33  34
HETATM   34  C32 UNL     1     -19.057  46.805 -19.684  1.00  0.00     0.254 C 
HETATM   35  C33 UNL     1     -17.733  47.306 -19.196  1.00  0.00     0.126 C 
HETATM   36  O3  UNL     1     -20.029  46.608 -18.968  1.00  0.00    -0.266 OA
ENDBRANCH  33  34
ENDBRANCH  32  33
ENDBRANCH  30  32
ENDBRANCH  28  30
ENDBRANCH  27  28
ENDBRANCH  26  27
ENDBRANCH  24  26
ENDBRANCH   1  24
TORSDOF 8
ENDMDL
MODEL 5
REMARK minimizedAffinity -7.35645962
REMARK CNNscore 0.369421422
REMARK CNNaffinity 5.90041161
REMARK  8 active torsions:
REMARK  status: ('A' for Active; 'I' for Inactive)
REMARK    1  A    between atoms: C2_2  and  C3_3 
REMARK    2  A    between atoms: C2_2  and  C29_30 
REMARK    3  A    between atoms: C3_3  and  C4_4 
REMARK    4  A    between atoms: C4_4  and  C5_5 
REMARK    5  A    between atoms: C5_5  and  C7_7 
REMARK    6  A    between atoms: C29_30  and  C31_32 
REMARK    7  A    between atoms: C31_32  and  O2_33 
REMARK    8  A    between atoms: O2_33  and  C32_34 
ROOT
HETATM    1  C7  UNL     1     -13.475  46.207 -27.282  1.00  0.00    -0.002 C 
HETATM    2  C8  UNL     1     -13.216  47.715 -27.397  1.00  0.00     0.006 C 
HETATM    3  C9  UNL     1     -11.849  47.953 -26.787  1.00  0.00     0.011 C 
HETATM    4  C10 UNL     1     -10.988  46.693 -27.084  1.00  0.00    -0.032 C 
HETATM    5  C11 UNL     1     -10.226  46.350 -25.783  1.00  0.00     0.016 C 
HETATM    6  C12 UNL     1      -9.976  47.020 -28.254  1.00  0.00     0.004 C 
HETATM    7  C13 UNL     1      -8.837  47.984 -27.880  1.00  0.00     0.007 C 
HETATM    8  C14 UNL     1      -7.982  48.272 -29.108  1.00  0.00     0.007 C 
HETATM    9  C15 UNL     1      -7.194  47.034 -29.590  1.00  0.00     0.010 C 
HETATM   10  C16 UNL     1      -6.411  47.318 -30.922  1.00  0.00     0.018 C 
HETATM   11  C17 UNL     1      -5.273  48.331 -30.653  1.00  0.00     0.023 C 
HETATM   12  C18 UNL     1      -7.297  47.890 -32.045  1.00  0.00     0.023 C 
HETATM   13  C19 UNL     1      -5.751  46.036 -31.454  1.00  0.00     0.135 C 
HETATM   14  O1  UNL     1      -4.754  46.070 -32.181  1.00  0.00    -0.297 OA
HETATM   15  C20 UNL     1      -6.345  44.706 -31.073  1.00  0.00     0.080 C 
HETATM   16  C21 UNL     1      -7.829  44.847 -30.818  1.00  0.00     0.018 C 
HETATM   17  C22 UNL     1      -8.079  45.764 -29.635  1.00  0.00    -0.026 A 
HETATM   18  C23 UNL     1      -8.260  45.036 -28.315  1.00  0.00     0.021 A 
HETATM   19  C24 UNL     1      -9.451  45.746 -28.918  1.00  0.00    -0.027 A 
HETATM   20  C25 UNL     1     -10.552  44.885 -29.515  1.00  0.00     0.011 C 
HETATM   21  C26 UNL     1     -11.943  45.306 -29.051  1.00  0.00     0.011 C 
HETATM   22  C27 UNL     1     -12.050  45.571 -27.511  1.00  0.00    -0.032 C 
HETATM   23  C28 UNL     1     -11.832  44.212 -26.821  1.00  0.00     0.016 C 
ENDROOT
BRANCH   1  24
HETATM   24  C5  UNL     1     -14.378  45.842 -26.059  1.00  0.00    -0.014 C 
HETATM   25  C6  UNL     1     -15.835  45.491 -26.353  1.00  0.00     0.010 C 
BRANCH  24  26
HETATM   26  C4  UNL     1     -14.149  46.816 -24.866  1.00  0.00     0.009 C 
BRANCH  26  27
HETATM   27  C3  UNL     1     -15.394  47.281 -24.100  1.00  0.00     0.034 C 
BRANCH  27  28
HETATM   28  C2  UNL     1     -15.332  46.932 -22.620  1.00  0.00    -0.083 C 
HETATM   29  C1  UNL     1     -14.351  47.451 -21.857  1.00  0.00     0.015 C 
BRANCH  28  30
HETATM   30  C29 UNL     1     -16.421  45.998 -22.083  1.00  0.00     0.034 C 
HETATM   31  C30 UNL     1     -17.218  46.596 -20.915  1.00  0.00     0.017 C 
BRANCH  30  32
HETATM   32  C31 UNL     1     -17.397  45.556 -23.194  1.00  0.00     0.187 C 
BRANCH  32  33
HETATM   33  O2  UNL     1     -18.663  46.236 -23.107  1.00  0.00    -0.321 OA
BRANCH  33  34
HETATM   34  C32 UNL     1     -19.171  46.688 -24.285  1.00  0.00     0.254 C 
HETATM   35  C33 UNL     1     -20.143  45.692 -24.839  1.00  0.00     0.126 C 
HETATM   36  O3  UNL     1     -18.884  47.747 -24.824  1.00  0.00    -0.266 OA
ENDBRANCH  33  34
ENDBRANCH  32  33
ENDBRANCH  30  32
ENDBRANCH  28  30
ENDBRANCH  27  28
ENDBRANCH  26  27
ENDBRANCH  24  26
ENDBRANCH   1  24
TORSDOF 8
ENDMDL
MODEL 6
REMARK minimizedAffinity -7.53776073
REMARK CNNscore 0.331377715
REMARK CNNaffinity 6.20339251
REMARK  8 active torsions:
REMARK  status: ('A' for Active; 'I' for Inactive)
REMARK    1  A    between atoms: C2_2  and  C3_3 
REMARK    2  A    between atoms: C2_2  and  C29_30 
REMARK    3  A    between atoms: C3_3  and  C4_4 
REMARK    4  A    between atoms: C4_4  and  C5_5 
REMARK    5  A    between atoms: C5_5  and  C7_7 
REMARK    6  A    between atoms: C29_30  and  C31_32 
REMARK    7  A    between atoms: C31_32  and  O2_33 
REMARK    8  A    between atoms: O2_33  and  C32_34 
ROOT
HETATM    1  C7  UNL     1       4.161  55.358  -9.505  1.00  0.00    -0.002 C 
HETATM    2  C8  UNL     1       3.726  56.816  -9.310  1.00  0.00     0.006 C 
HETATM    3  C9  UNL     1       3.516  56.996  -7.820  1.00  0.00     0.011 C 
HETATM    4  C10 UNL     1       4.546  56.081  -7.098  1.00  0.00    -0.032 C 
HETATM    5  C11 UNL     1       3.794  55.381  -5.942  1.00  0.00     0.016 C 
HETATM    6  C12 UNL     1       5.727  56.970  -6.538  1.00  0.00     0.004 C 
HETATM    7  C13 UNL     1       5.357  57.870  -5.347  1.00  0.00     0.007 C 
HETATM    8  C14 UNL     1       6.558  58.723  -4.954  1.00  0.00     0.007 C 
HETATM    9  C15 UNL     1       7.715  57.889  -4.363  1.00  0.00     0.010 C 
HETATM   10  C16 UNL     1       8.984  58.767  -4.073  1.00  0.00     0.018 C 
HETATM   11  C17 UNL     1       8.684  59.752  -2.918  1.00  0.00     0.023 C 
HETATM   12  C18 UNL     1       9.452  59.591  -5.287  1.00  0.00     0.023 C 
HETATM   13  C19 UNL     1      10.163  57.892  -3.619  1.00  0.00     0.135 C 
HETATM   14  O1  UNL     1      11.078  58.342  -2.922  1.00  0.00    -0.297 OA
HETATM   15  C20 UNL     1      10.197  56.448  -4.040  1.00  0.00     0.080 C 
HETATM   16  C21 UNL     1       9.470  56.268  -5.355  1.00  0.00     0.018 C 
HETATM   17  C22 UNL     1       8.002  56.619  -5.202  1.00  0.00    -0.026 A 
HETATM   18  C23 UNL     1       7.106  55.426  -4.926  1.00  0.00     0.021 A 
HETATM   19  C24 UNL     1       6.977  56.134  -6.256  1.00  0.00    -0.027 A 
HETATM   20  C25 UNL     1       7.508  55.417  -7.486  1.00  0.00     0.011 C 
HETATM   21  C26 UNL     1       6.516  55.427  -8.645  1.00  0.00     0.011 C 
HETATM   22  C27 UNL     1       5.049  55.068  -8.233  1.00  0.00    -0.032 C 
HETATM   23  C28 UNL     1       5.072  53.594  -7.786  1.00  0.00     0.016 C 
ENDROOT
BRANCH   1  24
HETATM   24  C5  UNL     1       2.982  54.430  -9.944  1.00  0.00    -0.014 C 
HETATM   25  C6  UNL     1       3.339  53.215 -10.799  1.00  0.00     0.010 C 
BRANCH  24  26
HETATM   26  C4  UNL     1       1.753  55.253 -10.426  1.00  0.00     0.009 C 
BRANCH  26  27
HETATM   27  C3  UNL     1       0.668  54.494 -11.201  1.00  0.00     0.034 C 
BRANCH  27  28
HETATM   28  C2  UNL     1      -0.656  54.444 -10.452  1.00  0.00    -0.083 C 
HETATM   29  C1  UNL     1      -1.162  55.574  -9.923  1.00  0.00     0.015 C 
BRANCH  28  30
HETATM   30  C29 UNL     1      -1.347  53.079 -10.357  1.00  0.00     0.034 C 
HETATM   31  C30 UNL     1      -0.401  51.944  -9.937  1.00  0.00     0.017 C 
BRANCH  30  32
HETATM   32  C31 UNL     1      -2.558  53.115  -9.400  1.00  0.00     0.187 C 
BRANCH  32  33
HETATM   33  O2  UNL     1      -3.750  53.591 -10.052  1.00  0.00    -0.321 OA
BRANCH  33  34
HETATM   34  C32 UNL     1      -4.133  52.898 -11.159  1.00  0.00     0.254 C 
HETATM   35  C33 UNL     1      -4.459  51.484 -10.789  1.00  0.00     0.126 C 
HETATM   36  O3  UNL     1      -4.201  53.349 -12.293  1.00  0.00    -0.266 OA
ENDBRANCH  33  34
ENDBRANCH  32  33
ENDBRANCH  30  32
ENDBRANCH  28  30
ENDBRANCH  27  28
ENDBRANCH  26  27
ENDBRANCH  24  26
ENDBRANCH   1  24
TORSDOF 8
ENDMDL
MODEL 7
REMARK minimizedAffinity -7.42976809
REMARK CNNscore 0.272933632
REMARK CNNaffinity 6.51812744
REMARK  8 active torsions:
REMARK  status: ('A' for Active; 'I' for Inactive)
REMARK    1  A    between atoms: C2_2  and  C3_3 
REMARK    2  A    between atoms: C2_2  and  C29_30 
REMARK    3  A    between atoms: C3_3  and  C4_4 
REMARK    4  A    between atoms: C4_4  and  C5_5 
REMARK    5  A    between atoms: C5_5  and  C7_7 
REMARK    6  A    between atoms: C29_30  and  C31_32 
REMARK    7  A    between atoms: C31_32  and  O2_33 
REMARK    8  A    between atoms: O2_33  and  C32_34 
ROOT
HETATM    1  C7  UNL     1      -6.634  49.758 -21.982  1.00  0.00    -0.002 C 
HETATM    2  C8  UNL     1      -6.727  50.049 -20.479  1.00  0.00     0.006 C 
HETATM    3  C9  UNL     1      -5.537  49.357 -19.844  1.00  0.00     0.011 C 
HETATM    4  C10 UNL     1      -4.373  49.407 -20.874  1.00  0.00    -0.032 C 
HETATM    5  C11 UNL     1      -3.710  48.010 -20.875  1.00  0.00     0.016 C 
HETATM    6  C12 UNL     1      -3.337  50.516 -20.433  1.00  0.00     0.004 C 
HETATM    7  C13 UNL     1      -2.510  50.175 -19.182  1.00  0.00     0.007 C 
HETATM    8  C14 UNL     1      -1.608  51.350 -18.824  1.00  0.00     0.007 C 
HETATM    9  C15 UNL     1      -0.498  51.592 -19.871  1.00  0.00     0.010 C 
HETATM   10  C16 UNL     1       0.346  52.875 -19.546  1.00  0.00     0.018 C 
HETATM   11  C17 UNL     1       1.173  52.643 -18.259  1.00  0.00     0.023 C 
HETATM   12  C18 UNL     1      -0.510  54.138 -19.336  1.00  0.00     0.023 C 
HETATM   13  C19 UNL     1       1.349  53.171 -20.672  1.00  0.00     0.135 C 
HETATM   14  O1  UNL     1       2.388  53.805 -20.470  1.00  0.00    -0.297 OA
HETATM   15  C20 UNL     1       1.046  52.671 -22.060  1.00  0.00     0.080 C 
HETATM   16  C21 UNL     1      -0.450  52.569 -22.266  1.00  0.00     0.018 C 
HETATM   17  C22 UNL     1      -1.047  51.545 -21.319  1.00  0.00    -0.026 A 
HETATM   18  C23 UNL     1      -1.206  50.162 -21.922  1.00  0.00     0.021 A 
HETATM   19  C24 UNL     1      -2.451  50.956 -21.600  1.00  0.00    -0.027 A 
HETATM   20  C25 UNL     1      -3.239  51.528 -22.767  1.00  0.00     0.011 C 
HETATM   21  C26 UNL     1      -4.735  51.248 -22.658  1.00  0.00     0.011 C 
HETATM   22  C27 UNL     1      -5.082  49.773 -22.264  1.00  0.00    -0.032 C 
HETATM   23  C28 UNL     1      -4.632  48.892 -23.444  1.00  0.00     0.016 C 
ENDROOT
BRANCH   1  24
HETATM   24  C5  UNL     1      -7.563  48.581 -22.427  1.00  0.00    -0.014 C 
HETATM   25  C6  UNL     1      -7.549  47.322 -21.562  1.00  0.00     0.010 C 
BRANCH  24  26
HETATM   26  C4  UNL     1      -7.488  48.342 -23.964  1.00  0.00     0.009 C 
BRANCH  26  27
HETATM   27  C3  UNL     1      -8.697  48.788 -24.796  1.00  0.00     0.034 C 
BRANCH  27  28
HETATM   28  C2  UNL     1      -9.047  47.795 -25.894  1.00  0.00    -0.083 C 
HETATM   29  C1  UNL     1     -10.227  47.901 -26.533  1.00  0.00     0.015 C 
BRANCH  28  30
HETATM   30  C29 UNL     1      -8.002  46.720 -26.214  1.00  0.00     0.034 C 
HETATM   31  C30 UNL     1      -8.527  45.287 -26.040  1.00  0.00     0.017 C 
BRANCH  30  32
HETATM   32  C31 UNL     1      -7.428  46.884 -27.638  1.00  0.00     0.187 C 
BRANCH  32  33
HETATM   33  O2  UNL     1      -8.042  45.983 -28.578  1.00  0.00    -0.321 OA
BRANCH  33  34
HETATM   34  C32 UNL     1      -7.186  45.209 -29.298  1.00  0.00     0.254 C 
HETATM   35  C33 UNL     1      -6.545  46.025 -30.378  1.00  0.00     0.126 C 
HETATM   36  O3  UNL     1      -6.966  44.022 -29.105  1.00  0.00    -0.266 OA
ENDBRANCH  33  34
ENDBRANCH  32  33
ENDBRANCH  30  32
ENDBRANCH  28  30
ENDBRANCH  27  28
ENDBRANCH  26  27
ENDBRANCH  24  26
ENDBRANCH   1  24
TORSDOF 8
ENDMDL
MODEL 8
REMARK minimizedAffinity -9.10260963
REMARK CNNscore 0.271017283
REMARK CNNaffinity 7.02252817
REMARK  8 active torsions:
REMARK  status: ('A' for Active; 'I' for Inactive)
REMARK    1  A    between atoms: C2_2  and  C3_3 
REMARK    2  A    between atoms: C2_2  and  C29_30 
REMARK    3  A    between atoms: C3_3  and  C4_4 
REMARK    4  A    between atoms: C4_4  and  C5_5 
REMARK    5  A    between atoms: C5_5  and  C7_7 
REMARK    6  A    between atoms: C29_30  and  C31_32 
REMARK    7  A    between atoms: C31_32  and  O2_33 
REMARK    8  A    between atoms: O2_33  and  C32_34 
ROOT
HETATM    1  C7  UNL     1      -0.532  49.643 -19.135  1.00  0.00    -0.002 C 
HETATM    2  C8  UNL     1      -0.936  48.408 -19.949  1.00  0.00     0.006 C 
HETATM    3  C9  UNL     1      -2.124  48.830 -20.791  1.00  0.00     0.011 C 
HETATM    4  C10 UNL     1      -1.921  50.329 -21.151  1.00  0.00    -0.032 C 
HETATM    5  C11 UNL     1      -3.286  51.029 -20.957  1.00  0.00     0.016 C 
HETATM    6  C12 UNL     1      -1.444  50.442 -22.654  1.00  0.00     0.004 C 
HETATM    7  C13 UNL     1      -2.515  50.105 -23.705  1.00  0.00     0.007 C 
HETATM    8  C14 UNL     1      -1.909  50.181 -25.101  1.00  0.00     0.007 C 
HETATM    9  C15 UNL     1      -1.521  51.620 -25.506  1.00  0.00     0.010 C 
HETATM   10  C16 UNL     1      -0.793  51.663 -26.896  1.00  0.00     0.018 C 
HETATM   11  C17 UNL     1      -1.787  51.277 -28.018  1.00  0.00     0.023 C 
HETATM   12  C18 UNL     1       0.415  50.711 -26.988  1.00  0.00     0.023 C 
HETATM   13  C19 UNL     1      -0.295  53.082 -27.210  1.00  0.00     0.135 C 
HETATM   14  O1  UNL     1      -0.117  53.469 -28.369  1.00  0.00    -0.297 OA
HETATM   15  C20 UNL     1      -0.017  54.021 -26.067  1.00  0.00     0.080 C 
HETATM   16  C21 UNL     1       0.379  53.241 -24.832  1.00  0.00     0.018 C 
HETATM   17  C22 UNL     1      -0.765  52.358 -24.372  1.00  0.00    -0.026 A 
HETATM   18  C23 UNL     1      -1.633  52.980 -23.294  1.00  0.00     0.021 A 
HETATM   19  C24 UNL     1      -0.774  51.789 -22.932  1.00  0.00    -0.027 A 
HETATM   20  C25 UNL     1       0.446  52.042 -22.062  1.00  0.00     0.011 C 
HETATM   21  C26 UNL     1       0.549  51.063 -20.897  1.00  0.00     0.011 C 
HETATM   22  C27 UNL     1      -0.797  50.839 -20.129  1.00  0.00    -0.032 C 
HETATM   23  C28 UNL     1      -1.136  52.179 -19.449  1.00  0.00     0.016 C 
ENDROOT
BRANCH   1  24
HETATM   24  C5  UNL     1      -1.093  49.615 -17.676  1.00  0.00    -0.014 C 
HETATM   25  C6  UNL     1      -2.381  50.392 -17.414  1.00  0.00     0.010 C 
BRANCH  24  26
HETATM   26  C4  UNL     1       0.037  49.813 -16.623  1.00  0.00     0.009 C 
BRANCH  26  27
HETATM   27  C3  UNL     1       0.844  51.115 -16.706  1.00  0.00     0.034 C 
BRANCH  27  28
HETATM   28  C2  UNL     1       1.294  51.609 -15.339  1.00  0.00    -0.083 C 
HETATM   29  C1  UNL     1       0.379  52.065 -14.464  1.00  0.00     0.015 C 
BRANCH  28  30
HETATM   30  C29 UNL     1       2.796  51.545 -15.040  1.00  0.00     0.034 C 
HETATM   31  C30 UNL     1       3.624  52.553 -15.849  1.00  0.00     0.017 C 
BRANCH  30  32
HETATM   32  C31 UNL     1       3.090  51.732 -13.536  1.00  0.00     0.187 C 
BRANCH  32  33
HETATM   33  O2  UNL     1       3.110  50.480 -12.827  1.00  0.00    -0.321 OA
BRANCH  33  34
HETATM   34  C32 UNL     1       3.842  49.488 -13.403  1.00  0.00     0.254 C 
HETATM   35  C33 UNL     1       2.968  48.305 -13.684  1.00  0.00     0.126 C 
HETATM   36  O3  UNL     1       5.037  49.541 -13.657  1.00  0.00    -0.266 OA
ENDBRANCH  33  34
ENDBRANCH  32  33
ENDBRANCH  30  32
ENDBRANCH  28  30
ENDBRANCH  27  28
ENDBRANCH  26  27
ENDBRANCH  24  26
ENDBRANCH   1  24
TORSDOF 8
ENDMDL
MODEL 9
REMARK minimizedAffinity -7.48081255
REMARK CNNscore 0.266125023
REMARK CNNaffinity 5.72995615
REMARK  8 active torsions:
REMARK  status: ('A' for Active; 'I' for Inactive)
REMARK    1  A    between atoms: C2_2  and  C3_3 
REMARK    2  A    between atoms: C2_2  and  C29_30 
REMARK    3  A    between atoms: C3_3  and  C4_4 
REMARK    4  A    between atoms: C4_4  and  C5_5 
REMARK    5  A    between atoms: C5_5  and  C7_7 
REMARK    6  A    between atoms: C29_30  and  C31_32 
REMARK    7  A    between atoms: C31_32  and  O2_33 
REMARK    8  A    between atoms: O2_33  and  C32_34 
ROOT
HETATM    1  C7  UNL     1     -13.776  45.721 -28.418  1.00  0.00    -0.002 C 
HETATM    2  C8  UNL     1     -13.436  47.058 -27.748  1.00  0.00     0.006 C 
HETATM    3  C9  UNL     1     -12.205  46.802 -26.901  1.00  0.00     0.011 C 
HETATM    4  C10 UNL     1     -11.356  45.728 -27.638  1.00  0.00    -0.032 C 
HETATM    5  C11 UNL     1     -10.877  44.720 -26.568  1.00  0.00     0.016 C 
HETATM    6  C12 UNL     1     -10.123  46.430 -28.335  1.00  0.00     0.004 C 
HETATM    7  C13 UNL     1      -9.039  46.949 -27.375  1.00  0.00     0.007 C 
HETATM    8  C14 UNL     1      -7.950  47.664 -28.166  1.00  0.00     0.007 C 
HETATM    9  C15 UNL     1      -7.136  46.706 -29.062  1.00  0.00     0.010 C 
HETATM   10  C16 UNL     1      -6.098  47.475 -29.954  1.00  0.00     0.018 C 
HETATM   11  C17 UNL     1      -4.993  48.086 -29.061  1.00  0.00     0.023 C 
HETATM   12  C18 UNL     1      -6.723  48.617 -30.779  1.00  0.00     0.023 C 
HETATM   13  C19 UNL     1      -5.402  46.518 -30.935  1.00  0.00     0.135 C 
HETATM   14  O1  UNL     1      -4.281  46.758 -31.395  1.00  0.00    -0.297 OA
HETATM   15  C20 UNL     1      -6.113  45.255 -31.340  1.00  0.00     0.080 C 
HETATM   16  C21 UNL     1      -7.612  45.452 -31.275  1.00  0.00     0.018 C 
HETATM   17  C22 UNL     1      -8.048  45.732 -29.849  1.00  0.00    -0.026 A 
HETATM   18  C23 UNL     1      -8.513  44.502 -29.091  1.00  0.00     0.021 A 
HETATM   19  C24 UNL     1      -9.533  45.559 -29.446  1.00  0.00    -0.027 A 
HETATM   20  C25 UNL     1     -10.532  45.230 -30.543  1.00  0.00     0.011 C 
HETATM   21  C26 UNL     1     -11.968  45.562 -30.148  1.00  0.00     0.011 C 
HETATM   22  C27 UNL     1     -12.361  45.087 -28.709  1.00  0.00    -0.032 C 
HETATM   23  C28 UNL     1     -12.338  43.547 -28.739  1.00  0.00     0.016 C 
ENDROOT
BRANCH   1  24
HETATM   24  C5  UNL     1     -14.914  44.946 -27.676  1.00  0.00    -0.014 C 
HETATM   25  C6  UNL     1     -16.096  44.475 -28.521  1.00  0.00     0.010 C 
BRANCH  24  26
HETATM   26  C4  UNL     1     -15.282  45.624 -26.324  1.00  0.00     0.009 C 
BRANCH  26  27
HETATM   27  C3  UNL     1     -16.754  45.571 -25.898  1.00  0.00     0.034 C 
BRANCH  27  28
HETATM   28  C2  UNL     1     -17.082  46.580 -24.808  1.00  0.00    -0.083 C 
HETATM   29  C1  UNL     1     -16.087  47.273 -24.224  1.00  0.00     0.015 C 
BRANCH  28  30
HETATM   30  C29 UNL     1     -18.562  46.751 -24.444  1.00  0.00     0.034 C 
HETATM   31  C30 UNL     1     -19.505  45.903 -25.308  1.00  0.00     0.017 C 
BRANCH  30  32
HETATM   32  C31 UNL     1     -18.824  46.450 -22.953  1.00  0.00     0.187 C 
BRANCH  32  33
HETATM   33  O2  UNL     1     -19.406  45.148 -22.757  1.00  0.00    -0.321 OA
BRANCH  33  34
HETATM   34  C32 UNL     1     -19.539  44.751 -21.462  1.00  0.00     0.254 C 
HETATM   35  C33 UNL     1     -19.709  43.265 -21.398  1.00  0.00     0.126 C 
HETATM   36  O3  UNL     1     -19.527  45.488 -20.487  1.00  0.00    -0.266 OA
ENDBRANCH  33  34
ENDBRANCH  32  33
ENDBRANCH  30  32
ENDBRANCH  28  30
ENDBRANCH  27  28
ENDBRANCH  26  27
ENDBRANCH  24  26
ENDBRANCH   1  24
TORSDOF 8
ENDMDL
