MODEL 1
REMARK minimizedAffinity -6.55883598
REMARK CNNscore 0.701307714
REMARK CNNaffinity 6.30857611
REMARK  9 active torsions:
REMARK  status: ('A' for Active; 'I' for Inactive)
REMARK    1  A    between atoms: C2_2  and  C3_3 
REMARK    2  A    between atoms: C3_3  and  C5_5 
REMARK    3  A    between atoms: C3_3  and  C6_7 
REMARK    4  A    between atoms: C5_5  and  O1_6 
REMARK    5  A    between atoms: C7_8  and  O2_9 
REMARK    6  A    between atoms: C18_22  and  O5_23 
REMARK    7  A    between atoms: O5_23  and  C19_24 
REMARK    8  A    between atoms: C19_24  and  C20_26 
REMARK    9  A    between atoms: C29_36  and  O8_37 
ROOT
HETATM    1  C6  UNL     1     -13.920  11.652  -1.291  1.00  0.00     0.023 A 
HETATM    2  C7  UNL     1     -14.431  11.828   0.009  1.00  0.00     0.076 A 
HETATM    3  C8  UNL     1     -13.979  12.850   0.852  1.00  0.00     0.053 A 
HETATM    4  C9  UNL     1     -12.966  13.715   0.434  1.00  0.00     0.034 A 
HETATM    5  C10 UNL     1     -12.561  14.821   1.321  1.00  0.00     0.192 A 
HETATM    6  O3  UNL     1     -13.186  15.030   2.352  1.00  0.00    -0.287 OA
HETATM    7  C11 UNL     1     -11.437  15.702   0.903  1.00  0.00     0.035 A 
HETATM    8  C12 UNL     1     -10.891  15.549  -0.314  1.00  0.00     0.131 A 
HETATM    9  O4  UNL     1      -9.967  16.435  -0.834  1.00  0.00    -0.336 OA
HETATM   10  C13 UNL     1     -10.027  17.776  -0.323  1.00  0.00     0.065 C 
HETATM   11  C14 UNL     1      -8.859  18.521  -0.992  1.00  0.00     0.046 C 
HETATM   12  C15 UNL     1     -11.322  18.465  -0.818  1.00  0.00     0.046 C 
HETATM   13  C16 UNL     1      -9.945  17.771   1.231  1.00  0.00     0.031 C 
HETATM   14  C17 UNL     1      -8.534  17.483   1.803  1.00  0.00     0.041 C 
HETATM   15  C18 UNL     1      -8.295  16.012   2.143  1.00  0.00     0.136 C 
HETATM   16  C23 UNL     1      -9.252  15.557   3.259  1.00  0.00     0.012 C 
HETATM   17  C24 UNL     1      -9.459  14.037   3.198  1.00  0.00     0.012 C 
HETATM   18  C25 UNL     1     -10.579  16.336   3.242  1.00  0.00     0.017 C 
HETATM   19  C26 UNL     1     -11.029  16.823   1.845  1.00  0.00     0.033 C 
HETATM   20  C27 UNL     1     -11.272  14.421  -1.214  1.00  0.00     0.219 A 
HETATM   21  O7  UNL     1     -10.695  14.220  -2.278  1.00  0.00    -0.284 OA
HETATM   22  C28 UNL     1     -12.370  13.530  -0.802  1.00  0.00     0.065 A 
HETATM   23  C29 UNL     1     -12.830  12.496  -1.646  1.00  0.00     0.091 A 
ENDROOT
BRANCH   1  24
HETATM   24  C3  UNL     1     -14.464  10.592  -2.306  1.00  0.00     0.027 C 
HETATM   25  C4  UNL     1     -15.998  10.366  -2.258  1.00  0.00     0.027 C 
BRANCH  24  26
HETATM   26  C2  UNL     1     -14.265  11.098  -3.749  1.00  0.00    -0.021 C 
HETATM   27  C1  UNL     1     -15.073  10.916  -4.804  1.00  0.00     0.008 C 
ENDBRANCH  24  26
BRANCH  24  28
HETATM   28  C5  UNL     1     -13.757   9.235  -1.970  1.00  0.00     0.182 C 
BRANCH  28  29
HETATM   29  O1  UNL     1     -12.727   8.853  -2.884  1.00  0.00    -0.399 OA
HETATM   30  H9  UNL     1     -13.131   8.723  -3.756  1.00  0.00     0.209 HD
ENDBRANCH  28  29
ENDBRANCH  24  28
ENDBRANCH   1  24
BRANCH   2  31
HETATM   31  O2  UNL     1     -15.381  10.985   0.508  1.00  0.00    -0.360 OA
HETATM   32  H10 UNL     1     -15.448  11.097   1.472  1.00  0.00     0.217 HD
ENDBRANCH   2  31
BRANCH  23  33
HETATM   33  O8  UNL     1     -12.211  12.262  -2.848  1.00  0.00    -0.359 OA
HETATM   34  H36 UNL     1     -11.454  12.882  -2.974  1.00  0.00     0.217 HD
ENDBRANCH  23  33
BRANCH  15  35
HETATM   35  O5  UNL     1      -6.945  15.904   2.645  1.00  0.00    -0.315 OA
BRANCH  35  36
HETATM   36  C19 UNL     1      -5.927  15.884   1.735  1.00  0.00     0.262 C 
HETATM   37  O6  UNL     1      -5.799  15.060   0.841  1.00  0.00    -0.265 OA
BRANCH  36  38
HETATM   38  C20 UNL     1      -4.972  17.033   2.013  1.00  0.00     0.077 C 
HETATM   39  C21 UNL     1      -4.545  17.710   0.713  1.00  0.00     0.020 C 
HETATM   40  C22 UNL     1      -3.764  16.528   2.792  1.00  0.00     0.020 C 
ENDBRANCH  36  38
ENDBRANCH  35  36
ENDBRANCH  15  35
TORSDOF 9
ENDMDL
MODEL 2
REMARK minimizedAffinity -6.56800938
REMARK CNNscore 0.614749312
REMARK CNNaffinity 6.17926836
REMARK  9 active torsions:
REMARK  status: ('A' for Active; 'I' for Inactive)
REMARK    1  A    between atoms: C2_2  and  C3_3 
REMARK    2  A    between atoms: C3_3  and  C5_5 
REMARK    3  A    between atoms: C3_3  and  C6_7 
REMARK    4  A    between atoms: C5_5  and  O1_6 
REMARK    5  A    between atoms: C7_8  and  O2_9 
REMARK    6  A    between atoms: C18_22  and  O5_23 
REMARK    7  A    between atoms: O5_23  and  C19_24 
REMARK    8  A    between atoms: C19_24  and  C20_26 
REMARK    9  A    between atoms: C29_36  and  O8_37 
ROOT
HETATM    1  C6  UNL     1     -12.330   9.959  23.243  1.00  0.00     0.023 A 
HETATM    2  C7  UNL     1     -12.154   9.197  22.072  1.00  0.00     0.076 A 
HETATM    3  C8  UNL     1     -12.711   7.922  21.925  1.00  0.00     0.053 A 
HETATM    4  C9  UNL     1     -13.438   7.343  22.967  1.00  0.00     0.034 A 
HETATM    5  C10 UNL     1     -14.068   6.028  22.754  1.00  0.00     0.192 A 
HETATM    6  O3  UNL     1     -14.037   5.515  21.644  1.00  0.00    -0.287 OA
HETATM    7  C11 UNL     1     -14.785   5.383  23.887  1.00  0.00     0.035 A 
HETATM    8  C12 UNL     1     -14.947   6.054  25.039  1.00  0.00     0.131 A 
HETATM    9  O4  UNL     1     -15.746   5.592  26.066  1.00  0.00    -0.336 OA
HETATM   10  C13 UNL     1     -16.815   4.712  25.683  1.00  0.00     0.065 C 
HETATM   11  C14 UNL     1     -17.484   4.285  27.000  1.00  0.00     0.046 C 
HETATM   12  C15 UNL     1     -17.882   5.504  24.890  1.00  0.00     0.046 C 
HETATM   13  C16 UNL     1     -16.264   3.515  24.855  1.00  0.00     0.031 C 
HETATM   14  C17 UNL     1     -15.514   2.444  25.687  1.00  0.00     0.041 C 
HETATM   15  C18 UNL     1     -14.000   2.647  25.730  1.00  0.00     0.136 C 
HETATM   16  C23 UNL     1     -13.400   2.513  24.319  1.00  0.00     0.012 C 
HETATM   17  C24 UNL     1     -12.069   3.273  24.230  1.00  0.00     0.012 C 
HETATM   18  C25 UNL     1     -14.395   2.931  23.221  1.00  0.00     0.017 C 
HETATM   19  C26 UNL     1     -15.409   4.019  23.644  1.00  0.00     0.033 C 
HETATM   20  C27 UNL     1     -14.297   7.376  25.280  1.00  0.00     0.219 A 
HETATM   21  O7  UNL     1     -14.356   7.936  26.370  1.00  0.00    -0.284 OA
HETATM   22  C28 UNL     1     -13.566   8.015  24.172  1.00  0.00     0.065 A 
HETATM   23  C29 UNL     1     -12.999   9.301  24.313  1.00  0.00     0.091 A 
ENDROOT
BRANCH   1  24
HETATM   24  C3  UNL     1     -11.815  11.427  23.415  1.00  0.00     0.027 C 
HETATM   25  C4  UNL     1     -12.039  12.348  22.186  1.00  0.00     0.027 C 
BRANCH  24  26
HETATM   26  C2  UNL     1     -12.638  12.147  24.503  1.00  0.00    -0.021 C 
HETATM   27  C1  UNL     1     -13.568  13.098  24.336  1.00  0.00     0.008 C 
ENDBRANCH  24  26
BRANCH  24  28
HETATM   28  C5  UNL     1     -10.275  11.341  23.689  1.00  0.00     0.182 C 
BRANCH  28  29
HETATM   29  O1  UNL     1      -9.864  11.838  24.964  1.00  0.00    -0.399 OA
HETATM   30  H9  UNL     1     -10.079  12.783  25.002  1.00  0.00     0.209 HD
ENDBRANCH  28  29
ENDBRANCH  24  28
ENDBRANCH   1  24
BRANCH   2  31
HETATM   31  O2  UNL     1     -11.407   9.673  21.033  1.00  0.00    -0.360 OA
HETATM   32  H10 UNL     1     -11.196   8.948  20.419  1.00  0.00     0.217 HD
ENDBRANCH   2  31
BRANCH  23  33
HETATM   33  O8  UNL     1     -13.067   9.953  25.518  1.00  0.00    -0.359 OA
HETATM   34  H36 UNL     1     -13.521   9.394  26.190  1.00  0.00     0.217 HD
ENDBRANCH  23  33
BRANCH  15  35
HETATM   35  O5  UNL     1     -13.451   1.589  26.547  1.00  0.00    -0.315 OA
BRANCH  35  36
HETATM   36  C19 UNL     1     -13.587   1.695  27.901  1.00  0.00     0.262 C 
HETATM   37  O6  UNL     1     -14.275   0.964  28.599  1.00  0.00    -0.265 OA
BRANCH  36  38
HETATM   38  C20 UNL     1     -12.764   2.869  28.406  1.00  0.00     0.077 C 
HETATM   39  C21 UNL     1     -11.930   2.465  29.620  1.00  0.00     0.020 C 
HETATM   40  C22 UNL     1     -13.679   4.043  28.734  1.00  0.00     0.020 C 
ENDBRANCH  36  38
ENDBRANCH  35  36
ENDBRANCH  15  35
TORSDOF 9
ENDMDL
MODEL 3
REMARK minimizedAffinity -6.4948945
REMARK CNNscore 0.454605192
REMARK CNNaffinity 6.11802673
REMARK  9 active torsions:
REMARK  status: ('A' for Active; 'I' for Inactive)
REMARK    1  A    between atoms: C2_2  and  C3_3 
REMARK    2  A    between atoms: C3_3  and  C5_5 
REMARK    3  A    between atoms: C3_3  and  C6_7 
REMARK    4  A    between atoms: C5_5  and  O1_6 
REMARK    5  A    between atoms: C7_8  and  O2_9 
REMARK    6  A    between atoms: C18_22  and  O5_23 
REMARK    7  A    between atoms: O5_23  and  C19_24 
REMARK    8  A    between atoms: C19_24  and  C20_26 
REMARK    9  A    between atoms: C29_36  and  O8_37 
ROOT
HETATM    1  C6  UNL     1     -14.035   3.479  26.485  1.00  0.00     0.023 A 
HETATM    2  C7  UNL     1     -14.228   4.472  27.465  1.00  0.00     0.076 A 
HETATM    3  C8  UNL     1     -14.340   5.828  27.137  1.00  0.00     0.053 A 
HETATM    4  C9  UNL     1     -14.225   6.246  25.809  1.00  0.00     0.034 A 
HETATM    5  C10 UNL     1     -14.415   7.672  25.491  1.00  0.00     0.192 A 
HETATM    6  O3  UNL     1     -14.775   8.445  26.369  1.00  0.00    -0.287 OA
HETATM    7  C11 UNL     1     -14.228   8.126  24.086  1.00  0.00     0.035 A 
HETATM    8  C12 UNL     1     -14.004   7.220  23.120  1.00  0.00     0.131 A 
HETATM    9  O4  UNL     1     -13.993   7.549  21.779  1.00  0.00    -0.336 OA
HETATM   10  C13 UNL     1     -14.762   8.703  21.407  1.00  0.00     0.065 C 
HETATM   11  C14 UNL     1     -14.514   8.893  19.901  1.00  0.00     0.046 C 
HETATM   12  C15 UNL     1     -16.271   8.396  21.564  1.00  0.00     0.046 C 
HETATM   13  C16 UNL     1     -14.341   9.935  22.261  1.00  0.00     0.031 C 
HETATM   14  C17 UNL     1     -12.980  10.561  21.867  1.00  0.00     0.041 C 
HETATM   15  C18 UNL     1     -11.801  10.040  22.688  1.00  0.00     0.136 C 
HETATM   16  C23 UNL     1     -11.972  10.417  24.171  1.00  0.00     0.012 C 
HETATM   17  C24 UNL     1     -11.185   9.446  25.062  1.00  0.00     0.012 C 
HETATM   18  C25 UNL     1     -13.452  10.527  24.577  1.00  0.00     0.017 C 
HETATM   19  C26 UNL     1     -14.412   9.605  23.790  1.00  0.00     0.033 C 
HETATM   20  C27 UNL     1     -13.786   5.776  23.428  1.00  0.00     0.219 A 
HETATM   21  O7  UNL     1     -13.475   4.970  22.556  1.00  0.00    -0.284 OA
HETATM   22  C28 UNL     1     -13.949   5.318  24.818  1.00  0.00     0.065 A 
HETATM   23  C29 UNL     1     -13.835   3.953  25.158  1.00  0.00     0.091 A 
ENDROOT
BRANCH   1  24
HETATM   24  C3  UNL     1     -14.007   1.945  26.792  1.00  0.00     0.027 C 
HETATM   25  C4  UNL     1     -14.203   1.026  25.557  1.00  0.00     0.027 C 
BRANCH  24  26
HETATM   26  C2  UNL     1     -12.601   1.533  27.272  1.00  0.00    -0.021 C 
HETATM   27  C1  UNL     1     -11.870   2.088  28.250  1.00  0.00     0.008 C 
ENDBRANCH  24  26
BRANCH  24  28
HETATM   28  C5  UNL     1     -15.169   1.661  27.804  1.00  0.00     0.182 C 
BRANCH  28  29
HETATM   29  O1  UNL     1     -14.754   1.105  29.053  1.00  0.00    -0.399 OA
HETATM   30  H9  UNL     1     -14.349   0.241  28.878  1.00  0.00     0.209 HD
ENDBRANCH  28  29
ENDBRANCH  24  28
ENDBRANCH   1  24
BRANCH   2  31
HETATM   31  O2  UNL     1     -14.291   4.145  28.789  1.00  0.00    -0.360 OA
HETATM   32  H10 UNL     1     -14.190   4.947  29.332  1.00  0.00     0.217 HD
ENDBRANCH   2  31
BRANCH  23  33
HETATM   33  O8  UNL     1     -13.504   3.031  24.197  1.00  0.00    -0.359 OA
HETATM   34  H36 UNL     1     -13.359   3.472  23.328  1.00  0.00     0.217 HD
ENDBRANCH  23  33
BRANCH  15  35
HETATM   35  O5  UNL     1     -10.614  10.699  22.196  1.00  0.00    -0.315 OA
BRANCH  35  36
HETATM   36  C19 UNL     1     -10.459  12.026  22.480  1.00  0.00     0.262 C 
HETATM   37  O6  UNL     1     -11.251  12.906  22.181  1.00  0.00    -0.265 OA
BRANCH  36  38
HETATM   38  C20 UNL     1      -9.144  12.239  23.213  1.00  0.00     0.077 C 
HETATM   39  C21 UNL     1      -9.366  13.009  24.512  1.00  0.00     0.020 C 
HETATM   40  C22 UNL     1      -8.156  12.964  22.307  1.00  0.00     0.020 C 
ENDBRANCH  36  38
ENDBRANCH  35  36
ENDBRANCH  15  35
TORSDOF 9
ENDMDL
MODEL 4
REMARK minimizedAffinity -6.58168316
REMARK CNNscore 0.442228228
REMARK CNNaffinity 6.07518005
REMARK  9 active torsions:
REMARK  status: ('A' for Active; 'I' for Inactive)
REMARK    1  A    between atoms: C2_2  and  C3_3 
REMARK    2  A    between atoms: C3_3  and  C5_5 
REMARK    3  A    between atoms: C3_3  and  C6_7 
REMARK    4  A    between atoms: C5_5  and  O1_6 
REMARK    5  A    between atoms: C7_8  and  O2_9 
REMARK    6  A    between atoms: C18_22  and  O5_23 
REMARK    7  A    between atoms: O5_23  and  C19_24 
REMARK    8  A    between atoms: C19_24  and  C20_26 
REMARK    9  A    between atoms: C29_36  and  O8_37 
ROOT
HETATM    1  C6  UNL     1       3.277  11.971  21.077  1.00  0.00     0.023 A 
HETATM    2  C7  UNL     1       2.786  13.233  21.463  1.00  0.00     0.076 A 
HETATM    3  C8  UNL     1       1.573  13.737  20.980  1.00  0.00     0.053 A 
HETATM    4  C9  UNL     1       0.822  13.007  20.056  1.00  0.00     0.034 A 
HETATM    5  C10 UNL     1      -0.483  13.537  19.619  1.00  0.00     0.192 A 
HETATM    6  O3  UNL     1      -0.934  14.545  20.148  1.00  0.00    -0.287 OA
HETATM    7  C11 UNL     1      -1.252  12.792  18.587  1.00  0.00     0.035 A 
HETATM    8  C12 UNL     1      -0.805  11.600  18.158  1.00  0.00     0.131 A 
HETATM    9  O4  UNL     1      -1.548  10.776  17.336  1.00  0.00    -0.336 OA
HETATM   10  C13 UNL     1      -2.974  10.936  17.410  1.00  0.00     0.065 C 
HETATM   11  C14 UNL     1      -3.548   9.978  16.352  1.00  0.00     0.046 C 
HETATM   12  C15 UNL     1      -3.485  10.428  18.779  1.00  0.00     0.046 C 
HETATM   13  C16 UNL     1      -3.367  12.424  17.172  1.00  0.00     0.031 C 
HETATM   14  C17 UNL     1      -3.266  12.892  15.699  1.00  0.00     0.041 C 
HETATM   15  C18 UNL     1      -1.936  13.563  15.356  1.00  0.00     0.136 C 
HETATM   16  C23 UNL     1      -1.761  14.855  16.174  1.00  0.00     0.012 C 
HETATM   17  C24 UNL     1      -0.271  15.202  16.311  1.00  0.00     0.012 C 
HETATM   18  C25 UNL     1      -2.481  14.787  17.532  1.00  0.00     0.017 C 
HETATM   19  C26 UNL     1      -2.584  13.371  18.142  1.00  0.00     0.033 C 
HETATM   20  C27 UNL     1       0.524  11.060  18.572  1.00  0.00     0.219 A 
HETATM   21  O7  UNL     1       0.977  10.024  18.095  1.00  0.00    -0.284 OA
HETATM   22  C28 UNL     1       1.304  11.800  19.579  1.00  0.00     0.065 A 
HETATM   23  C29 UNL     1       2.529  11.299  20.070  1.00  0.00     0.091 A 
ENDROOT
BRANCH   1  24
HETATM   24  C3  UNL     1       4.573  11.321  21.667  1.00  0.00     0.027 C 
HETATM   25  C4  UNL     1       5.731  11.131  20.653  1.00  0.00     0.027 C 
BRANCH  24  26
HETATM   26  C2  UNL     1       5.211  12.272  22.701  1.00  0.00    -0.021 C 
HETATM   27  C1  UNL     1       6.488  12.306  23.110  1.00  0.00     0.008 C 
ENDBRANCH  24  26
BRANCH  24  28
HETATM   28  C5  UNL     1       4.166   9.912  22.218  1.00  0.00     0.182 C 
BRANCH  28  29
HETATM   29  O1  UNL     1       3.799   9.891  23.599  1.00  0.00    -0.399 OA
HETATM   30  H9  UNL     1       4.573  10.156  24.120  1.00  0.00     0.209 HD
ENDBRANCH  28  29
ENDBRANCH  24  28
ENDBRANCH   1  24
BRANCH   2  31
HETATM   31  O2  UNL     1       3.495  14.029  22.316  1.00  0.00    -0.360 OA
HETATM   32  H10 UNL     1       3.141  14.935  22.292  1.00  0.00     0.217 HD
ENDBRANCH   2  31
BRANCH  23  33
HETATM   33  O8  UNL     1       3.048  10.134  19.563  1.00  0.00    -0.359 OA
HETATM   34  H36 UNL     1       2.465   9.774  18.854  1.00  0.00     0.217 HD
ENDBRANCH  23  33
BRANCH  15  35
HETATM   35  O5  UNL     1      -1.989  13.925  13.959  1.00  0.00    -0.315 OA
BRANCH  35  36
HETATM   36  C19 UNL     1      -2.628  15.085  13.626  1.00  0.00     0.262 C 
HETATM   37  O6  UNL     1      -3.840  15.242  13.616  1.00  0.00    -0.265 OA
BRANCH  36  38
HETATM   38  C20 UNL     1      -1.603  16.145  13.258  1.00  0.00     0.077 C 
HETATM   39  C21 UNL     1      -2.275  17.344  12.594  1.00  0.00     0.020 C 
HETATM   40  C22 UNL     1      -0.535  15.543  12.353  1.00  0.00     0.020 C 
ENDBRANCH  36  38
ENDBRANCH  35  36
ENDBRANCH  15  35
TORSDOF 9
ENDMDL
MODEL 5
REMARK minimizedAffinity -6.13951874
REMARK CNNscore 0.43206498
REMARK CNNaffinity 6.0217762
REMARK  9 active torsions:
REMARK  status: ('A' for Active; 'I' for Inactive)
REMARK    1  A    between atoms: C2_2  and  C3_3 
REMARK    2  A    between atoms: C3_3  and  C5_5 
REMARK    3  A    between atoms: C3_3  and  C6_7 
REMARK    4  A    between atoms: C5_5  and  O1_6 
REMARK    5  A    between atoms: C7_8  and  O2_9 
REMARK    6  A    between atoms: C18_22  and  O5_23 
REMARK    7  A    between atoms: O5_23  and  C19_24 
REMARK    8  A    between atoms: C19_24  and  C20_26 
REMARK    9  A    between atoms: C29_36  and  O8_37 
ROOT
HETATM    1  C6  UNL     1       2.537  11.704  21.220  1.00  0.00     0.023 A 
HETATM    2  C7  UNL     1       2.564  13.043  21.656  1.00  0.00     0.076 A 
HETATM    3  C8  UNL     1       1.602  13.975  21.251  1.00  0.00     0.053 A 
HETATM    4  C9  UNL     1       0.593  13.607  20.358  1.00  0.00     0.034 A 
HETATM    5  C10 UNL     1      -0.443  14.594  20.005  1.00  0.00     0.192 A 
HETATM    6  O3  UNL     1      -0.467  15.677  20.576  1.00  0.00    -0.287 OA
HETATM    7  C11 UNL     1      -1.479  14.223  19.004  1.00  0.00     0.035 A 
HETATM    8  C12 UNL     1      -1.522  12.967  18.529  1.00  0.00     0.131 A 
HETATM    9  O4  UNL     1      -2.553  12.506  17.734  1.00  0.00    -0.336 OA
HETATM   10  C13 UNL     1      -3.815  13.175  17.891  1.00  0.00     0.065 C 
HETATM   11  C14 UNL     1      -4.749  12.535  16.850  1.00  0.00     0.046 C 
HETATM   12  C15 UNL     1      -4.415  12.839  19.278  1.00  0.00     0.046 C 
HETATM   13  C16 UNL     1      -3.643  14.710  17.703  1.00  0.00     0.031 C 
HETATM   14  C17 UNL     1      -3.443  15.164  16.235  1.00  0.00     0.041 C 
HETATM   15  C18 UNL     1      -1.977  15.312  15.830  1.00  0.00     0.136 C 
HETATM   16  C23 UNL     1      -1.301  16.418  16.661  1.00  0.00     0.012 C 
HETATM   17  C24 UNL     1       0.216  16.189  16.721  1.00  0.00     0.012 C 
HETATM   18  C25 UNL     1      -1.932  16.568  18.056  1.00  0.00     0.017 C 
HETATM   19  C26 UNL     1      -2.523  15.267  18.645  1.00  0.00     0.033 C 
HETATM   20  C27 UNL     1      -0.469  11.962  18.857  1.00  0.00     0.219 A 
HETATM   21  O7  UNL     1      -0.451  10.851  18.337  1.00  0.00    -0.284 OA
HETATM   22  C28 UNL     1       0.574  12.325  19.832  1.00  0.00     0.065 A 
HETATM   23  C29 UNL     1       1.549  11.392  20.245  1.00  0.00     0.091 A 
ENDROOT
BRANCH   1  24
HETATM   24  C3  UNL     1       3.528  10.603  21.725  1.00  0.00     0.027 C 
HETATM   25  C4  UNL     1       3.958  10.739  23.210  1.00  0.00     0.027 C 
BRANCH  24  26
HETATM   26  C2  UNL     1       2.827   9.229  21.724  1.00  0.00    -0.021 C 
HETATM   27  C1  UNL     1       2.457   8.493  22.783  1.00  0.00     0.008 C 
ENDBRANCH  24  26
BRANCH  24  28
HETATM   28  C5  UNL     1       4.811  10.699  20.831  1.00  0.00     0.182 C 
BRANCH  28  29
HETATM   29  O1  UNL     1       5.684  11.784  21.150  1.00  0.00    -0.399 OA
HETATM   30  H9  UNL     1       5.203  12.612  20.998  1.00  0.00     0.209 HD
ENDBRANCH  28  29
ENDBRANCH  24  28
ENDBRANCH   1  24
BRANCH   2  31
HETATM   31  O2  UNL     1       3.553  13.490  22.483  1.00  0.00    -0.360 OA
HETATM   32  H10 UNL     1       3.558  14.463  22.496  1.00  0.00     0.217 HD
ENDBRANCH   2  31
BRANCH  23  33
HETATM   33  O8  UNL     1       1.579  10.138  19.689  1.00  0.00    -0.359 OA
HETATM   34  H36 UNL     1       0.873  10.044  19.007  1.00  0.00     0.217 HD
ENDBRANCH  23  33
BRANCH  15  35
HETATM   35  O5  UNL     1      -1.956  15.722  14.446  1.00  0.00    -0.315 OA
BRANCH  35  36
HETATM   36  C19 UNL     1      -1.470  14.836  13.527  1.00  0.00     0.262 C 
HETATM   37  O6  UNL     1      -1.686  13.633  13.527  1.00  0.00    -0.265 OA
BRANCH  36  38
HETATM   38  C20 UNL     1      -0.609  15.573  12.514  1.00  0.00     0.077 C 
HETATM   39  C21 UNL     1       0.874  15.394  12.828  1.00  0.00     0.020 C 
HETATM   40  C22 UNL     1      -0.990  17.049  12.485  1.00  0.00     0.020 C 
ENDBRANCH  36  38
ENDBRANCH  35  36
ENDBRANCH  15  35
TORSDOF 9
ENDMDL
MODEL 6
REMARK minimizedAffinity -7.17336988
REMARK CNNscore 0.407028556
REMARK CNNaffinity 6.14181662
REMARK  9 active torsions:
REMARK  status: ('A' for Active; 'I' for Inactive)
REMARK    1  A    between atoms: C2_2  and  C3_3 
REMARK    2  A    between atoms: C3_3  and  C5_5 
REMARK    3  A    between atoms: C3_3  and  C6_7 
REMARK    4  A    between atoms: C5_5  and  O1_6 
REMARK    5  A    between atoms: C7_8  and  O2_9 
REMARK    6  A    between atoms: C18_22  and  O5_23 
REMARK    7  A    between atoms: O5_23  and  C19_24 
REMARK    8  A    between atoms: C19_24  and  C20_26 
REMARK    9  A    between atoms: C29_36  and  O8_37 
ROOT
HETATM    1  C6  UNL     1       3.146   7.478  11.045  1.00  0.00     0.023 A 
HETATM    2  C7  UNL     1       2.857   7.120  12.376  1.00  0.00     0.076 A 
HETATM    3  C8  UNL     1       3.449   7.769  13.465  1.00  0.00     0.053 A 
HETATM    4  C9  UNL     1       4.387   8.784  13.259  1.00  0.00     0.034 A 
HETATM    5  C10 UNL     1       4.940   9.492  14.427  1.00  0.00     0.192 A 
HETATM    6  O3  UNL     1       4.494   9.259  15.543  1.00  0.00    -0.287 OA
HETATM    7  C11 UNL     1       5.987  10.527  14.211  1.00  0.00     0.035 A 
HETATM    8  C12 UNL     1       6.325  10.877  12.959  1.00  0.00     0.131 A 
HETATM    9  O4  UNL     1       7.157  11.944  12.682  1.00  0.00    -0.336 OA
HETATM   10  C13 UNL     1       7.192  12.986  13.670  1.00  0.00     0.065 C 
HETATM   11  C14 UNL     1       8.240  13.993  13.165  1.00  0.00     0.046 C 
HETATM   12  C15 UNL     1       5.839  13.738  13.683  1.00  0.00     0.046 C 
HETATM   13  C16 UNL     1       7.528  12.397  15.071  1.00  0.00     0.031 C 
HETATM   14  C17 UNL     1       9.012  11.993  15.264  1.00  0.00     0.041 C 
HETATM   15  C18 UNL     1       9.292  10.519  14.973  1.00  0.00     0.136 C 
HETATM   16  C23 UNL     1       8.527   9.623  15.964  1.00  0.00     0.012 C 
HETATM   17  C24 UNL     1       8.302   8.230  15.358  1.00  0.00     0.012 C 
HETATM   18  C25 UNL     1       7.221  10.275  16.451  1.00  0.00     0.017 C 
HETATM   19  C26 UNL     1       6.552  11.228  15.434  1.00  0.00     0.033 C 
HETATM   20  C27 UNL     1       5.793  10.154  11.766  1.00  0.00     0.219 A 
HETATM   21  O7  UNL     1       6.186  10.404  10.631  1.00  0.00    -0.284 OA
HETATM   22  C28 UNL     1       4.770   9.114  11.970  1.00  0.00     0.065 A 
HETATM   23  C29 UNL     1       4.170   8.453  10.877  1.00  0.00     0.091 A 
ENDROOT
BRANCH   1  24
HETATM   24  C3  UNL     1       2.435   6.853   9.799  1.00  0.00     0.027 C 
HETATM   25  C4  UNL     1       0.935   6.514  10.002  1.00  0.00     0.027 C 
BRANCH  24  26
HETATM   26  C2  UNL     1       2.373   7.888   8.657  1.00  0.00    -0.021 C 
HETATM   27  C1  UNL     1       1.947   7.701   7.400  1.00  0.00     0.008 C 
ENDBRANCH  24  26
BRANCH  24  28
HETATM   28  C5  UNL     1       3.196   5.526   9.458  1.00  0.00     0.182 C 
BRANCH  28  29
HETATM   29  O1  UNL     1       2.820   4.398  10.250  1.00  0.00    -0.399 OA
HETATM   30  H9  UNL     1       3.042   4.592  11.174  1.00  0.00     0.209 HD
ENDBRANCH  28  29
ENDBRANCH  24  28
ENDBRANCH   1  24
BRANCH   2  31
HETATM   31  O2  UNL     1       1.995   6.098  12.654  1.00  0.00    -0.360 OA
HETATM   32  H10 UNL     1       2.088   5.833  13.586  1.00  0.00     0.217 HD
ENDBRANCH   2  31
BRANCH  23  33
HETATM   33  O8  UNL     1       4.582   8.727   9.597  1.00  0.00    -0.359 OA
HETATM   34  H36 UNL     1       5.312   9.389   9.602  1.00  0.00     0.217 HD
ENDBRANCH  23  33
BRANCH  15  35
HETATM   35  O5  UNL     1      10.705  10.305  15.181  1.00  0.00    -0.315 OA
BRANCH  35  36
HETATM   36  C19 UNL     1      11.458   9.934  14.103  1.00  0.00     0.262 C 
HETATM   37  O6  UNL     1      11.049   9.292  13.147  1.00  0.00    -0.265 OA
BRANCH  36  38
HETATM   38  C20 UNL     1      12.883  10.432  14.282  1.00  0.00     0.077 C 
HETATM   39  C21 UNL     1      12.920  11.659  15.191  1.00  0.00     0.020 C 
HETATM   40  C22 UNL     1      13.501  10.737  12.923  1.00  0.00     0.020 C 
ENDBRANCH  36  38
ENDBRANCH  35  36
ENDBRANCH  15  35
TORSDOF 9
ENDMDL
MODEL 7
REMARK minimizedAffinity -6.06378889
REMARK CNNscore 0.327775836
REMARK CNNaffinity 5.6637826
REMARK  9 active torsions:
REMARK  status: ('A' for Active; 'I' for Inactive)
REMARK    1  A    between atoms: C2_2  and  C3_3 
REMARK    2  A    between atoms: C3_3  and  C5_5 
REMARK    3  A    between atoms: C3_3  and  C6_7 
REMARK    4  A    between atoms: C5_5  and  O1_6 
REMARK    5  A    between atoms: C7_8  and  O2_9 
REMARK    6  A    between atoms: C18_22  and  O5_23 
REMARK    7  A    between atoms: O5_23  and  C19_24 
REMARK    8  A    between atoms: C19_24  and  C20_26 
REMARK    9  A    between atoms: C29_36  and  O8_37 
ROOT
HETATM    1  C6  UNL     1      -4.807 -10.299   2.582  1.00  0.00     0.023 A 
HETATM    2  C7  UNL     1      -6.002  -9.845   3.173  1.00  0.00     0.076 A 
HETATM    3  C8  UNL     1      -7.177  -9.671   2.433  1.00  0.00     0.053 A 
HETATM    4  C9  UNL     1      -7.188  -9.910   1.057  1.00  0.00     0.034 A 
HETATM    5  C10 UNL     1      -8.458  -9.781   0.321  1.00  0.00     0.192 A 
HETATM    6  O3  UNL     1      -9.496  -9.574   0.936  1.00  0.00    -0.287 OA
HETATM    7  C11 UNL     1      -8.456  -9.971  -1.155  1.00  0.00     0.035 A 
HETATM    8  C12 UNL     1      -7.330 -10.368  -1.771  1.00  0.00     0.131 A 
HETATM    9  O4  UNL     1      -7.297 -10.729  -3.103  1.00  0.00    -0.336 OA
HETATM   10  C13 UNL     1      -8.533 -11.214  -3.653  1.00  0.00     0.065 C 
HETATM   11  C14 UNL     1      -8.247 -11.461  -5.144  1.00  0.00     0.046 C 
HETATM   12  C15 UNL     1      -8.870 -12.594  -3.040  1.00  0.00     0.046 C 
HETATM   13  C16 UNL     1      -9.677 -10.187  -3.407  1.00  0.00     0.031 C 
HETATM   14  C17 UNL     1      -9.624  -8.930  -4.311  1.00  0.00     0.041 C 
HETATM   15  C18 UNL     1      -8.906  -7.742  -3.671  1.00  0.00     0.136 C 
HETATM   16  C23 UNL     1      -9.663  -7.271  -2.416  1.00  0.00     0.012 C 
HETATM   17  C24 UNL     1      -8.711  -6.537  -1.462  1.00  0.00     0.012 C 
HETATM   18  C25 UNL     1     -10.423  -8.419  -1.729  1.00  0.00     0.017 C 
HETATM   19  C26 UNL     1      -9.776  -9.814  -1.890  1.00  0.00     0.033 C 
HETATM   20  C27 UNL     1      -6.031 -10.480  -1.045  1.00  0.00     0.219 A 
HETATM   21  O7  UNL     1      -4.984 -10.737  -1.631  1.00  0.00    -0.284 OA
HETATM   22  C28 UNL     1      -6.017 -10.274   0.414  1.00  0.00     0.065 A 
HETATM   23  C29 UNL     1      -4.836 -10.446   1.167  1.00  0.00     0.091 A 
ENDROOT
BRANCH   1  24
HETATM   24  C3  UNL     1      -3.499 -10.608   3.384  1.00  0.00     0.027 C 
HETATM   25  C4  UNL     1      -2.192 -10.564   2.550  1.00  0.00     0.027 C 
BRANCH  24  26
HETATM   26  C2  UNL     1      -3.248  -9.496   4.423  1.00  0.00    -0.021 C 
HETATM   27  C1  UNL     1      -2.560  -9.583   5.571  1.00  0.00     0.008 C 
ENDBRANCH  24  26
BRANCH  24  28
HETATM   28  C5  UNL     1      -3.656 -12.051   3.975  1.00  0.00     0.182 C 
BRANCH  28  29
HETATM   29  O1  UNL     1      -4.698 -12.193   4.942  1.00  0.00    -0.399 OA
HETATM   30  H9  UNL     1      -4.484 -11.627   5.700  1.00  0.00     0.209 HD
ENDBRANCH  28  29
ENDBRANCH  24  28
ENDBRANCH   1  24
BRANCH   2  31
HETATM   31  O2  UNL     1      -6.051  -9.535   4.502  1.00  0.00    -0.360 OA
HETATM   32  H10 UNL     1      -6.859  -9.027   4.692  1.00  0.00     0.217 HD
ENDBRANCH   2  31
BRANCH  23  33
HETATM   33  O8  UNL     1      -3.656 -10.749   0.535  1.00  0.00    -0.359 OA
HETATM   34  H36 UNL     1      -3.786 -10.795  -0.441  1.00  0.00     0.217 HD
ENDBRANCH  23  33
BRANCH  15  35
HETATM   35  O5  UNL     1      -8.926  -6.664  -4.632  1.00  0.00    -0.315 OA
BRANCH  35  36
HETATM   36  C19 UNL     1     -10.116  -6.037  -4.861  1.00  0.00     0.262 C 
HETATM   37  O6  UNL     1     -11.186  -6.354  -4.363  1.00  0.00    -0.265 OA
BRANCH  36  38
HETATM   38  C20 UNL     1      -9.909  -4.892  -5.839  1.00  0.00     0.077 C 
HETATM   39  C21 UNL     1      -9.577  -3.598  -5.099  1.00  0.00     0.020 C 
HETATM   40  C22 UNL     1     -11.147  -4.723  -6.712  1.00  0.00     0.020 C 
ENDBRANCH  36  38
ENDBRANCH  35  36
ENDBRANCH  15  35
TORSDOF 9
ENDMDL
MODEL 8
REMARK minimizedAffinity -7.07779312
REMARK CNNscore 0.322141439
REMARK CNNaffinity 5.16023302
REMARK  9 active torsions:
REMARK  status: ('A' for Active; 'I' for Inactive)
REMARK    1  A    between atoms: C2_2  and  C3_3 
REMARK    2  A    between atoms: C3_3  and  C5_5 
REMARK    3  A    between atoms: C3_3  and  C6_7 
REMARK    4  A    between atoms: C5_5  and  O1_6 
REMARK    5  A    between atoms: C7_8  and  O2_9 
REMARK    6  A    between atoms: C18_22  and  O5_23 
REMARK    7  A    between atoms: O5_23  and  C19_24 
REMARK    8  A    between atoms: C19_24  and  C20_26 
REMARK    9  A    between atoms: C29_36  and  O8_37 
ROOT
HETATM    1  C6  UNL     1       8.713  10.192  16.814  1.00  0.00     0.023 A 
HETATM    2  C7  UNL     1       9.834  10.620  17.551  1.00  0.00     0.076 A 
HETATM    3  C8  UNL     1       9.710  11.227  18.806  1.00  0.00     0.053 A 
HETATM    4  C9  UNL     1       8.448  11.464  19.355  1.00  0.00     0.034 A 
HETATM    5  C10 UNL     1       8.355  12.045  20.706  1.00  0.00     0.192 A 
HETATM    6  O3  UNL     1       9.373  12.208  21.366  1.00  0.00    -0.287 OA
HETATM    7  C11 UNL     1       7.011  12.358  21.263  1.00  0.00     0.035 A 
HETATM    8  C12 UNL     1       5.911  12.004  20.580  1.00  0.00     0.131 A 
HETATM    9  O4  UNL     1       4.639  12.105  21.109  1.00  0.00    -0.336 OA
HETATM   10  C13 UNL     1       4.549  12.049  22.542  1.00  0.00     0.065 C 
HETATM   11  C14 UNL     1       3.061  12.266  22.866  1.00  0.00     0.046 C 
HETATM   12  C15 UNL     1       4.897  10.622  23.030  1.00  0.00     0.046 C 
HETATM   13  C16 UNL     1       5.483  13.114  23.188  1.00  0.00     0.031 C 
HETATM   14  C17 UNL     1       4.968  14.571  23.089  1.00  0.00     0.041 C 
HETATM   15  C18 UNL     1       5.518  15.339  21.888  1.00  0.00     0.136 C 
HETATM   16  C23 UNL     1       7.046  15.488  22.002  1.00  0.00     0.012 C 
HETATM   17  C24 UNL     1       7.668  15.689  20.612  1.00  0.00     0.012 C 
HETATM   18  C25 UNL     1       7.689  14.323  22.775  1.00  0.00     0.017 C 
HETATM   19  C26 UNL     1       6.946  12.973  22.651  1.00  0.00     0.033 C 
HETATM   20  C27 UNL     1       5.986  11.437  19.201  1.00  0.00     0.219 A 
HETATM   21  O7  UNL     1       4.978  11.216  18.537  1.00  0.00    -0.284 OA
HETATM   22  C28 UNL     1       7.312  11.142  18.631  1.00  0.00     0.065 A 
HETATM   23  C29 UNL     1       7.446  10.531  17.366  1.00  0.00     0.091 A 
ENDROOT
BRANCH   1  24
HETATM   24  C3  UNL     1       8.805   9.416  15.458  1.00  0.00     0.027 C 
HETATM   25  C4  UNL     1       7.829   9.906  14.355  1.00  0.00     0.027 C 
BRANCH  24  26
HETATM   26  C2  UNL     1      10.177   9.673  14.801  1.00  0.00    -0.021 C 
HETATM   27  C1  UNL     1      10.883   8.842  14.019  1.00  0.00     0.008 C 
ENDBRANCH  24  26
BRANCH  24  28
HETATM   28  C5  UNL     1       8.483   7.915  15.768  1.00  0.00     0.182 C 
BRANCH  28  29
HETATM   29  O1  UNL     1       9.012   7.431  17.003  1.00  0.00    -0.399 OA
HETATM   30  H9  UNL     1       9.979   7.481  16.958  1.00  0.00     0.209 HD
ENDBRANCH  28  29
ENDBRANCH  24  28
ENDBRANCH   1  24
BRANCH   2  31
HETATM   31  O2  UNL     1      11.097  10.474  17.053  1.00  0.00    -0.360 OA
HETATM   32  H10 UNL     1      11.718  11.020  17.565  1.00  0.00     0.217 HD
ENDBRANCH   2  31
BRANCH  23  33
HETATM   33  O8  UNL     1       6.332  10.259  16.612  1.00  0.00    -0.359 OA
HETATM   34  H36 UNL     1       5.517  10.563  17.075  1.00  0.00     0.217 HD
ENDBRANCH  23  33
BRANCH  15  35
HETATM   35  O5  UNL     1       4.940  16.662  21.925  1.00  0.00    -0.315 OA
BRANCH  35  36
HETATM   36  C19 UNL     1       4.437  17.104  23.115  1.00  0.00     0.262 C 
HETATM   37  O6  UNL     1       3.326  16.840  23.551  1.00  0.00    -0.265 OA
BRANCH  36  38
HETATM   38  C20 UNL     1       5.466  17.983  23.808  1.00  0.00     0.077 C 
HETATM   39  C21 UNL     1       5.965  17.326  25.092  1.00  0.00     0.020 C 
HETATM   40  C22 UNL     1       4.870  19.357  24.089  1.00  0.00     0.020 C 
ENDBRANCH  36  38
ENDBRANCH  35  36
ENDBRANCH  15  35
TORSDOF 9
ENDMDL
MODEL 9
REMARK minimizedAffinity -6.82690334
REMARK CNNscore 0.263823271
REMARK CNNaffinity 5.65326738
REMARK  9 active torsions:
REMARK  status: ('A' for Active; 'I' for Inactive)
REMARK    1  A    between atoms: C2_2  and  C3_3 
REMARK    2  A    between atoms: C3_3  and  C5_5 
REMARK    3  A    between atoms: C3_3  and  C6_7 
REMARK    4  A    between atoms: C5_5  and  O1_6 
REMARK    5  A    between atoms: C7_8  and  O2_9 
REMARK    6  A    between atoms: C18_22  and  O5_23 
REMARK    7  A    between atoms: O5_23  and  C19_24 
REMARK    8  A    between atoms: C19_24  and  C20_26 
REMARK    9  A    between atoms: C29_36  and  O8_37 
ROOT
HETATM    1  C6  UNL     1      -1.287   7.731  15.215  1.00  0.00     0.023 A 
HETATM    2  C7  UNL     1      -2.246   8.119  16.171  1.00  0.00     0.076 A 
HETATM    3  C8  UNL     1      -2.076   9.251  16.975  1.00  0.00     0.053 A 
HETATM    4  C9  UNL     1      -0.915  10.021  16.878  1.00  0.00     0.034 A 
HETATM    5  C10 UNL     1      -0.798  11.244  17.691  1.00  0.00     0.192 A 
HETATM    6  O3  UNL     1      -1.755  11.624  18.353  1.00  0.00    -0.287 OA
HETATM    7  C11 UNL     1       0.466  12.026  17.636  1.00  0.00     0.035 A 
HETATM    8  C12 UNL     1       1.428  11.673  16.767  1.00  0.00     0.131 A 
HETATM    9  O4  UNL     1       2.548  12.448  16.539  1.00  0.00    -0.336 OA
HETATM   10  C13 UNL     1       2.402  13.854  16.795  1.00  0.00     0.065 C 
HETATM   11  C14 UNL     1       3.793  14.461  16.547  1.00  0.00     0.046 C 
HETATM   12  C15 UNL     1       1.459  14.482  15.740  1.00  0.00     0.046 C 
HETATM   13  C16 UNL     1       1.875  14.091  18.241  1.00  0.00     0.031 C 
HETATM   14  C17 UNL     1       2.926  13.869  19.357  1.00  0.00     0.041 C 
HETATM   15  C18 UNL     1       2.896  12.466  19.961  1.00  0.00     0.136 C 
HETATM   16  C23 UNL     1       1.548  12.211  20.659  1.00  0.00     0.012 C 
HETATM   17  C24 UNL     1       1.261  10.704  20.730  1.00  0.00     0.012 C 
HETATM   18  C25 UNL     1       0.398  13.003  20.013  1.00  0.00     0.017 C 
HETATM   19  C26 UNL     1       0.566  13.273  18.499  1.00  0.00     0.033 C 
HETATM   20  C27 UNL     1       1.336  10.425  15.953  1.00  0.00     0.219 A 
HETATM   21  O7  UNL     1       2.262  10.049  15.242  1.00  0.00    -0.284 OA
HETATM   22  C28 UNL     1       0.097   9.631  16.015  1.00  0.00     0.065 A 
HETATM   23  C29 UNL     1      -0.081   8.487  15.209  1.00  0.00     0.091 A 
ENDROOT
BRANCH   1  24
HETATM   24  C3  UNL     1      -1.478   6.535  14.223  1.00  0.00     0.027 C 
HETATM   25  C4  UNL     1      -2.688   5.614  14.533  1.00  0.00     0.027 C 
BRANCH  24  26
HETATM   26  C2  UNL     1      -1.839   7.070  12.822  1.00  0.00    -0.021 C 
HETATM   27  C1  UNL     1      -2.428   8.234  12.512  1.00  0.00     0.008 C 
ENDBRANCH  24  26
BRANCH  24  28
HETATM   28  C5  UNL     1      -0.173   5.672  14.293  1.00  0.00     0.182 C 
BRANCH  28  29
HETATM   29  O1  UNL     1       0.476   5.462  13.038  1.00  0.00    -0.399 OA
HETATM   30  H9  UNL     1      -0.130   4.966  12.465  1.00  0.00     0.209 HD
ENDBRANCH  28  29
ENDBRANCH  24  28
ENDBRANCH   1  24
BRANCH   2  31
HETATM   31  O2  UNL     1      -3.379   7.383  16.363  1.00  0.00    -0.360 OA
HETATM   32  H10 UNL     1      -3.806   7.647  17.198  1.00  0.00     0.217 HD
ENDBRANCH   2  31
BRANCH  23  33
HETATM   33  O8  UNL     1       0.935   8.055  14.393  1.00  0.00    -0.359 OA
HETATM   34  H36 UNL     1       1.728   8.632  14.493  1.00  0.00     0.217 HD
ENDBRANCH  23  33
BRANCH  15  35
HETATM   35  O5  UNL     1       3.933  12.412  20.965  1.00  0.00    -0.315 OA
BRANCH  35  36
HETATM   36  C19 UNL     1       4.762  11.327  20.967  1.00  0.00     0.262 C 
HETATM   37  O6  UNL     1       5.120  10.714  19.973  1.00  0.00    -0.265 OA
BRANCH  36  38
HETATM   38  C20 UNL     1       5.160  10.992  22.395  1.00  0.00     0.077 C 
HETATM   39  C21 UNL     1       3.934  10.627  23.229  1.00  0.00     0.020 C 
HETATM   40  C22 UNL     1       5.915  12.163  23.013  1.00  0.00     0.020 C 
ENDBRANCH  36  38
ENDBRANCH  35  36
ENDBRANCH  15  35
TORSDOF 9
ENDMDL
