MODEL 1
REMARK minimizedAffinity -6.20028162
REMARK CNNscore 0.574364364
REMARK CNNaffinity 6.00728607
REMARK  3 active torsions:
REMARK  status: ('A' for Active; 'I' for Inactive)
REMARK    1  A    between atoms: C7_7  and  C8_8 
REMARK    2  A    between atoms: C8_8  and  O2_10 
REMARK    3  A    between atoms: C21_23  and  O3_24 
ROOT
HETATM    1  C1  UNL     1     -18.768  -5.252  17.222  1.00  0.00     0.011 C 
HETATM    2  C2  UNL     1     -18.886  -3.821  16.658  1.00  0.00    -0.005 C 
HETATM    3  C3  UNL     1     -19.405  -2.855  17.752  1.00  0.00    -0.014 C 
HETATM    4  C4  UNL     1     -20.781  -3.253  18.301  1.00  0.00     0.010 C 
HETATM    5  C5  UNL     1     -19.475  -1.412  17.235  1.00  0.00     0.006 C 
HETATM    6  C6  UNL     1     -18.328  -1.012  16.309  1.00  0.00     0.021 C 
HETATM    7  C7  UNL     1     -17.091  -1.930  16.387  1.00  0.00     0.053 C 
HETATM    8  C9  UNL     1     -15.943  -1.346  15.521  1.00  0.00     0.022 C 
HETATM    9  C10 UNL     1     -15.298  -2.372  14.590  1.00  0.00     0.016 C 
HETATM   10  C11 UNL     1     -16.317  -3.057  13.644  1.00  0.00    -0.013 C 
HETATM   11  C12 UNL     1     -17.021  -1.934  12.815  1.00  0.00     0.021 C 
HETATM   12  C13 UNL     1     -17.410  -3.744  14.481  1.00  0.00    -0.069 C 
HETATM   13  C14 UNL     1     -18.132  -4.732  13.906  1.00  0.00    -0.022 C 
HETATM   14  C15 UNL     1     -17.907  -5.327  12.542  1.00  0.00     0.033 C 
HETATM   15  C16 UNL     1     -16.705  -4.774  11.744  1.00  0.00     0.007 C 
HETATM   16  C17 UNL     1     -16.199  -5.710  10.562  1.00  0.00    -0.035 C 
HETATM   17  C18 UNL     1     -15.646  -7.059  11.084  1.00  0.00     0.016 C 
HETATM   18  C19 UNL     1     -17.403  -6.020   9.623  1.00  0.00     0.012 C 
HETATM   19  C20 UNL     1     -17.009  -6.650   8.290  1.00  0.00     0.033 C 
HETATM   20  C21 UNL     1     -15.979  -5.815   7.535  1.00  0.00     0.126 C 
HETATM   21  C22 UNL     1     -14.700  -5.495   8.366  1.00  0.00    -0.017 C 
HETATM   22  C23 UNL     1     -13.792  -6.733   8.500  1.00  0.00     0.018 C 
HETATM   23  C24 UNL     1     -13.881  -4.449   7.559  1.00  0.00     0.018 C 
HETATM   24  C25 UNL     1     -15.145  -4.874   9.741  1.00  0.00     0.004 C 
HETATM   25  C26 UNL     1     -13.992  -4.390  10.646  1.00  0.00     0.007 C 
HETATM   26  C27 UNL     1     -14.504  -3.503  11.790  1.00  0.00     0.011 C 
HETATM   27  C28 UNL     1     -15.600  -4.152  12.680  1.00  0.00    -0.028 C 
HETATM   28  C29 UNL     1     -14.900  -5.232  13.556  1.00  0.00     0.016 C 
HETATM   29  C30 UNL     1     -17.512  -3.392  15.997  1.00  0.00     0.038 C 
ENDROOT
BRANCH   7  30
HETATM   30  C8  UNL     1     -16.508  -1.937  17.811  1.00  0.00     0.149 C 
HETATM   31  O1  UNL     1     -16.251  -2.915  18.493  1.00  0.00    -0.649 OA
BRANCH  30  32
HETATM   32  O2  UNL     1     -16.209  -0.709  18.282  1.00  0.00    -0.776 OA
HETATM   33  H13 UNL     1     -15.821  -0.886  19.166  1.00  0.00     0.167 HD
ENDBRANCH  30  32
ENDBRANCH   7  30
BRANCH  20  34
HETATM   34  O3  UNL     1     -15.634  -6.494   6.328  1.00  0.00    -0.395 OA
HETATM   35  H33 UNL     1     -16.454  -6.635   5.824  1.00  0.00     0.210 HD
ENDBRANCH  20  34
TORSDOF 3
ENDMDL
MODEL 2
REMARK minimizedAffinity -5.89085579
REMARK CNNscore 0.513854921
REMARK CNNaffinity 6.39436865
REMARK  3 active torsions:
REMARK  status: ('A' for Active; 'I' for Inactive)
REMARK    1  A    between atoms: C7_7  and  C8_8 
REMARK    2  A    between atoms: C8_8  and  O2_10 
REMARK    3  A    between atoms: C21_23  and  O3_24 
ROOT
HETATM    1  C1  UNL     1      -1.462  17.153   1.535  1.00  0.00     0.011 C 
HETATM    2  C2  UNL     1      -1.279  15.922   2.447  1.00  0.00    -0.005 C 
HETATM    3  C3  UNL     1      -0.207  14.973   1.857  1.00  0.00    -0.014 C 
HETATM    4  C4  UNL     1      -0.562  14.463   0.454  1.00  0.00     0.010 C 
HETATM    5  C5  UNL     1       0.038  13.768   2.775  1.00  0.00     0.006 C 
HETATM    6  C6  UNL     1       0.005  14.088   4.268  1.00  0.00     0.021 C 
HETATM    7  C7  UNL     1       0.169  15.585   4.605  1.00  0.00     0.053 C 
HETATM    8  C9  UNL     1       0.268  15.773   6.143  1.00  0.00     0.022 C 
HETATM    9  C10 UNL     1      -0.653  16.865   6.685  1.00  0.00     0.016 C 
HETATM   10  C11 UNL     1      -2.142  16.640   6.321  1.00  0.00    -0.013 C 
HETATM   11  C12 UNL     1      -2.560  15.243   6.886  1.00  0.00     0.021 C 
HETATM   12  C13 UNL     1      -2.288  16.562   4.791  1.00  0.00    -0.069 C 
HETATM   13  C14 UNL     1      -3.505  16.797   4.251  1.00  0.00    -0.022 C 
HETATM   14  C15 UNL     1      -4.738  17.247   4.985  1.00  0.00     0.033 C 
HETATM   15  C16 UNL     1      -4.579  17.500   6.501  1.00  0.00     0.007 C 
HETATM   16  C17 UNL     1      -5.710  18.408   7.151  1.00  0.00    -0.035 C 
HETATM   17  C18 UNL     1      -5.700  19.848   6.581  1.00  0.00     0.016 C 
HETATM   18  C19 UNL     1      -7.099  17.779   6.829  1.00  0.00     0.012 C 
HETATM   19  C20 UNL     1      -8.253  18.366   7.637  1.00  0.00     0.033 C 
HETATM   20  C21 UNL     1      -8.001  18.299   9.141  1.00  0.00     0.126 C 
HETATM   21  C22 UNL     1      -6.660  18.956   9.583  1.00  0.00    -0.017 C 
HETATM   22  C23 UNL     1      -6.743  20.494   9.533  1.00  0.00     0.018 C 
HETATM   23  C24 UNL     1      -6.440  18.588  11.078  1.00  0.00     0.018 C 
HETATM   24  C25 UNL     1      -5.499  18.349   8.711  1.00  0.00     0.004 C 
HETATM   25  C26 UNL     1      -4.078  18.809   9.099  1.00  0.00     0.007 C 
HETATM   26  C27 UNL     1      -3.001  17.929   8.447  1.00  0.00     0.011 C 
HETATM   27  C28 UNL     1      -3.089  17.827   6.899  1.00  0.00    -0.028 C 
HETATM   28  C29 UNL     1      -2.616  19.193   6.320  1.00  0.00     0.016 C 
HETATM   29  C30 UNL     1      -0.997  16.394   3.932  1.00  0.00     0.038 C 
ENDROOT
BRANCH   7  30
HETATM   30  C8  UNL     1       1.516  16.115   4.085  1.00  0.00     0.149 C 
HETATM   31  O1  UNL     1       1.723  17.194   3.552  1.00  0.00    -0.649 OA
BRANCH  30  32
HETATM   32  O2  UNL     1       2.555  15.290   4.325  1.00  0.00    -0.776 OA
HETATM   33  H13 UNL     1       3.329  15.779   3.972  1.00  0.00     0.167 HD
ENDBRANCH  30  32
ENDBRANCH   7  30
BRANCH  20  34
HETATM   34  O3  UNL     1      -9.102  18.905   9.818  1.00  0.00    -0.395 OA
HETATM   35  H33 UNL     1      -9.910  18.438   9.545  1.00  0.00     0.210 HD
ENDBRANCH  20  34
TORSDOF 3
ENDMDL
MODEL 3
REMARK minimizedAffinity -6.70543289
REMARK CNNscore 0.508576155
REMARK CNNaffinity 6.65121889
REMARK  3 active torsions:
REMARK  status: ('A' for Active; 'I' for Inactive)
REMARK    1  A    between atoms: C7_7  and  C8_8 
REMARK    2  A    between atoms: C8_8  and  O2_10 
REMARK    3  A    between atoms: C21_23  and  O3_24 
ROOT
HETATM    1  C1  UNL     1       1.640   8.568   9.020  1.00  0.00     0.011 C 
HETATM    2  C2  UNL     1       2.353   7.577   9.962  1.00  0.00    -0.005 C 
HETATM    3  C3  UNL     1       3.397   6.747   9.176  1.00  0.00    -0.014 C 
HETATM    4  C4  UNL     1       2.780   5.936   8.029  1.00  0.00     0.010 C 
HETATM    5  C5  UNL     1       4.163   5.792  10.101  1.00  0.00     0.006 C 
HETATM    6  C6  UNL     1       4.488   6.366  11.479  1.00  0.00     0.021 C 
HETATM    7  C7  UNL     1       4.397   7.903  11.569  1.00  0.00     0.053 C 
HETATM    8  C9  UNL     1       4.888   8.382  12.963  1.00  0.00     0.022 C 
HETATM    9  C10 UNL     1       3.938   9.369  13.639  1.00  0.00     0.016 C 
HETATM   10  C11 UNL     1       2.499   8.816  13.798  1.00  0.00    -0.013 C 
HETATM   11  C12 UNL     1       2.590   7.493  14.625  1.00  0.00     0.021 C 
HETATM   12  C13 UNL     1       1.941   8.438  12.414  1.00  0.00    -0.069 C 
HETATM   13  C14 UNL     1       0.601   8.347  12.267  1.00  0.00    -0.022 C 
HETATM   14  C15 UNL     1      -0.438   8.691  13.299  1.00  0.00     0.033 C 
HETATM   15  C16 UNL     1       0.088   9.240  14.644  1.00  0.00     0.007 C 
HETATM   16  C17 UNL     1      -0.985  10.030  15.510  1.00  0.00    -0.035 C 
HETATM   17  C18 UNL     1      -1.467  11.321  14.804  1.00  0.00     0.016 C 
HETATM   18  C19 UNL     1      -2.226   9.112  15.724  1.00  0.00     0.012 C 
HETATM   19  C20 UNL     1      -3.201   9.617  16.784  1.00  0.00     0.033 C 
HETATM   20  C21 UNL     1      -2.520   9.870  18.126  1.00  0.00     0.126 C 
HETATM   21  C22 UNL     1      -1.294  10.828  18.037  1.00  0.00    -0.017 C 
HETATM   22  C23 UNL     1      -1.737  12.291  17.838  1.00  0.00     0.018 C 
HETATM   23  C24 UNL     1      -0.577  10.783  19.416  1.00  0.00     0.018 C 
HETATM   24  C25 UNL     1      -0.327  10.294  16.918  1.00  0.00     0.004 C 
HETATM   25  C26 UNL     1       1.002  11.065  16.775  1.00  0.00     0.007 C 
HETATM   26  C27 UNL     1       2.017  10.292  15.921  1.00  0.00     0.011 C 
HETATM   27  C28 UNL     1       1.513   9.897  14.505  1.00  0.00    -0.028 C 
HETATM   28  C29 UNL     1       1.476  11.198  13.651  1.00  0.00     0.016 C 
HETATM   29  C30 UNL     1       2.934   8.353  11.214  1.00  0.00     0.038 C 
ENDROOT
BRANCH   7  30
HETATM   30  C8  UNL     1       5.380   8.566  10.589  1.00  0.00     0.149 C 
HETATM   31  O1  UNL     1       5.167   9.538   9.883  1.00  0.00    -0.649 OA
BRANCH  30  32
HETATM   32  O2  UNL     1       6.610   8.014  10.596  1.00  0.00    -0.776 OA
HETATM   33  H13 UNL     1       7.116   8.562   9.958  1.00  0.00     0.167 HD
ENDBRANCH  30  32
ENDBRANCH   7  30
BRANCH  20  34
HETATM   34  O3  UNL     1      -3.488  10.380  19.043  1.00  0.00    -0.395 OA
HETATM   35  H33 UNL     1      -4.212   9.732  19.098  1.00  0.00     0.210 HD
ENDBRANCH  20  34
TORSDOF 3
ENDMDL
MODEL 4
REMARK minimizedAffinity -8.52049065
REMARK CNNscore 0.466228217
REMARK CNNaffinity 6.82805109
REMARK  3 active torsions:
REMARK  status: ('A' for Active; 'I' for Inactive)
REMARK    1  A    between atoms: C7_7  and  C8_8 
REMARK    2  A    between atoms: C8_8  and  O2_10 
REMARK    3  A    between atoms: C21_23  and  O3_24 
ROOT
HETATM    1  C1  UNL     1      -2.455  11.115  18.469  1.00  0.00     0.011 C 
HETATM    2  C2  UNL     1      -2.088  11.440  17.007  1.00  0.00    -0.005 C 
HETATM    3  C3  UNL     1      -1.003  12.544  16.960  1.00  0.00    -0.014 C 
HETATM    4  C4  UNL     1      -1.446  13.852  17.629  1.00  0.00     0.010 C 
HETATM    5  C5  UNL     1      -0.575  12.845  15.517  1.00  0.00     0.006 C 
HETATM    6  C6  UNL     1      -0.493  11.620  14.609  1.00  0.00     0.021 C 
HETATM    7  C7  UNL     1      -0.420  10.273  15.357  1.00  0.00     0.053 C 
HETATM    8  C9  UNL     1      -0.192   9.117  14.345  1.00  0.00     0.022 C 
HETATM    9  C10 UNL     1      -1.142   7.937  14.540  1.00  0.00     0.016 C 
HETATM   10  C11 UNL     1      -2.636   8.345  14.480  1.00  0.00    -0.013 C 
HETATM   11  C12 UNL     1      -2.885   9.022  13.092  1.00  0.00     0.021 C 
HETATM   12  C13 UNL     1      -2.919   9.412  15.552  1.00  0.00    -0.069 C 
HETATM   13  C14 UNL     1      -4.196   9.589  15.957  1.00  0.00    -0.022 C 
HETATM   14  C15 UNL     1      -5.387   8.766  15.550  1.00  0.00     0.033 C 
HETATM   15  C16 UNL     1      -5.106   7.576  14.605  1.00  0.00     0.007 C 
HETATM   16  C17 UNL     1      -6.241   6.463  14.573  1.00  0.00    -0.035 C 
HETATM   17  C18 UNL     1      -6.401   5.756  15.941  1.00  0.00     0.016 C 
HETATM   18  C19 UNL     1      -7.598   7.147  14.229  1.00  0.00     0.012 C 
HETATM   19  C20 UNL     1      -8.715   6.171  13.866  1.00  0.00     0.033 C 
HETATM   20  C21 UNL     1      -8.317   5.230  12.732  1.00  0.00     0.126 C 
HETATM   21  C22 UNL     1      -6.998   4.447  12.999  1.00  0.00    -0.017 C 
HETATM   22  C23 UNL     1      -7.210   3.323  14.032  1.00  0.00     0.018 C 
HETATM   23  C24 UNL     1      -6.609   3.738  11.671  1.00  0.00     0.018 C 
HETATM   24  C25 UNL     1      -5.880   5.479  13.396  1.00  0.00     0.004 C 
HETATM   25  C26 UNL     1      -4.470   4.880  13.585  1.00  0.00     0.007 C 
HETATM   26  C27 UNL     1      -3.392   5.973  13.630  1.00  0.00     0.011 C 
HETATM   27  C28 UNL     1      -3.618   7.070  14.707  1.00  0.00    -0.028 C 
HETATM   28  C29 UNL     1      -3.313   6.425  16.091  1.00  0.00     0.016 C 
HETATM   29  C30 UNL     1      -1.706  10.106  16.243  1.00  0.00     0.038 C 
ENDROOT
BRANCH   7  30
HETATM   30  C8  UNL     1       0.825  10.218  16.259  1.00  0.00     0.149 C 
HETATM   31  O1  UNL     1       0.912   9.692  17.357  1.00  0.00    -0.649 OA
BRANCH  30  32
HETATM   32  O2  UNL     1       1.924  10.770  15.705  1.00  0.00    -0.776 OA
HETATM   33  H13 UNL     1       2.623  10.625  16.378  1.00  0.00     0.167 HD
ENDBRANCH  30  32
ENDBRANCH   7  30
BRANCH  20  34
HETATM   34  O3  UNL     1      -9.395   4.327  12.487  1.00  0.00    -0.395 OA
HETATM   35  H33 UNL     1     -10.185   4.857  12.284  1.00  0.00     0.210 HD
ENDBRANCH  20  34
TORSDOF 3
ENDMDL
MODEL 5
REMARK minimizedAffinity -6.29401207
REMARK CNNscore 0.419812113
REMARK CNNaffinity 6.28555727
REMARK  3 active torsions:
REMARK  status: ('A' for Active; 'I' for Inactive)
REMARK    1  A    between atoms: C7_7  and  C8_8 
REMARK    2  A    between atoms: C8_8  and  O2_10 
REMARK    3  A    between atoms: C21_23  and  O3_24 
ROOT
HETATM    1  C1  UNL     1     -13.401  17.011   2.948  1.00  0.00     0.011 C 
HETATM    2  C2  UNL     1     -12.518  15.756   3.106  1.00  0.00    -0.005 C 
HETATM    3  C3  UNL     1     -12.804  14.751   1.963  1.00  0.00    -0.014 C 
HETATM    4  C4  UNL     1     -14.266  14.288   1.923  1.00  0.00     0.010 C 
HETATM    5  C5  UNL     1     -11.896  13.519   2.062  1.00  0.00     0.006 C 
HETATM    6  C6  UNL     1     -10.466  13.817   2.510  1.00  0.00     0.021 C 
HETATM    7  C7  UNL     1     -10.046  15.294   2.368  1.00  0.00     0.053 C 
HETATM    8  C9  UNL     1      -8.539  15.451   2.710  1.00  0.00     0.022 C 
HETATM    9  C10 UNL     1      -8.249  16.590   3.686  1.00  0.00     0.016 C 
HETATM   10  C11 UNL     1      -9.036  16.465   5.016  1.00  0.00    -0.013 C 
HETATM   11  C12 UNL     1      -8.663  15.088   5.657  1.00  0.00     0.021 C 
HETATM   12  C13 UNL     1     -10.544  16.421   4.715  1.00  0.00    -0.069 C 
HETATM   13  C14 UNL     1     -11.405  16.741   5.708  1.00  0.00    -0.022 C 
HETATM   14  C15 UNL     1     -11.043  17.254   7.075  1.00  0.00     0.033 C 
HETATM   15  C16 UNL     1      -9.538  17.473   7.348  1.00  0.00     0.007 C 
HETATM   16  C17 UNL     1      -9.213  18.440   8.567  1.00  0.00    -0.035 C 
HETATM   17  C18 UNL     1      -9.706  19.885   8.312  1.00  0.00     0.016 C 
HETATM   18  C19 UNL     1      -9.943  17.904   9.835  1.00  0.00     0.012 C 
HETATM   19  C20 UNL     1      -9.483  18.549  11.140  1.00  0.00     0.033 C 
HETATM   20  C21 UNL     1      -7.974  18.442  11.340  1.00  0.00     0.126 C 
HETATM   21  C22 UNL     1      -7.141  19.007  10.150  1.00  0.00    -0.017 C 
HETATM   22  C23 UNL     1      -7.162  20.548  10.130  1.00  0.00     0.018 C 
HETATM   23  C24 UNL     1      -5.660  18.602  10.395  1.00  0.00     0.018 C 
HETATM   24  C25 UNL     1      -7.661  18.342   8.822  1.00  0.00     0.004 C 
HETATM   25  C26 UNL     1      -6.864  18.706   7.552  1.00  0.00     0.007 C 
HETATM   26  C27 UNL     1      -7.206  17.771   6.382  1.00  0.00     0.011 C 
HETATM   27  C28 UNL     1      -8.716  17.699   6.023  1.00  0.00    -0.028 C 
HETATM   28  C29 UNL     1      -9.087  19.042   5.327  1.00  0.00     0.016 C 
HETATM   29  C30 UNL     1     -10.999  16.186   3.242  1.00  0.00     0.038 C 
ENDROOT
BRANCH   7  30
HETATM   30  C8  UNL     1     -10.136  15.747   0.901  1.00  0.00     0.149 C 
HETATM   31  O1  UNL     1     -10.728  16.724   0.471  1.00  0.00    -0.649 OA
BRANCH  30  32
HETATM   32  O2  UNL     1      -9.417  14.986   0.051  1.00  0.00    -0.776 OA
HETATM   33  H13 UNL     1      -9.548  15.420  -0.819  1.00  0.00     0.167 HD
ENDBRANCH  30  32
ENDBRANCH   7  30
BRANCH  20  34
HETATM   34  O3  UNL     1      -7.624  19.106  12.554  1.00  0.00    -0.395 OA
HETATM   35  H33 UNL     1      -8.134  18.694  13.273  1.00  0.00     0.210 HD
ENDBRANCH  20  34
TORSDOF 3
ENDMDL
MODEL 6
REMARK minimizedAffinity -6.5281148
REMARK CNNscore 0.285611182
REMARK CNNaffinity 5.63273382
REMARK  3 active torsions:
REMARK  status: ('A' for Active; 'I' for Inactive)
REMARK    1  A    between atoms: C7_7  and  C8_8 
REMARK    2  A    between atoms: C8_8  and  O2_10 
REMARK    3  A    between atoms: C21_23  and  O3_24 
ROOT
HETATM    1  C1  UNL     1       1.016  14.412  18.605  1.00  0.00     0.011 C 
HETATM    2  C2  UNL     1       1.092  13.274  19.643  1.00  0.00    -0.005 C 
HETATM    3  C3  UNL     1       0.225  12.075  19.187  1.00  0.00    -0.014 C 
HETATM    4  C4  UNL     1      -1.255  12.438  19.003  1.00  0.00     0.010 C 
HETATM    5  C5  UNL     1       0.328  10.904  20.174  1.00  0.00     0.006 C 
HETATM    6  C6  UNL     1       1.721  10.691  20.764  1.00  0.00     0.021 C 
HETATM    7  C7  UNL     1       2.860  11.369  19.976  1.00  0.00     0.053 C 
HETATM    8  C9  UNL     1       4.234  10.965  20.578  1.00  0.00     0.022 C 
HETATM    9  C10 UNL     1       5.163  12.151  20.830  1.00  0.00     0.016 C 
HETATM   10  C11 UNL     1       4.534  13.232  21.745  1.00  0.00    -0.013 C 
HETATM   11  C12 UNL     1       4.151  12.542  23.095  1.00  0.00     0.021 C 
HETATM   12  C13 UNL     1       3.224  13.735  21.115  1.00  0.00    -0.069 C 
HETATM   13  C14 UNL     1       2.748  14.940  21.502  1.00  0.00    -0.022 C 
HETATM   14  C15 UNL     1       3.429  15.918  22.420  1.00  0.00     0.033 C 
HETATM   15  C16 UNL     1       4.829  15.514  22.934  1.00  0.00     0.007 C 
HETATM   16  C17 UNL     1       5.714  16.715  23.482  1.00  0.00    -0.035 C 
HETATM   17  C18 UNL     1       6.062  17.736  22.371  1.00  0.00     0.016 C 
HETATM   18  C19 UNL     1       4.906  17.466  24.583  1.00  0.00     0.012 C 
HETATM   19  C20 UNL     1       5.736  18.447  25.407  1.00  0.00     0.033 C 
HETATM   20  C21 UNL     1       6.959  17.785  26.037  1.00  0.00     0.126 C 
HETATM   21  C22 UNL     1       7.874  17.051  25.012  1.00  0.00    -0.017 C 
HETATM   22  C23 UNL     1       8.687  18.051  24.167  1.00  0.00     0.018 C 
HETATM   23  C24 UNL     1       8.915  16.236  25.829  1.00  0.00     0.018 C 
HETATM   24  C25 UNL     1       6.982  16.073  24.163  1.00  0.00     0.004 C 
HETATM   25  C26 UNL     1       7.752  15.177  23.170  1.00  0.00     0.007 C 
HETATM   26  C27 UNL     1       6.874  14.033  22.641  1.00  0.00     0.011 C 
HETATM   27  C28 UNL     1       5.543  14.484  21.978  1.00  0.00    -0.028 C 
HETATM   28  C29 UNL     1       5.906  15.118  20.603  1.00  0.00     0.016 C 
HETATM   29  C30 UNL     1       2.607  12.919  19.938  1.00  0.00     0.038 C 
ENDROOT
BRANCH   7  30
HETATM   30  C8  UNL     1       2.921  10.832  18.536  1.00  0.00     0.149 C 
HETATM   31  O1  UNL     1       2.570   9.730  18.149  1.00  0.00    -0.649 OA
BRANCH  30  32
HETATM   32  O2  UNL     1       3.357  11.738  17.636  1.00  0.00    -0.776 OA
HETATM   33  H13 UNL     1       3.304  11.261  16.780  1.00  0.00     0.167 HD
ENDBRANCH  30  32
ENDBRANCH   7  30
BRANCH  20  34
HETATM   34  O3  UNL     1       7.700  18.775  26.750  1.00  0.00    -0.395 OA
HETATM   35  H33 UNL     1       7.103  19.176  27.405  1.00  0.00     0.210 HD
ENDBRANCH  20  34
TORSDOF 3
ENDMDL
MODEL 7
REMARK minimizedAffinity -7.13997602
REMARK CNNscore 0.284794241
REMARK CNNaffinity 5.75847816
REMARK  3 active torsions:
REMARK  status: ('A' for Active; 'I' for Inactive)
REMARK    1  A    between atoms: C7_7  and  C8_8 
REMARK    2  A    between atoms: C8_8  and  O2_10 
REMARK    3  A    between atoms: C21_23  and  O3_24 
ROOT
HETATM    1  C1  UNL     1     -16.505  -3.264  16.737  1.00  0.00     0.011 C 
HETATM    2  C2  UNL     1     -17.240  -2.205  15.890  1.00  0.00    -0.005 C 
HETATM    3  C3  UNL     1     -17.804  -1.087  16.801  1.00  0.00    -0.014 C 
HETATM    4  C4  UNL     1     -18.793  -1.610  17.851  1.00  0.00     0.010 C 
HETATM    5  C5  UNL     1     -18.490   0.011  15.978  1.00  0.00     0.006 C 
HETATM    6  C6  UNL     1     -17.796   0.345  14.659  1.00  0.00     0.021 C 
HETATM    7  C7  UNL     1     -16.331  -0.132  14.568  1.00  0.00     0.053 C 
HETATM    8  C9  UNL     1     -15.686   0.388  13.255  1.00  0.00     0.022 C 
HETATM    9  C10 UNL     1     -14.950  -0.694  12.466  1.00  0.00     0.016 C 
HETATM   10  C11 UNL     1     -15.848  -1.907  12.115  1.00  0.00    -0.013 C 
HETATM   11  C12 UNL     1     -17.068  -1.371  11.298  1.00  0.00     0.021 C 
HETATM   12  C13 UNL     1     -16.414  -2.516  13.411  1.00  0.00    -0.069 C 
HETATM   13  C14 UNL     1     -16.853  -3.794  13.380  1.00  0.00    -0.022 C 
HETATM   14  C15 UNL     1     -16.746  -4.749  12.222  1.00  0.00     0.033 C 
HETATM   15  C16 UNL     1     -16.026  -4.219  10.962  1.00  0.00     0.007 C 
HETATM   16  C17 UNL     1     -15.504  -5.344   9.967  1.00  0.00    -0.035 C 
HETATM   17  C18 UNL     1     -14.411  -6.231  10.613  1.00  0.00     0.016 C 
HETATM   18  C19 UNL     1     -16.701  -6.265   9.585  1.00  0.00     0.012 C 
HETATM   19  C20 UNL     1     -16.421  -7.198   8.409  1.00  0.00     0.033 C 
HETATM   20  C21 UNL     1     -15.946  -6.443   7.171  1.00  0.00     0.126 C 
HETATM   21  C22 UNL     1     -14.710  -5.532   7.427  1.00  0.00    -0.017 C 
HETATM   22  C23 UNL     1     -13.420  -6.362   7.577  1.00  0.00     0.018 C 
HETATM   23  C24 UNL     1     -14.512  -4.661   6.155  1.00  0.00     0.018 C 
HETATM   24  C25 UNL     1     -15.022  -4.606   8.660  1.00  0.00     0.004 C 
HETATM   25  C26 UNL     1     -13.941  -3.554   8.982  1.00  0.00     0.007 C 
HETATM   26  C27 UNL     1     -14.460  -2.487   9.957  1.00  0.00     0.011 C 
HETATM   27  C28 UNL     1     -15.030  -3.044  11.292  1.00  0.00    -0.028 C 
HETATM   28  C29 UNL     1     -13.818  -3.526  12.142  1.00  0.00     0.016 C 
HETATM   29  C30 UNL     1     -16.289  -1.694  14.730  1.00  0.00     0.038 C 
ENDROOT
BRANCH   7  30
HETATM   30  C8  UNL     1     -15.479   0.513  15.674  1.00  0.00     0.149 C 
HETATM   31  O1  UNL     1     -15.522   0.269  16.869  1.00  0.00    -0.649 OA
BRANCH  30  32
HETATM   32  O2  UNL     1     -14.560   1.387  15.213  1.00  0.00    -0.776 OA
HETATM   33  H13 UNL     1     -14.086   1.675  16.022  1.00  0.00     0.167 HD
ENDBRANCH  30  32
ENDBRANCH   7  30
BRANCH  20  34
HETATM   34  O3  UNL     1     -15.666  -7.388   6.138  1.00  0.00    -0.395 OA
HETATM   35  H33 UNL     1     -16.476  -7.905   5.983  1.00  0.00     0.210 HD
ENDBRANCH  20  34
TORSDOF 3
ENDMDL
MODEL 8
REMARK minimizedAffinity -7.07355404
REMARK CNNscore 0.267466843
REMARK CNNaffinity 6.10127592
REMARK  3 active torsions:
REMARK  status: ('A' for Active; 'I' for Inactive)
REMARK    1  A    between atoms: C7_7  and  C8_8 
REMARK    2  A    between atoms: C8_8  and  O2_10 
REMARK    3  A    between atoms: C21_23  and  O3_24 
ROOT
HETATM    1  C1  UNL     1       1.728   9.799  13.638  1.00  0.00     0.011 C 
HETATM    2  C2  UNL     1       0.358   9.217  13.235  1.00  0.00    -0.005 C 
HETATM    3  C3  UNL     1       0.546   8.025  12.264  1.00  0.00    -0.014 C 
HETATM    4  C4  UNL     1       1.284   8.410  10.976  1.00  0.00     0.010 C 
HETATM    5  C5  UNL     1      -0.799   7.388  11.893  1.00  0.00     0.006 C 
HETATM    6  C6  UNL     1      -1.808   7.320  13.038  1.00  0.00     0.021 C 
HETATM    7  C7  UNL     1      -1.193   7.483  14.444  1.00  0.00     0.053 C 
HETATM    8  C9  UNL     1      -2.280   7.251  15.528  1.00  0.00     0.022 C 
HETATM    9  C10 UNL     1      -2.315   8.336  16.602  1.00  0.00     0.016 C 
HETATM   10  C11 UNL     1      -2.509   9.760  16.020  1.00  0.00    -0.013 C 
HETATM   11  C12 UNL     1      -3.843   9.758  15.203  1.00  0.00     0.021 C 
HETATM   12  C13 UNL     1      -1.377  10.064  15.023  1.00  0.00    -0.069 C 
HETATM   13  C14 UNL     1      -1.109  11.356  14.733  1.00  0.00    -0.022 C 
HETATM   14  C15 UNL     1      -1.732  12.566  15.376  1.00  0.00     0.033 C 
HETATM   15  C16 UNL     1      -2.750  12.293  16.505  1.00  0.00     0.007 C 
HETATM   16  C17 UNL     1      -3.023  13.524  17.472  1.00  0.00    -0.035 C 
HETATM   17  C18 UNL     1      -1.760  13.930  18.270  1.00  0.00     0.016 C 
HETATM   18  C19 UNL     1      -3.456  14.748  16.609  1.00  0.00     0.012 C 
HETATM   19  C20 UNL     1      -4.041  15.905  17.415  1.00  0.00     0.033 C 
HETATM   20  C21 UNL     1      -5.207  15.467  18.296  1.00  0.00     0.126 C 
HETATM   21  C22 UNL     1      -4.867  14.281  19.247  1.00  0.00    -0.017 C 
HETATM   22  C23 UNL     1      -3.981  14.740  20.422  1.00  0.00     0.018 C 
HETATM   23  C24 UNL     1      -6.203  13.804  19.880  1.00  0.00     0.018 C 
HETATM   24  C25 UNL     1      -4.241  13.121  18.388  1.00  0.00     0.004 C 
HETATM   25  C26 UNL     1      -3.949  11.818  19.160  1.00  0.00     0.007 C 
HETATM   26  C27 UNL     1      -3.671  10.645  18.208  1.00  0.00     0.011 C 
HETATM   27  C28 UNL     1      -2.525  10.890  17.187  1.00  0.00    -0.028 C 
HETATM   28  C29 UNL     1      -1.185  10.834  17.979  1.00  0.00     0.016 C 
HETATM   29  C30 UNL     1      -0.484   8.882  14.535  1.00  0.00     0.038 C 
ENDROOT
BRANCH   7  30
HETATM   30  C8  UNL     1      -0.161   6.376  14.718  1.00  0.00     0.149 C 
HETATM   31  O1  UNL     1       1.053   6.495  14.740  1.00  0.00    -0.649 OA
BRANCH  30  32
HETATM   32  O2  UNL     1      -0.711   5.183  15.023  1.00  0.00    -0.776 OA
HETATM   33  H13 UNL     1       0.063   4.608  15.202  1.00  0.00     0.167 HD
ENDBRANCH  30  32
ENDBRANCH   7  30
BRANCH  20  34
HETATM   34  O3  UNL     1      -5.665  16.593  19.044  1.00  0.00    -0.395 OA
HETATM   35  H33 UNL     1      -5.905  17.291  18.410  1.00  0.00     0.210 HD
ENDBRANCH  20  34
TORSDOF 3
ENDMDL
MODEL 9
REMARK minimizedAffinity -6.14196205
REMARK CNNscore 0.258756131
REMARK CNNaffinity 5.76790571
REMARK  3 active torsions:
REMARK  status: ('A' for Active; 'I' for Inactive)
REMARK    1  A    between atoms: C7_7  and  C8_8 
REMARK    2  A    between atoms: C8_8  and  O2_10 
REMARK    3  A    between atoms: C21_23  and  O3_24 
ROOT
HETATM    1  C1  UNL     1      -7.266 -10.397   6.137  1.00  0.00     0.011 C 
HETATM    2  C2  UNL     1      -5.829 -10.166   5.626  1.00  0.00    -0.005 C 
HETATM    3  C3  UNL     1      -4.827 -10.214   6.806  1.00  0.00    -0.014 C 
HETATM    4  C4  UNL     1      -5.113  -9.158   7.881  1.00  0.00     0.010 C 
HETATM    5  C5  UNL     1      -3.382 -10.047   6.318  1.00  0.00     0.006 C 
HETATM    6  C6  UNL     1      -3.073 -10.740   4.992  1.00  0.00     0.021 C 
HETATM    7  C7  UNL     1      -4.089 -11.828   4.588  1.00  0.00     0.053 C 
HETATM    8  C9  UNL     1      -3.599 -12.562   3.310  1.00  0.00     0.022 C 
HETATM    9  C10 UNL     1      -4.671 -12.690   2.229  1.00  0.00     0.016 C 
HETATM   10  C11 UNL     1      -5.270 -11.325   1.803  1.00  0.00    -0.013 C 
HETATM   11  C12 UNL     1      -4.091 -10.430   1.299  1.00  0.00     0.021 C 
HETATM   12  C13 UNL     1      -5.868 -10.622   3.035  1.00  0.00    -0.069 C 
HETATM   13  C14 UNL     1      -6.792  -9.657   2.836  1.00  0.00    -0.022 C 
HETATM   14  C15 UNL     1      -7.400  -9.259   1.519  1.00  0.00     0.033 C 
HETATM   15  C16 UNL     1      -6.946 -10.066   0.282  1.00  0.00     0.007 C 
HETATM   16  C17 UNL     1      -7.917  -9.973  -0.973  1.00  0.00    -0.035 C 
HETATM   17  C18 UNL     1      -9.307 -10.588  -0.681  1.00  0.00     0.016 C 
HETATM   18  C19 UNL     1      -8.126  -8.470  -1.329  1.00  0.00     0.012 C 
HETATM   19  C20 UNL     1      -8.784  -8.235  -2.686  1.00  0.00     0.033 C 
HETATM   20  C21 UNL     1      -8.033  -8.926  -3.821  1.00  0.00     0.126 C 
HETATM   21  C22 UNL     1      -7.819 -10.452  -3.596  1.00  0.00    -0.017 C 
HETATM   22  C23 UNL     1      -9.127 -11.240  -3.805  1.00  0.00     0.018 C 
HETATM   23  C24 UNL     1      -6.842 -10.946  -4.699  1.00  0.00     0.018 C 
HETATM   24  C25 UNL     1      -7.168 -10.658  -2.179  1.00  0.00     0.004 C 
HETATM   25  C26 UNL     1      -6.781 -12.112  -1.839  1.00  0.00     0.007 C 
HETATM   26  C27 UNL     1      -5.857 -12.181  -0.614  1.00  0.00     0.011 C 
HETATM   27  C28 UNL     1      -6.417 -11.500   0.666  1.00  0.00    -0.028 C 
HETATM   28  C29 UNL     1      -7.552 -12.415   1.214  1.00  0.00     0.016 C 
HETATM   29  C30 UNL     1      -5.512 -11.177   4.449  1.00  0.00     0.038 C 
ENDROOT
BRANCH   7  30
HETATM   30  C8  UNL     1      -4.146 -12.942   5.648  1.00  0.00     0.149 C 
HETATM   31  O1  UNL     1      -5.147 -13.482   6.091  1.00  0.00    -0.649 OA
BRANCH  30  32
HETATM   32  O2  UNL     1      -2.933 -13.371   6.052  1.00  0.00    -0.776 OA
HETATM   33  H13 UNL     1      -3.139 -14.090   6.687  1.00  0.00     0.167 HD
ENDBRANCH  30  32
ENDBRANCH   7  30
BRANCH  20  34
HETATM   34  O3  UNL     1      -8.735  -8.694  -5.042  1.00  0.00    -0.395 OA
HETATM   35  H33 UNL     1      -8.808  -7.731  -5.163  1.00  0.00     0.210 HD
ENDBRANCH  20  34
TORSDOF 3
ENDMDL
