MODEL 1
REMARK minimizedAffinity -10.0559807
REMARK  9 active torsions:
REMARK  status: ('A' for Active; 'I' for Inactive)
REMARK    1  A    between atoms: C2_2  and  C3_3 
REMARK    2  A    between atoms: C2_2  and  C9_12 
REMARK    3  A    between atoms: C3_3  and  C4_4 
REMARK    4  A    between atoms: C4_4  and  C5_5 
REMARK    5  A    between atoms: C5_5  and  O1_6 
REMARK    6  A    between atoms: C5_5  and  C6_7 
REMARK    7  A    between atoms: C6_7  and  O2_9 
REMARK    8  A    between atoms: C6_7  and  C8_10 
REMARK    9  A    between atoms: C8_10  and  O3_11 
ROOT
HETATM    1  C9  UNL     1      -3.527  50.688 -25.072  1.00  0.00    -0.002 C 
HETATM    2  C10 UNL     1      -4.865  50.039 -24.622  1.00  0.00     0.006 C 
HETATM    3  C11 UNL     1      -4.841  49.967 -23.085  1.00  0.00     0.011 C 
HETATM    4  C12 UNL     1      -3.643  50.838 -22.650  1.00  0.00    -0.032 C 
HETATM    5  C13 UNL     1      -4.149  52.314 -22.590  1.00  0.00     0.016 C 
HETATM    6  C14 UNL     1      -3.024  50.437 -21.283  1.00  0.00     0.004 C 
HETATM    7  C15 UNL     1      -3.875  50.822 -20.061  1.00  0.00     0.007 C 
HETATM    8  C16 UNL     1      -3.234  50.272 -18.787  1.00  0.00     0.007 C 
HETATM    9  C17 UNL     1      -1.919  51.009 -18.486  1.00  0.00     0.010 C 
HETATM   10  C18 UNL     1      -1.144  50.491 -17.227  1.00  0.00     0.018 C 
HETATM   11  C19 UNL     1      -1.871  50.926 -15.942  1.00  0.00     0.023 C 
HETATM   12  C20 UNL     1      -0.961  48.962 -17.195  1.00  0.00     0.023 C 
HETATM   13  C21 UNL     1       0.252  51.138 -17.201  1.00  0.00     0.135 C 
HETATM   14  O4  UNL     1       1.180  50.676 -16.537  1.00  0.00    -0.297 OA
HETATM   15  C22 UNL     1       0.428  52.407 -17.996  1.00  0.00     0.080 C 
HETATM   16  C23 UNL     1       0.151  52.134 -19.468  1.00  0.00     0.018 C 
HETATM   17  C24 UNL     1      -0.983  51.126 -19.695  1.00  0.00    -0.026 A 
HETATM   18  C25 UNL     1      -0.623  49.904 -20.503  1.00  0.00     0.021 A 
HETATM   19  C26 UNL     1      -1.560  50.924 -21.127  1.00  0.00    -0.027 A 
HETATM   20  C27 UNL     1      -0.987  51.807 -22.244  1.00  0.00     0.011 C 
HETATM   21  C28 UNL     1      -1.463  51.549 -23.685  1.00  0.00     0.011 C 
HETATM   22  C29 UNL     1      -2.616  50.544 -23.808  1.00  0.00    -0.032 C 
HETATM   23  C30 UNL     1      -2.004  49.118 -23.751  1.00  0.00     0.016 C 
ENDROOT
BRANCH   1  24
HETATM   24  C2  UNL     1      -3.102  50.269 -26.511  1.00  0.00    -0.014 C 
HETATM   25  C1  UNL     1      -3.219  48.782 -26.871  1.00  0.00     0.010 C 
BRANCH  24  26
HETATM   26  C3  UNL     1      -1.701  50.817 -26.876  1.00  0.00     0.007 C 
BRANCH  26  27
HETATM   27  C4  UNL     1      -1.669  52.348 -27.033  1.00  0.00     0.035 C 
BRANCH  27  28
HETATM   28  C5  UNL     1      -0.289  52.911 -27.413  1.00  0.00     0.154 C 
BRANCH  28  29
HETATM   29  O1  UNL     1      -0.235  52.981 -28.847  1.00  0.00    -0.392 OA
HETATM   30  H10 UNL     1      -0.765  53.739 -29.141  1.00  0.00     0.210 HD
ENDBRANCH  28  29
BRANCH  28  31
HETATM   31  C6  UNL     1       0.922  52.059 -26.901  1.00  0.00     0.101 C 
HETATM   32  C7  UNL     1       0.417  50.689 -26.408  1.00  0.00     0.051 C 
BRANCH  31  33
HETATM   33  O2  UNL     1       1.572  52.661 -25.767  1.00  0.00    -0.385 OA
HETATM   34  H14 UNL     1       1.566  53.626 -25.887  1.00  0.00     0.210 HD
ENDBRANCH  31  33
BRANCH  31  35
HETATM   35  C8  UNL     1       1.983  51.853 -28.006  1.00  0.00     0.204 C 
BRANCH  35  36
HETATM   36  O3  UNL     1       3.280  51.582 -27.482  1.00  0.00    -0.398 OA
HETATM   37  H17 UNL     1       3.620  52.412 -27.106  1.00  0.00     0.209 HD
ENDBRANCH  35  36
ENDBRANCH  31  35
ENDBRANCH  28  31
ENDBRANCH  27  28
ENDBRANCH  26  27
ENDBRANCH  24  26
ENDBRANCH   1  24
TORSDOF 9
ENDMDL
MODEL 2
REMARK minimizedAffinity -9.52920723
REMARK  9 active torsions:
REMARK  status: ('A' for Active; 'I' for Inactive)
REMARK    1  A    between atoms: C2_2  and  C3_3 
REMARK    2  A    between atoms: C2_2  and  C9_12 
REMARK    3  A    between atoms: C3_3  and  C4_4 
REMARK    4  A    between atoms: C4_4  and  C5_5 
REMARK    5  A    between atoms: C5_5  and  O1_6 
REMARK    6  A    between atoms: C5_5  and  C6_7 
REMARK    7  A    between atoms: C6_7  and  O2_9 
REMARK    8  A    between atoms: C6_7  and  C8_10 
REMARK    9  A    between atoms: C8_10  and  O3_11 
ROOT
HETATM    1  C9  UNL     1      -2.015  48.819 -18.379  1.00  0.00    -0.002 C 
HETATM    2  C10 UNL     1      -3.195  47.894 -18.785  1.00  0.00     0.006 C 
HETATM    3  C11 UNL     1      -3.392  48.048 -20.304  1.00  0.00     0.011 C 
HETATM    4  C12 UNL     1      -2.149  48.814 -20.805  1.00  0.00    -0.032 C 
HETATM    5  C13 UNL     1      -1.024  47.756 -21.040  1.00  0.00     0.016 C 
HETATM    6  C14 UNL     1      -2.383  49.632 -22.103  1.00  0.00     0.004 C 
HETATM    7  C15 UNL     1      -2.496  48.782 -23.381  1.00  0.00     0.007 C 
HETATM    8  C16 UNL     1      -2.848  49.675 -24.570  1.00  0.00     0.007 C 
HETATM    9  C17 UNL     1      -1.666  50.593 -24.921  1.00  0.00     0.010 C 
HETATM   10  C18 UNL     1      -1.932  51.594 -26.096  1.00  0.00     0.018 C 
HETATM   11  C19 UNL     1      -1.955  50.841 -27.438  1.00  0.00     0.023 C 
HETATM   12  C20 UNL     1      -3.246  52.385 -25.954  1.00  0.00     0.023 C 
HETATM   13  C21 UNL     1      -0.773  52.605 -26.161  1.00  0.00     0.135 C 
HETATM   14  O4  UNL     1      -0.870  53.682 -26.747  1.00  0.00    -0.297 OA
HETATM   15  C22 UNL     1       0.523  52.195 -25.508  1.00  0.00     0.080 C 
HETATM   16  C23 UNL     1       0.296  51.956 -24.021  1.00  0.00     0.018 C 
HETATM   17  C24 UNL     1      -1.063  51.318 -23.710  1.00  0.00    -0.026 A 
HETATM   18  C25 UNL     1      -1.949  52.089 -22.763  1.00  0.00     0.021 A 
HETATM   19  C26 UNL     1      -1.353  50.778 -22.278  1.00  0.00    -0.027 A 
HETATM   20  C27 UNL     1      -0.214  50.867 -21.254  1.00  0.00     0.011 C 
HETATM   21  C28 UNL     1      -0.512  50.441 -19.805  1.00  0.00     0.011 C 
HETATM   22  C29 UNL     1      -1.886  49.792 -19.598  1.00  0.00    -0.032 C 
HETATM   23  C30 UNL     1      -2.933  50.933 -19.481  1.00  0.00     0.016 C 
ENDROOT
BRANCH   1  24
HETATM   24  C2  UNL     1      -2.088  49.281 -16.893  1.00  0.00    -0.014 C 
HETATM   25  C1  UNL     1      -2.513  50.731 -16.630  1.00  0.00     0.010 C 
BRANCH  24  26
HETATM   26  C3  UNL     1      -0.790  48.938 -16.123  1.00  0.00     0.007 C 
BRANCH  26  27
HETATM   27  C4  UNL     1       0.324  49.984 -16.313  1.00  0.00     0.035 C 
BRANCH  27  28
HETATM   28  C5  UNL     1       1.002  50.423 -15.004  1.00  0.00     0.154 C 
BRANCH  28  29
HETATM   29  O1  UNL     1       0.028  50.303 -13.955  1.00  0.00    -0.392 OA
HETATM   30  H10 UNL     1      -0.076  49.364 -13.734  1.00  0.00     0.210 HD
ENDBRANCH  28  29
BRANCH  28  31
HETATM   31  C6  UNL     1       1.552  51.891 -15.019  1.00  0.00     0.101 C 
HETATM   32  C7  UNL     1       2.977  51.912 -14.432  1.00  0.00     0.051 C 
BRANCH  31  33
HETATM   33  O2  UNL     1       0.778  52.771 -14.184  1.00  0.00    -0.385 OA
HETATM   34  H14 UNL     1      -0.157  52.514 -14.252  1.00  0.00     0.210 HD
ENDBRANCH  31  33
BRANCH  31  35
HETATM   35  C8  UNL     1       1.571  52.478 -16.447  1.00  0.00     0.204 C 
BRANCH  35  36
HETATM   36  O3  UNL     1       2.677  53.350 -16.671  1.00  0.00    -0.398 OA
HETATM   37  H17 UNL     1       2.505  54.170 -16.177  1.00  0.00     0.209 HD
ENDBRANCH  35  36
ENDBRANCH  31  35
ENDBRANCH  28  31
ENDBRANCH  27  28
ENDBRANCH  26  27
ENDBRANCH  24  26
ENDBRANCH   1  24
TORSDOF 9
ENDMDL
MODEL 3
REMARK minimizedAffinity -9.45006275
REMARK  9 active torsions:
REMARK  status: ('A' for Active; 'I' for Inactive)
REMARK    1  A    between atoms: C2_2  and  C3_3 
REMARK    2  A    between atoms: C2_2  and  C9_12 
REMARK    3  A    between atoms: C3_3  and  C4_4 
REMARK    4  A    between atoms: C4_4  and  C5_5 
REMARK    5  A    between atoms: C5_5  and  O1_6 
REMARK    6  A    between atoms: C5_5  and  C6_7 
REMARK    7  A    between atoms: C6_7  and  O2_9 
REMARK    8  A    between atoms: C6_7  and  C8_10 
REMARK    9  A    between atoms: C8_10  and  O3_11 
ROOT
HETATM    1  C9  UNL     1      -0.659  50.416 -21.799  1.00  0.00    -0.002 C 
HETATM    2  C10 UNL     1      -0.572  50.044 -20.293  1.00  0.00     0.006 C 
HETATM    3  C11 UNL     1      -1.811  49.192 -19.963  1.00  0.00     0.011 C 
HETATM    4  C12 UNL     1      -2.436  48.827 -21.327  1.00  0.00    -0.032 C 
HETATM    5  C13 UNL     1      -1.684  47.563 -21.851  1.00  0.00     0.016 C 
HETATM    6  C14 UNL     1      -3.962  48.549 -21.276  1.00  0.00     0.004 C 
HETATM    7  C15 UNL     1      -4.345  47.206 -20.631  1.00  0.00     0.007 C 
HETATM    8  C16 UNL     1      -5.864  47.095 -20.522  1.00  0.00     0.007 C 
HETATM    9  C17 UNL     1      -6.494  46.951 -21.917  1.00  0.00     0.010 C 
HETATM   10  C18 UNL     1      -8.059  46.882 -21.933  1.00  0.00     0.018 C 
HETATM   11  C19 UNL     1      -8.534  45.519 -21.400  1.00  0.00     0.023 C 
HETATM   12  C20 UNL     1      -8.739  47.995 -21.113  1.00  0.00     0.023 C 
HETATM   13  C21 UNL     1      -8.547  46.997 -23.389  1.00  0.00     0.135 C 
HETATM   14  O4  UNL     1      -9.704  47.306 -23.673  1.00  0.00    -0.297 OA
HETATM   15  C22 UNL     1      -7.549  46.665 -24.469  1.00  0.00     0.080 C 
HETATM   16  C23 UNL     1      -6.361  47.613 -24.379  1.00  0.00     0.018 C 
HETATM   17  C24 UNL     1      -5.980  47.974 -22.938  1.00  0.00    -0.026 A 
HETATM   18  C25 UNL     1      -5.982  49.447 -22.609  1.00  0.00     0.021 A 
HETATM   19  C26 UNL     1      -4.645  48.725 -22.658  1.00  0.00    -0.027 A 
HETATM   20  C27 UNL     1      -3.740  49.015 -23.861  1.00  0.00     0.011 C 
HETATM   21  C28 UNL     1      -2.469  49.851 -23.624  1.00  0.00     0.011 C 
HETATM   22  C29 UNL     1      -2.160  50.142 -22.150  1.00  0.00    -0.032 C 
HETATM   23  C30 UNL     1      -3.037  51.346 -21.714  1.00  0.00     0.016 C 
ENDROOT
BRANCH   1  24
HETATM   24  C2  UNL     1       0.095  51.735 -22.144  1.00  0.00    -0.014 C 
HETATM   25  C1  UNL     1       0.187  52.798 -21.042  1.00  0.00     0.010 C 
BRANCH  24  26
HETATM   26  C3  UNL     1      -0.414  52.355 -23.468  1.00  0.00     0.007 C 
BRANCH  26  27
HETATM   27  C4  UNL     1       0.718  52.899 -24.359  1.00  0.00     0.035 C 
BRANCH  27  28
HETATM   28  C5  UNL     1       0.353  52.991 -25.850  1.00  0.00     0.154 C 
BRANCH  28  29
HETATM   29  O1  UNL     1      -1.078  53.062 -25.938  1.00  0.00    -0.392 OA
HETATM   30  H10 UNL     1      -1.361  53.955 -25.684  1.00  0.00     0.210 HD
ENDBRANCH  28  29
BRANCH  28  31
HETATM   31  C6  UNL     1       0.855  51.784 -26.716  1.00  0.00     0.101 C 
HETATM   32  C7  UNL     1       0.728  52.135 -28.211  1.00  0.00     0.051 C 
BRANCH  31  33
HETATM   33  O2  UNL     1       0.049  50.606 -26.527  1.00  0.00    -0.385 OA
HETATM   34  H14 UNL     1      -0.218  50.564 -25.593  1.00  0.00     0.210 HD
ENDBRANCH  31  33
BRANCH  31  35
HETATM   35  C8  UNL     1       2.320  51.419 -26.391  1.00  0.00     0.204 C 
BRANCH  35  36
HETATM   36  O3  UNL     1       3.246  51.977 -27.319  1.00  0.00    -0.398 OA
HETATM   37  H17 UNL     1       3.154  51.485 -28.153  1.00  0.00     0.209 HD
ENDBRANCH  35  36
ENDBRANCH  31  35
ENDBRANCH  28  31
ENDBRANCH  27  28
ENDBRANCH  26  27
ENDBRANCH  24  26
ENDBRANCH   1  24
TORSDOF 9
ENDMDL
MODEL 4
REMARK minimizedAffinity -9.2066431
REMARK  9 active torsions:
REMARK  status: ('A' for Active; 'I' for Inactive)
REMARK    1  A    between atoms: C2_2  and  C3_3 
REMARK    2  A    between atoms: C2_2  and  C9_12 
REMARK    3  A    between atoms: C3_3  and  C4_4 
REMARK    4  A    between atoms: C4_4  and  C5_5 
REMARK    5  A    between atoms: C5_5  and  O1_6 
REMARK    6  A    between atoms: C5_5  and  C6_7 
REMARK    7  A    between atoms: C6_7  and  O2_9 
REMARK    8  A    between atoms: C6_7  and  C8_10 
REMARK    9  A    between atoms: C8_10  and  O3_11 
ROOT
HETATM    1  C9  UNL     1      -1.022  49.813 -17.972  1.00  0.00    -0.002 C 
HETATM    2  C10 UNL     1      -2.227  48.832 -17.999  1.00  0.00     0.006 C 
HETATM    3  C11 UNL     1      -2.693  48.726 -19.463  1.00  0.00     0.011 C 
HETATM    4  C12 UNL     1      -1.580  49.395 -20.299  1.00  0.00    -0.032 C 
HETATM    5  C13 UNL     1      -0.484  48.312 -20.550  1.00  0.00     0.016 C 
HETATM    6  C14 UNL     1      -2.064  49.980 -21.653  1.00  0.00     0.004 C 
HETATM    7  C15 UNL     1      -2.374  48.925 -22.729  1.00  0.00     0.007 C 
HETATM    8  C16 UNL     1      -2.957  49.602 -23.969  1.00  0.00     0.007 C 
HETATM    9  C17 UNL     1      -1.883  50.447 -24.674  1.00  0.00     0.010 C 
HETATM   10  C18 UNL     1      -2.382  51.233 -25.934  1.00  0.00     0.018 C 
HETATM   11  C19 UNL     1      -2.618  50.262 -27.104  1.00  0.00     0.023 C 
HETATM   12  C20 UNL     1      -3.674  52.037 -25.694  1.00  0.00     0.023 C 
HETATM   13  C21 UNL     1      -1.283  52.217 -26.373  1.00  0.00     0.135 C 
HETATM   14  O4  UNL     1      -1.515  53.179 -27.105  1.00  0.00    -0.297 OA
HETATM   15  C22 UNL     1       0.119  51.925 -25.903  1.00  0.00     0.080 C 
HETATM   16  C23 UNL     1       0.165  51.942 -24.381  1.00  0.00     0.018 C 
HETATM   17  C24 UNL     1      -1.099  51.366 -23.729  1.00  0.00    -0.026 A 
HETATM   18  C25 UNL     1      -1.827  52.288 -22.782  1.00  0.00     0.021 A 
HETATM   19  C26 UNL     1      -1.115  51.079 -22.199  1.00  0.00    -0.027 A 
HETATM   20  C27 UNL     1       0.182  51.341 -21.424  1.00  0.00     0.011 C 
HETATM   21  C28 UNL     1       0.157  51.168 -19.895  1.00  0.00     0.011 C 
HETATM   22  C29 UNL     1      -1.139  50.564 -19.340  1.00  0.00    -0.032 C 
HETATM   23  C30 UNL     1      -2.182  51.708 -19.231  1.00  0.00     0.016 C 
ENDROOT
BRANCH   1  24
HETATM   24  C2  UNL     1      -0.846  50.521 -16.595  1.00  0.00    -0.014 C 
HETATM   25  C1  UNL     1       0.415  50.181 -15.789  1.00  0.00     0.010 C 
BRANCH  24  26
HETATM   26  C3  UNL     1      -2.114  50.389 -15.718  1.00  0.00     0.007 C 
BRANCH  26  27
HETATM   27  C4  UNL     1      -1.821  50.478 -14.209  1.00  0.00     0.035 C 
BRANCH  27  28
HETATM   28  C5  UNL     1      -2.164  51.840 -13.582  1.00  0.00     0.154 C 
BRANCH  28  29
HETATM   29  O1  UNL     1      -0.924  52.500 -13.284  1.00  0.00    -0.392 OA
HETATM   30  H10 UNL     1      -0.543  52.835 -14.111  1.00  0.00     0.210 HD
ENDBRANCH  28  29
BRANCH  28  31
HETATM   31  C6  UNL     1      -3.020  51.753 -12.272  1.00  0.00     0.101 C 
HETATM   32  C7  UNL     1      -2.093  51.500 -11.067  1.00  0.00     0.051 C 
BRANCH  31  33
HETATM   33  O2  UNL     1      -3.938  50.645 -12.293  1.00  0.00    -0.385 OA
HETATM   34  H14 UNL     1      -4.274  50.543 -13.200  1.00  0.00     0.210 HD
ENDBRANCH  31  33
BRANCH  31  35
HETATM   35  C8  UNL     1      -3.834  53.045 -12.036  1.00  0.00     0.204 C 
BRANCH  35  36
HETATM   36  O3  UNL     1      -4.255  53.661 -13.250  1.00  0.00    -0.398 OA
HETATM   37  H17 UNL     1      -3.468  54.057 -13.663  1.00  0.00     0.209 HD
ENDBRANCH  35  36
ENDBRANCH  31  35
ENDBRANCH  28  31
ENDBRANCH  27  28
ENDBRANCH  26  27
ENDBRANCH  24  26
ENDBRANCH   1  24
TORSDOF 9
ENDMDL
MODEL 5
REMARK minimizedAffinity -9.03136921
REMARK  9 active torsions:
REMARK  status: ('A' for Active; 'I' for Inactive)
REMARK    1  A    between atoms: C2_2  and  C3_3 
REMARK    2  A    between atoms: C2_2  and  C9_12 
REMARK    3  A    between atoms: C3_3  and  C4_4 
REMARK    4  A    between atoms: C4_4  and  C5_5 
REMARK    5  A    between atoms: C5_5  and  O1_6 
REMARK    6  A    between atoms: C5_5  and  C6_7 
REMARK    7  A    between atoms: C6_7  and  O2_9 
REMARK    8  A    between atoms: C6_7  and  C8_10 
REMARK    9  A    between atoms: C8_10  and  O3_11 
ROOT
HETATM    1  C9  UNL     1      -0.090  51.481 -21.297  1.00  0.00    -0.002 C 
HETATM    2  C10 UNL     1      -0.232  52.157 -19.905  1.00  0.00     0.006 C 
HETATM    3  C11 UNL     1      -1.449  51.516 -19.211  1.00  0.00     0.011 C 
HETATM    4  C12 UNL     1      -1.808  50.283 -20.067  1.00  0.00    -0.032 C 
HETATM    5  C13 UNL     1      -0.895  49.111 -19.587  1.00  0.00     0.016 C 
HETATM    6  C14 UNL     1      -3.299  49.859 -19.981  1.00  0.00     0.004 C 
HETATM    7  C15 UNL     1      -3.693  49.179 -18.659  1.00  0.00     0.007 C 
HETATM    8  C16 UNL     1      -5.199  48.919 -18.635  1.00  0.00     0.007 C 
HETATM    9  C17 UNL     1      -5.573  47.833 -19.657  1.00  0.00     0.010 C 
HETATM   10  C18 UNL     1      -7.104  47.520 -19.760  1.00  0.00     0.018 C 
HETATM   11  C19 UNL     1      -7.570  46.740 -18.518  1.00  0.00     0.023 C 
HETATM   12  C20 UNL     1      -7.986  48.774 -19.911  1.00  0.00     0.023 C 
HETATM   13  C21 UNL     1      -7.347  46.617 -20.982  1.00  0.00     0.135 C 
HETATM   14  O4  UNL     1      -8.458  46.489 -21.496  1.00  0.00    -0.297 OA
HETATM   15  C22 UNL     1      -6.161  45.846 -21.504  1.00  0.00     0.080 C 
HETATM   16  C23 UNL     1      -5.072  46.814 -21.944  1.00  0.00     0.018 C 
HETATM   17  C24 UNL     1      -4.965  48.055 -21.048  1.00  0.00    -0.026 A 
HETATM   18  C25 UNL     1      -5.121  49.384 -21.746  1.00  0.00     0.021 A 
HETATM   19  C26 UNL     1      -3.750  49.017 -21.204  1.00  0.00    -0.027 A 
HETATM   20  C27 UNL     1      -2.676  48.627 -22.228  1.00  0.00     0.011 C 
HETATM   21  C28 UNL     1      -1.523  49.616 -22.476  1.00  0.00     0.011 C 
HETATM   22  C29 UNL     1      -1.487  50.812 -21.516  1.00  0.00    -0.032 C 
HETATM   23  C30 UNL     1      -2.505  51.863 -22.035  1.00  0.00     0.016 C 
ENDROOT
BRANCH   1  24
HETATM   24  C2  UNL     1       0.621  52.391 -22.343  1.00  0.00    -0.014 C 
HETATM   25  C1  UNL     1       1.175  53.731 -21.844  1.00  0.00     0.010 C 
BRANCH  24  26
HETATM   26  C3  UNL     1      -0.246  52.589 -23.610  1.00  0.00     0.007 C 
BRANCH  26  27
HETATM   27  C4  UNL     1       0.281  51.816 -24.833  1.00  0.00     0.035 C 
BRANCH  27  28
HETATM   28  C5  UNL     1       0.746  52.715 -25.991  1.00  0.00     0.154 C 
BRANCH  28  29
HETATM   29  O1  UNL     1       0.534  54.077 -25.589  1.00  0.00    -0.392 OA
HETATM   30  H10 UNL     1       1.225  54.324 -24.953  1.00  0.00     0.210 HD
ENDBRANCH  28  29
BRANCH  28  31
HETATM   31  C6  UNL     1      -0.001  52.465 -27.347  1.00  0.00     0.101 C 
HETATM   32  C7  UNL     1      -1.186  51.508 -27.113  1.00  0.00     0.051 C 
BRANCH  31  33
HETATM   33  O2  UNL     1       0.836  51.813 -28.318  1.00  0.00    -0.385 OA
HETATM   34  H14 UNL     1       1.741  52.156 -28.223  1.00  0.00     0.210 HD
ENDBRANCH  31  33
BRANCH  31  35
HETATM   35  C8  UNL     1      -0.515  53.784 -27.966  1.00  0.00     0.204 C 
BRANCH  35  36
HETATM   36  O3  UNL     1      -1.922  53.776 -28.192  1.00  0.00    -0.398 OA
HETATM   37  H17 UNL     1      -2.092  53.184 -28.945  1.00  0.00     0.209 HD
ENDBRANCH  35  36
ENDBRANCH  31  35
ENDBRANCH  28  31
ENDBRANCH  27  28
ENDBRANCH  26  27
ENDBRANCH  24  26
ENDBRANCH   1  24
TORSDOF 9
ENDMDL
MODEL 6
REMARK minimizedAffinity -8.97262955
REMARK  9 active torsions:
REMARK  status: ('A' for Active; 'I' for Inactive)
REMARK    1  A    between atoms: C2_2  and  C3_3 
REMARK    2  A    between atoms: C2_2  and  C9_12 
REMARK    3  A    between atoms: C3_3  and  C4_4 
REMARK    4  A    between atoms: C4_4  and  C5_5 
REMARK    5  A    between atoms: C5_5  and  O1_6 
REMARK    6  A    between atoms: C5_5  and  C6_7 
REMARK    7  A    between atoms: C6_7  and  O2_9 
REMARK    8  A    between atoms: C6_7  and  C8_10 
REMARK    9  A    between atoms: C8_10  and  O3_11 
ROOT
HETATM    1  C9  UNL     1      -0.698  51.307 -17.488  1.00  0.00    -0.002 C 
HETATM    2  C10 UNL     1       0.798  51.724 -17.498  1.00  0.00     0.006 C 
HETATM    3  C11 UNL     1       1.149  52.120 -18.944  1.00  0.00     0.011 C 
HETATM    4  C12 UNL     1      -0.202  52.219 -19.684  1.00  0.00    -0.032 C 
HETATM    5  C13 UNL     1      -0.768  53.649 -19.411  1.00  0.00     0.016 C 
HETATM    6  C14 UNL     1      -0.112  51.970 -21.213  1.00  0.00     0.004 C 
HETATM    7  C15 UNL     1       0.521  53.123 -22.011  1.00  0.00     0.007 C 
HETATM    8  C16 UNL     1       0.671  52.721 -23.477  1.00  0.00     0.007 C 
HETATM    9  C17 UNL     1      -0.708  52.610 -24.148  1.00  0.00     0.010 C 
HETATM   10  C18 UNL     1      -0.680  52.150 -25.645  1.00  0.00     0.018 C 
HETATM   11  C19 UNL     1      -0.156  53.287 -26.539  1.00  0.00     0.023 C 
HETATM   12  C20 UNL     1       0.178  50.894 -25.894  1.00  0.00     0.023 C 
HETATM   13  C21 UNL     1      -2.119  51.841 -26.098  1.00  0.00     0.135 C 
HETATM   14  O4  UNL     1      -2.364  51.155 -27.089  1.00  0.00    -0.297 OA
HETATM   15  C22 UNL     1      -3.232  52.462 -25.292  1.00  0.00     0.080 C 
HETATM   16  C23 UNL     1      -3.161  51.969 -23.853  1.00  0.00     0.018 C 
HETATM   17  C24 UNL     1      -1.725  51.793 -23.342  1.00  0.00    -0.026 A 
HETATM   18  C25 UNL     1      -1.372  50.414 -22.842  1.00  0.00     0.021 A 
HETATM   19  C26 UNL     1      -1.471  51.541 -21.827  1.00  0.00    -0.027 A 
HETATM   20  C27 UNL     1      -2.695  51.541 -20.903  1.00  0.00     0.011 C 
HETATM   21  C28 UNL     1      -2.480  51.186 -19.420  1.00  0.00     0.011 C 
HETATM   22  C29 UNL     1      -1.011  51.053 -19.000  1.00  0.00    -0.032 C 
HETATM   23  C30 UNL     1      -0.530  49.636 -19.412  1.00  0.00     0.016 C 
ENDROOT
BRANCH   1  24
HETATM   24  C2  UNL     1      -1.043  50.309 -16.342  1.00  0.00    -0.014 C 
HETATM   25  C1  UNL     1      -1.071  48.817 -16.698  1.00  0.00     0.010 C 
BRANCH  24  26
HETATM   26  C3  UNL     1      -2.332  50.722 -15.592  1.00  0.00     0.007 C 
BRANCH  26  27
HETATM   27  C4  UNL     1      -2.161  50.753 -14.062  1.00  0.00     0.035 C 
BRANCH  27  28
HETATM   28  C5  UNL     1      -2.095  52.169 -13.467  1.00  0.00     0.154 C 
BRANCH  28  29
HETATM   29  O1  UNL     1      -0.717  52.576 -13.479  1.00  0.00    -0.392 OA
HETATM   30  H10 UNL     1      -0.471  52.810 -14.389  1.00  0.00     0.210 HD
ENDBRANCH  28  29
BRANCH  28  31
HETATM   31  C6  UNL     1      -2.644  52.285 -12.003  1.00  0.00     0.101 C 
HETATM   32  C7  UNL     1      -1.636  53.063 -11.135  1.00  0.00     0.051 C 
BRANCH  31  33
HETATM   33  O2  UNL     1      -2.785  51.000 -11.371  1.00  0.00    -0.385 OA
HETATM   34  H14 UNL     1      -3.082  50.360 -12.041  1.00  0.00     0.210 HD
ENDBRANCH  31  33
BRANCH  31  35
HETATM   35  C8  UNL     1      -4.017  52.992 -11.963  1.00  0.00     0.204 C 
BRANCH  35  36
HETATM   36  O3  UNL     1      -4.234  53.838 -13.088  1.00  0.00    -0.398 OA
HETATM   37  H17 UNL     1      -3.664  54.619 -12.979  1.00  0.00     0.209 HD
ENDBRANCH  35  36
ENDBRANCH  31  35
ENDBRANCH  28  31
ENDBRANCH  27  28
ENDBRANCH  26  27
ENDBRANCH  24  26
ENDBRANCH   1  24
TORSDOF 9
ENDMDL
MODEL 7
REMARK minimizedAffinity -8.9081316
REMARK  9 active torsions:
REMARK  status: ('A' for Active; 'I' for Inactive)
REMARK    1  A    between atoms: C2_2  and  C3_3 
REMARK    2  A    between atoms: C2_2  and  C9_12 
REMARK    3  A    between atoms: C3_3  and  C4_4 
REMARK    4  A    between atoms: C4_4  and  C5_5 
REMARK    5  A    between atoms: C5_5  and  O1_6 
REMARK    6  A    between atoms: C5_5  and  C6_7 
REMARK    7  A    between atoms: C6_7  and  O2_9 
REMARK    8  A    between atoms: C6_7  and  C8_10 
REMARK    9  A    between atoms: C8_10  and  O3_11 
ROOT
HETATM    1  C9  UNL     1      -5.037  48.523 -20.956  1.00  0.00    -0.002 C 
HETATM    2  C10 UNL     1      -5.546  47.542 -22.048  1.00  0.00     0.006 C 
HETATM    3  C11 UNL     1      -4.789  47.876 -23.346  1.00  0.00     0.011 C 
HETATM    4  C12 UNL     1      -3.648  48.827 -22.925  1.00  0.00    -0.032 C 
HETATM    5  C13 UNL     1      -2.463  47.933 -22.443  1.00  0.00     0.016 C 
HETATM    6  C14 UNL     1      -3.165  49.782 -24.051  1.00  0.00     0.004 C 
HETATM    7  C15 UNL     1      -2.327  49.102 -25.147  1.00  0.00     0.007 C 
HETATM    8  C16 UNL     1      -2.014  50.103 -26.258  1.00  0.00     0.007 C 
HETATM    9  C17 UNL     1      -1.038  51.179 -25.753  1.00  0.00     0.010 C 
HETATM   10  C18 UNL     1      -0.686  52.293 -26.796  1.00  0.00     0.018 C 
HETATM   11  C19 UNL     1       0.245  51.728 -27.882  1.00  0.00     0.023 C 
HETATM   12  C20 UNL     1      -1.917  52.917 -27.480  1.00  0.00     0.023 C 
HETATM   13  C21 UNL     1       0.082  53.419 -26.080  1.00  0.00     0.135 C 
HETATM   14  O4  UNL     1       0.190  54.549 -26.555  1.00  0.00    -0.297 OA
HETATM   15  C22 UNL     1       0.747  53.064 -24.774  1.00  0.00     0.080 C 
HETATM   16  C23 UNL     1      -0.302  52.607 -23.770  1.00  0.00     0.018 C 
HETATM   17  C24 UNL     1      -1.437  51.794 -24.406  1.00  0.00    -0.026 A 
HETATM   18  C25 UNL     1      -2.830  52.337 -24.197  1.00  0.00     0.021 A 
HETATM   19  C26 UNL     1      -2.452  51.042 -23.496  1.00  0.00    -0.027 A 
HETATM   20  C27 UNL     1      -2.218  51.112 -21.981  1.00  0.00     0.011 C 
HETATM   21  C28 UNL     1      -3.269  50.469 -21.058  1.00  0.00     0.011 C 
HETATM   22  C29 UNL     1      -4.349  49.658 -21.785  1.00  0.00    -0.032 C 
HETATM   23  C30 UNL     1      -5.416  50.657 -22.307  1.00  0.00     0.016 C 
ENDROOT
BRANCH   1  24
HETATM   24  C2  UNL     1      -6.084  48.773 -19.829  1.00  0.00    -0.014 C 
HETATM   25  C1  UNL     1      -7.034  49.964 -20.007  1.00  0.00     0.010 C 
BRANCH  24  26
HETATM   26  C3  UNL     1      -5.422  48.799 -18.430  1.00  0.00     0.007 C 
BRANCH  26  27
HETATM   27  C4  UNL     1      -3.952  48.342 -18.444  1.00  0.00     0.035 C 
BRANCH  27  28
HETATM   28  C5  UNL     1      -3.202  48.598 -17.125  1.00  0.00     0.154 C 
BRANCH  28  29
HETATM   29  O1  UNL     1      -3.913  49.628 -16.421  1.00  0.00    -0.392 OA
HETATM   30  H10 UNL     1      -4.717  49.244 -16.036  1.00  0.00     0.210 HD
ENDBRANCH  28  29
BRANCH  28  31
HETATM   31  C6  UNL     1      -1.710  49.043 -17.303  1.00  0.00     0.101 C 
HETATM   32  C7  UNL     1      -1.660  50.532 -17.698  1.00  0.00     0.051 C 
BRANCH  31  33
HETATM   33  O2  UNL     1      -1.055  48.338 -18.372  1.00  0.00    -0.385 OA
HETATM   34  H14 UNL     1      -1.380  47.421 -18.379  1.00  0.00     0.210 HD
ENDBRANCH  31  33
BRANCH  31  35
HETATM   35  C8  UNL     1      -0.891  48.822 -16.011  1.00  0.00     0.204 C 
BRANCH  35  36
HETATM   36  O3  UNL     1       0.383  48.234 -16.260  1.00  0.00    -0.398 OA
HETATM   37  H17 UNL     1       0.232  47.303 -16.499  1.00  0.00     0.209 HD
ENDBRANCH  35  36
ENDBRANCH  31  35
ENDBRANCH  28  31
ENDBRANCH  27  28
ENDBRANCH  26  27
ENDBRANCH  24  26
ENDBRANCH   1  24
TORSDOF 9
ENDMDL
MODEL 8
REMARK minimizedAffinity -8.87815094
REMARK  9 active torsions:
REMARK  status: ('A' for Active; 'I' for Inactive)
REMARK    1  A    between atoms: C2_2  and  C3_3 
REMARK    2  A    between atoms: C2_2  and  C9_12 
REMARK    3  A    between atoms: C3_3  and  C4_4 
REMARK    4  A    between atoms: C4_4  and  C5_5 
REMARK    5  A    between atoms: C5_5  and  O1_6 
REMARK    6  A    between atoms: C5_5  and  C6_7 
REMARK    7  A    between atoms: C6_7  and  O2_9 
REMARK    8  A    between atoms: C6_7  and  C8_10 
REMARK    9  A    between atoms: C8_10  and  O3_11 
ROOT
HETATM    1  C9  UNL     1      -1.605  51.181 -23.486  1.00  0.00    -0.002 C 
HETATM    2  C10 UNL     1      -1.557  50.301 -24.765  1.00  0.00     0.006 C 
HETATM    3  C11 UNL     1      -2.756  49.338 -24.701  1.00  0.00     0.011 C 
HETATM    4  C12 UNL     1      -3.647  49.867 -23.556  1.00  0.00    -0.032 C 
HETATM    5  C13 UNL     1      -4.554  50.985 -24.160  1.00  0.00     0.016 C 
HETATM    6  C14 UNL     1      -4.528  48.782 -22.879  1.00  0.00     0.004 C 
HETATM    7  C15 UNL     1      -5.724  48.313 -23.726  1.00  0.00     0.007 C 
HETATM    8  C16 UNL     1      -6.443  47.164 -23.020  1.00  0.00     0.007 C 
HETATM    9  C17 UNL     1      -7.149  47.671 -21.752  1.00  0.00     0.010 C 
HETATM   10  C18 UNL     1      -7.878  46.566 -20.914  1.00  0.00     0.018 C 
HETATM   11  C19 UNL     1      -9.156  46.108 -21.639  1.00  0.00     0.023 C 
HETATM   12  C20 UNL     1      -7.007  45.328 -20.626  1.00  0.00     0.023 C 
HETATM   13  C21 UNL     1      -8.311  47.168 -19.565  1.00  0.00     0.135 C 
HETATM   14  O4  UNL     1      -8.595  46.469 -18.593  1.00  0.00    -0.297 OA
HETATM   15  C22 UNL     1      -8.420  48.670 -19.496  1.00  0.00     0.080 C 
HETATM   16  C23 UNL     1      -7.064  49.298 -19.787  1.00  0.00     0.018 C 
HETATM   17  C24 UNL     1      -6.262  48.542 -20.854  1.00  0.00    -0.026 A 
HETATM   18  C25 UNL     1      -4.897  48.059 -20.429  1.00  0.00     0.021 A 
HETATM   19  C26 UNL     1      -4.974  49.183 -21.449  1.00  0.00    -0.027 A 
HETATM   20  C27 UNL     1      -4.604  50.591 -20.963  1.00  0.00     0.011 C 
HETATM   21  C28 UNL     1      -3.278  51.199 -21.455  1.00  0.00     0.011 C 
HETATM   22  C29 UNL     1      -2.562  50.383 -22.538  1.00  0.00    -0.032 C 
HETATM   23  C30 UNL     1      -1.780  49.244 -21.829  1.00  0.00     0.016 C 
ENDROOT
BRANCH   1  24
HETATM   24  C2  UNL     1      -0.205  51.721 -23.066  1.00  0.00    -0.014 C 
HETATM   25  C1  UNL     1      -0.149  52.645 -21.843  1.00  0.00     0.010 C 
BRANCH  24  26
HETATM   26  C3  UNL     1       0.550  52.344 -24.264  1.00  0.00     0.007 C 
BRANCH  26  27
HETATM   27  C4  UNL     1      -0.287  53.378 -25.039  1.00  0.00     0.035 C 
BRANCH  27  28
HETATM   28  C5  UNL     1       0.234  53.672 -26.456  1.00  0.00     0.154 C 
BRANCH  28  29
HETATM   29  O1  UNL     1       0.090  55.083 -26.683  1.00  0.00    -0.392 OA
HETATM   30  H10 UNL     1       0.787  55.549 -26.193  1.00  0.00     0.210 HD
ENDBRANCH  28  29
BRANCH  28  31
HETATM   31  C6  UNL     1      -0.514  52.897 -27.596  1.00  0.00     0.101 C 
HETATM   32  C7  UNL     1       0.175  51.539 -27.832  1.00  0.00     0.051 C 
BRANCH  31  33
HETATM   33  O2  UNL     1      -0.450  53.587 -28.857  1.00  0.00    -0.385 OA
HETATM   34  H14 UNL     1      -0.507  54.543 -28.686  1.00  0.00     0.210 HD
ENDBRANCH  31  33
BRANCH  31  35
HETATM   35  C8  UNL     1      -2.003  52.670 -27.249  1.00  0.00     0.204 C 
BRANCH  35  36
HETATM   36  O3  UNL     1      -2.614  51.677 -28.068  1.00  0.00    -0.398 OA
HETATM   37  H17 UNL     1      -2.726  52.060 -28.955  1.00  0.00     0.209 HD
ENDBRANCH  35  36
ENDBRANCH  31  35
ENDBRANCH  28  31
ENDBRANCH  27  28
ENDBRANCH  26  27
ENDBRANCH  24  26
ENDBRANCH   1  24
TORSDOF 9
ENDMDL
MODEL 9
REMARK minimizedAffinity -8.72897625
REMARK  9 active torsions:
REMARK  status: ('A' for Active; 'I' for Inactive)
REMARK    1  A    between atoms: C2_2  and  C3_3 
REMARK    2  A    between atoms: C2_2  and  C9_12 
REMARK    3  A    between atoms: C3_3  and  C4_4 
REMARK    4  A    between atoms: C4_4  and  C5_5 
REMARK    5  A    between atoms: C5_5  and  O1_6 
REMARK    6  A    between atoms: C5_5  and  C6_7 
REMARK    7  A    between atoms: C6_7  and  O2_9 
REMARK    8  A    between atoms: C6_7  and  C8_10 
REMARK    9  A    between atoms: C8_10  and  O3_11 
ROOT
HETATM    1  C9  UNL     1      -0.383  50.036 -18.029  1.00  0.00    -0.002 C 
HETATM    2  C10 UNL     1      -1.578  49.059 -17.853  1.00  0.00     0.006 C 
HETATM    3  C11 UNL     1      -2.246  48.905 -19.231  1.00  0.00     0.011 C 
HETATM    4  C12 UNL     1      -1.264  49.542 -20.238  1.00  0.00    -0.032 C 
HETATM    5  C13 UNL     1      -0.213  48.448 -20.606  1.00  0.00     0.016 C 
HETATM    6  C14 UNL     1      -1.936  50.082 -21.529  1.00  0.00     0.004 C 
HETATM    7  C15 UNL     1      -2.394  48.993 -22.514  1.00  0.00     0.007 C 
HETATM    8  C16 UNL     1      -3.147  49.630 -23.681  1.00  0.00     0.007 C 
HETATM    9  C17 UNL     1      -2.185  50.447 -24.560  1.00  0.00     0.010 C 
HETATM   10  C18 UNL     1      -2.859  51.192 -25.762  1.00  0.00     0.018 C 
HETATM   11  C19 UNL     1      -3.257  50.183 -26.853  1.00  0.00     0.023 C 
HETATM   12  C20 UNL     1      -4.105  52.008 -25.368  1.00  0.00     0.023 C 
HETATM   13  C21 UNL     1      -1.835  52.157 -26.385  1.00  0.00     0.135 C 
HETATM   14  O4  UNL     1      -2.169  53.095 -27.109  1.00  0.00    -0.297 OA
HETATM   15  C22 UNL     1      -0.379  51.876 -26.109  1.00  0.00     0.080 C 
HETATM   16  C23 UNL     1      -0.119  51.945 -24.610  1.00  0.00     0.018 C 
HETATM   17  C24 UNL     1      -1.277  51.395 -23.767  1.00  0.00    -0.026 A 
HETATM   18  C25 UNL     1      -1.865  52.351 -22.758  1.00  0.00     0.021 A 
HETATM   19  C26 UNL     1      -1.076  51.160 -22.241  1.00  0.00    -0.027 A 
HETATM   20  C27 UNL     1       0.318  51.443 -21.667  1.00  0.00     0.011 C 
HETATM   21  C28 UNL     1       0.510  51.322 -20.144  1.00  0.00     0.011 C 
HETATM   22  C29 UNL     1      -0.693  50.741 -19.391  1.00  0.00    -0.032 C 
HETATM   23  C30 UNL     1      -1.713  51.892 -19.174  1.00  0.00     0.016 C 
ENDROOT
BRANCH   1  24
HETATM   24  C2  UNL     1      -0.015  50.789 -16.716  1.00  0.00    -0.014 C 
HETATM   25  C1  UNL     1       1.202  51.722 -16.762  1.00  0.00     0.010 C 
BRANCH  24  26
HETATM   26  C3  UNL     1       0.074  49.825 -15.509  1.00  0.00     0.007 C 
BRANCH  26  27
HETATM   27  C4  UNL     1       0.499  50.522 -14.204  1.00  0.00     0.035 C 
BRANCH  27  28
HETATM   28  C5  UNL     1       1.711  49.875 -13.512  1.00  0.00     0.154 C 
BRANCH  28  29
HETATM   29  O1  UNL     1       1.262  49.369 -12.245  1.00  0.00    -0.392 OA
HETATM   30  H10 UNL     1       0.755  48.556 -12.397  1.00  0.00     0.210 HD
ENDBRANCH  28  29
BRANCH  28  31
HETATM   31  C6  UNL     1       2.917  50.847 -13.272  1.00  0.00     0.101 C 
HETATM   32  C7  UNL     1       3.261  50.878 -11.770  1.00  0.00     0.051 C 
BRANCH  31  33
HETATM   33  O2  UNL     1       2.599  52.206 -13.624  1.00  0.00    -0.385 OA
HETATM   34  H14 UNL     1       2.027  52.193 -14.410  1.00  0.00     0.210 HD
ENDBRANCH  31  33
BRANCH  31  35
HETATM   35  C8  UNL     1       4.163  50.421 -14.081  1.00  0.00     0.204 C 
BRANCH  35  36
HETATM   36  O3  UNL     1       5.057  49.607 -13.328  1.00  0.00    -0.398 OA
HETATM   37  H17 UNL     1       5.494  50.182 -12.676  1.00  0.00     0.209 HD
ENDBRANCH  35  36
ENDBRANCH  31  35
ENDBRANCH  28  31
ENDBRANCH  27  28
ENDBRANCH  26  27
ENDBRANCH  24  26
ENDBRANCH   1  24
TORSDOF 9
ENDMDL
