MODEL 1
REMARK minimizedAffinity -7.44069958
REMARK CNNscore 0.366655052
REMARK CNNaffinity 6.67507505
REMARK  12 active torsions:
REMARK  status: ('A' for Active; 'I' for Inactive)
REMARK    1  A    between atoms: C2_2  and  C3_3 
REMARK    2  A    between atoms: C3_3  and  O2_5 
REMARK    3  A    between atoms: C14_16  and  C15_17 
REMARK    4  A    between atoms: C15_17  and  C17_19 
REMARK    5  A    between atoms: C17_19  and  C18_20 
REMARK    6  A    between atoms: C18_20  and  C19_21 
REMARK    7  A    between atoms: C20_22  and  C22_24 
REMARK    8  A    between atoms: C22_24  and  O4_26 
REMARK    9  A    between atoms: C27_31  and  C28_32 
REMARK   10  A    between atoms: C28_32  and  C29_33 
REMARK   11  A    between atoms: C29_33  and  C30_34 
REMARK   12  A    between atoms: C30_34  and  O5_35 
ROOT
HETATM    1  C1  UNL     1      -3.217   7.638  15.575  1.00  0.00     0.056 C 
HETATM    2  C2  UNL     1      -4.135   7.162  14.488  1.00  0.00     0.014 C 
HETATM    3  C4  UNL     1      -5.141   6.265  14.650  1.00  0.00    -0.062 C 
HETATM    4  C5  UNL     1      -5.422   5.614  15.978  1.00  0.00     0.036 C 
HETATM    5  C6  UNL     1      -6.824   5.936  16.486  1.00  0.00     0.010 C 
HETATM    6  C7  UNL     1      -7.938   5.991  15.409  1.00  0.00     0.003 C 
HETATM    7  C8  UNL     1      -7.521   5.324  14.031  1.00  0.00    -0.032 C 
HETATM    8  C9  UNL     1      -7.549   3.782  14.245  1.00  0.00     0.016 C 
HETATM    9  C10 UNL     1      -8.576   5.598  12.892  1.00  0.00     0.011 C 
HETATM   10  C11 UNL     1      -9.281   6.967  12.890  1.00  0.00     0.011 C 
HETATM   11  C12 UNL     1      -9.839   7.316  14.278  1.00  0.00    -0.032 C 
HETATM   12  C13 UNL     1     -10.906   6.243  14.669  1.00  0.00     0.016 C 
HETATM   13  C14 UNL     1     -10.478   8.728  14.470  1.00  0.00    -0.002 C 
HETATM   14  C23 UNL     1     -10.340   8.941  16.013  1.00  0.00     0.006 C 
HETATM   15  C24 UNL     1      -9.302   7.928  16.535  1.00  0.00     0.011 C 
HETATM   16  C25 UNL     1      -8.608   7.399  15.266  1.00  0.00    -0.032 C 
HETATM   17  C26 UNL     1      -7.555   8.490  14.889  1.00  0.00     0.016 C 
HETATM   18  C27 UNL     1      -6.092   5.823  13.530  1.00  0.00     0.024 C 
ENDROOT
BRANCH  13  19
HETATM   19  C15 UNL     1     -11.933   9.016  13.978  1.00  0.00    -0.014 C 
HETATM   20  C16 UNL     1     -12.926   9.125  15.139  1.00  0.00     0.010 C 
BRANCH  19  21
HETATM   21  C17 UNL     1     -12.386   7.899  12.994  1.00  0.00     0.008 C 
BRANCH  21  22
HETATM   22  C18 UNL     1     -13.796   7.330  13.216  1.00  0.00     0.028 C 
BRANCH  22  23
HETATM   23  C19 UNL     1     -14.847   8.037  12.405  1.00  0.00    -0.013 C 
HETATM   24  C20 UNL     1     -16.088   7.607  12.098  1.00  0.00     0.008 C 
HETATM   25  C21 UNL     1     -16.705   6.304  12.507  1.00  0.00     0.055 C 
BRANCH  24  26
HETATM   26  C22 UNL     1     -16.918   8.529  11.277  1.00  0.00     0.171 C 
HETATM   27  O3  UNL     1     -16.539   9.524  10.686  1.00  0.00    -0.646 OA
BRANCH  26  28
HETATM   28  O4  UNL     1     -18.209   8.156  11.236  1.00  0.00    -0.773 OA
HETATM   29  H33 UNL     1     -18.624   8.841  10.672  1.00  0.00     0.167 HD
ENDBRANCH  26  28
ENDBRANCH  24  26
ENDBRANCH  22  23
ENDBRANCH  21  22
ENDBRANCH  19  21
ENDBRANCH  13  19
BRANCH  18  30
HETATM   30  C28 UNL     1      -5.395   4.905  12.478  1.00  0.00     0.012 C 
BRANCH  30  31
HETATM   31  C29 UNL     1      -4.247   4.018  12.985  1.00  0.00     0.027 C 
BRANCH  31  32
HETATM   32  C30 UNL     1      -3.621   3.202  11.858  1.00  0.00     0.164 C 
BRANCH  32  33
HETATM   33  O5  UNL     1      -4.594   2.911  10.865  1.00  0.00    -0.401 OA
HETATM   34  H48 UNL     1      -4.149   2.391  10.175  1.00  0.00     0.209 HD
ENDBRANCH  32  33
ENDBRANCH  31  32
ENDBRANCH  30  31
ENDBRANCH  18  30
BRANCH   2  35
HETATM   35  C3  UNL     1      -3.863   7.776  13.167  1.00  0.00     0.171 C 
HETATM   36  O1  UNL     1      -4.508   8.643  12.608  1.00  0.00    -0.646 OA
BRANCH  35  37
HETATM   37  O2  UNL     1      -2.756   7.245  12.621  1.00  0.00    -0.773 OA
HETATM   38  H4  UNL     1      -2.703   7.675  11.741  1.00  0.00     0.167 HD
ENDBRANCH  35  37
ENDBRANCH   2  35
TORSDOF 12
ENDMDL
MODEL 2
REMARK minimizedAffinity -8.12944603
REMARK CNNscore 0.352881283
REMARK CNNaffinity 6.94430876
REMARK  12 active torsions:
REMARK  status: ('A' for Active; 'I' for Inactive)
REMARK    1  A    between atoms: C2_2  and  C3_3 
REMARK    2  A    between atoms: C3_3  and  O2_5 
REMARK    3  A    between atoms: C14_16  and  C15_17 
REMARK    4  A    between atoms: C15_17  and  C17_19 
REMARK    5  A    between atoms: C17_19  and  C18_20 
REMARK    6  A    between atoms: C18_20  and  C19_21 
REMARK    7  A    between atoms: C20_22  and  C22_24 
REMARK    8  A    between atoms: C22_24  and  O4_26 
REMARK    9  A    between atoms: C27_31  and  C28_32 
REMARK   10  A    between atoms: C28_32  and  C29_33 
REMARK   11  A    between atoms: C29_33  and  C30_34 
REMARK   12  A    between atoms: C30_34  and  O5_35 
ROOT
HETATM    1  C1  UNL     1      -7.393   3.599  14.564  1.00  0.00     0.056 C 
HETATM    2  C2  UNL     1      -7.137   5.001  14.092  1.00  0.00     0.014 C 
HETATM    3  C4  UNL     1      -6.401   5.929  14.757  1.00  0.00    -0.062 C 
HETATM    4  C5  UNL     1      -5.774   5.639  16.094  1.00  0.00     0.036 C 
HETATM    5  C6  UNL     1      -4.254   5.762  16.050  1.00  0.00     0.010 C 
HETATM    6  C7  UNL     1      -3.693   6.912  15.175  1.00  0.00     0.003 C 
HETATM    7  C8  UNL     1      -4.779   8.002  14.788  1.00  0.00    -0.032 C 
HETATM    8  C9  UNL     1      -5.041   8.856  16.064  1.00  0.00     0.016 C 
HETATM    9  C10 UNL     1      -4.243   9.025  13.715  1.00  0.00     0.011 C 
HETATM   10  C11 UNL     1      -3.291   8.485  12.632  1.00  0.00     0.011 C 
HETATM   11  C12 UNL     1      -2.153   7.654  13.245  1.00  0.00    -0.032 C 
HETATM   12  C13 UNL     1      -1.313   8.578  14.185  1.00  0.00     0.016 C 
HETATM   13  C14 UNL     1      -1.170   6.936  12.266  1.00  0.00    -0.002 C 
HETATM   14  C23 UNL     1      -0.617   5.774  13.154  1.00  0.00     0.006 C 
HETATM   15  C24 UNL     1      -1.567   5.612  14.358  1.00  0.00     0.011 C 
HETATM   16  C25 UNL     1      -2.820   6.420  13.972  1.00  0.00    -0.032 C 
HETATM   17  C26 UNL     1      -3.637   5.482  13.026  1.00  0.00     0.016 C 
HETATM   18  C27 UNL     1      -6.122   7.344  14.235  1.00  0.00     0.024 C 
ENDROOT
BRANCH  13  19
HETATM   19  C15 UNL     1      -0.016   7.729  11.574  1.00  0.00    -0.014 C 
HETATM   20  C16 UNL     1       0.701   8.674  12.543  1.00  0.00     0.010 C 
BRANCH  19  21
HETATM   21  C17 UNL     1      -0.581   8.534  10.368  1.00  0.00     0.008 C 
BRANCH  21  22
HETATM   22  C18 UNL     1       0.142   8.343   9.025  1.00  0.00     0.028 C 
BRANCH  22  23
HETATM   23  C19 UNL     1       1.283   7.366   9.108  1.00  0.00    -0.013 C 
HETATM   24  C20 UNL     1       2.015   6.857   8.096  1.00  0.00     0.008 C 
HETATM   25  C21 UNL     1       1.851   7.160   6.638  1.00  0.00     0.055 C 
BRANCH  24  26
HETATM   26  C22 UNL     1       3.093   5.907   8.479  1.00  0.00     0.171 C 
HETATM   27  O3  UNL     1       3.826   5.985   9.449  1.00  0.00    -0.646 OA
BRANCH  26  28
HETATM   28  O4  UNL     1       3.208   4.886   7.613  1.00  0.00    -0.773 OA
HETATM   29  H33 UNL     1       3.941   4.354   7.986  1.00  0.00     0.167 HD
ENDBRANCH  26  28
ENDBRANCH  24  26
ENDBRANCH  22  23
ENDBRANCH  21  22
ENDBRANCH  19  21
ENDBRANCH  13  19
BRANCH  18  30
HETATM   30  C28 UNL     1      -7.384   8.261  14.280  1.00  0.00     0.012 C 
BRANCH  30  31
HETATM   31  C29 UNL     1      -8.268   8.160  15.533  1.00  0.00     0.027 C 
BRANCH  31  32
HETATM   32  C30 UNL     1      -9.735   7.938  15.175  1.00  0.00     0.164 C 
BRANCH  32  33
HETATM   33  O5  UNL     1     -10.061   6.559  15.283  1.00  0.00    -0.401 OA
HETATM   34  H48 UNL     1     -10.999   6.470  15.044  1.00  0.00     0.209 HD
ENDBRANCH  32  33
ENDBRANCH  31  32
ENDBRANCH  30  31
ENDBRANCH  18  30
BRANCH   2  35
HETATM   35  C3  UNL     1      -7.762   5.313  12.785  1.00  0.00     0.171 C 
HETATM   36  O1  UNL     1      -8.774   5.957  12.585  1.00  0.00    -0.646 OA
BRANCH  35  37
HETATM   37  O2  UNL     1      -7.044   4.781  11.782  1.00  0.00    -0.773 OA
HETATM   38  H4  UNL     1      -7.568   4.996  10.983  1.00  0.00     0.167 HD
ENDBRANCH  35  37
ENDBRANCH   2  35
TORSDOF 12
ENDMDL
MODEL 3
REMARK minimizedAffinity -7.00015879
REMARK CNNscore 0.246657178
REMARK CNNaffinity 5.84071779
REMARK  12 active torsions:
REMARK  status: ('A' for Active; 'I' for Inactive)
REMARK    1  A    between atoms: C2_2  and  C3_3 
REMARK    2  A    between atoms: C3_3  and  O2_5 
REMARK    3  A    between atoms: C14_16  and  C15_17 
REMARK    4  A    between atoms: C15_17  and  C17_19 
REMARK    5  A    between atoms: C17_19  and  C18_20 
REMARK    6  A    between atoms: C18_20  and  C19_21 
REMARK    7  A    between atoms: C20_22  and  C22_24 
REMARK    8  A    between atoms: C22_24  and  O4_26 
REMARK    9  A    between atoms: C27_31  and  C28_32 
REMARK   10  A    between atoms: C28_32  and  C29_33 
REMARK   11  A    between atoms: C29_33  and  C30_34 
REMARK   12  A    between atoms: C30_34  and  O5_35 
ROOT
HETATM    1  C1  UNL     1      -4.318  12.549  17.013  1.00  0.00     0.056 C 
HETATM    2  C2  UNL     1      -3.161  11.713  16.550  1.00  0.00     0.014 C 
HETATM    3  C4  UNL     1      -1.913  12.180  16.289  1.00  0.00    -0.062 C 
HETATM    4  C5  UNL     1      -1.567  13.640  16.412  1.00  0.00     0.036 C 
HETATM    5  C6  UNL     1      -0.475  13.882  17.449  1.00  0.00     0.010 C 
HETATM    6  C7  UNL     1       0.653  12.821  17.504  1.00  0.00     0.003 C 
HETATM    7  C8  UNL     1       0.702  11.880  16.228  1.00  0.00    -0.032 C 
HETATM    8  C9  UNL     1       1.301  12.723  15.063  1.00  0.00     0.016 C 
HETATM    9  C10 UNL     1       1.699  10.673  16.413  1.00  0.00     0.011 C 
HETATM   10  C11 UNL     1       1.810  10.052  17.817  1.00  0.00     0.011 C 
HETATM   11  C12 UNL     1       2.012  11.128  18.895  1.00  0.00    -0.032 C 
HETATM   12  C13 UNL     1       3.356  11.872  18.607  1.00  0.00     0.016 C 
HETATM   13  C14 UNL     1       2.023  10.668  20.388  1.00  0.00    -0.002 C 
HETATM   14  C23 UNL     1       1.624  11.981  21.137  1.00  0.00     0.006 C 
HETATM   15  C24 UNL     1       1.006  12.942  20.100  1.00  0.00     0.011 C 
HETATM   16  C25 UNL     1       0.735  12.057  18.869  1.00  0.00    -0.032 C 
HETATM   17  C26 UNL     1      -0.605  11.317  19.183  1.00  0.00     0.016 C 
HETATM   18  C27 UNL     1      -0.735  11.299  15.853  1.00  0.00     0.024 C 
ENDROOT
BRANCH  13  19
HETATM   19  C15 UNL     1       3.299  10.017  21.010  1.00  0.00    -0.014 C 
HETATM   20  C16 UNL     1       2.974   9.164  22.240  1.00  0.00     0.010 C 
BRANCH  19  21
HETATM   21  C17 UNL     1       4.324  11.125  21.388  1.00  0.00     0.008 C 
BRANCH  21  22
HETATM   22  C18 UNL     1       4.773  11.163  22.857  1.00  0.00     0.028 C 
BRANCH  22  23
HETATM   23  C19 UNL     1       6.255  11.359  23.013  1.00  0.00    -0.013 C 
HETATM   24  C20 UNL     1       6.940  12.520  23.060  1.00  0.00     0.008 C 
HETATM   25  C21 UNL     1       6.361  13.899  22.967  1.00  0.00     0.055 C 
BRANCH  24  26
HETATM   26  C22 UNL     1       8.413  12.407  23.227  1.00  0.00     0.171 C 
HETATM   27  O3  UNL     1       9.056  11.383  23.375  1.00  0.00    -0.646 OA
BRANCH  26  28
HETATM   28  O4  UNL     1       9.024  13.604  23.205  1.00  0.00    -0.773 OA
HETATM   29  H33 UNL     1       9.969  13.378  23.324  1.00  0.00     0.167 HD
ENDBRANCH  26  28
ENDBRANCH  24  26
ENDBRANCH  22  23
ENDBRANCH  21  22
ENDBRANCH  19  21
ENDBRANCH  13  19
BRANCH  18  30
HETATM   30  C28 UNL     1      -0.884  10.776  14.391  1.00  0.00     0.012 C 
BRANCH  30  31
HETATM   31  C29 UNL     1      -0.745   9.260  14.181  1.00  0.00     0.027 C 
BRANCH  31  32
HETATM   32  C30 UNL     1      -0.805   8.884  12.703  1.00  0.00     0.164 C 
BRANCH  32  33
HETATM   33  O5  UNL     1      -2.059   9.263  12.152  1.00  0.00    -0.401 OA
HETATM   34  H48 UNL     1      -2.048   9.002  11.216  1.00  0.00     0.209 HD
ENDBRANCH  32  33
ENDBRANCH  31  32
ENDBRANCH  30  31
ENDBRANCH  18  30
BRANCH   2  35
HETATM   35  C3  UNL     1      -3.485  10.274  16.404  1.00  0.00     0.171 C 
HETATM   36  O1  UNL     1      -4.005   9.727  15.451  1.00  0.00    -0.646 OA
BRANCH  35  37
HETATM   37  O2  UNL     1      -3.114   9.595  17.503  1.00  0.00    -0.773 OA
HETATM   38  H4  UNL     1      -3.421   8.682  17.325  1.00  0.00     0.167 HD
ENDBRANCH  35  37
ENDBRANCH   2  35
TORSDOF 12
ENDMDL
MODEL 4
REMARK minimizedAffinity -6.23966599
REMARK CNNscore 0.231298551
REMARK CNNaffinity 5.65797758
REMARK  12 active torsions:
REMARK  status: ('A' for Active; 'I' for Inactive)
REMARK    1  A    between atoms: C2_2  and  C3_3 
REMARK    2  A    between atoms: C3_3  and  O2_5 
REMARK    3  A    between atoms: C14_16  and  C15_17 
REMARK    4  A    between atoms: C15_17  and  C17_19 
REMARK    5  A    between atoms: C17_19  and  C18_20 
REMARK    6  A    between atoms: C18_20  and  C19_21 
REMARK    7  A    between atoms: C20_22  and  C22_24 
REMARK    8  A    between atoms: C22_24  and  O4_26 
REMARK    9  A    between atoms: C27_31  and  C28_32 
REMARK   10  A    between atoms: C28_32  and  C29_33 
REMARK   11  A    between atoms: C29_33  and  C30_34 
REMARK   12  A    between atoms: C30_34  and  O5_35 
ROOT
HETATM    1  C1  UNL     1      18.147  -2.951  -0.378  1.00  0.00     0.056 C 
HETATM    2  C2  UNL     1      17.655  -2.438   0.944  1.00  0.00     0.014 C 
HETATM    3  C4  UNL     1      16.360  -2.162   1.243  1.00  0.00    -0.062 C 
HETATM    4  C5  UNL     1      15.257  -2.319   0.231  1.00  0.00     0.036 C 
HETATM    5  C6  UNL     1      14.214  -3.338   0.678  1.00  0.00     0.010 C 
HETATM    6  C7  UNL     1      13.871  -3.337   2.189  1.00  0.00     0.003 C 
HETATM    7  C8  UNL     1      14.359  -2.033   2.950  1.00  0.00    -0.032 C 
HETATM    8  C9  UNL     1      13.394  -0.880   2.543  1.00  0.00     0.016 C 
HETATM    9  C10 UNL     1      14.207  -2.161   4.514  1.00  0.00     0.011 C 
HETATM   10  C11 UNL     1      14.458  -3.544   5.141  1.00  0.00     0.011 C 
HETATM   11  C12 UNL     1      13.686  -4.648   4.402  1.00  0.00    -0.032 C 
HETATM   12  C13 UNL     1      12.156  -4.351   4.525  1.00  0.00     0.016 C 
HETATM   13  C14 UNL     1      13.930  -6.126   4.844  1.00  0.00    -0.002 C 
HETATM   14  C23 UNL     1      13.526  -6.921   3.559  1.00  0.00     0.006 C 
HETATM   15  C24 UNL     1      13.504  -5.927   2.381  1.00  0.00     0.011 C 
HETATM   16  C25 UNL     1      14.226  -4.677   2.918  1.00  0.00    -0.032 C 
HETATM   17  C26 UNL     1      15.750  -5.000   2.795  1.00  0.00     0.016 C 
HETATM   18  C27 UNL     1      15.877  -1.675   2.616  1.00  0.00     0.024 C 
ENDROOT
BRANCH  13  19
HETATM   19  C15 UNL     1      13.233  -6.701   6.119  1.00  0.00    -0.014 C 
HETATM   20  C16 UNL     1      11.986  -5.901   6.507  1.00  0.00     0.010 C 
BRANCH  19  21
HETATM   21  C17 UNL     1      14.241  -6.722   7.304  1.00  0.00     0.008 C 
BRANCH  21  22
HETATM   22  C18 UNL     1      13.811  -5.972   8.574  1.00  0.00     0.028 C 
BRANCH  22  23
HETATM   23  C19 UNL     1      14.719  -4.821   8.910  1.00  0.00    -0.013 C 
HETATM   24  C20 UNL     1      15.973  -4.868   9.403  1.00  0.00     0.008 C 
HETATM   25  C21 UNL     1      16.756  -6.104   9.728  1.00  0.00     0.055 C 
BRANCH  24  26
HETATM   26  C22 UNL     1      16.637  -3.558   9.636  1.00  0.00     0.171 C 
HETATM   27  O3  UNL     1      16.273  -2.470   9.226  1.00  0.00    -0.646 OA
BRANCH  26  28
HETATM   28  O4  UNL     1      17.749  -3.673  10.383  1.00  0.00    -0.773 OA
HETATM   29  H33 UNL     1      18.071  -2.750  10.452  1.00  0.00     0.167 HD
ENDBRANCH  26  28
ENDBRANCH  24  26
ENDBRANCH  22  23
ENDBRANCH  21  22
ENDBRANCH  19  21
ENDBRANCH  13  19
BRANCH  18  30
HETATM   30  C28 UNL     1      16.297  -0.202   2.913  1.00  0.00     0.012 C 
BRANCH  30  31
HETATM   31  C29 UNL     1      17.123   0.038   4.186  1.00  0.00     0.027 C 
BRANCH  31  32
HETATM   32  C30 UNL     1      17.104   1.505   4.606  1.00  0.00     0.164 C 
BRANCH  32  33
HETATM   33  O5  UNL     1      16.357   1.661   5.804  1.00  0.00    -0.401 OA
HETATM   34  H48 UNL     1      16.372   2.607   6.028  1.00  0.00     0.209 HD
ENDBRANCH  32  33
ENDBRANCH  31  32
ENDBRANCH  30  31
ENDBRANCH  18  30
BRANCH   2  35
HETATM   35  C3  UNL     1      18.729  -2.258   1.950  1.00  0.00     0.171 C 
HETATM   36  O1  UNL     1      18.999  -2.990   2.881  1.00  0.00    -0.646 OA
BRANCH  35  37
HETATM   37  O2  UNL     1      19.418  -1.131   1.704  1.00  0.00    -0.773 OA
HETATM   38  H4  UNL     1      20.054  -1.081   2.448  1.00  0.00     0.167 HD
ENDBRANCH  35  37
ENDBRANCH   2  35
TORSDOF 12
ENDMDL
MODEL 5
REMARK minimizedAffinity -6.39458084
REMARK CNNscore 0.230214626
REMARK CNNaffinity 6.01555443
REMARK  12 active torsions:
REMARK  status: ('A' for Active; 'I' for Inactive)
REMARK    1  A    between atoms: C2_2  and  C3_3 
REMARK    2  A    between atoms: C3_3  and  O2_5 
REMARK    3  A    between atoms: C14_16  and  C15_17 
REMARK    4  A    between atoms: C15_17  and  C17_19 
REMARK    5  A    between atoms: C17_19  and  C18_20 
REMARK    6  A    between atoms: C18_20  and  C19_21 
REMARK    7  A    between atoms: C20_22  and  C22_24 
REMARK    8  A    between atoms: C22_24  and  O4_26 
REMARK    9  A    between atoms: C27_31  and  C28_32 
REMARK   10  A    between atoms: C28_32  and  C29_33 
REMARK   11  A    between atoms: C29_33  and  C30_34 
REMARK   12  A    between atoms: C30_34  and  O5_35 
ROOT
HETATM    1  C1  UNL     1      -3.827   8.502  12.919  1.00  0.00     0.056 C 
HETATM    2  C2  UNL     1      -3.350   8.498  14.342  1.00  0.00     0.014 C 
HETATM    3  C4  UNL     1      -2.429   9.349  14.861  1.00  0.00    -0.062 C 
HETATM    4  C5  UNL     1      -1.748  10.396  14.020  1.00  0.00     0.036 C 
HETATM    5  C6  UNL     1      -2.031  11.807  14.527  1.00  0.00     0.010 C 
HETATM    6  C7  UNL     1      -2.080  11.976  16.067  1.00  0.00     0.003 C 
HETATM    7  C8  UNL     1      -1.448  10.755  16.859  1.00  0.00    -0.032 C 
HETATM    8  C9  UNL     1       0.099  10.870  16.713  1.00  0.00     0.016 C 
HETATM    9  C10 UNL     1      -1.718  10.845  18.410  1.00  0.00     0.011 C 
HETATM   10  C11 UNL     1      -3.071  11.424  18.862  1.00  0.00     0.011 C 
HETATM   11  C12 UNL     1      -3.383  12.750  18.153  1.00  0.00    -0.032 C 
HETATM   12  C13 UNL     1      -2.281  13.790  18.535  1.00  0.00     0.016 C 
HETATM   13  C14 UNL     1      -4.778  13.404  18.415  1.00  0.00    -0.002 C 
HETATM   14  C23 UNL     1      -4.966  14.291  17.141  1.00  0.00     0.006 C 
HETATM   15  C24 UNL     1      -3.966  13.798  16.075  1.00  0.00     0.011 C 
HETATM   16  C25 UNL     1      -3.475  12.439  16.607  1.00  0.00    -0.032 C 
HETATM   17  C26 UNL     1      -4.596  11.420  16.222  1.00  0.00     0.016 C 
HETATM   18  C27 UNL     1      -1.986   9.351  16.330  1.00  0.00     0.024 C 
ENDROOT
BRANCH  13  19
HETATM   19  C15 UNL     1      -5.042  14.215  19.724  1.00  0.00    -0.014 C 
HETATM   20  C16 UNL     1      -3.759  14.822  20.299  1.00  0.00     0.010 C 
BRANCH  19  21
HETATM   21  C17 UNL     1      -5.718  13.297  20.783  1.00  0.00     0.008 C 
BRANCH  21  22
HETATM   22  C18 UNL     1      -7.254  13.329  20.828  1.00  0.00     0.028 C 
BRANCH  22  23
HETATM   23  C19 UNL     1      -7.800  13.335  22.229  1.00  0.00    -0.013 C 
HETATM   24  C20 UNL     1      -8.949  12.788  22.676  1.00  0.00     0.008 C 
HETATM   25  C21 UNL     1      -9.954  12.037  21.857  1.00  0.00     0.055 C 
BRANCH  24  26
HETATM   26  C22 UNL     1      -9.231  12.947  24.127  1.00  0.00     0.171 C 
HETATM   27  O3  UNL     1      -9.931  12.229  24.819  1.00  0.00    -0.646 OA
BRANCH  26  28
HETATM   28  O4  UNL     1      -8.615  14.019  24.654  1.00  0.00    -0.773 OA
HETATM   29  H33 UNL     1      -8.887  13.996  25.595  1.00  0.00     0.167 HD
ENDBRANCH  26  28
ENDBRANCH  24  26
ENDBRANCH  22  23
ENDBRANCH  21  22
ENDBRANCH  19  21
ENDBRANCH  13  19
BRANCH  18  30
HETATM   30  C28 UNL     1      -1.103   8.117  16.692  1.00  0.00     0.012 C 
BRANCH  30  31
HETATM   31  C29 UNL     1      -0.322   7.463  15.542  1.00  0.00     0.027 C 
BRANCH  31  32
HETATM   32  C30 UNL     1       1.170   7.777  15.618  1.00  0.00     0.164 C 
BRANCH  32  33
HETATM   33  O5  UNL     1       1.785   6.993  16.630  1.00  0.00    -0.401 OA
HETATM   34  H48 UNL     1       2.727   7.230  16.640  1.00  0.00     0.209 HD
ENDBRANCH  32  33
ENDBRANCH  31  32
ENDBRANCH  30  31
ENDBRANCH  18  30
BRANCH   2  35
HETATM   35  C3  UNL     1      -3.994   7.462  15.184  1.00  0.00     0.171 C 
HETATM   36  O1  UNL     1      -3.649   6.305  15.324  1.00  0.00    -0.646 OA
BRANCH  35  37
HETATM   37  O2  UNL     1      -5.062   7.971  15.821  1.00  0.00    -0.773 OA
HETATM   38  H4  UNL     1      -5.438   7.200  16.295  1.00  0.00     0.167 HD
ENDBRANCH  35  37
ENDBRANCH   2  35
TORSDOF 12
ENDMDL
MODEL 6
REMARK minimizedAffinity -5.5249567
REMARK CNNscore 0.224163234
REMARK CNNaffinity 5.42591238
REMARK  12 active torsions:
REMARK  status: ('A' for Active; 'I' for Inactive)
REMARK    1  A    between atoms: C2_2  and  C3_3 
REMARK    2  A    between atoms: C3_3  and  O2_5 
REMARK    3  A    between atoms: C14_16  and  C15_17 
REMARK    4  A    between atoms: C15_17  and  C17_19 
REMARK    5  A    between atoms: C17_19  and  C18_20 
REMARK    6  A    between atoms: C18_20  and  C19_21 
REMARK    7  A    between atoms: C20_22  and  C22_24 
REMARK    8  A    between atoms: C22_24  and  O4_26 
REMARK    9  A    between atoms: C27_31  and  C28_32 
REMARK   10  A    between atoms: C28_32  and  C29_33 
REMARK   11  A    between atoms: C29_33  and  C30_34 
REMARK   12  A    between atoms: C30_34  and  O5_35 
ROOT
HETATM    1  C1  UNL     1      10.251  13.757  18.793  1.00  0.00     0.056 C 
HETATM    2  C2  UNL     1       9.578  13.627  20.128  1.00  0.00     0.014 C 
HETATM    3  C4  UNL     1       8.505  14.351  20.538  1.00  0.00    -0.062 C 
HETATM    4  C5  UNL     1       7.885  15.416  19.673  1.00  0.00     0.036 C 
HETATM    5  C6  UNL     1       6.428  15.107  19.344  1.00  0.00     0.010 C 
HETATM    6  C7  UNL     1       5.597  14.468  20.487  1.00  0.00     0.003 C 
HETATM    7  C8  UNL     1       6.275  14.602  21.915  1.00  0.00    -0.032 C 
HETATM    8  C9  UNL     1       6.098  16.082  22.366  1.00  0.00     0.016 C 
HETATM    9  C10 UNL     1       5.530  13.749  23.012  1.00  0.00     0.011 C 
HETATM   10  C11 UNL     1       4.935  12.397  22.578  1.00  0.00     0.011 C 
HETATM   11  C12 UNL     1       4.097  12.535  21.298  1.00  0.00    -0.032 C 
HETATM   12  C13 UNL     1       2.901  13.498  21.588  1.00  0.00     0.016 C 
HETATM   13  C14 UNL     1       3.523  11.228  20.661  1.00  0.00    -0.002 C 
HETATM   14  C23 UNL     1       3.317  11.655  19.171  1.00  0.00     0.006 C 
HETATM   15  C24 UNL     1       4.140  12.938  18.933  1.00  0.00     0.011 C 
HETATM   16  C25 UNL     1       5.070  13.031  20.157  1.00  0.00    -0.032 C 
HETATM   17  C26 UNL     1       6.251  12.054  19.849  1.00  0.00     0.016 C 
HETATM   18  C27 UNL     1       7.810  14.173  21.894  1.00  0.00     0.024 C 
ENDROOT
BRANCH  13  19
HETATM   19  C15 UNL     1       2.242  10.554  21.248  1.00  0.00    -0.014 C 
HETATM   20  C16 UNL     1       2.553   9.219  21.933  1.00  0.00     0.010 C 
BRANCH  19  21
HETATM   21  C17 UNL     1       1.195  10.340  20.117  1.00  0.00     0.008 C 
BRANCH  21  22
HETATM   22  C18 UNL     1       0.133  11.440  19.960  1.00  0.00     0.028 C 
BRANCH  22  23
HETATM   23  C19 UNL     1      -1.109  10.960  19.260  1.00  0.00    -0.013 C 
HETATM   24  C20 UNL     1      -1.320  10.837  17.934  1.00  0.00     0.008 C 
HETATM   25  C21 UNL     1      -0.343  11.155  16.844  1.00  0.00     0.055 C 
BRANCH  24  26
HETATM   26  C22 UNL     1      -2.657  10.327  17.527  1.00  0.00     0.171 C 
HETATM   27  O3  UNL     1      -3.086  10.226  16.392  1.00  0.00    -0.646 OA
BRANCH  26  28
HETATM   28  O4  UNL     1      -3.409   9.964  18.580  1.00  0.00    -0.773 OA
HETATM   29  H33 UNL     1      -4.242   9.656  18.167  1.00  0.00     0.167 HD
ENDBRANCH  26  28
ENDBRANCH  24  26
ENDBRANCH  22  23
ENDBRANCH  21  22
ENDBRANCH  19  21
ENDBRANCH  13  19
BRANCH  18  30
HETATM   30  C28 UNL     1       8.669  14.704  23.084  1.00  0.00     0.012 C 
BRANCH  30  31
HETATM   31  C29 UNL     1       9.319  16.084  22.906  1.00  0.00     0.027 C 
BRANCH  31  32
HETATM   32  C30 UNL     1       9.431  16.834  24.230  1.00  0.00     0.164 C 
BRANCH  32  33
HETATM   33  O5  UNL     1      10.021  18.109  24.023  1.00  0.00    -0.401 OA
HETATM   34  H48 UNL     1      10.072  18.544  24.891  1.00  0.00     0.209 HD
ENDBRANCH  32  33
ENDBRANCH  31  32
ENDBRANCH  30  31
ENDBRANCH  18  30
BRANCH   2  35
HETATM   35  C3  UNL     1      10.185  12.596  21.004  1.00  0.00     0.171 C 
HETATM   36  O1  UNL     1       9.611  11.839  21.762  1.00  0.00    -0.646 OA
BRANCH  35  37
HETATM   37  O2  UNL     1      11.521  12.583  20.856  1.00  0.00    -0.773 OA
HETATM   38  H4  UNL     1      11.819  11.917  21.511  1.00  0.00     0.167 HD
ENDBRANCH  35  37
ENDBRANCH   2  35
TORSDOF 12
ENDMDL
MODEL 7
REMARK minimizedAffinity -6.49781179
REMARK CNNscore 0.220922396
REMARK CNNaffinity 6.07023382
REMARK  12 active torsions:
REMARK  status: ('A' for Active; 'I' for Inactive)
REMARK    1  A    between atoms: C2_2  and  C3_3 
REMARK    2  A    between atoms: C3_3  and  O2_5 
REMARK    3  A    between atoms: C14_16  and  C15_17 
REMARK    4  A    between atoms: C15_17  and  C17_19 
REMARK    5  A    between atoms: C17_19  and  C18_20 
REMARK    6  A    between atoms: C18_20  and  C19_21 
REMARK    7  A    between atoms: C20_22  and  C22_24 
REMARK    8  A    between atoms: C22_24  and  O4_26 
REMARK    9  A    between atoms: C27_31  and  C28_32 
REMARK   10  A    between atoms: C28_32  and  C29_33 
REMARK   11  A    between atoms: C29_33  and  C30_34 
REMARK   12  A    between atoms: C30_34  and  O5_35 
ROOT
HETATM    1  C1  UNL     1      -2.777  15.344  15.649  1.00  0.00     0.056 C 
HETATM    2  C2  UNL     1      -2.016  14.259  16.354  1.00  0.00     0.014 C 
HETATM    3  C4  UNL     1      -2.568  13.147  16.905  1.00  0.00    -0.062 C 
HETATM    4  C5  UNL     1      -4.053  12.903  16.889  1.00  0.00     0.036 C 
HETATM    5  C6  UNL     1      -4.414  11.626  16.137  1.00  0.00     0.010 C 
HETATM    6  C7  UNL     1      -3.444  10.431  16.328  1.00  0.00     0.003 C 
HETATM    7  C8  UNL     1      -2.465  10.600  17.566  1.00  0.00    -0.032 C 
HETATM    8  C9  UNL     1      -3.311  10.356  18.851  1.00  0.00     0.016 C 
HETATM    9  C10 UNL     1      -1.345   9.492  17.597  1.00  0.00     0.011 C 
HETATM   10  C11 UNL     1      -0.783   9.011  16.247  1.00  0.00     0.011 C 
HETATM   11  C12 UNL     1      -1.908   8.655  15.263  1.00  0.00    -0.032 C 
HETATM   12  C13 UNL     1      -2.742   7.479  15.866  1.00  0.00     0.016 C 
HETATM   13  C14 UNL     1      -1.502   8.265  13.805  1.00  0.00    -0.002 C 
HETATM   14  C23 UNL     1      -2.806   8.588  13.006  1.00  0.00     0.006 C 
HETATM   15  C24 UNL     1      -3.681   9.503  13.887  1.00  0.00     0.011 C 
HETATM   16  C25 UNL     1      -2.736   9.976  15.007  1.00  0.00    -0.032 C 
HETATM   17  C26 UNL     1      -1.907  11.143  14.379  1.00  0.00     0.016 C 
HETATM   18  C27 UNL     1      -1.764  12.032  17.587  1.00  0.00     0.024 C 
ENDROOT
BRANCH  13  19
HETATM   19  C15 UNL     1      -0.972   6.830  13.485  1.00  0.00    -0.014 C 
HETATM   20  C16 UNL     1       0.489   6.842  13.025  1.00  0.00     0.010 C 
BRANCH  19  21
HETATM   21  C17 UNL     1      -1.867   6.169  12.398  1.00  0.00     0.008 C 
BRANCH  21  22
HETATM   22  C18 UNL     1      -2.658   4.926  12.833  1.00  0.00     0.028 C 
BRANCH  22  23
HETATM   23  C19 UNL     1      -2.034   3.640  12.366  1.00  0.00    -0.013 C 
HETATM   24  C20 UNL     1      -2.166   3.041  11.165  1.00  0.00     0.008 C 
HETATM   25  C21 UNL     1      -2.980   3.536  10.008  1.00  0.00     0.055 C 
BRANCH  24  26
HETATM   26  C22 UNL     1      -1.422   1.767  10.982  1.00  0.00     0.171 C 
HETATM   27  O3  UNL     1      -0.222   1.638  10.818  1.00  0.00    -0.646 OA
BRANCH  26  28
HETATM   28  O4  UNL     1      -2.230   0.693  11.009  1.00  0.00    -0.773 OA
HETATM   29  H33 UNL     1      -1.613  -0.057  10.878  1.00  0.00     0.167 HD
ENDBRANCH  26  28
ENDBRANCH  24  26
ENDBRANCH  22  23
ENDBRANCH  21  22
ENDBRANCH  19  21
ENDBRANCH  13  19
BRANCH  18  30
HETATM   30  C28 UNL     1      -1.181  12.470  18.966  1.00  0.00     0.012 C 
BRANCH  30  31
HETATM   31  C29 UNL     1       0.324  12.247  19.183  1.00  0.00     0.027 C 
BRANCH  31  32
HETATM   32  C30 UNL     1       0.593  11.124  20.181  1.00  0.00     0.164 C 
BRANCH  32  33
HETATM   33  O5  UNL     1       1.598  10.254  19.679  1.00  0.00    -0.401 OA
HETATM   34  H48 UNL     1       1.731   9.559  20.345  1.00  0.00     0.209 HD
ENDBRANCH  32  33
ENDBRANCH  31  32
ENDBRANCH  30  31
ENDBRANCH  18  30
BRANCH   2  35
HETATM   35  C3  UNL     1      -0.553  14.489  16.398  1.00  0.00     0.171 C 
HETATM   36  O1  UNL     1       0.300  13.955  15.716  1.00  0.00    -0.646 OA
BRANCH  35  37
HETATM   37  O2  UNL     1      -0.251  15.413  17.326  1.00  0.00    -0.773 OA
HETATM   38  H4  UNL     1       0.728  15.446  17.310  1.00  0.00     0.167 HD
ENDBRANCH  35  37
ENDBRANCH   2  35
TORSDOF 12
ENDMDL
MODEL 8
REMARK minimizedAffinity -6.06905603
REMARK CNNscore 0.207108155
REMARK CNNaffinity 5.17348289
REMARK  12 active torsions:
REMARK  status: ('A' for Active; 'I' for Inactive)
REMARK    1  A    between atoms: C2_2  and  C3_3 
REMARK    2  A    between atoms: C3_3  and  O2_5 
REMARK    3  A    between atoms: C14_16  and  C15_17 
REMARK    4  A    between atoms: C15_17  and  C17_19 
REMARK    5  A    between atoms: C17_19  and  C18_20 
REMARK    6  A    between atoms: C18_20  and  C19_21 
REMARK    7  A    between atoms: C20_22  and  C22_24 
REMARK    8  A    between atoms: C22_24  and  O4_26 
REMARK    9  A    between atoms: C27_31  and  C28_32 
REMARK   10  A    between atoms: C28_32  and  C29_33 
REMARK   11  A    between atoms: C29_33  and  C30_34 
REMARK   12  A    between atoms: C30_34  and  O5_35 
ROOT
HETATM    1  C1  UNL     1      -1.999  17.051  18.164  1.00  0.00     0.056 C 
HETATM    2  C2  UNL     1      -2.171  15.582  18.420  1.00  0.00     0.014 C 
HETATM    3  C4  UNL     1      -1.497  14.592  17.780  1.00  0.00    -0.062 C 
HETATM    4  C5  UNL     1      -0.500  14.883  16.690  1.00  0.00     0.036 C 
HETATM    5  C6  UNL     1       0.897  14.386  17.047  1.00  0.00     0.010 C 
HETATM    6  C7  UNL     1       0.963  13.035  17.803  1.00  0.00     0.003 C 
HETATM    7  C8  UNL     1      -0.388  12.204  17.736  1.00  0.00    -0.032 C 
HETATM    8  C9  UNL     1      -0.483  11.606  16.301  1.00  0.00     0.016 C 
HETATM    9  C10 UNL     1      -0.371  10.956  18.699  1.00  0.00     0.011 C 
HETATM   10  C11 UNL     1       0.361  11.108  20.045  1.00  0.00     0.011 C 
HETATM   11  C12 UNL     1       1.765  11.704  19.861  1.00  0.00    -0.032 C 
HETATM   12  C13 UNL     1       2.608  10.726  18.980  1.00  0.00     0.016 C 
HETATM   13  C14 UNL     1       2.589  12.032  21.147  1.00  0.00    -0.002 C 
HETATM   14  C23 UNL     1       3.581  13.124  20.628  1.00  0.00     0.006 C 
HETATM   15  C24 UNL     1       3.028  13.662  19.292  1.00  0.00     0.011 C 
HETATM   16  C25 UNL     1       1.579  13.144  19.239  1.00  0.00    -0.032 C 
HETATM   17  C26 UNL     1       0.758  14.129  20.133  1.00  0.00     0.016 C 
HETATM   18  C27 UNL     1      -1.661  13.098  18.086  1.00  0.00     0.024 C 
ENDROOT
BRANCH  13  19
HETATM   19  C15 UNL     1       3.335  10.901  21.923  1.00  0.00    -0.014 C 
HETATM   20  C16 UNL     1       2.950  10.863  23.405  1.00  0.00     0.010 C 
BRANCH  19  21
HETATM   21  C17 UNL     1       4.873  11.089  21.778  1.00  0.00     0.008 C 
BRANCH  21  22
HETATM   22  C18 UNL     1       5.654  11.322  23.081  1.00  0.00     0.028 C 
BRANCH  22  23
HETATM   23  C19 UNL     1       6.362  12.648  23.111  1.00  0.00    -0.013 C 
HETATM   24  C20 UNL     1       7.690  12.881  23.133  1.00  0.00     0.008 C 
HETATM   25  C21 UNL     1       8.775  11.847  23.130  1.00  0.00     0.055 C 
BRANCH  24  26
HETATM   26  C22 UNL     1       8.107  14.308  23.155  1.00  0.00     0.171 C 
HETATM   27  O3  UNL     1       7.903  15.143  22.292  1.00  0.00    -0.646 OA
BRANCH  26  28
HETATM   28  O4  UNL     1       8.775  14.629  24.276  1.00  0.00    -0.773 OA
HETATM   29  H33 UNL     1       8.981  15.578  24.153  1.00  0.00     0.167 HD
ENDBRANCH  26  28
ENDBRANCH  24  26
ENDBRANCH  22  23
ENDBRANCH  21  22
ENDBRANCH  19  21
ENDBRANCH  13  19
BRANCH  18  30
HETATM   30  C28 UNL     1      -3.030  12.531  17.597  1.00  0.00     0.012 C 
BRANCH  30  31
HETATM   31  C29 UNL     1      -3.271  11.028  17.804  1.00  0.00     0.027 C 
BRANCH  31  32
HETATM   32  C30 UNL     1      -3.638  10.327  16.499  1.00  0.00     0.164 C 
BRANCH  32  33
HETATM   33  O5  UNL     1      -3.969   8.969  16.749  1.00  0.00    -0.401 OA
HETATM   34  H48 UNL     1      -4.191   8.568  15.892  1.00  0.00     0.209 HD
ENDBRANCH  32  33
ENDBRANCH  31  32
ENDBRANCH  30  31
ENDBRANCH  18  30
BRANCH   2  35
HETATM   35  C3  UNL     1      -3.162  15.273  19.477  1.00  0.00     0.171 C 
HETATM   36  O1  UNL     1      -2.940  14.992  20.639  1.00  0.00    -0.646 OA
BRANCH  35  37
HETATM   37  O2  UNL     1      -4.411  15.347  18.986  1.00  0.00    -0.773 OA
HETATM   38  H4  UNL     1      -4.973  15.073  19.740  1.00  0.00     0.167 HD
ENDBRANCH  35  37
ENDBRANCH   2  35
TORSDOF 12
ENDMDL
MODEL 9
REMARK minimizedAffinity -6.2754221
REMARK CNNscore 0.199749902
REMARK CNNaffinity 5.60499716
REMARK  12 active torsions:
REMARK  status: ('A' for Active; 'I' for Inactive)
REMARK    1  A    between atoms: C2_2  and  C3_3 
REMARK    2  A    between atoms: C3_3  and  O2_5 
REMARK    3  A    between atoms: C14_16  and  C15_17 
REMARK    4  A    between atoms: C15_17  and  C17_19 
REMARK    5  A    between atoms: C17_19  and  C18_20 
REMARK    6  A    between atoms: C18_20  and  C19_21 
REMARK    7  A    between atoms: C20_22  and  C22_24 
REMARK    8  A    between atoms: C22_24  and  O4_26 
REMARK    9  A    between atoms: C27_31  and  C28_32 
REMARK   10  A    between atoms: C28_32  and  C29_33 
REMARK   11  A    between atoms: C29_33  and  C30_34 
REMARK   12  A    between atoms: C30_34  and  O5_35 
ROOT
HETATM    1  C1  UNL     1      -3.855  12.671  17.754  1.00  0.00     0.056 C 
HETATM    2  C2  UNL     1      -2.754  11.667  17.572  1.00  0.00     0.014 C 
HETATM    3  C4  UNL     1      -1.515  11.943  17.090  1.00  0.00    -0.062 C 
HETATM    4  C5  UNL     1      -1.122  13.327  16.647  1.00  0.00     0.036 C 
HETATM    5  C6  UNL     1       0.044  13.877  17.463  1.00  0.00     0.010 C 
HETATM    6  C7  UNL     1       1.145  12.855  17.845  1.00  0.00     0.003 C 
HETATM    7  C8  UNL     1       1.081  11.510  17.005  1.00  0.00    -0.032 C 
HETATM    8  C9  UNL     1       1.622  11.837  15.581  1.00  0.00     0.016 C 
HETATM    9  C10 UNL     1       2.055  10.407  17.569  1.00  0.00     0.011 C 
HETATM   10  C11 UNL     1       2.244  10.339  19.095  1.00  0.00     0.011 C 
HETATM   11  C12 UNL     1       2.549  11.723  19.688  1.00  0.00    -0.032 C 
HETATM   12  C13 UNL     1       3.889  12.242  19.075  1.00  0.00     0.016 C 
HETATM   13  C14 UNL     1       2.648  11.842  21.243  1.00  0.00    -0.002 C 
HETATM   14  C23 UNL     1       2.336  13.357  21.474  1.00  0.00     0.006 C 
HETATM   15  C24 UNL     1       1.676  13.901  20.191  1.00  0.00     0.011 C 
HETATM   16  C25 UNL     1       1.298  12.641  19.389  1.00  0.00    -0.032 C 
HETATM   17  C26 UNL     1      -0.037  12.135  20.025  1.00  0.00     0.016 C 
HETATM   18  C27 UNL     1      -0.393  10.906  16.948  1.00  0.00     0.024 C 
ENDROOT
BRANCH  13  19
HETATM   19  C15 UNL     1       3.946  11.402  21.992  1.00  0.00    -0.014 C 
HETATM   20  C16 UNL     1       3.698  10.219  22.934  1.00  0.00     0.010 C 
BRANCH  19  21
HETATM   21  C17 UNL     1       4.527  12.605  22.790  1.00  0.00     0.008 C 
BRANCH  21  22
HETATM   22  C18 UNL     1       6.016  12.520  23.158  1.00  0.00     0.028 C 
BRANCH  22  23
HETATM   23  C19 UNL     1       6.906  12.327  21.961  1.00  0.00    -0.013 C 
HETATM   24  C20 UNL     1       8.254  12.320  21.919  1.00  0.00     0.008 C 
HETATM   25  C21 UNL     1       9.181  12.504  23.082  1.00  0.00     0.055 C 
BRANCH  24  26
HETATM   26  C22 UNL     1       8.869  12.100  20.583  1.00  0.00     0.171 C 
HETATM   27  O3  UNL     1       8.451  12.500  19.511  1.00  0.00    -0.646 OA
BRANCH  26  28
HETATM   28  O4  UNL     1       9.998  11.374  20.653  1.00  0.00    -0.773 OA
HETATM   29  H33 UNL     1      10.284  11.312  19.718  1.00  0.00     0.167 HD
ENDBRANCH  26  28
ENDBRANCH  24  26
ENDBRANCH  22  23
ENDBRANCH  21  22
ENDBRANCH  19  21
ENDBRANCH  13  19
BRANCH  18  30
HETATM   30  C28 UNL     1      -0.656   9.891  15.793  1.00  0.00     0.012 C 
BRANCH  30  31
HETATM   31  C29 UNL     1      -0.644   8.400  16.164  1.00  0.00     0.027 C 
BRANCH  31  32
HETATM   32  C30 UNL     1       0.541   7.669  15.539  1.00  0.00     0.164 C 
BRANCH  32  33
HETATM   33  O5  UNL     1       1.346   7.084  16.552  1.00  0.00    -0.401 OA
HETATM   34  H48 UNL     1       2.083   6.635  16.106  1.00  0.00     0.209 HD
ENDBRANCH  32  33
ENDBRANCH  31  32
ENDBRANCH  30  31
ENDBRANCH  18  30
BRANCH   2  35
HETATM   35  C3  UNL     1      -3.126  10.293  17.984  1.00  0.00     0.171 C 
HETATM   36  O1  UNL     1      -2.846   9.733  19.025  1.00  0.00    -0.646 OA
BRANCH  35  37
HETATM   37  O2  UNL     1      -3.858   9.698  17.026  1.00  0.00    -0.773 OA
HETATM   38  H4  UNL     1      -3.998   8.791  17.372  1.00  0.00     0.167 HD
ENDBRANCH  35  37
ENDBRANCH   2  35
TORSDOF 12
ENDMDL
