MODEL 1
REMARK minimizedAffinity -10.348011
REMARK  5 active torsions:
REMARK  status: ('A' for Active; 'I' for Inactive)
REMARK    1  A    between atoms: N1_2  and  C2_3 
REMARK    2  A    between atoms: C4_5  and  N3_29 
REMARK    3  A    between atoms: C5_7  and  N2_12 
REMARK    4  A    between atoms: C7_9  and  O2_10 
REMARK    5  A    between atoms: C28_35  and  O4_36 
ROOT
HETATM    1  C2  UNL     1       9.238  -9.366  25.095  1.00  0.00     0.257 C 
HETATM    2  C3  UNL     1       8.241  -9.103  26.230  1.00  0.00     0.092 C 
HETATM    3  C4  UNL     1       8.812  -9.476  27.603  1.00  0.00     0.234 C 
HETATM    4  O1  UNL     1      10.065 -10.152  27.559  1.00  0.00    -0.333 OA
HETATM    5  C5  UNL     1      11.123  -9.568  26.759  1.00  0.00     0.168 C 
HETATM    6  C6  UNL     1      11.844 -10.855  26.295  1.00  0.00     0.074 C 
HETATM    7  C7  UNL     1      10.607  -8.780  25.508  1.00  0.00     0.209 C 
ENDROOT
BRANCH   1   8
HETATM    8  N1  UNL     1       8.812  -8.765  23.813  1.00  0.00     0.086 N 
HETATM    9  C1  UNL     1       9.627  -9.170  22.677  1.00  0.00     0.307 C 
HETATM   10  H4  UNL     1       7.834  -9.017  23.644  1.00  0.00     0.316 HD
ENDBRANCH   1   8
BRANCH   7  11
HETATM   11  O2  UNL     1      10.375  -7.380  25.789  1.00  0.00    -0.384 OA
HETATM   12  C8  UNL     1      11.559  -6.681  26.152  1.00  0.00     0.202 C 
ENDBRANCH   7  11
BRANCH   3  13
HETATM   13  N3  UNL     1       8.837  -8.400  28.589  1.00  0.00    -0.316 N 
HETATM   14  C24 UNL     1       9.973  -7.971  29.260  1.00  0.00     0.048 A 
HETATM   15  C19 UNL     1       9.616  -6.834  30.002  1.00  0.00     0.004 A 
HETATM   16  C23 UNL     1      11.284  -8.483  29.265  1.00  0.00     0.030 A 
HETATM   17  C18 UNL     1       8.229  -6.585  29.770  1.00  0.00     0.022 A 
HETATM   18  C20 UNL     1      10.617  -6.203  30.772  1.00  0.00     0.014 A 
HETATM   19  C17 UNL     1       7.238  -5.666  30.145  1.00  0.00     0.057 A 
HETATM   20  C25 UNL     1       7.797  -7.585  28.914  1.00  0.00     0.077 A 
HETATM   21  C16 UNL     1       5.872  -5.716  29.725  1.00  0.00     0.020 A 
HETATM   22  C27 UNL     1       7.371  -4.493  31.021  1.00  0.00     0.255 A 
HETATM   23  C15 UNL     1       5.391  -6.732  28.883  1.00  0.00     0.017 A 
HETATM   24  C28 UNL     1       5.125  -4.588  30.375  1.00  0.00     0.257 A 
HETATM   25  C14 UNL     1       4.138  -7.125  28.341  1.00  0.00     0.004 A 
HETATM   26  C26 UNL     1       6.310  -7.665  28.453  1.00  0.00     0.077 A 
HETATM   27  C9  UNL     1       4.334  -8.323  27.627  1.00  0.00     0.049 A 
HETATM   28  C13 UNL     1       2.837  -6.584  28.438  1.00  0.00     0.014 A 
HETATM   29  N2  UNL     1       5.701  -8.602  27.656  1.00  0.00    -0.308 N 
HETATM   30  C10 UNL     1       3.234  -9.000  27.066  1.00  0.00     0.030 A 
HETATM   31  C11 UNL     1       1.956  -8.442  27.182  1.00  0.00     0.002 A 
HETATM   32  C12 UNL     1       1.758  -7.243  27.850  1.00  0.00     0.001 A 
HETATM   33  N4  UNL     1       6.141  -3.882  31.075  1.00  0.00    -0.326 N 
HETATM   34  H24 UNL     1       5.973  -3.073  31.654  1.00  0.00     0.165 HD
HETATM   35  O3  UNL     1       8.364  -4.106  31.601  1.00  0.00    -0.268 OA
HETATM   36  C21 UNL     1      11.921  -6.709  30.784  1.00  0.00     0.001 A 
HETATM   37  C22 UNL     1      12.248  -7.834  30.039  1.00  0.00     0.002 A 
BRANCH  24  38
HETATM   38  O4  UNL     1       4.570  -3.685  29.453  1.00  0.00    -0.372 OA
HETATM   39  H26 UNL     1       5.203  -3.627  28.718  1.00  0.00     0.212 HD
ENDBRANCH  24  38
ENDBRANCH   3  13
TORSDOF 5
ENDMDL
MODEL 2
REMARK minimizedAffinity -10.0613956
REMARK  5 active torsions:
REMARK  status: ('A' for Active; 'I' for Inactive)
REMARK    1  A    between atoms: N1_2  and  C2_3 
REMARK    2  A    between atoms: C4_5  and  N3_29 
REMARK    3  A    between atoms: C5_7  and  N2_12 
REMARK    4  A    between atoms: C7_9  and  O2_10 
REMARK    5  A    between atoms: C28_35  and  O4_36 
ROOT
HETATM    1  C2  UNL     1      11.410  -3.796  33.339  1.00  0.00     0.257 C 
HETATM    2  C3  UNL     1      11.643  -4.842  32.241  1.00  0.00     0.092 C 
HETATM    3  C4  UNL     1      10.515  -5.879  32.178  1.00  0.00     0.234 C 
HETATM    4  O1  UNL     1       9.572  -5.794  33.243  1.00  0.00    -0.333 OA
HETATM    5  C5  UNL     1       8.995  -4.497  33.535  1.00  0.00     0.168 C 
HETATM    6  C6  UNL     1       8.808  -4.630  35.064  1.00  0.00     0.074 C 
HETATM    7  C7  UNL     1       9.952  -3.296  33.231  1.00  0.00     0.209 C 
ENDROOT
BRANCH   1   8
HETATM    8  N1  UNL     1      12.334  -2.647  33.235  1.00  0.00     0.086 N 
HETATM    9  C1  UNL     1      12.092  -1.803  32.074  1.00  0.00     0.307 C 
HETATM   10  H4  UNL     1      12.258  -2.090  34.091  1.00  0.00     0.316 HD
ENDBRANCH   1   8
BRANCH   7  11
HETATM   11  O2  UNL     1       9.801  -2.792  31.883  1.00  0.00    -0.384 OA
HETATM   12  C8  UNL     1       8.736  -1.858  31.754  1.00  0.00     0.202 C 
ENDBRANCH   7  11
BRANCH   3  13
HETATM   13  N3  UNL     1       9.836  -5.996  30.892  1.00  0.00    -0.316 N 
HETATM   14  C24 UNL     1       8.520  -5.623  30.659  1.00  0.00     0.048 A 
HETATM   15  C19 UNL     1       8.288  -5.750  29.279  1.00  0.00     0.004 A 
HETATM   16  C23 UNL     1       7.521  -5.176  31.544  1.00  0.00     0.030 A 
HETATM   17  C18 UNL     1       9.498  -6.216  28.679  1.00  0.00     0.022 A 
HETATM   18  C20 UNL     1       7.007  -5.417  28.788  1.00  0.00     0.014 A 
HETATM   19  C17 UNL     1       9.995  -6.544  27.409  1.00  0.00     0.057 A 
HETATM   20  C25 UNL     1      10.406  -6.368  29.714  1.00  0.00     0.077 A 
HETATM   21  C16 UNL     1      11.317  -7.020  27.145  1.00  0.00     0.020 A 
HETATM   22  C27 UNL     1       9.299  -6.479  26.116  1.00  0.00     0.255 A 
HETATM   23  C15 UNL     1      12.254  -7.218  28.172  1.00  0.00     0.017 A 
HETATM   24  C28 UNL     1      11.445  -7.300  25.675  1.00  0.00     0.257 A 
HETATM   25  C14 UNL     1      13.577  -7.723  28.287  1.00  0.00     0.004 A 
HETATM   26  C26 UNL     1      11.848  -6.898  29.449  1.00  0.00     0.077 A 
HETATM   27  C9  UNL     1      13.917  -7.733  29.654  1.00  0.00     0.049 A 
HETATM   28  C13 UNL     1      14.502  -8.219  27.342  1.00  0.00     0.014 A 
HETATM   29  N2  UNL     1      12.853  -7.154  30.348  1.00  0.00    -0.308 N 
HETATM   30  C10 UNL     1      15.143  -8.284  30.074  1.00  0.00     0.030 A 
HETATM   31  C11 UNL     1      16.037  -8.772  29.115  1.00  0.00     0.002 A 
HETATM   32  C12 UNL     1      15.728  -8.731  27.764  1.00  0.00     0.001 A 
HETATM   33  N4  UNL     1      10.194  -6.874  25.150  1.00  0.00    -0.326 N 
HETATM   34  H24 UNL     1       9.930  -6.952  24.179  1.00  0.00     0.165 HD
HETATM   35  O3  UNL     1       8.152  -6.143  25.903  1.00  0.00    -0.268 OA
HETATM   36  C21 UNL     1       6.009  -4.975  29.664  1.00  0.00     0.001 A 
HETATM   37  C22 UNL     1       6.266  -4.857  31.023  1.00  0.00     0.002 A 
BRANCH  24  38
HETATM   38  O4  UNL     1      12.431  -6.522  25.046  1.00  0.00    -0.372 OA
HETATM   39  H26 UNL     1      12.409  -5.654  25.481  1.00  0.00     0.212 HD
ENDBRANCH  24  38
ENDBRANCH   3  13
TORSDOF 5
ENDMDL
MODEL 3
REMARK minimizedAffinity -9.70677757
REMARK  5 active torsions:
REMARK  status: ('A' for Active; 'I' for Inactive)
REMARK    1  A    between atoms: N1_2  and  C2_3 
REMARK    2  A    between atoms: C4_5  and  N3_29 
REMARK    3  A    between atoms: C5_7  and  N2_12 
REMARK    4  A    between atoms: C7_9  and  O2_10 
REMARK    5  A    between atoms: C28_35  and  O4_36 
ROOT
HETATM    1  C2  UNL     1      10.541  -7.682  25.965  1.00  0.00     0.257 C 
HETATM    2  C3  UNL     1       9.179  -8.064  26.557  1.00  0.00     0.092 C 
HETATM    3  C4  UNL     1       9.225  -8.195  28.084  1.00  0.00     0.234 C 
HETATM    4  O1  UNL     1      10.533  -8.121  28.646  1.00  0.00    -0.333 OA
HETATM    5  C5  UNL     1      11.379  -7.013  28.249  1.00  0.00     0.168 C 
HETATM    6  C6  UNL     1      12.762  -7.701  28.313  1.00  0.00     0.074 C 
HETATM    7  C7  UNL     1      11.116  -6.509  26.790  1.00  0.00     0.209 C 
ENDROOT
BRANCH   1   8
HETATM    8  N1  UNL     1      10.453  -7.288  24.543  1.00  0.00     0.086 N 
HETATM    9  C1  UNL     1      10.356  -8.415  23.628  1.00  0.00     0.307 C 
HETATM   10  H4  UNL     1       9.642  -6.674  24.425  1.00  0.00     0.316 HD
ENDBRANCH   1   8
BRANCH   7  11
HETATM   11  O2  UNL     1      10.124  -5.457  26.735  1.00  0.00    -0.384 OA
HETATM   12  C8  UNL     1      10.621  -4.199  27.175  1.00  0.00     0.202 C 
ENDBRANCH   7  11
BRANCH   3  13
HETATM   13  N3  UNL     1       8.296  -7.344  28.820  1.00  0.00    -0.316 N 
HETATM   14  C24 UNL     1       8.674  -6.342  29.702  1.00  0.00     0.048 A 
HETATM   15  C19 UNL     1       7.507  -5.662  30.086  1.00  0.00     0.004 A 
HETATM   16  C23 UNL     1       9.944  -5.973  30.183  1.00  0.00     0.030 A 
HETATM   17  C18 UNL     1       6.407  -6.280  29.418  1.00  0.00     0.022 A 
HETATM   18  C20 UNL     1       7.635  -4.580  30.985  1.00  0.00     0.014 A 
HETATM   19  C17 UNL     1       5.015  -6.142  29.312  1.00  0.00     0.057 A 
HETATM   20  C25 UNL     1       6.943  -7.317  28.672  1.00  0.00     0.077 A 
HETATM   21  C16 UNL     1       4.164  -6.983  28.529  1.00  0.00     0.020 A 
HETATM   22  C27 UNL     1       4.149  -5.145  29.958  1.00  0.00     0.255 A 
HETATM   23  C15 UNL     1       4.669  -8.063  27.785  1.00  0.00     0.017 A 
HETATM   24  C28 UNL     1       2.742  -6.540  28.714  1.00  0.00     0.257 A 
HETATM   25  C14 UNL     1       4.139  -9.109  26.983  1.00  0.00     0.004 A 
HETATM   26  C26 UNL     1       6.034  -8.253  27.820  1.00  0.00     0.077 A 
HETATM   27  C9  UNL     1       5.210  -9.935  26.590  1.00  0.00     0.049 A 
HETATM   28  C13 UNL     1       2.825  -9.451  26.596  1.00  0.00     0.014 A 
HETATM   29  N2  UNL     1       6.382  -9.346  27.066  1.00  0.00    -0.308 N 
HETATM   30  C10 UNL     1       4.963 -11.117  25.867  1.00  0.00     0.030 A 
HETATM   31  C11 UNL     1       3.649 -11.433  25.501  1.00  0.00     0.002 A 
HETATM   32  C12 UNL     1       2.592 -10.606  25.850  1.00  0.00     0.001 A 
HETATM   33  N4  UNL     1       2.863  -5.388  29.538  1.00  0.00    -0.326 N 
HETATM   34  H24 UNL     1       2.079  -4.854  29.885  1.00  0.00     0.165 HD
HETATM   35  O3  UNL     1       4.474  -4.259  30.721  1.00  0.00    -0.268 OA
HETATM   36  C21 UNL     1       8.894  -4.211  31.469  1.00  0.00     0.001 A 
HETATM   37  C22 UNL     1      10.032  -4.900  31.072  1.00  0.00     0.002 A 
BRANCH  24  38
HETATM   38  O4  UNL     1       2.131  -6.119  27.522  1.00  0.00    -0.372 OA
HETATM   39  H26 UNL     1       2.825  -5.676  27.005  1.00  0.00     0.212 HD
ENDBRANCH  24  38
ENDBRANCH   3  13
TORSDOF 5
ENDMDL
MODEL 4
REMARK minimizedAffinity -9.39344692
REMARK  5 active torsions:
REMARK  status: ('A' for Active; 'I' for Inactive)
REMARK    1  A    between atoms: N1_2  and  C2_3 
REMARK    2  A    between atoms: C4_5  and  N3_29 
REMARK    3  A    between atoms: C5_7  and  N2_12 
REMARK    4  A    between atoms: C7_9  and  O2_10 
REMARK    5  A    between atoms: C28_35  and  O4_36 
ROOT
HETATM    1  C2  UNL     1      11.316 -10.177  27.840  1.00  0.00     0.257 C 
HETATM    2  C3  UNL     1      10.026 -10.197  28.671  1.00  0.00     0.092 C 
HETATM    3  C4  UNL     1       9.644  -8.804  29.185  1.00  0.00     0.234 C 
HETATM    4  O1  UNL     1      10.629  -7.799  28.959  1.00  0.00    -0.333 OA
HETATM    5  C5  UNL     1      11.169  -7.668  27.621  1.00  0.00     0.168 C 
HETATM    6  C6  UNL     1      12.608  -7.217  27.960  1.00  0.00     0.074 C 
HETATM    7  C7  UNL     1      11.219  -9.016  26.825  1.00  0.00     0.209 C 
ENDROOT
BRANCH   1   8
HETATM    8  N1  UNL     1      11.547 -11.445  27.117  1.00  0.00     0.086 N 
HETATM    9  C1  UNL     1      11.562 -12.617  27.981  1.00  0.00     0.307 C 
HETATM   10  H4  UNL     1      10.821 -11.550  26.403  1.00  0.00     0.316 HD
ENDBRANCH   1   8
BRANCH   7  11
HETATM   11  O2  UNL     1      10.017  -9.254  26.057  1.00  0.00    -0.384 OA
HETATM   12  C8  UNL     1       9.729  -8.211  25.134  1.00  0.00     0.202 C 
ENDBRANCH   7  11
BRANCH   3  13
HETATM   13  N3  UNL     1       8.320  -8.329  28.799  1.00  0.00    -0.316 N 
HETATM   14  C24 UNL     1       7.419  -9.049  28.027  1.00  0.00     0.048 A 
HETATM   15  C19 UNL     1       6.217  -8.323  28.002  1.00  0.00     0.004 A 
HETATM   16  C23 UNL     1       7.560 -10.280  27.359  1.00  0.00     0.030 A 
HETATM   17  C18 UNL     1       6.412  -7.138  28.776  1.00  0.00     0.022 A 
HETATM   18  C20 UNL     1       5.132  -8.861  27.277  1.00  0.00     0.014 A 
HETATM   19  C17 UNL     1       5.691  -6.007  29.185  1.00  0.00     0.057 A 
HETATM   20  C25 UNL     1       7.722  -7.183  29.224  1.00  0.00     0.077 A 
HETATM   21  C16 UNL     1       6.217  -4.944  29.984  1.00  0.00     0.020 A 
HETATM   22  C27 UNL     1       4.291  -5.668  28.895  1.00  0.00     0.255 A 
HETATM   23  C15 UNL     1       7.549  -4.940  30.430  1.00  0.00     0.017 A 
HETATM   24  C28 UNL     1       5.151  -3.903  30.167  1.00  0.00     0.257 A 
HETATM   25  C14 UNL     1       8.401  -4.058  31.149  1.00  0.00     0.004 A 
HETATM   26  C26 UNL     1       8.320  -6.030  30.086  1.00  0.00     0.077 A 
HETATM   27  C9  UNL     1       9.687  -4.632  31.180  1.00  0.00     0.049 A 
HETATM   28  C13 UNL     1       8.194  -2.793  31.739  1.00  0.00     0.014 A 
HETATM   29  N2  UNL     1       9.595  -5.885  30.571  1.00  0.00    -0.308 N 
HETATM   30  C10 UNL     1      10.764  -3.922  31.743  1.00  0.00     0.030 A 
HETATM   31  C11 UNL     1      10.531  -2.667  32.317  1.00  0.00     0.002 A 
HETATM   32  C12 UNL     1       9.260  -2.111  32.326  1.00  0.00     0.001 A 
HETATM   33  N4  UNL     1       4.019  -4.478  29.526  1.00  0.00    -0.326 N 
HETATM   34  H24 UNL     1       3.125  -4.018  29.437  1.00  0.00     0.165 HD
HETATM   35  O3  UNL     1       3.494  -6.298  28.230  1.00  0.00    -0.268 OA
HETATM   36  C21 UNL     1       5.267 -10.083  26.609  1.00  0.00     0.001 A 
HETATM   37  C22 UNL     1       6.466 -10.781  26.651  1.00  0.00     0.002 A 
BRANCH  24  38
HETATM   38  O4  UNL     1       4.794  -3.702  31.510  1.00  0.00    -0.372 OA
HETATM   39  H26 UNL     1       4.847  -4.574  31.936  1.00  0.00     0.212 HD
ENDBRANCH  24  38
ENDBRANCH   3  13
TORSDOF 5
ENDMDL
MODEL 5
REMARK minimizedAffinity -9.28144932
REMARK  5 active torsions:
REMARK  status: ('A' for Active; 'I' for Inactive)
REMARK    1  A    between atoms: N1_2  and  C2_3 
REMARK    2  A    between atoms: C4_5  and  N3_29 
REMARK    3  A    between atoms: C5_7  and  N2_12 
REMARK    4  A    between atoms: C7_9  and  O2_10 
REMARK    5  A    between atoms: C28_35  and  O4_36 
ROOT
HETATM    1  C2  UNL     1      11.353  -6.749  28.522  1.00  0.00     0.257 C 
HETATM    2  C3  UNL     1      10.267  -7.506  29.297  1.00  0.00     0.092 C 
HETATM    3  C4  UNL     1       9.293  -6.557  30.006  1.00  0.00     0.234 C 
HETATM    4  O1  UNL     1       9.670  -5.184  29.969  1.00  0.00    -0.333 OA
HETATM    5  C5  UNL     1      10.022  -4.613  28.685  1.00  0.00     0.168 C 
HETATM    6  C6  UNL     1      11.088  -3.587  29.135  1.00  0.00     0.074 C 
HETATM    7  C7  UNL     1      10.671  -5.637  27.694  1.00  0.00     0.209 C 
ENDROOT
BRANCH   1   8
HETATM    8  N1  UNL     1      12.127  -7.630  27.621  1.00  0.00     0.086 N 
HETATM    9  C1  UNL     1      12.924  -8.627  28.319  1.00  0.00     0.307 C 
HETATM   10  H4  UNL     1      11.476  -8.093  26.980  1.00  0.00     0.316 HD
ENDBRANCH   1   8
BRANCH   7  11
HETATM   11  O2  UNL     1       9.693  -6.301  26.860  1.00  0.00    -0.384 OA
HETATM   12  C8  UNL     1      10.157  -6.535  25.536  1.00  0.00     0.202 C 
ENDBRANCH   7  11
BRANCH   3  13
HETATM   13  N3  UNL     1       7.886  -6.719  29.654  1.00  0.00    -0.316 N 
HETATM   14  C24 UNL     1       6.881  -5.824  29.993  1.00  0.00     0.048 A 
HETATM   15  C19 UNL     1       5.707  -6.253  29.352  1.00  0.00     0.004 A 
HETATM   16  C23 UNL     1       6.911  -4.672  30.800  1.00  0.00     0.030 A 
HETATM   17  C18 UNL     1       6.023  -7.437  28.618  1.00  0.00     0.022 A 
HETATM   18  C20 UNL     1       4.533  -5.491  29.539  1.00  0.00     0.014 A 
HETATM   19  C17 UNL     1       5.392  -8.363  27.774  1.00  0.00     0.057 A 
HETATM   20  C25 UNL     1       7.365  -7.688  28.854  1.00  0.00     0.077 A 
HETATM   21  C16 UNL     1       6.026  -9.504  27.191  1.00  0.00     0.020 A 
HETATM   22  C27 UNL     1       3.995  -8.374  27.320  1.00  0.00     0.255 A 
HETATM   23  C15 UNL     1       7.376  -9.809  27.433  1.00  0.00     0.017 A 
HETATM   24  C28 UNL     1       5.009 -10.267  26.393  1.00  0.00     0.257 A 
HETATM   25  C14 UNL     1       8.281 -10.851  27.097  1.00  0.00     0.004 A 
HETATM   26  C26 UNL     1       8.072  -8.933  28.237  1.00  0.00     0.077 A 
HETATM   27  C9  UNL     1       9.500 -10.590  27.753  1.00  0.00     0.049 A 
HETATM   28  C13 UNL     1       8.151 -12.024  26.322  1.00  0.00     0.014 A 
HETATM   29  N2  UNL     1       9.366  -9.361  28.400  1.00  0.00    -0.308 N 
HETATM   30  C10 UNL     1      10.555 -11.520  27.681  1.00  0.00     0.030 A 
HETATM   31  C11 UNL     1      10.395 -12.677  26.909  1.00  0.00     0.002 A 
HETATM   32  C12 UNL     1       9.213 -12.923  26.228  1.00  0.00     0.001 A 
HETATM   33  N4  UNL     1       3.843  -9.458  26.489  1.00  0.00    -0.326 N 
HETATM   34  H24 UNL     1       2.951  -9.699  26.084  1.00  0.00     0.165 HD
HETATM   35  O3  UNL     1       3.113  -7.588  27.603  1.00  0.00    -0.268 OA
HETATM   36  C21 UNL     1       4.556  -4.346  30.342  1.00  0.00     0.001 A 
HETATM   37  C22 UNL     1       5.731  -3.944  30.963  1.00  0.00     0.002 A 
BRANCH  24  38
HETATM   38  O4  UNL     1       5.325 -10.356  25.028  1.00  0.00    -0.372 OA
HETATM   39  H26 UNL     1       5.747  -9.513  24.794  1.00  0.00     0.212 HD
ENDBRANCH  24  38
ENDBRANCH   3  13
TORSDOF 5
ENDMDL
MODEL 6
REMARK minimizedAffinity -9.20515251
REMARK  5 active torsions:
REMARK  status: ('A' for Active; 'I' for Inactive)
REMARK    1  A    between atoms: N1_2  and  C2_3 
REMARK    2  A    between atoms: C4_5  and  N3_29 
REMARK    3  A    between atoms: C5_7  and  N2_12 
REMARK    4  A    between atoms: C7_9  and  O2_10 
REMARK    5  A    between atoms: C28_35  and  O4_36 
ROOT
HETATM    1  C2  UNL     1      10.301  -5.695  28.995  1.00  0.00     0.257 C 
HETATM    2  C3  UNL     1       9.062  -5.380  28.147  1.00  0.00     0.092 C 
HETATM    3  C4  UNL     1       8.327  -6.650  27.699  1.00  0.00     0.234 C 
HETATM    4  O1  UNL     1       9.013  -7.865  27.989  1.00  0.00    -0.333 OA
HETATM    5  C5  UNL     1       9.500  -8.062  29.340  1.00  0.00     0.168 C 
HETATM    6  C6  UNL     1      10.770  -8.892  29.043  1.00  0.00     0.074 C 
HETATM    7  C7  UNL     1       9.904  -6.734  30.066  1.00  0.00     0.209 C 
ENDROOT
BRANCH   1   8
HETATM    8  N1  UNL     1      10.858  -4.495  29.654  1.00  0.00     0.086 N 
HETATM    9  C1  UNL     1      11.169  -3.411  28.734  1.00  0.00     0.307 C 
HETATM   10  H4  UNL     1      10.189  -4.170  30.358  1.00  0.00     0.316 HD
ENDBRANCH   1   8
BRANCH   7  11
HETATM   11  O2  UNL     1       8.806  -6.149  30.805  1.00  0.00    -0.384 OA
HETATM   12  C8  UNL     1       9.198  -5.637  32.072  1.00  0.00     0.202 C 
ENDBRANCH   7  11
BRANCH   3  13
HETATM   13  N3  UNL     1       6.924  -6.739  28.092  1.00  0.00    -0.316 N 
HETATM   14  C24 UNL     1       6.280  -5.836  28.926  1.00  0.00     0.048 A 
HETATM   15  C19 UNL     1       4.919  -6.180  28.940  1.00  0.00     0.004 A 
HETATM   16  C23 UNL     1       6.781  -4.743  29.657  1.00  0.00     0.030 A 
HETATM   17  C18 UNL     1       4.752  -7.320  28.097  1.00  0.00     0.022 A 
HETATM   18  C20 UNL     1       4.044  -5.393  29.722  1.00  0.00     0.014 A 
HETATM   19  C17 UNL     1       3.727  -8.164  27.643  1.00  0.00     0.057 A 
HETATM   20  C25 UNL     1       6.013  -7.633  27.619  1.00  0.00     0.077 A 
HETATM   21  C16 UNL     1       3.912  -9.283  26.773  1.00  0.00     0.020 A 
HETATM   22  C27 UNL     1       2.291  -8.096  27.949  1.00  0.00     0.255 A 
HETATM   23  C15 UNL     1       5.181  -9.649  26.294  1.00  0.00     0.017 A 
HETATM   24  C28 UNL     1       2.587  -9.954  26.559  1.00  0.00     0.257 A 
HETATM   25  C14 UNL     1       5.731 -10.696  25.505  1.00  0.00     0.004 A 
HETATM   26  C26 UNL     1       6.240  -8.855  26.679  1.00  0.00     0.077 A 
HETATM   27  C9  UNL     1       7.128 -10.523  25.474  1.00  0.00     0.049 A 
HETATM   28  C13 UNL     1       5.158 -11.808  24.851  1.00  0.00     0.014 A 
HETATM   29  N2  UNL     1       7.413  -9.337  26.154  1.00  0.00    -0.308 N 
HETATM   30  C10 UNL     1       7.946 -11.481  24.845  1.00  0.00     0.030 A 
HETATM   31  C11 UNL     1       7.350 -12.575  24.208  1.00  0.00     0.002 A 
HETATM   32  C12 UNL     1       5.972 -12.734  24.200  1.00  0.00     0.001 A 
HETATM   33  N4  UNL     1       1.678  -9.114  27.259  1.00  0.00    -0.326 N 
HETATM   34  H24 UNL     1       0.689  -9.297  27.346  1.00  0.00     0.165 HD
HETATM   35  O3  UNL     1       1.719  -7.302  28.668  1.00  0.00    -0.268 OA
HETATM   36  C21 UNL     1       4.537  -4.307  30.453  1.00  0.00     0.001 A 
HETATM   37  C22 UNL     1       5.888  -3.989  30.420  1.00  0.00     0.002 A 
BRANCH  24  38
HETATM   38  O4  UNL     1       2.176  -9.960  25.216  1.00  0.00    -0.372 OA
HETATM   39  H26 UNL     1       2.478  -9.117  24.839  1.00  0.00     0.212 HD
ENDBRANCH  24  38
ENDBRANCH   3  13
TORSDOF 5
ENDMDL
MODEL 7
REMARK minimizedAffinity -9.15950203
REMARK  5 active torsions:
REMARK  status: ('A' for Active; 'I' for Inactive)
REMARK    1  A    between atoms: N1_2  and  C2_3 
REMARK    2  A    between atoms: C4_5  and  N3_29 
REMARK    3  A    between atoms: C5_7  and  N2_12 
REMARK    4  A    between atoms: C7_9  and  O2_10 
REMARK    5  A    between atoms: C28_35  and  O4_36 
ROOT
HETATM    1  C2  UNL     1       9.598  -9.849  24.194  1.00  0.00     0.257 C 
HETATM    2  C3  UNL     1       9.318  -8.357  24.417  1.00  0.00     0.092 C 
HETATM    3  C4  UNL     1       8.011  -8.119  25.182  1.00  0.00     0.234 C 
HETATM    4  O1  UNL     1       7.220  -9.287  25.381  1.00  0.00    -0.333 OA
HETATM    5  C5  UNL     1       7.871 -10.461  25.928  1.00  0.00     0.168 C 
HETATM    6  C6  UNL     1       7.060 -11.568  25.217  1.00  0.00     0.074 C 
HETATM    7  C7  UNL     1       9.381 -10.587  25.534  1.00  0.00     0.209 C 
ENDROOT
BRANCH   1   8
HETATM    8  N1  UNL     1      10.970 -10.104  23.707  1.00  0.00     0.086 N 
HETATM    9  C1  UNL     1      11.692  -8.897  23.332  1.00  0.00     0.307 C 
HETATM   10  H4  UNL     1      11.487 -10.604  24.436  1.00  0.00     0.316 HD
ENDBRANCH   1   8
BRANCH   7  11
HETATM   11  O2  UNL     1      10.260  -9.950  26.489  1.00  0.00    -0.384 OA
HETATM   12  C8  UNL     1       9.973 -10.307  27.836  1.00  0.00     0.202 C 
ENDBRANCH   7  11
BRANCH   3  13
HETATM   13  N3  UNL     1       8.133  -7.358  26.420  1.00  0.00    -0.316 N 
HETATM   14  C24 UNL     1       9.306  -6.767  26.870  1.00  0.00     0.048 A 
HETATM   15  C19 UNL     1       8.982  -6.011  28.008  1.00  0.00     0.004 A 
HETATM   16  C23 UNL     1      10.618  -6.829  26.364  1.00  0.00     0.030 A 
HETATM   17  C18 UNL     1       7.581  -6.160  28.242  1.00  0.00     0.022 A 
HETATM   18  C20 UNL     1      10.021  -5.300  28.649  1.00  0.00     0.014 A 
HETATM   19  C17 UNL     1       6.602  -5.714  29.142  1.00  0.00     0.057 A 
HETATM   20  C25 UNL     1       7.115  -7.010  27.254  1.00  0.00     0.077 A 
HETATM   21  C16 UNL     1       5.222  -6.087  29.103  1.00  0.00     0.020 A 
HETATM   22  C27 UNL     1       6.764  -4.803  30.284  1.00  0.00     0.255 A 
HETATM   23  C15 UNL     1       4.720  -6.972  28.135  1.00  0.00     0.017 A 
HETATM   24  C28 UNL     1       4.513  -5.439  30.257  1.00  0.00     0.257 A 
HETATM   25  C14 UNL     1       3.477  -7.597  27.845  1.00  0.00     0.004 A 
HETATM   26  C26 UNL     1       5.617  -7.440  27.199  1.00  0.00     0.077 A 
HETATM   27  C9  UNL     1       3.676  -8.467  26.755  1.00  0.00     0.049 A 
HETATM   28  C13 UNL     1       2.203  -7.529  28.450  1.00  0.00     0.014 A 
HETATM   29  N2  UNL     1       4.995  -8.302  26.331  1.00  0.00    -0.308 N 
HETATM   30  C10 UNL     1       2.630  -9.300  26.314  1.00  0.00     0.030 A 
HETATM   31  C11 UNL     1       1.380  -9.214  26.937  1.00  0.00     0.002 A 
HETATM   32  C12 UNL     1       1.162  -8.332  27.985  1.00  0.00     0.001 A 
HETATM   33  N4  UNL     1       5.525  -4.639  30.855  1.00  0.00    -0.326 N 
HETATM   34  H24 UNL     1       5.391  -4.086  31.689  1.00  0.00     0.165 HD
HETATM   35  O3  UNL     1       7.784  -4.274  30.676  1.00  0.00    -0.268 OA
HETATM   36  C21 UNL     1      11.327  -5.360  28.153  1.00  0.00     0.001 A 
HETATM   37  C22 UNL     1      11.619  -6.116  27.025  1.00  0.00     0.002 A 
BRANCH  24  38
HETATM   38  O4  UNL     1       3.491  -4.563  29.859  1.00  0.00    -0.372 OA
HETATM   39  H26 UNL     1       3.803  -4.137  29.044  1.00  0.00     0.212 HD
ENDBRANCH  24  38
ENDBRANCH   3  13
TORSDOF 5
ENDMDL
MODEL 8
REMARK minimizedAffinity -9.0346632
REMARK  5 active torsions:
REMARK  status: ('A' for Active; 'I' for Inactive)
REMARK    1  A    between atoms: N1_2  and  C2_3 
REMARK    2  A    between atoms: C4_5  and  N3_29 
REMARK    3  A    between atoms: C5_7  and  N2_12 
REMARK    4  A    between atoms: C7_9  and  O2_10 
REMARK    5  A    between atoms: C28_35  and  O4_36 
ROOT
HETATM    1  C2  UNL     1       6.897  -9.659  25.560  1.00  0.00     0.257 C 
HETATM    2  C3  UNL     1       7.163  -8.148  25.563  1.00  0.00     0.092 C 
HETATM    3  C4  UNL     1       6.087  -7.370  26.330  1.00  0.00     0.234 C 
HETATM    4  O1  UNL     1       4.966  -8.151  26.733  1.00  0.00    -0.333 OA
HETATM    5  C5  UNL     1       5.223  -9.397  27.428  1.00  0.00     0.168 C 
HETATM    6  C6  UNL     1       4.024 -10.232  26.924  1.00  0.00     0.074 C 
HETATM    7  C7  UNL     1       6.558 -10.094  27.003  1.00  0.00     0.209 C 
ENDROOT
BRANCH   1   8
HETATM    8  N1  UNL     1       8.052 -10.439  25.068  1.00  0.00     0.086 N 
HETATM    9  C1  UNL     1       7.836 -11.878  25.083  1.00  0.00     0.307 C 
HETATM   10  H4  UNL     1       8.271 -10.132  24.116  1.00  0.00     0.316 HD
ENDBRANCH   1   8
BRANCH   7  11
HETATM   11  O2  UNL     1       7.682  -9.686  27.818  1.00  0.00    -0.384 OA
HETATM   12  C8  UNL     1       7.344  -9.514  29.188  1.00  0.00     0.202 C 
ENDBRANCH   7  11
BRANCH   3  13
HETATM   13  N3  UNL     1       6.569  -6.546  27.433  1.00  0.00    -0.316 N 
HETATM   14  C24 UNL     1       5.759  -5.980  28.407  1.00  0.00     0.048 A 
HETATM   15  C19 UNL     1       6.604  -5.393  29.363  1.00  0.00     0.004 A 
HETATM   16  C23 UNL     1       4.358  -5.947  28.530  1.00  0.00     0.030 A 
HETATM   17  C18 UNL     1       7.951  -5.612  28.942  1.00  0.00     0.022 A 
HETATM   18  C20 UNL     1       6.007  -4.753  30.471  1.00  0.00     0.014 A 
HETATM   19  C17 UNL     1       9.256  -5.336  29.375  1.00  0.00     0.057 A 
HETATM   20  C25 UNL     1       7.872  -6.304  27.745  1.00  0.00     0.077 A 
HETATM   21  C16 UNL     1      10.447  -5.700  28.671  1.00  0.00     0.020 A 
HETATM   22  C27 UNL     1       9.680  -4.638  30.596  1.00  0.00     0.255 A 
HETATM   23  C15 UNL     1      10.405  -6.374  27.440  1.00  0.00     0.017 A 
HETATM   24  C28 UNL     1      11.634  -5.190  29.435  1.00  0.00     0.257 A 
HETATM   25  C14 UNL     1      11.340  -6.813  26.464  1.00  0.00     0.004 A 
HETATM   26  C26 UNL     1       9.156  -6.700  26.955  1.00  0.00     0.077 A 
HETATM   27  C9  UNL     1      10.614  -7.359  25.387  1.00  0.00     0.049 A 
HETATM   28  C13 UNL     1      12.748  -6.750  26.387  1.00  0.00     0.014 A 
HETATM   29  N2  UNL     1       9.266  -7.337  25.745  1.00  0.00    -0.308 N 
HETATM   30  C10 UNL     1      11.286  -7.783  24.224  1.00  0.00     0.030 A 
HETATM   31  C11 UNL     1      12.682  -7.703  24.174  1.00  0.00     0.002 A 
HETATM   32  C12 UNL     1      13.408  -7.204  25.245  1.00  0.00     0.001 A 
HETATM   33  N4  UNL     1      11.055  -4.629  30.606  1.00  0.00    -0.326 N 
HETATM   34  H24 UNL     1      11.580  -4.164  31.331  1.00  0.00     0.165 HD
HETATM   35  O3  UNL     1       8.978  -4.151  31.458  1.00  0.00    -0.268 OA
HETATM   36  C21 UNL     1       4.614  -4.713  30.597  1.00  0.00     0.001 A 
HETATM   37  C22 UNL     1       3.803  -5.304  29.637  1.00  0.00     0.002 A 
BRANCH  24  38
HETATM   38  O4  UNL     1      12.500  -6.209  29.863  1.00  0.00    -0.372 OA
HETATM   39  H26 UNL     1      11.934  -6.966  30.089  1.00  0.00     0.212 HD
ENDBRANCH  24  38
ENDBRANCH   3  13
TORSDOF 5
ENDMDL
MODEL 9
REMARK minimizedAffinity -8.98891735
REMARK  5 active torsions:
REMARK  status: ('A' for Active; 'I' for Inactive)
REMARK    1  A    between atoms: N1_2  and  C2_3 
REMARK    2  A    between atoms: C4_5  and  N3_29 
REMARK    3  A    between atoms: C5_7  and  N2_12 
REMARK    4  A    between atoms: C7_9  and  O2_10 
REMARK    5  A    between atoms: C28_35  and  O4_36 
ROOT
HETATM    1  C2  UNL     1       6.924  -8.777  26.722  1.00  0.00     0.257 C 
HETATM    2  C3  UNL     1       7.320  -8.810  28.204  1.00  0.00     0.092 C 
HETATM    3  C4  UNL     1       8.567  -9.668  28.453  1.00  0.00     0.234 C 
HETATM    4  O1  UNL     1       9.012 -10.408  27.320  1.00  0.00    -0.333 OA
HETATM    5  C5  UNL     1       9.180  -9.696  26.069  1.00  0.00     0.168 C 
HETATM    6  C6  UNL     1       8.809 -10.820  25.074  1.00  0.00     0.074 C 
HETATM    7  C7  UNL     1       8.193  -8.494  25.888  1.00  0.00     0.209 C 
ENDROOT
BRANCH   1   8
HETATM    8  N1  UNL     1       5.903  -7.749  26.429  1.00  0.00     0.086 N 
HETATM    9  C1  UNL     1       4.612  -8.013  27.048  1.00  0.00     0.307 C 
HETATM   10  H4  UNL     1       6.257  -6.840  26.740  1.00  0.00     0.316 HD
ENDBRANCH   1   8
BRANCH   7  11
HETATM   11  O2  UNL     1       8.734  -7.250  26.390  1.00  0.00    -0.384 OA
HETATM   12  C8  UNL     1      10.082  -7.028  25.995  1.00  0.00     0.202 C 
ENDBRANCH   7  11
BRANCH   3  13
HETATM   13  N3  UNL     1       9.683  -8.986  29.099  1.00  0.00    -0.316 N 
HETATM   14  C24 UNL     1      10.979  -9.479  29.160  1.00  0.00     0.048 A 
HETATM   15  C19 UNL     1      11.781  -8.474  29.726  1.00  0.00     0.004 A 
HETATM   16  C23 UNL     1      11.511 -10.717  28.755  1.00  0.00     0.030 A 
HETATM   17  C18 UNL     1      10.938  -7.358  30.014  1.00  0.00     0.022 A 
HETATM   18  C20 UNL     1      13.159  -8.738  29.887  1.00  0.00     0.014 A 
HETATM   19  C17 UNL     1      11.034  -6.065  30.547  1.00  0.00     0.057 A 
HETATM   20  C25 UNL     1       9.661  -7.732  29.628  1.00  0.00     0.077 A 
HETATM   21  C16 UNL     1       9.935  -5.166  30.721  1.00  0.00     0.020 A 
HETATM   22  C27 UNL     1      12.234  -5.368  31.031  1.00  0.00     0.255 A 
HETATM   23  C15 UNL     1       8.622  -5.522  30.372  1.00  0.00     0.017 A 
HETATM   24  C28 UNL     1      10.439  -3.905  31.360  1.00  0.00     0.257 A 
HETATM   25  C14 UNL     1       7.329  -4.941  30.464  1.00  0.00     0.004 A 
HETATM   26  C26 UNL     1       8.447  -6.773  29.820  1.00  0.00     0.077 A 
HETATM   27  C9  UNL     1       6.396  -5.889  30.000  1.00  0.00     0.049 A 
HETATM   28  C13 UNL     1       6.867  -3.698  30.950  1.00  0.00     0.014 A 
HETATM   29  N2  UNL     1       7.120  -6.991  29.544  1.00  0.00    -0.308 N 
HETATM   30  C10 UNL     1       5.016  -5.618  30.074  1.00  0.00     0.030 A 
HETATM   31  C11 UNL     1       4.588  -4.380  30.565  1.00  0.00     0.002 A 
HETATM   32  C12 UNL     1       5.500  -3.425  30.989  1.00  0.00     0.001 A 
HETATM   33  N4  UNL     1      11.843  -4.114  31.437  1.00  0.00    -0.326 N 
HETATM   34  H24 UNL     1      12.492  -3.461  31.852  1.00  0.00     0.165 HD
HETATM   35  O3  UNL     1      13.372  -5.789  31.077  1.00  0.00    -0.268 OA
HETATM   36  C21 UNL     1      13.693  -9.969  29.489  1.00  0.00     0.001 A 
HETATM   37  C22 UNL     1      12.877 -10.943  28.931  1.00  0.00     0.002 A 
BRANCH  24  38
HETATM   38  O4  UNL     1      10.246  -2.763  30.565  1.00  0.00    -0.372 OA
HETATM   39  H26 UNL     1      10.374  -3.050  29.646  1.00  0.00     0.212 HD
ENDBRANCH  24  38
ENDBRANCH   3  13
TORSDOF 5
ENDMDL
