MODEL 1
REMARK minimizedAffinity -7.83382797
REMARK CNNscore 0.721427381
REMARK CNNaffinity 6.9323535
REMARK  4 active torsions:
REMARK  status: ('A' for Active; 'I' for Inactive)
REMARK    1  A    between atoms: C2_2  and  C3_3 
REMARK    2  A    between atoms: C2_2  and  C9_9 
REMARK    3  A    between atoms: C3_3  and  C4_4 
REMARK    4  A    between atoms: C4_4  and  C5_5 
ROOT
HETATM    1  C9  UNL     1       4.386  56.006  -8.622  1.00  0.00     0.018 C 
HETATM    2  C10 UNL     1       5.165  55.143  -9.669  1.00  0.00     0.010 C 
HETATM    3  C11 UNL     1       4.192  54.079 -10.200  1.00  0.00     0.011 C 
HETATM    4  C12 UNL     1       2.804  54.711 -10.034  1.00  0.00    -0.032 C 
HETATM    5  C13 UNL     1       2.677  55.815 -11.144  1.00  0.00     0.016 C 
HETATM    6  C14 UNL     1       2.977  55.338  -8.618  1.00  0.00     0.002 C 
HETATM    7  C15 UNL     1       1.752  56.189  -8.289  1.00  0.00     0.006 C 
HETATM    8  C16 UNL     1       0.483  55.324  -8.305  1.00  0.00     0.006 C 
HETATM    9  C17 UNL     1       0.268  54.521  -9.618  1.00  0.00     0.003 C 
HETATM   10  C18 UNL     1      -1.126  53.731  -9.689  1.00  0.00    -0.035 C 
HETATM   11  C19 UNL     1      -1.500  53.164  -8.298  1.00  0.00     0.016 C 
HETATM   12  C20 UNL     1      -2.199  54.796 -10.086  1.00  0.00     0.017 C 
HETATM   13  C21 UNL     1      -3.569  54.242 -10.416  1.00  0.00     0.080 C 
HETATM   14  C22 UNL     1      -3.461  53.220 -11.521  1.00  0.00     0.135 C 
HETATM   15  O1  UNL     1      -4.192  53.296 -12.511  1.00  0.00    -0.297 OA
HETATM   16  C23 UNL     1      -2.493  52.055 -11.303  1.00  0.00     0.017 C 
HETATM   17  C24 UNL     1      -2.362  51.261 -12.626  1.00  0.00     0.023 C 
HETATM   18  C25 UNL     1      -3.159  51.078 -10.305  1.00  0.00     0.023 C 
HETATM   19  C26 UNL     1      -1.089  52.575 -10.779  1.00  0.00     0.009 C 
HETATM   20  C27 UNL     1      -0.130  53.003 -11.911  1.00  0.00     0.007 C 
HETATM   21  C28 UNL     1       1.332  53.102 -11.456  1.00  0.00     0.011 C 
HETATM   22  C29 UNL     1       1.551  53.711 -10.042  1.00  0.00    -0.032 C 
HETATM   23  C30 UNL     1       1.791  52.525  -9.062  1.00  0.00     0.016 C 
ENDROOT
BRANCH   1  24
HETATM   24  C2  UNL     1       5.082  56.177  -7.261  1.00  0.00    -0.084 C 
HETATM   25  C1  UNL     1       4.433  56.438  -6.109  1.00  0.00     0.014 C 
BRANCH  24  26
HETATM   26  C3  UNL     1       6.588  55.985  -7.180  1.00  0.00     0.037 C 
BRANCH  26  27
HETATM   27  C4  UNL     1       7.185  56.542  -5.884  1.00  0.00     0.031 C 
BRANCH  27  28
HETATM   28  C5  UNL     1       8.581  56.025  -5.653  1.00  0.00    -0.024 C 
HETATM   29  C6  UNL     1       9.660  56.715  -5.235  1.00  0.00    -0.091 C 
HETATM   30  C7  UNL     1       9.684  58.190  -4.943  1.00  0.00     0.042 C 
HETATM   31  C8  UNL     1      10.983  56.024  -5.039  1.00  0.00     0.042 C 
ENDBRANCH  27  28
ENDBRANCH  26  27
ENDBRANCH  24  26
ENDBRANCH   1  24
TORSDOF 4
ENDMDL
MODEL 2
REMARK minimizedAffinity -7.60235739
REMARK CNNscore 0.71821034
REMARK CNNaffinity 6.30257225
REMARK  4 active torsions:
REMARK  status: ('A' for Active; 'I' for Inactive)
REMARK    1  A    between atoms: C2_2  and  C3_3 
REMARK    2  A    between atoms: C2_2  and  C9_9 
REMARK    3  A    between atoms: C3_3  and  C4_4 
REMARK    4  A    between atoms: C4_4  and  C5_5 
ROOT
HETATM    1  C9  UNL     1      -9.869  46.684 -27.586  1.00  0.00     0.018 C 
HETATM    2  C10 UNL     1     -10.137  45.946 -28.939  1.00  0.00     0.010 C 
HETATM    3  C11 UNL     1     -11.489  45.229 -28.809  1.00  0.00     0.011 C 
HETATM    4  C12 UNL     1     -12.265  46.057 -27.776  1.00  0.00    -0.032 C 
HETATM    5  C13 UNL     1     -12.696  47.384 -28.496  1.00  0.00     0.016 C 
HETATM    6  C14 UNL     1     -11.125  46.308 -26.743  1.00  0.00     0.002 C 
HETATM    7  C15 UNL     1     -11.619  47.278 -25.672  1.00  0.00     0.006 C 
HETATM    8  C16 UNL     1     -12.839  46.692 -24.944  1.00  0.00     0.006 C 
HETATM    9  C17 UNL     1     -13.999  46.257 -25.880  1.00  0.00     0.003 C 
HETATM   10  C18 UNL     1     -15.324  45.778 -25.113  1.00  0.00    -0.035 C 
HETATM   11  C19 UNL     1     -14.954  44.996 -23.830  1.00  0.00     0.016 C 
HETATM   12  C20 UNL     1     -16.066  47.087 -24.690  1.00  0.00     0.017 C 
HETATM   13  C21 UNL     1     -17.457  46.887 -24.125  1.00  0.00     0.080 C 
HETATM   14  C22 UNL     1     -18.314  46.136 -25.114  1.00  0.00     0.135 C 
HETATM   15  O1  UNL     1     -19.427  46.566 -25.424  1.00  0.00    -0.297 OA
HETATM   16  C23 UNL     1     -17.784  44.791 -25.617  1.00  0.00     0.017 C 
HETATM   17  C24 UNL     1     -18.686  44.301 -26.777  1.00  0.00     0.023 C 
HETATM   18  C25 UNL     1     -17.983  43.759 -24.482  1.00  0.00     0.023 C 
HETATM   19  C26 UNL     1     -16.264  44.909 -26.054  1.00  0.00     0.009 C 
HETATM   20  C27 UNL     1     -16.077  45.390 -27.509  1.00  0.00     0.007 C 
HETATM   21  C28 UNL     1     -14.673  45.110 -28.062  1.00  0.00     0.011 C 
HETATM   22  C29 UNL     1     -13.505  45.336 -27.059  1.00  0.00    -0.032 C 
HETATM   23  C30 UNL     1     -13.087  43.938 -26.517  1.00  0.00     0.016 C 
ENDROOT
BRANCH   1  24
HETATM   24  C2  UNL     1      -8.495  46.414 -26.949  1.00  0.00    -0.084 C 
HETATM   25  C1  UNL     1      -8.249  45.413 -26.079  1.00  0.00     0.014 C 
BRANCH  24  26
HETATM   26  C3  UNL     1      -7.315  47.281 -27.358  1.00  0.00     0.037 C 
BRANCH  26  27
HETATM   27  C4  UNL     1      -6.478  47.742 -26.160  1.00  0.00     0.031 C 
BRANCH  27  28
HETATM   28  C5  UNL     1      -5.074  48.098 -26.574  1.00  0.00    -0.024 C 
HETATM   29  C6  UNL     1      -4.036  48.426 -25.781  1.00  0.00    -0.091 C 
HETATM   30  C7  UNL     1      -4.094  48.538 -24.282  1.00  0.00     0.042 C 
HETATM   31  C8  UNL     1      -2.686  48.734 -26.373  1.00  0.00     0.042 C 
ENDBRANCH  27  28
ENDBRANCH  26  27
ENDBRANCH  24  26
ENDBRANCH   1  24
TORSDOF 4
ENDMDL
MODEL 3
REMARK minimizedAffinity -7.56143284
REMARK CNNscore 0.690591931
REMARK CNNaffinity 6.89793921
REMARK  4 active torsions:
REMARK  status: ('A' for Active; 'I' for Inactive)
REMARK    1  A    between atoms: C2_2  and  C3_3 
REMARK    2  A    between atoms: C2_2  and  C9_9 
REMARK    3  A    between atoms: C3_3  and  C4_4 
REMARK    4  A    between atoms: C4_4  and  C5_5 
ROOT
HETATM    1  C9  UNL     1      -2.641  52.481  -9.329  1.00  0.00     0.018 C 
HETATM    2  C10 UNL     1      -2.185  51.114  -8.720  1.00  0.00     0.010 C 
HETATM    3  C11 UNL     1      -0.651  51.136  -8.643  1.00  0.00     0.011 C 
HETATM    4  C12 UNL     1      -0.294  52.624  -8.526  1.00  0.00    -0.032 C 
HETATM    5  C13 UNL     1      -0.675  53.066  -7.068  1.00  0.00     0.016 C 
HETATM    6  C14 UNL     1      -1.284  53.207  -9.580  1.00  0.00     0.002 C 
HETATM    7  C15 UNL     1      -1.236  54.733  -9.528  1.00  0.00     0.006 C 
HETATM    8  C16 UNL     1       0.183  55.232  -9.841  1.00  0.00     0.006 C 
HETATM    9  C17 UNL     1       1.294  54.609  -8.952  1.00  0.00     0.003 C 
HETATM   10  C18 UNL     1       2.753  55.234  -9.182  1.00  0.00    -0.035 C 
HETATM   11  C19 UNL     1       2.972  55.561 -10.679  1.00  0.00     0.016 C 
HETATM   12  C20 UNL     1       2.772  56.576  -8.381  1.00  0.00     0.017 C 
HETATM   13  C21 UNL     1       4.124  57.250  -8.281  1.00  0.00     0.080 C 
HETATM   14  C22 UNL     1       5.130  56.303  -7.674  1.00  0.00     0.135 C 
HETATM   15  O1  UNL     1       5.830  56.666  -6.726  1.00  0.00    -0.297 OA
HETATM   16  C23 UNL     1       5.303  54.941  -8.349  1.00  0.00     0.017 C 
HETATM   17  C24 UNL     1       6.196  54.049  -7.452  1.00  0.00     0.023 C 
HETATM   18  C25 UNL     1       6.119  55.164  -9.644  1.00  0.00     0.023 C 
HETATM   19  C26 UNL     1       3.895  54.271  -8.641  1.00  0.00     0.009 C 
HETATM   20  C27 UNL     1       3.333  53.472  -7.445  1.00  0.00     0.007 C 
HETATM   21  C28 UNL     1       2.215  52.500  -7.841  1.00  0.00     0.011 C 
HETATM   22  C29 UNL     1       1.209  53.036  -8.901  1.00  0.00    -0.032 C 
HETATM   23  C30 UNL     1       1.619  52.427 -10.274  1.00  0.00     0.016 C 
ENDROOT
BRANCH   1  24
HETATM   24  C2  UNL     1      -3.610  52.382 -10.519  1.00  0.00    -0.084 C 
HETATM   25  C1  UNL     1      -4.024  53.439 -11.246  1.00  0.00     0.014 C 
BRANCH  24  26
HETATM   26  C3  UNL     1      -4.096  51.008 -10.954  1.00  0.00     0.037 C 
BRANCH  26  27
HETATM   27  C4  UNL     1      -5.259  50.496 -10.098  1.00  0.00     0.031 C 
BRANCH  27  28
HETATM   28  C5  UNL     1      -6.053  49.440 -10.821  1.00  0.00    -0.024 C 
HETATM   29  C6  UNL     1      -7.339  49.090 -10.624  1.00  0.00    -0.091 C 
HETATM   30  C7  UNL     1      -8.247  49.684  -9.584  1.00  0.00     0.042 C 
HETATM   31  C8  UNL     1      -7.978  48.016 -11.463  1.00  0.00     0.042 C 
ENDBRANCH  27  28
ENDBRANCH  26  27
ENDBRANCH  24  26
ENDBRANCH   1  24
TORSDOF 4
ENDMDL
MODEL 4
REMARK minimizedAffinity -6.98002195
REMARK CNNscore 0.487669766
REMARK CNNaffinity 6.60236406
REMARK  4 active torsions:
REMARK  status: ('A' for Active; 'I' for Inactive)
REMARK    1  A    between atoms: C2_2  and  C3_3 
REMARK    2  A    between atoms: C2_2  and  C9_9 
REMARK    3  A    between atoms: C3_3  and  C4_4 
REMARK    4  A    between atoms: C4_4  and  C5_5 
ROOT
HETATM    1  C9  UNL     1      -3.465  51.003 -10.764  1.00  0.00     0.018 C 
HETATM    2  C10 UNL     1      -4.102  52.396 -11.085  1.00  0.00     0.010 C 
HETATM    3  C11 UNL     1      -3.126  53.471 -10.584  1.00  0.00     0.011 C 
HETATM    4  C12 UNL     1      -1.750  52.795 -10.636  1.00  0.00    -0.032 C 
HETATM    5  C13 UNL     1      -1.348  52.708 -12.152  1.00  0.00     0.016 C 
HETATM    6  C14 UNL     1      -2.130  51.397 -10.062  1.00  0.00     0.002 C 
HETATM    7  C15 UNL     1      -0.928  50.461 -10.172  1.00  0.00     0.006 C 
HETATM    8  C16 UNL     1       0.260  51.025  -9.378  1.00  0.00     0.006 C 
HETATM    9  C17 UNL     1       0.650  52.480  -9.752  1.00  0.00     0.003 C 
HETATM   10  C18 UNL     1       1.977  53.016  -9.025  1.00  0.00    -0.035 C 
HETATM   11  C19 UNL     1       2.053  52.482  -7.575  1.00  0.00     0.016 C 
HETATM   12  C20 UNL     1       3.175  52.417  -9.830  1.00  0.00     0.017 C 
HETATM   13  C21 UNL     1       4.540  52.952  -9.453  1.00  0.00     0.080 C 
HETATM   14  C22 UNL     1       4.561  54.455  -9.589  1.00  0.00     0.135 C 
HETATM   15  O1  UNL     1       5.463  55.008 -10.223  1.00  0.00    -0.297 OA
HETATM   16  C23 UNL     1       3.492  55.241  -8.827  1.00  0.00     0.017 C 
HETATM   17  C24 UNL     1       3.546  56.722  -9.277  1.00  0.00     0.023 C 
HETATM   18  C25 UNL     1       3.898  55.253  -7.334  1.00  0.00     0.023 C 
HETATM   19  C26 UNL     1       2.056  54.604  -9.048  1.00  0.00     0.009 C 
HETATM   20  C27 UNL     1       1.348  55.109 -10.324  1.00  0.00     0.007 C 
HETATM   21  C28 UNL     1      -0.161  54.834 -10.325  1.00  0.00     0.011 C 
HETATM   22  C29 UNL     1      -0.588  53.454  -9.748  1.00  0.00    -0.032 C 
HETATM   23  C30 UNL     1      -1.083  53.696  -8.292  1.00  0.00     0.016 C 
ENDROOT
BRANCH   1  24
HETATM   24  C2  UNL     1      -4.381  50.017 -10.019  1.00  0.00    -0.084 C 
HETATM   25  C1  UNL     1      -3.979  49.239  -8.994  1.00  0.00     0.014 C 
BRANCH  24  26
HETATM   26  C3  UNL     1      -5.848  49.942 -10.411  1.00  0.00     0.037 C 
BRANCH  26  27
HETATM   27  C4  UNL     1      -6.199  48.641 -11.141  1.00  0.00     0.031 C 
BRANCH  27  28
HETATM   28  C5  UNL     1      -7.657  48.298 -10.985  1.00  0.00    -0.024 C 
HETATM   29  C6  UNL     1      -8.501  48.693 -10.013  1.00  0.00    -0.091 C 
HETATM   30  C7  UNL     1      -8.125  49.552  -8.838  1.00  0.00     0.042 C 
HETATM   31  C8  UNL     1      -9.945  48.264 -10.030  1.00  0.00     0.042 C 
ENDBRANCH  27  28
ENDBRANCH  26  27
ENDBRANCH  24  26
ENDBRANCH   1  24
TORSDOF 4
ENDMDL
MODEL 5
REMARK minimizedAffinity -7.21830511
REMARK CNNscore 0.47970286
REMARK CNNaffinity 6.79556894
REMARK  4 active torsions:
REMARK  status: ('A' for Active; 'I' for Inactive)
REMARK    1  A    between atoms: C2_2  and  C3_3 
REMARK    2  A    between atoms: C2_2  and  C9_9 
REMARK    3  A    between atoms: C3_3  and  C4_4 
REMARK    4  A    between atoms: C4_4  and  C5_5 
ROOT
HETATM    1  C9  UNL     1       4.226  56.149  -8.335  1.00  0.00     0.018 C 
HETATM    2  C10 UNL     1       5.100  55.298  -9.315  1.00  0.00     0.010 C 
HETATM    3  C11 UNL     1       4.201  54.193  -9.888  1.00  0.00     0.011 C 
HETATM    4  C12 UNL     1       2.784  54.778  -9.823  1.00  0.00    -0.032 C 
HETATM    5  C13 UNL     1       2.691  55.860 -10.957  1.00  0.00     0.016 C 
HETATM    6  C14 UNL     1       2.844  55.432  -8.410  1.00  0.00     0.002 C 
HETATM    7  C15 UNL     1       1.572  56.245  -8.174  1.00  0.00     0.006 C 
HETATM    8  C16 UNL     1       0.336  55.335  -8.257  1.00  0.00     0.006 C 
HETATM    9  C17 UNL     1       0.235  54.506  -9.566  1.00  0.00     0.003 C 
HETATM   10  C18 UNL     1      -1.125  53.666  -9.712  1.00  0.00    -0.035 C 
HETATM   11  C19 UNL     1      -1.568  53.108  -8.339  1.00  0.00     0.016 C 
HETATM   12  C20 UNL     1      -2.205  54.686 -10.196  1.00  0.00     0.017 C 
HETATM   13  C21 UNL     1      -3.531  54.080 -10.604  1.00  0.00     0.080 C 
HETATM   14  C22 UNL     1      -3.317  53.046 -11.681  1.00  0.00     0.135 C 
HETATM   15  O1  UNL     1      -3.985  53.080 -12.717  1.00  0.00    -0.297 OA
HETATM   16  C23 UNL     1      -2.327  51.918 -11.381  1.00  0.00     0.017 C 
HETATM   17  C24 UNL     1      -2.083  51.109 -12.679  1.00  0.00     0.023 C 
HETATM   18  C25 UNL     1      -3.022  50.934 -10.411  1.00  0.00     0.023 C 
HETATM   19  C26 UNL     1      -0.978  52.496 -10.778  1.00  0.00     0.009 C 
HETATM   20  C27 UNL     1       0.037  52.939 -11.853  1.00  0.00     0.007 C 
HETATM   21  C28 UNL     1       1.463  53.097 -11.308  1.00  0.00     0.011 C 
HETATM   22  C29 UNL     1       1.569  53.735  -9.893  1.00  0.00    -0.032 C 
HETATM   23  C30 UNL     1       1.786  52.573  -8.879  1.00  0.00     0.016 C 
ENDROOT
BRANCH   1  24
HETATM   24  C2  UNL     1       4.826  56.365  -6.936  1.00  0.00    -0.084 C 
HETATM   25  C1  UNL     1       5.424  55.397  -6.213  1.00  0.00     0.014 C 
BRANCH  24  26
HETATM   26  C3  UNL     1       4.805  57.763  -6.338  1.00  0.00     0.037 C 
BRANCH  26  27
HETATM   27  C4  UNL     1       3.432  58.144  -5.777  1.00  0.00     0.031 C 
BRANCH  27  28
HETATM   28  C5  UNL     1       3.521  58.545  -4.327  1.00  0.00    -0.024 C 
HETATM   29  C6  UNL     1       2.545  58.519  -3.400  1.00  0.00    -0.091 C 
HETATM   30  C7  UNL     1       1.122  58.103  -3.653  1.00  0.00     0.042 C 
HETATM   31  C8  UNL     1       2.823  58.940  -1.981  1.00  0.00     0.042 C 
ENDBRANCH  27  28
ENDBRANCH  26  27
ENDBRANCH  24  26
ENDBRANCH   1  24
TORSDOF 4
ENDMDL
MODEL 6
REMARK minimizedAffinity -6.72462988
REMARK CNNscore 0.473496407
REMARK CNNaffinity 6.7401309
REMARK  4 active torsions:
REMARK  status: ('A' for Active; 'I' for Inactive)
REMARK    1  A    between atoms: C2_2  and  C3_3 
REMARK    2  A    between atoms: C2_2  and  C9_9 
REMARK    3  A    between atoms: C3_3  and  C4_4 
REMARK    4  A    between atoms: C4_4  and  C5_5 
ROOT
HETATM    1  C9  UNL     1      -2.503  52.424  -9.382  1.00  0.00     0.018 C 
HETATM    2  C10 UNL     1      -2.051  51.113  -8.658  1.00  0.00     0.010 C 
HETATM    3  C11 UNL     1      -0.526  51.185  -8.491  1.00  0.00     0.011 C 
HETATM    4  C12 UNL     1      -0.215  52.687  -8.453  1.00  0.00    -0.032 C 
HETATM    5  C13 UNL     1      -0.696  53.211  -7.053  1.00  0.00     0.016 C 
HETATM    6  C14 UNL     1      -1.152  53.171  -9.600  1.00  0.00     0.002 C 
HETATM    7  C15 UNL     1      -1.146  54.698  -9.648  1.00  0.00     0.006 C 
HETATM    8  C16 UNL     1       0.276  55.216  -9.907  1.00  0.00     0.006 C 
HETATM    9  C17 UNL     1       1.346  54.685  -8.914  1.00  0.00     0.003 C 
HETATM   10  C18 UNL     1       2.800  55.337  -9.099  1.00  0.00    -0.035 C 
HETATM   11  C19 UNL     1       3.103  55.572 -10.598  1.00  0.00     0.016 C 
HETATM   12  C20 UNL     1       2.736  56.728  -8.389  1.00  0.00     0.017 C 
HETATM   13  C21 UNL     1       4.062  57.446  -8.253  1.00  0.00     0.080 C 
HETATM   14  C22 UNL     1       5.052  56.571  -7.526  1.00  0.00     0.135 C 
HETATM   15  O1  UNL     1       5.684  57.014  -6.564  1.00  0.00    -0.297 OA
HETATM   16  C23 UNL     1       5.301  55.173  -8.097  1.00  0.00     0.017 C 
HETATM   17  C24 UNL     1       6.159  54.368  -7.091  1.00  0.00     0.023 C 
HETATM   18  C25 UNL     1       6.189  55.335  -9.353  1.00  0.00     0.023 C 
HETATM   19  C26 UNL     1       3.931  54.444  -8.428  1.00  0.00     0.009 C 
HETATM   20  C27 UNL     1       3.317  53.709  -7.216  1.00  0.00     0.007 C 
HETATM   21  C28 UNL     1       2.250  52.681  -7.613  1.00  0.00     0.011 C 
HETATM   22  C29 UNL     1       1.298  53.118  -8.764  1.00  0.00    -0.032 C 
HETATM   23  C30 UNL     1       1.806  52.432 -10.066  1.00  0.00     0.016 C 
ENDROOT
BRANCH   1  24
HETATM   24  C2  UNL     1      -3.395  52.219 -10.619  1.00  0.00    -0.084 C 
HETATM   25  C1  UNL     1      -4.564  51.548 -10.604  1.00  0.00     0.014 C 
BRANCH  24  26
HETATM   26  C3  UNL     1      -2.977  52.855 -11.936  1.00  0.00     0.037 C 
BRANCH  26  27
HETATM   27  C4  UNL     1      -1.751  52.177 -12.555  1.00  0.00     0.031 C 
BRANCH  27  28
HETATM   28  C5  UNL     1      -2.049  51.655 -13.937  1.00  0.00    -0.024 C 
HETATM   29  C6  UNL     1      -2.617  50.481 -14.273  1.00  0.00    -0.091 C 
HETATM   30  C7  UNL     1      -3.044  49.417 -13.300  1.00  0.00     0.042 C 
HETATM   31  C8  UNL     1      -2.859  50.132 -15.717  1.00  0.00     0.042 C 
ENDBRANCH  27  28
ENDBRANCH  26  27
ENDBRANCH  24  26
ENDBRANCH   1  24
TORSDOF 4
ENDMDL
MODEL 7
REMARK minimizedAffinity -7.13660336
REMARK CNNscore 0.462124825
REMARK CNNaffinity 6.56181717
REMARK  4 active torsions:
REMARK  status: ('A' for Active; 'I' for Inactive)
REMARK    1  A    between atoms: C2_2  and  C3_3 
REMARK    2  A    between atoms: C2_2  and  C9_9 
REMARK    3  A    between atoms: C3_3  and  C4_4 
REMARK    4  A    between atoms: C4_4  and  C5_5 
ROOT
HETATM    1  C9  UNL     1       1.746  55.349  -7.596  1.00  0.00     0.018 C 
HETATM    2  C10 UNL     1       2.156  54.188  -6.631  1.00  0.00     0.010 C 
HETATM    3  C11 UNL     1       1.149  53.047  -6.835  1.00  0.00     0.011 C 
HETATM    4  C12 UNL     1       0.653  53.225  -8.277  1.00  0.00    -0.032 C 
HETATM    5  C13 UNL     1       1.824  52.764  -9.215  1.00  0.00     0.016 C 
HETATM    6  C14 UNL     1       0.478  54.773  -8.296  1.00  0.00     0.002 C 
HETATM    7  C15 UNL     1       0.142  55.226  -9.716  1.00  0.00     0.006 C 
HETATM    8  C16 UNL     1      -1.162  54.566 -10.190  1.00  0.00     0.006 C 
HETATM    9  C17 UNL     1      -1.174  53.017 -10.081  1.00  0.00     0.003 C 
HETATM   10  C18 UNL     1      -2.477  52.321 -10.708  1.00  0.00    -0.035 C 
HETATM   11  C19 UNL     1      -3.734  53.183 -10.440  1.00  0.00     0.016 C 
HETATM   12  C20 UNL     1      -2.235  52.277 -12.251  1.00  0.00     0.017 C 
HETATM   13  C21 UNL     1      -3.246  51.473 -13.042  1.00  0.00     0.080 C 
HETATM   14  C22 UNL     1      -3.309  50.061 -12.516  1.00  0.00     0.135 C 
HETATM   15  O1  UNL     1      -3.217  49.105 -13.289  1.00  0.00    -0.297 OA
HETATM   16  C23 UNL     1      -3.592  49.883 -11.022  1.00  0.00     0.017 C 
HETATM   17  C24 UNL     1      -3.389  48.394 -10.649  1.00  0.00     0.023 C 
HETATM   18  C25 UNL     1      -5.098  50.159 -10.798  1.00  0.00     0.023 C 
HETATM   19  C26 UNL     1      -2.676  50.844 -10.154  1.00  0.00     0.009 C 
HETATM   20  C27 UNL     1      -1.286  50.251  -9.839  1.00  0.00     0.007 C 
HETATM   21  C28 UNL     1      -0.573  50.964  -8.683  1.00  0.00     0.011 C 
HETATM   22  C29 UNL     1      -0.732  52.512  -8.656  1.00  0.00    -0.032 C 
HETATM   23  C30 UNL     1      -1.826  52.844  -7.600  1.00  0.00     0.016 C 
ENDROOT
BRANCH   1  24
HETATM   24  C2  UNL     1       1.614  56.735  -6.940  1.00  0.00    -0.084 C 
HETATM   25  C1  UNL     1       0.455  57.241  -6.472  1.00  0.00     0.014 C 
BRANCH  24  26
HETATM   26  C3  UNL     1       2.866  57.576  -6.747  1.00  0.00     0.037 C 
BRANCH  26  27
HETATM   27  C4  UNL     1       3.625  57.812  -8.057  1.00  0.00     0.031 C 
BRANCH  27  28
HETATM   28  C5  UNL     1       4.383  56.582  -8.485  1.00  0.00    -0.024 C 
HETATM   29  C6  UNL     1       4.335  55.953  -9.674  1.00  0.00    -0.091 C 
HETATM   30  C7  UNL     1       3.458  56.352 -10.829  1.00  0.00     0.042 C 
HETATM   31  C8  UNL     1       5.185  54.738  -9.934  1.00  0.00     0.042 C 
ENDBRANCH  27  28
ENDBRANCH  26  27
ENDBRANCH  24  26
ENDBRANCH   1  24
TORSDOF 4
ENDMDL
MODEL 8
REMARK minimizedAffinity -7.10629368
REMARK CNNscore 0.436538458
REMARK CNNaffinity 6.567173
REMARK  4 active torsions:
REMARK  status: ('A' for Active; 'I' for Inactive)
REMARK    1  A    between atoms: C2_2  and  C3_3 
REMARK    2  A    between atoms: C2_2  and  C9_9 
REMARK    3  A    between atoms: C3_3  and  C4_4 
REMARK    4  A    between atoms: C4_4  and  C5_5 
ROOT
HETATM    1  C9  UNL     1       4.435  56.117  -8.668  1.00  0.00     0.018 C 
HETATM    2  C10 UNL     1       5.207  55.291  -9.750  1.00  0.00     0.010 C 
HETATM    3  C11 UNL     1       4.243  54.219 -10.281  1.00  0.00     0.011 C 
HETATM    4  C12 UNL     1       2.847  54.820 -10.070  1.00  0.00    -0.032 C 
HETATM    5  C13 UNL     1       2.673  55.944 -11.153  1.00  0.00     0.016 C 
HETATM    6  C14 UNL     1       3.040  55.421  -8.646  1.00  0.00     0.002 C 
HETATM    7  C15 UNL     1       1.806  56.241  -8.271  1.00  0.00     0.006 C 
HETATM    8  C16 UNL     1       0.554  55.351  -8.277  1.00  0.00     0.006 C 
HETATM    9  C17 UNL     1       0.325  54.571  -9.600  1.00  0.00     0.003 C 
HETATM   10  C18 UNL     1      -1.055  53.755  -9.656  1.00  0.00    -0.035 C 
HETATM   11  C19 UNL     1      -1.385  53.152  -8.270  1.00  0.00     0.016 C 
HETATM   12  C20 UNL     1      -2.157  54.806 -10.007  1.00  0.00     0.017 C 
HETATM   13  C21 UNL     1      -3.523  54.231 -10.318  1.00  0.00     0.080 C 
HETATM   14  C22 UNL     1      -3.420  53.235 -11.446  1.00  0.00     0.135 C 
HETATM   15  O1  UNL     1      -4.176  53.316 -12.417  1.00  0.00    -0.297 OA
HETATM   16  C23 UNL     1      -2.426  52.085 -11.273  1.00  0.00     0.017 C 
HETATM   17  C24 UNL     1      -2.309  51.320 -12.615  1.00  0.00     0.023 C 
HETATM   18  C25 UNL     1      -3.049  51.075 -10.281  1.00  0.00     0.023 C 
HETATM   19  C26 UNL     1      -1.020  52.622 -10.771  1.00  0.00     0.009 C 
HETATM   20  C27 UNL     1      -0.096  53.092 -11.915  1.00  0.00     0.007 C 
HETATM   21  C28 UNL     1       1.374  53.211 -11.492  1.00  0.00     0.011 C 
HETATM   22  C29 UNL     1       1.614  53.795 -10.070  1.00  0.00    -0.032 C 
HETATM   23  C30 UNL     1       1.900  52.595  -9.121  1.00  0.00     0.016 C 
ENDROOT
BRANCH   1  24
HETATM   24  C2  UNL     1       5.158  56.274  -7.319  1.00  0.00    -0.084 C 
HETATM   25  C1  UNL     1       4.606  56.840  -6.227  1.00  0.00     0.014 C 
BRANCH  24  26
HETATM   26  C3  UNL     1       6.563  55.710  -7.173  1.00  0.00     0.037 C 
BRANCH  26  27
HETATM   27  C4  UNL     1       6.640  54.580  -6.141  1.00  0.00     0.031 C 
BRANCH  27  28
HETATM   28  C5  UNL     1       5.673  53.471  -6.466  1.00  0.00    -0.024 C 
HETATM   29  C6  UNL     1       5.808  52.499  -7.388  1.00  0.00    -0.091 C 
HETATM   30  C7  UNL     1       6.974  52.353  -8.326  1.00  0.00     0.042 C 
HETATM   31  C8  UNL     1       4.739  51.453  -7.561  1.00  0.00     0.042 C 
ENDBRANCH  27  28
ENDBRANCH  26  27
ENDBRANCH  24  26
ENDBRANCH   1  24
TORSDOF 4
ENDMDL
MODEL 9
REMARK minimizedAffinity -7.20796871
REMARK CNNscore 0.399544984
REMARK CNNaffinity 5.90911722
REMARK  4 active torsions:
REMARK  status: ('A' for Active; 'I' for Inactive)
REMARK    1  A    between atoms: C2_2  and  C3_3 
REMARK    2  A    between atoms: C2_2  and  C9_9 
REMARK    3  A    between atoms: C3_3  and  C4_4 
REMARK    4  A    between atoms: C4_4  and  C5_5 
ROOT
HETATM    1  C9  UNL     1     -14.615  45.518 -26.210  1.00  0.00     0.018 C 
HETATM    2  C10 UNL     1     -15.413  45.357 -27.546  1.00  0.00     0.010 C 
HETATM    3  C11 UNL     1     -14.501  45.839 -28.685  1.00  0.00     0.011 C 
HETATM    4  C12 UNL     1     -13.078  45.611 -28.159  1.00  0.00    -0.032 C 
HETATM    5  C13 UNL     1     -12.823  44.062 -28.206  1.00  0.00     0.016 C 
HETATM    6  C14 UNL     1     -13.261  46.118 -26.698  1.00  0.00     0.002 C 
HETATM    7  C15 UNL     1     -11.991  45.831 -25.899  1.00  0.00     0.006 C 
HETATM    8  C16 UNL     1     -10.790  46.548 -26.535  1.00  0.00     0.006 C 
HETATM    9  C17 UNL     1     -10.582  46.242 -28.043  1.00  0.00     0.003 C 
HETATM   10  C18 UNL     1      -9.248  46.878 -28.669  1.00  0.00    -0.035 C 
HETATM   11  C19 UNL     1      -8.975  48.274 -28.059  1.00  0.00     0.016 C 
HETATM   12  C20 UNL     1      -8.084  45.925 -28.247  1.00  0.00     0.017 C 
HETATM   13  C21 UNL     1      -6.747  46.210 -28.897  1.00  0.00     0.080 C 
HETATM   14  C22 UNL     1      -6.885  46.178 -30.399  1.00  0.00     0.135 C 
HETATM   15  O1  UNL     1      -6.111  45.503 -31.081  1.00  0.00    -0.297 OA
HETATM   16  C23 UNL     1      -7.945  47.089 -31.023  1.00  0.00     0.017 C 
HETATM   17  C24 UNL     1      -8.081  46.742 -32.526  1.00  0.00     0.023 C 
HETATM   18  C25 UNL     1      -7.395  48.535 -30.986  1.00  0.00     0.023 C 
HETATM   19  C26 UNL     1      -9.327  46.959 -30.254  1.00  0.00     0.009 C 
HETATM   20  C27 UNL     1     -10.204  45.794 -30.759  1.00  0.00     0.007 C 
HETATM   21  C28 UNL     1     -11.673  45.915 -30.330  1.00  0.00     0.011 C 
HETATM   22  C29 UNL     1     -11.903  46.430 -28.880  1.00  0.00    -0.032 C 
HETATM   23  C30 UNL     1     -12.271  47.940 -28.982  1.00  0.00     0.016 C 
ENDROOT
BRANCH   1  24
HETATM   24  C2  UNL     1     -15.351  46.274 -25.091  1.00  0.00    -0.084 C 
HETATM   25  C1  UNL     1     -14.740  47.061 -24.183  1.00  0.00     0.014 C 
BRANCH  24  26
HETATM   26  C3  UNL     1     -16.868  46.186 -25.024  1.00  0.00     0.037 C 
BRANCH  26  27
HETATM   27  C4  UNL     1     -17.413  46.461 -23.618  1.00  0.00     0.031 C 
BRANCH  27  28
HETATM   28  C5  UNL     1     -18.452  45.445 -23.221  1.00  0.00    -0.024 C 
HETATM   29  C6  UNL     1     -19.644  45.210 -23.803  1.00  0.00    -0.091 C 
HETATM   30  C7  UNL     1     -20.197  45.968 -24.978  1.00  0.00     0.042 C 
HETATM   31  C8  UNL     1     -20.553  44.130 -23.279  1.00  0.00     0.042 C 
ENDBRANCH  27  28
ENDBRANCH  26  27
ENDBRANCH  24  26
ENDBRANCH   1  24
TORSDOF 4
ENDMDL
