MODEL 1
REMARK minimizedAffinity -9.50013542
REMARK  7 active torsions:
REMARK  status: ('A' for Active; 'I' for Inactive)
REMARK    1  A    between atoms: C2_2  and  C4_4 
REMARK    2  A    between atoms: C7_7  and  O1_9 
REMARK    3  A    between atoms: C9_10  and  C10_11 
REMARK    4  A    between atoms: C11_12  and  C12_13 
REMARK    5  A    between atoms: C14_15  and  C15_16 
REMARK    6  A    between atoms: C24_26  and  C26_28 
REMARK    7  A    between atoms: C29_32  and  O4_34 
ROOT
HETATM    1  C15 UNL     1      -5.313  48.158 -28.877  1.00  0.00     0.149 C 
HETATM    2  C16 UNL     1      -6.472  47.268 -28.463  1.00  0.00     0.054 C 
HETATM    3  C17 UNL     1      -7.048  46.665 -29.780  1.00  0.00     0.050 C 
HETATM    4  C18 UNL     1      -5.834  46.903 -30.754  1.00  0.00     0.272 C 
HETATM    5  O2  UNL     1      -5.270  45.815 -31.457  1.00  0.00    -0.360 OA
HETATM    6  C19 UNL     1      -6.121  45.283 -32.458  1.00  0.00     0.171 C 
HETATM    7  C20 UNL     1      -7.034  44.229 -31.859  1.00  0.00     0.027 C 
HETATM    8  C21 UNL     1      -6.827  44.053 -30.360  1.00  0.00     0.012 C 
HETATM    9  C22 UNL     1      -7.502  45.125 -29.486  1.00  0.00     0.032 C 
HETATM   10  C23 UNL     1      -9.043  44.981 -29.244  1.00  0.00    -0.066 C 
HETATM   11  C24 UNL     1      -9.897  43.973 -29.581  1.00  0.00    -0.021 C 
HETATM   12  C25 UNL     1      -9.572  42.625 -30.161  1.00  0.00     0.052 C 
HETATM   13  C27 UNL     1      -9.519  46.169 -28.435  1.00  0.00     0.038 C 
HETATM   14  C28 UNL     1      -9.504  47.429 -29.283  1.00  0.00     0.042 C 
HETATM   15  C29 UNL     1      -8.302  47.521 -30.260  1.00  0.00     0.067 C 
HETATM   16  C30 UNL     1      -8.066  49.025 -30.505  1.00  0.00     0.047 C 
HETATM   17  O5  UNL     1      -4.762  47.484 -29.991  1.00  0.00    -0.351 OA
ENDROOT
BRANCH   1  18
HETATM   18  C14 UNL     1      -4.324  48.356 -27.758  1.00  0.00     0.011 C 
HETATM   19  C12 UNL     1      -4.512  48.377 -26.421  1.00  0.00    -0.064 C 
HETATM   20  C13 UNL     1      -5.833  48.082 -25.754  1.00  0.00     0.048 C 
BRANCH  19  21
HETATM   21  C11 UNL     1      -3.358  48.664 -25.568  1.00  0.00     0.003 C 
HETATM   22  C10 UNL     1      -3.122  49.803 -24.895  1.00  0.00    -0.018 C 
BRANCH  22  23
HETATM   23  C9  UNL     1      -1.912  50.104 -24.031  1.00  0.00     0.050 C 
HETATM   24  C4  UNL     1      -1.221  51.483 -24.290  1.00  0.00     0.024 C 
HETATM   25  C5  UNL     1      -0.734  51.940 -22.908  1.00  0.00     0.013 C 
HETATM   26  C6  UNL     1      -1.852  51.471 -21.985  1.00  0.00     0.039 C 
HETATM   27  C7  UNL     1      -2.153  50.053 -22.485  1.00  0.00     0.062 C 
HETATM   28  C8  UNL     1      -3.521  49.572 -22.008  1.00  0.00     0.046 C 
BRANCH  24  29
HETATM   29  C2  UNL     1      -0.151  51.456 -25.372  1.00  0.00    -0.088 C 
HETATM   30  C1  UNL     1       1.015  52.108 -25.212  1.00  0.00     0.014 C 
HETATM   31  C3  UNL     1      -0.427  50.687 -26.638  1.00  0.00     0.043 C 
ENDBRANCH  24  29
BRANCH  27  32
HETATM   32  O1  UNL     1      -1.174  49.176 -21.901  1.00  0.00    -0.390 OA
HETATM   33  H14 UNL     1      -1.360  48.277 -22.223  1.00  0.00     0.210 HD
ENDBRANCH  27  32
ENDBRANCH  22  23
ENDBRANCH  19  21
ENDBRANCH   1  18
BRANCH  15  34
HETATM   34  O4  UNL     1      -8.717  46.979 -31.526  1.00  0.00    -0.389 OA
HETATM   35  H44 UNL     1      -9.490  47.477 -31.843  1.00  0.00     0.210 HD
ENDBRANCH  15  34
BRANCH  11  36
HETATM   36  C26 UNL     1     -11.376  44.142 -29.351  1.00  0.00     0.265 C 
HETATM   37  O3  UNL     1     -12.096  44.855 -30.040  1.00  0.00    -0.302 OA
ENDBRANCH  11  36
TORSDOF 7
ENDMDL
MODEL 2
REMARK minimizedAffinity -9.43305016
REMARK  7 active torsions:
REMARK  status: ('A' for Active; 'I' for Inactive)
REMARK    1  A    between atoms: C2_2  and  C4_4 
REMARK    2  A    between atoms: C7_7  and  O1_9 
REMARK    3  A    between atoms: C9_10  and  C10_11 
REMARK    4  A    between atoms: C11_12  and  C12_13 
REMARK    5  A    between atoms: C14_15  and  C15_16 
REMARK    6  A    between atoms: C24_26  and  C26_28 
REMARK    7  A    between atoms: C29_32  and  O4_34 
ROOT
HETATM    1  C15 UNL     1      -1.918  51.788 -21.555  1.00  0.00     0.149 C 
HETATM    2  C16 UNL     1      -2.578  50.604 -22.241  1.00  0.00     0.054 C 
HETATM    3  C17 UNL     1      -2.875  51.060 -23.702  1.00  0.00     0.050 C 
HETATM    4  C18 UNL     1      -1.903  52.293 -23.816  1.00  0.00     0.272 C 
HETATM    5  O2  UNL     1      -0.947  52.343 -24.855  1.00  0.00    -0.360 OA
HETATM    6  C19 UNL     1      -1.515  52.521 -26.141  1.00  0.00     0.171 C 
HETATM    7  C20 UNL     1      -1.878  51.176 -26.742  1.00  0.00     0.027 C 
HETATM    8  C21 UNL     1      -1.579  50.012 -25.806  1.00  0.00     0.012 C 
HETATM    9  C22 UNL     1      -2.623  49.791 -24.698  1.00  0.00     0.032 C 
HETATM   10  C23 UNL     1      -3.950  49.064 -25.104  1.00  0.00    -0.066 C 
HETATM   11  C24 UNL     1      -4.302  48.463 -26.276  1.00  0.00    -0.021 C 
HETATM   12  C25 UNL     1      -3.449  48.196 -27.484  1.00  0.00     0.052 C 
HETATM   13  C27 UNL     1      -4.865  49.020 -23.898  1.00  0.00     0.038 C 
HETATM   14  C28 UNL     1      -5.409  50.406 -23.594  1.00  0.00     0.042 C 
HETATM   15  C29 UNL     1      -4.386  51.550 -23.815  1.00  0.00     0.067 C 
HETATM   16  C30 UNL     1      -4.818  52.696 -22.876  1.00  0.00     0.047 C 
HETATM   17  O5  UNL     1      -1.160  52.386 -22.587  1.00  0.00    -0.351 OA
ENDROOT
BRANCH   1  18
HETATM   18  C14 UNL     1      -1.080  51.364 -20.377  1.00  0.00     0.011 C 
HETATM   19  C12 UNL     1      -0.146  52.046 -19.680  1.00  0.00    -0.064 C 
HETATM   20  C13 UNL     1       0.180  53.501 -19.913  1.00  0.00     0.048 C 
BRANCH  19  21
HETATM   21  C11 UNL     1       0.566  51.344 -18.612  1.00  0.00     0.003 C 
HETATM   22  C10 UNL     1       0.039  50.880 -17.466  1.00  0.00    -0.018 C 
BRANCH  22  23
HETATM   23  C9  UNL     1       0.787  50.173 -16.351  1.00  0.00     0.050 C 
HETATM   24  C4  UNL     1       1.296  51.089 -15.192  1.00  0.00     0.024 C 
HETATM   25  C5  UNL     1       1.168  50.226 -13.929  1.00  0.00     0.013 C 
HETATM   26  C6  UNL     1      -0.120  49.452 -14.181  1.00  0.00     0.039 C 
HETATM   27  C7  UNL     1       0.010  49.013 -15.644  1.00  0.00     0.062 C 
HETATM   28  C8  UNL     1      -1.343  48.619 -16.232  1.00  0.00     0.046 C 
BRANCH  24  29
HETATM   29  C2  UNL     1       2.677  51.686 -15.423  1.00  0.00    -0.088 C 
HETATM   30  C1  UNL     1       2.866  52.677 -16.312  1.00  0.00     0.014 C 
HETATM   31  C3  UNL     1       3.840  51.133 -14.639  1.00  0.00     0.043 C 
ENDBRANCH  24  29
BRANCH  27  32
HETATM   32  O1  UNL     1       0.835  47.835 -15.666  1.00  0.00    -0.390 OA
HETATM   33  H14 UNL     1       0.924  47.559 -16.595  1.00  0.00     0.210 HD
ENDBRANCH  27  32
ENDBRANCH  22  23
ENDBRANCH  19  21
ENDBRANCH   1  18
BRANCH  15  34
HETATM   34  O4  UNL     1      -4.562  52.052 -25.151  1.00  0.00    -0.389 OA
HETATM   35  H44 UNL     1      -5.481  52.353 -25.255  1.00  0.00     0.210 HD
ENDBRANCH  15  34
BRANCH  11  36
HETATM   36  C26 UNL     1      -5.706  47.949 -26.456  1.00  0.00     0.265 C 
HETATM   37  O3  UNL     1      -6.205  47.695 -27.547  1.00  0.00    -0.302 OA
ENDBRANCH  11  36
TORSDOF 7
ENDMDL
MODEL 3
REMARK minimizedAffinity -9.36680889
REMARK  7 active torsions:
REMARK  status: ('A' for Active; 'I' for Inactive)
REMARK    1  A    between atoms: C2_2  and  C4_4 
REMARK    2  A    between atoms: C7_7  and  O1_9 
REMARK    3  A    between atoms: C9_10  and  C10_11 
REMARK    4  A    between atoms: C11_12  and  C12_13 
REMARK    5  A    between atoms: C14_15  and  C15_16 
REMARK    6  A    between atoms: C24_26  and  C26_28 
REMARK    7  A    between atoms: C29_32  and  O4_34 
ROOT
HETATM    1  C15 UNL     1      -5.116  48.611 -28.734  1.00  0.00     0.149 C 
HETATM    2  C16 UNL     1      -5.536  47.163 -28.912  1.00  0.00     0.054 C 
HETATM    3  C17 UNL     1      -6.063  47.041 -30.374  1.00  0.00     0.050 C 
HETATM    4  C18 UNL     1      -5.424  48.331 -31.013  1.00  0.00     0.272 C 
HETATM    5  O2  UNL     1      -4.604  48.218 -32.158  1.00  0.00    -0.360 OA
HETATM    6  C19 UNL     1      -5.312  47.846 -33.328  1.00  0.00     0.171 C 
HETATM    7  C20 UNL     1      -5.399  46.334 -33.426  1.00  0.00     0.027 C 
HETATM    8  C21 UNL     1      -4.751  45.629 -32.242  1.00  0.00     0.012 C 
HETATM    9  C22 UNL     1      -5.609  45.589 -30.966  1.00  0.00     0.032 C 
HETATM   10  C23 UNL     1      -6.758  44.524 -30.912  1.00  0.00    -0.066 C 
HETATM   11  C24 UNL     1      -7.062  43.513 -31.774  1.00  0.00    -0.021 C 
HETATM   12  C25 UNL     1      -6.282  43.031 -32.965  1.00  0.00     0.052 C 
HETATM   13  C27 UNL     1      -7.524  44.706 -29.619  1.00  0.00     0.038 C 
HETATM   14  C28 UNL     1      -8.350  45.980 -29.665  1.00  0.00     0.042 C 
HETATM   15  C29 UNL     1      -7.651  47.162 -30.385  1.00  0.00     0.067 C 
HETATM   16  C30 UNL     1      -8.255  48.447 -29.781  1.00  0.00     0.047 C 
HETATM   17  O5  UNL     1      -4.617  48.969 -30.007  1.00  0.00    -0.351 OA
ENDROOT
BRANCH   1  18
HETATM   18  C14 UNL     1      -4.099  48.774 -27.634  1.00  0.00     0.011 C 
HETATM   19  C12 UNL     1      -4.231  48.643 -26.297  1.00  0.00    -0.064 C 
HETATM   20  C13 UNL     1      -5.496  48.175 -25.619  1.00  0.00     0.048 C 
BRANCH  19  21
HETATM   21  C11 UNL     1      -3.068  48.935 -25.458  1.00  0.00     0.003 C 
HETATM   22  C10 UNL     1      -2.824  50.077 -24.794  1.00  0.00    -0.018 C 
BRANCH  22  23
HETATM   23  C9  UNL     1      -1.603  50.383 -23.945  1.00  0.00     0.050 C 
HETATM   24  C4  UNL     1      -0.862  51.718 -24.281  1.00  0.00     0.024 C 
HETATM   25  C5  UNL     1      -0.360  52.235 -22.926  1.00  0.00     0.013 C 
HETATM   26  C6  UNL     1      -1.495  51.862 -21.982  1.00  0.00     0.039 C 
HETATM   27  C7  UNL     1      -1.848  50.429 -22.400  1.00  0.00     0.062 C 
HETATM   28  C8  UNL     1      -3.234  50.027 -21.900  1.00  0.00     0.046 C 
BRANCH  24  29
HETATM   29  C2  UNL     1       0.208  51.589 -25.356  1.00  0.00    -0.088 C 
HETATM   30  C1  UNL     1       1.386  52.227 -25.243  1.00  0.00     0.014 C 
HETATM   31  C3  UNL     1      -0.085  50.735 -26.563  1.00  0.00     0.043 C 
ENDBRANCH  24  29
BRANCH  27  32
HETATM   32  O1  UNL     1      -0.903  49.552 -21.764  1.00  0.00    -0.390 OA
HETATM   33  H14 UNL     1      -1.121  48.643 -22.034  1.00  0.00     0.210 HD
ENDBRANCH  27  32
ENDBRANCH  22  23
ENDBRANCH  19  21
ENDBRANCH   1  18
BRANCH  15  34
HETATM   34  O4  UNL     1      -8.060  47.148 -31.764  1.00  0.00    -0.389 OA
HETATM   35  H44 UNL     1      -9.030  47.212 -31.804  1.00  0.00     0.210 HD
ENDBRANCH  15  34
BRANCH  11  36
HETATM   36  C26 UNL     1      -8.315  42.705 -31.561  1.00  0.00     0.265 C 
HETATM   37  O3  UNL     1      -9.404  42.996 -32.040  1.00  0.00    -0.302 OA
ENDBRANCH  11  36
TORSDOF 7
ENDMDL
MODEL 4
REMARK minimizedAffinity -9.13728619
REMARK  7 active torsions:
REMARK  status: ('A' for Active; 'I' for Inactive)
REMARK    1  A    between atoms: C2_2  and  C4_4 
REMARK    2  A    between atoms: C7_7  and  O1_9 
REMARK    3  A    between atoms: C9_10  and  C10_11 
REMARK    4  A    between atoms: C11_12  and  C12_13 
REMARK    5  A    between atoms: C14_15  and  C15_16 
REMARK    6  A    between atoms: C24_26  and  C26_28 
REMARK    7  A    between atoms: C29_32  and  O4_34 
ROOT
HETATM    1  C15 UNL     1      -6.812  47.244 -26.505  1.00  0.00     0.149 C 
HETATM    2  C16 UNL     1      -6.558  46.885 -27.959  1.00  0.00     0.054 C 
HETATM    3  C17 UNL     1      -7.956  46.596 -28.585  1.00  0.00     0.050 C 
HETATM    4  C18 UNL     1      -8.889  47.301 -27.531  1.00  0.00     0.272 C 
HETATM    5  O2  UNL     1      -9.804  48.292 -27.952  1.00  0.00    -0.360 OA
HETATM    6  C19 UNL     1     -10.872  47.783 -28.732  1.00  0.00     0.171 C 
HETATM    7  C20 UNL     1     -10.474  47.741 -30.196  1.00  0.00     0.027 C 
HETATM    8  C21 UNL     1      -9.044  48.211 -30.432  1.00  0.00     0.012 C 
HETATM    9  C22 UNL     1      -7.962  47.164 -30.115  1.00  0.00     0.032 C 
HETATM   10  C23 UNL     1      -7.721  46.042 -31.182  1.00  0.00    -0.066 C 
HETATM   11  C24 UNL     1      -8.232  45.896 -32.437  1.00  0.00    -0.021 C 
HETATM   12  C25 UNL     1      -9.074  46.862 -33.223  1.00  0.00     0.052 C 
HETATM   13  C27 UNL     1      -6.683  45.080 -30.645  1.00  0.00     0.038 C 
HETATM   14  C28 UNL     1      -7.265  44.247 -29.516  1.00  0.00     0.042 C 
HETATM   15  C29 UNL     1      -8.230  45.027 -28.585  1.00  0.00     0.067 C 
HETATM   16  C30 UNL     1      -8.178  44.311 -27.220  1.00  0.00     0.047 C 
HETATM   17  O5  UNL     1      -8.048  47.928 -26.546  1.00  0.00    -0.351 OA
ENDROOT
BRANCH   1  18
HETATM   18  C14 UNL     1      -5.697  48.073 -25.923  1.00  0.00     0.011 C 
HETATM   19  C12 UNL     1      -4.547  48.505 -26.484  1.00  0.00    -0.064 C 
HETATM   20  C13 UNL     1      -4.192  48.302 -27.936  1.00  0.00     0.048 C 
BRANCH  19  21
HETATM   21  C11 UNL     1      -3.607  49.246 -25.642  1.00  0.00     0.003 C 
HETATM   22  C10 UNL     1      -2.445  49.798 -26.031  1.00  0.00    -0.018 C 
BRANCH  22  23
HETATM   23  C9  UNL     1      -1.462  50.545 -25.148  1.00  0.00     0.050 C 
HETATM   24  C4  UNL     1      -0.913  51.887 -25.732  1.00  0.00     0.024 C 
HETATM   25  C5  UNL     1      -0.750  52.804 -24.512  1.00  0.00     0.013 C 
HETATM   26  C6  UNL     1      -1.952  52.436 -23.652  1.00  0.00     0.039 C 
HETATM   27  C7  UNL     1      -1.977  50.904 -23.715  1.00  0.00     0.062 C 
HETATM   28  C8  UNL     1      -3.339  50.350 -23.303  1.00  0.00     0.046 C 
BRANCH  24  29
HETATM   29  C2  UNL     1       0.335  51.735 -26.591  1.00  0.00    -0.088 C 
HETATM   30  C1  UNL     1       1.553  51.623 -26.033  1.00  0.00     0.014 C 
HETATM   31  C3  UNL     1       0.178  51.723 -28.090  1.00  0.00     0.043 C 
ENDBRANCH  24  29
BRANCH  27  32
HETATM   32  O1  UNL     1      -1.022  50.421 -22.755  1.00  0.00    -0.390 OA
HETATM   33  H14 UNL     1      -1.031  49.448 -22.798  1.00  0.00     0.210 HD
ENDBRANCH  27  32
ENDBRANCH  22  23
ENDBRANCH  19  21
ENDBRANCH   1  18
BRANCH  15  34
HETATM   34  O4  UNL     1      -9.569  44.839 -29.075  1.00  0.00    -0.389 OA
HETATM   35  H44 UNL     1      -9.765  43.886 -29.095  1.00  0.00     0.210 HD
ENDBRANCH  15  34
BRANCH  11  36
HETATM   36  C26 UNL     1      -7.943  44.642 -33.217  1.00  0.00     0.265 C 
HETATM   37  O3  UNL     1      -8.675  43.659 -33.226  1.00  0.00    -0.302 OA
ENDBRANCH  11  36
TORSDOF 7
ENDMDL
MODEL 5
REMARK minimizedAffinity -9.11340904
REMARK  7 active torsions:
REMARK  status: ('A' for Active; 'I' for Inactive)
REMARK    1  A    between atoms: C2_2  and  C4_4 
REMARK    2  A    between atoms: C7_7  and  O1_9 
REMARK    3  A    between atoms: C9_10  and  C10_11 
REMARK    4  A    between atoms: C11_12  and  C12_13 
REMARK    5  A    between atoms: C14_15  and  C15_16 
REMARK    6  A    between atoms: C24_26  and  C26_28 
REMARK    7  A    between atoms: C29_32  and  O4_34 
ROOT
HETATM    1  C15 UNL     1      -5.245  48.436 -28.169  1.00  0.00     0.149 C 
HETATM    2  C16 UNL     1      -5.857  47.067 -28.414  1.00  0.00     0.054 C 
HETATM    3  C17 UNL     1      -6.333  47.064 -29.898  1.00  0.00     0.050 C 
HETATM    4  C18 UNL     1      -5.493  48.268 -30.467  1.00  0.00     0.272 C 
HETATM    5  O2  UNL     1      -4.649  48.074 -31.583  1.00  0.00    -0.360 OA
HETATM    6  C19 UNL     1      -5.352  47.840 -32.792  1.00  0.00     0.171 C 
HETATM    7  C20 UNL     1      -5.647  46.360 -32.945  1.00  0.00     0.027 C 
HETATM    8  C21 UNL     1      -5.155  45.535 -31.763  1.00  0.00     0.012 C 
HETATM    9  C22 UNL     1      -6.064  45.580 -30.523  1.00  0.00     0.032 C 
HETATM   10  C23 UNL     1      -7.352  44.688 -30.549  1.00  0.00    -0.066 C 
HETATM   11  C24 UNL     1      -7.758  43.756 -31.456  1.00  0.00    -0.021 C 
HETATM   12  C25 UNL     1      -7.004  43.203 -32.633  1.00  0.00     0.052 C 
HETATM   13  C27 UNL     1      -8.139  44.939 -29.280  1.00  0.00     0.038 C 
HETATM   14  C28 UNL     1      -8.775  46.318 -29.313  1.00  0.00     0.042 C 
HETATM   15  C29 UNL     1      -7.886  47.410 -29.965  1.00  0.00     0.067 C 
HETATM   16  C30 UNL     1      -8.329  48.749 -29.340  1.00  0.00     0.047 C 
HETATM   17  O5  UNL     1      -4.648  48.756 -29.409  1.00  0.00    -0.351 OA
ENDROOT
BRANCH   1  18
HETATM   18  C14 UNL     1      -4.263  48.421 -27.027  1.00  0.00     0.011 C 
HETATM   19  C12 UNL     1      -4.475  48.412 -25.693  1.00  0.00    -0.064 C 
HETATM   20  C13 UNL     1      -5.841  48.307 -25.061  1.00  0.00     0.048 C 
BRANCH  19  21
HETATM   21  C11 UNL     1      -3.309  48.470 -24.810  1.00  0.00     0.003 C 
HETATM   22  C10 UNL     1      -3.303  48.816 -23.512  1.00  0.00    -0.018 C 
BRANCH  22  23
HETATM   23  C9  UNL     1      -2.087  48.897 -22.607  1.00  0.00     0.050 C 
HETATM   24  C4  UNL     1      -1.812  50.297 -21.968  1.00  0.00     0.024 C 
HETATM   25  C5  UNL     1      -1.246  49.984 -20.576  1.00  0.00     0.013 C 
HETATM   26  C6  UNL     1      -2.055  48.765 -20.150  1.00  0.00     0.039 C 
HETATM   27  C7  UNL     1      -2.066  47.890 -21.410  1.00  0.00     0.062 C 
HETATM   28  C8  UNL     1      -3.180  46.847 -21.355  1.00  0.00     0.046 C 
BRANCH  24  29
HETATM   29  C2  UNL     1      -0.949  51.218 -22.819  1.00  0.00    -0.088 C 
HETATM   30  C1  UNL     1      -1.264  51.477 -24.101  1.00  0.00     0.014 C 
HETATM   31  C3  UNL     1       0.281  51.829 -22.198  1.00  0.00     0.043 C 
ENDBRANCH  24  29
BRANCH  27  32
HETATM   32  O1  UNL     1      -0.821  47.171 -21.442  1.00  0.00    -0.390 OA
HETATM   33  H14 UNL     1      -0.824  46.620 -22.245  1.00  0.00     0.210 HD
ENDBRANCH  27  32
ENDBRANCH  22  23
ENDBRANCH  19  21
ENDBRANCH   1  18
BRANCH  15  34
HETATM   34  O4  UNL     1      -8.234  47.494 -31.358  1.00  0.00    -0.389 OA
HETATM   35  H44 UNL     1      -9.183  47.696 -31.432  1.00  0.00     0.210 HD
ENDBRANCH  15  34
BRANCH  11  36
HETATM   36  C26 UNL     1      -9.120  43.128 -31.319  1.00  0.00     0.265 C 
HETATM   37  O3  UNL     1      -9.304  41.963 -30.989  1.00  0.00    -0.302 OA
ENDBRANCH  11  36
TORSDOF 7
ENDMDL
MODEL 6
REMARK minimizedAffinity -8.97324371
REMARK  7 active torsions:
REMARK  status: ('A' for Active; 'I' for Inactive)
REMARK    1  A    between atoms: C2_2  and  C4_4 
REMARK    2  A    between atoms: C7_7  and  O1_9 
REMARK    3  A    between atoms: C9_10  and  C10_11 
REMARK    4  A    between atoms: C11_12  and  C12_13 
REMARK    5  A    between atoms: C14_15  and  C15_16 
REMARK    6  A    between atoms: C24_26  and  C26_28 
REMARK    7  A    between atoms: C29_32  and  O4_34 
ROOT
HETATM    1  C15 UNL     1      -5.608  48.622 -25.490  1.00  0.00     0.149 C 
HETATM    2  C16 UNL     1      -4.208  48.795 -24.925  1.00  0.00     0.054 C 
HETATM    3  C17 UNL     1      -4.379  48.960 -23.385  1.00  0.00     0.050 C 
HETATM    4  C18 UNL     1      -5.827  48.371 -23.197  1.00  0.00     0.272 C 
HETATM    5  O2  UNL     1      -6.045  47.308 -22.292  1.00  0.00    -0.360 OA
HETATM    6  C19 UNL     1      -5.892  47.679 -20.933  1.00  0.00     0.171 C 
HETATM    7  C20 UNL     1      -4.439  47.541 -20.515  1.00  0.00     0.027 C 
HETATM    8  C21 UNL     1      -3.538  47.087 -21.656  1.00  0.00     0.012 C 
HETATM    9  C22 UNL     1      -3.141  48.197 -22.644  1.00  0.00     0.032 C 
HETATM   10  C23 UNL     1      -2.003  49.176 -22.197  1.00  0.00    -0.066 C 
HETATM   11  C24 UNL     1      -1.192  49.142 -21.102  1.00  0.00    -0.021 C 
HETATM   12  C25 UNL     1      -1.058  48.059 -20.069  1.00  0.00     0.052 C 
HETATM   13  C27 UNL     1      -1.824  50.230 -23.269  1.00  0.00     0.038 C 
HETATM   14  C28 UNL     1      -3.004  51.186 -23.277  1.00  0.00     0.042 C 
HETATM   15  C29 UNL     1      -4.371  50.506 -23.005  1.00  0.00     0.067 C 
HETATM   16  C30 UNL     1      -5.432  51.396 -23.686  1.00  0.00     0.047 C 
HETATM   17  O5  UNL     1      -6.284  47.902 -24.479  1.00  0.00    -0.351 OA
ENDROOT
BRANCH   1  18
HETATM   18  C14 UNL     1      -5.598  47.908 -26.817  1.00  0.00     0.011 C 
HETATM   19  C12 UNL     1      -4.975  48.222 -27.972  1.00  0.00    -0.064 C 
HETATM   20  C13 UNL     1      -4.021  49.382 -28.124  1.00  0.00     0.048 C 
BRANCH  19  21
HETATM   21  C11 UNL     1      -5.208  47.366 -29.136  1.00  0.00     0.003 C 
HETATM   22  C10 UNL     1      -5.427  47.770 -30.398  1.00  0.00    -0.018 C 
BRANCH  22  23
HETATM   23  C9  UNL     1      -5.693  46.877 -31.597  1.00  0.00     0.050 C 
HETATM   24  C4  UNL     1      -4.432  46.462 -32.423  1.00  0.00     0.024 C 
HETATM   25  C5  UNL     1      -4.732  45.033 -32.896  1.00  0.00     0.013 C 
HETATM   26  C6  UNL     1      -5.463  44.430 -31.703  1.00  0.00     0.039 C 
HETATM   27  C7  UNL     1      -6.440  45.537 -31.290  1.00  0.00     0.062 C 
HETATM   28  C8  UNL     1      -6.947  45.330 -29.865  1.00  0.00     0.046 C 
BRANCH  24  29
HETATM   29  C2  UNL     1      -4.056  47.438 -33.529  1.00  0.00    -0.088 C 
HETATM   30  C1  UNL     1      -2.773  47.772 -33.754  1.00  0.00     0.014 C 
HETATM   31  C3  UNL     1      -5.158  48.037 -34.365  1.00  0.00     0.043 C 
ENDBRANCH  24  29
BRANCH  27  32
HETATM   32  O1  UNL     1      -7.583  45.445 -32.158  1.00  0.00    -0.390 OA
HETATM   33  H14 UNL     1      -8.201  46.152 -31.902  1.00  0.00     0.210 HD
ENDBRANCH  27  32
ENDBRANCH  22  23
ENDBRANCH  19  21
ENDBRANCH   1  18
BRANCH  15  34
HETATM   34  O4  UNL     1      -4.638  50.590 -21.594  1.00  0.00    -0.389 OA
HETATM   35  H44 UNL     1      -4.630  51.526 -21.329  1.00  0.00     0.210 HD
ENDBRANCH  15  34
BRANCH  11  36
HETATM   36  C26 UNL     1      -0.259  50.293 -20.831  1.00  0.00     0.265 C 
HETATM   37  O3  UNL     1      -0.369  51.051 -19.875  1.00  0.00    -0.302 OA
ENDBRANCH  11  36
TORSDOF 7
ENDMDL
MODEL 7
REMARK minimizedAffinity -8.89147663
REMARK  7 active torsions:
REMARK  status: ('A' for Active; 'I' for Inactive)
REMARK    1  A    between atoms: C2_2  and  C4_4 
REMARK    2  A    between atoms: C7_7  and  O1_9 
REMARK    3  A    between atoms: C9_10  and  C10_11 
REMARK    4  A    between atoms: C11_12  and  C12_13 
REMARK    5  A    between atoms: C14_15  and  C15_16 
REMARK    6  A    between atoms: C24_26  and  C26_28 
REMARK    7  A    between atoms: C29_32  and  O4_34 
ROOT
HETATM    1  C15 UNL     1      -6.815  47.376 -26.443  1.00  0.00     0.149 C 
HETATM    2  C16 UNL     1      -6.594  47.050 -27.910  1.00  0.00     0.054 C 
HETATM    3  C17 UNL     1      -7.989  46.652 -28.480  1.00  0.00     0.050 C 
HETATM    4  C18 UNL     1      -8.931  47.270 -27.380  1.00  0.00     0.272 C 
HETATM    5  O2  UNL     1      -9.942  48.185 -27.751  1.00  0.00    -0.360 OA
HETATM    6  C19 UNL     1     -10.997  47.595 -28.492  1.00  0.00     0.171 C 
HETATM    7  C20 UNL     1     -10.660  47.597 -29.971  1.00  0.00     0.027 C 
HETATM    8  C21 UNL     1      -9.285  48.184 -30.262  1.00  0.00     0.012 C 
HETATM    9  C22 UNL     1      -8.108  47.228 -30.002  1.00  0.00     0.032 C 
HETATM   10  C23 UNL     1      -7.821  46.138 -31.090  1.00  0.00    -0.066 C 
HETATM   11  C24 UNL     1      -8.372  45.959 -32.324  1.00  0.00    -0.021 C 
HETATM   12  C25 UNL     1      -9.323  46.858 -33.064  1.00  0.00     0.052 C 
HETATM   13  C27 UNL     1      -6.686  45.260 -30.607  1.00  0.00     0.038 C 
HETATM   14  C28 UNL     1      -7.149  44.374 -29.464  1.00  0.00     0.042 C 
HETATM   15  C29 UNL     1      -8.134  45.065 -28.485  1.00  0.00     0.067 C 
HETATM   16  C30 UNL     1      -7.964  44.346 -27.131  1.00  0.00     0.047 C 
HETATM   17  O5  UNL     1      -8.103  47.957 -26.425  1.00  0.00    -0.351 OA
ENDROOT
BRANCH   1  18
HETATM   18  C14 UNL     1      -5.747  48.291 -25.900  1.00  0.00     0.011 C 
HETATM   19  C12 UNL     1      -4.546  48.632 -26.414  1.00  0.00    -0.064 C 
HETATM   20  C13 UNL     1      -4.063  48.201 -27.777  1.00  0.00     0.048 C 
BRANCH  19  21
HETATM   21  C11 UNL     1      -3.678  49.500 -25.617  1.00  0.00     0.003 C 
HETATM   22  C10 UNL     1      -3.428  50.802 -25.834  1.00  0.00    -0.018 C 
BRANCH  22  23
HETATM   23  C9  UNL     1      -2.508  51.691 -25.019  1.00  0.00     0.050 C 
HETATM   24  C4  UNL     1      -2.108  51.141 -23.611  1.00  0.00     0.024 C 
HETATM   25  C5  UNL     1      -0.663  51.617 -23.404  1.00  0.00     0.013 C 
HETATM   26  C6  UNL     1      -0.065  51.493 -24.800  1.00  0.00     0.039 C 
HETATM   27  C7  UNL     1      -1.156  52.077 -25.706  1.00  0.00     0.062 C 
HETATM   28  C8  UNL     1      -0.963  51.647 -27.159  1.00  0.00     0.046 C 
BRANCH  24  29
HETATM   29  C2  UNL     1      -3.072  51.513 -22.494  1.00  0.00    -0.088 C 
HETATM   30  C1  UNL     1      -2.846  51.130 -21.225  1.00  0.00     0.014 C 
HETATM   31  C3  UNL     1      -4.300  52.315 -22.841  1.00  0.00     0.043 C 
ENDBRANCH  24  29
BRANCH  27  32
HETATM   32  O1  UNL     1      -1.020  53.508 -25.672  1.00  0.00    -0.390 OA
HETATM   33  H14 UNL     1      -1.716  53.881 -26.241  1.00  0.00     0.210 HD
ENDBRANCH  27  32
ENDBRANCH  22  23
ENDBRANCH  19  21
ENDBRANCH   1  18
BRANCH  15  34
HETATM   34  O4  UNL     1      -9.473  44.771 -28.920  1.00  0.00    -0.389 OA
HETATM   35  H44 UNL     1      -9.590  43.805 -28.942  1.00  0.00     0.210 HD
ENDBRANCH  15  34
BRANCH  11  36
HETATM   36  C26 UNL     1      -8.014  44.738 -33.129  1.00  0.00     0.265 C 
HETATM   37  O3  UNL     1      -8.498  44.477 -34.224  1.00  0.00    -0.302 OA
ENDBRANCH  11  36
TORSDOF 7
ENDMDL
MODEL 8
REMARK minimizedAffinity -8.83286095
REMARK  7 active torsions:
REMARK  status: ('A' for Active; 'I' for Inactive)
REMARK    1  A    between atoms: C2_2  and  C4_4 
REMARK    2  A    between atoms: C7_7  and  O1_9 
REMARK    3  A    between atoms: C9_10  and  C10_11 
REMARK    4  A    between atoms: C11_12  and  C12_13 
REMARK    5  A    between atoms: C14_15  and  C15_16 
REMARK    6  A    between atoms: C24_26  and  C26_28 
REMARK    7  A    between atoms: C29_32  and  O4_34 
ROOT
HETATM    1  C15 UNL     1      -4.864  49.040 -25.124  1.00  0.00     0.149 C 
HETATM    2  C16 UNL     1      -3.527  49.669 -24.772  1.00  0.00     0.054 C 
HETATM    3  C17 UNL     1      -3.532  49.861 -23.226  1.00  0.00     0.050 C 
HETATM    4  C18 UNL     1      -4.683  48.866 -22.821  1.00  0.00     0.272 C 
HETATM    5  O2  UNL     1      -4.431  47.842 -21.881  1.00  0.00    -0.360 OA
HETATM    6  C19 UNL     1      -4.221  48.320 -20.563  1.00  0.00     0.171 C 
HETATM    7  C20 UNL     1      -2.756  48.661 -20.360  1.00  0.00     0.027 C 
HETATM    8  C21 UNL     1      -1.921  48.442 -21.615  1.00  0.00     0.012 C 
HETATM    9  C22 UNL     1      -2.029  49.562 -22.664  1.00  0.00     0.032 C 
HETATM   10  C23 UNL     1      -1.206  50.869 -22.401  1.00  0.00    -0.066 C 
HETATM   11  C24 UNL     1      -0.286  51.150 -21.435  1.00  0.00    -0.021 C 
HETATM   12  C25 UNL     1       0.320  50.222 -20.420  1.00  0.00     0.052 C 
HETATM   13  C27 UNL     1      -1.513  51.863 -23.500  1.00  0.00     0.038 C 
HETATM   14  C28 UNL     1      -2.923  52.406 -23.347  1.00  0.00     0.042 C 
HETATM   15  C29 UNL     1      -3.959  51.354 -22.871  1.00  0.00     0.067 C 
HETATM   16  C30 UNL     1      -5.327  51.832 -23.400  1.00  0.00     0.047 C 
HETATM   17  O5  UNL     1      -5.138  48.206 -24.016  1.00  0.00    -0.351 OA
ENDROOT
BRANCH   1  18
HETATM   18  C14 UNL     1      -4.810  48.289 -26.429  1.00  0.00     0.011 C 
HETATM   19  C12 UNL     1      -4.285  48.646 -27.621  1.00  0.00    -0.064 C 
HETATM   20  C13 UNL     1      -3.509  49.920 -27.849  1.00  0.00     0.048 C 
BRANCH  19  21
HETATM   21  C11 UNL     1      -4.444  47.726 -28.747  1.00  0.00     0.003 C 
HETATM   22  C10 UNL     1      -5.552  47.548 -29.487  1.00  0.00    -0.018 C 
BRANCH  22  23
HETATM   23  C9  UNL     1      -5.719  46.574 -30.640  1.00  0.00     0.050 C 
HETATM   24  C4  UNL     1      -7.113  45.874 -30.737  1.00  0.00     0.024 C 
HETATM   25  C5  UNL     1      -7.369  45.726 -32.243  1.00  0.00     0.013 C 
HETATM   26  C6  UNL     1      -6.789  47.015 -32.811  1.00  0.00     0.039 C 
HETATM   27  C7  UNL     1      -5.457  47.163 -32.066  1.00  0.00     0.062 C 
HETATM   28  C8  UNL     1      -4.928  48.593 -32.145  1.00  0.00     0.046 C 
BRANCH  24  29
HETATM   29  C2  UNL     1      -7.225  44.584 -29.937  1.00  0.00    -0.088 C 
HETATM   30  C1  UNL     1      -7.448  44.605 -28.611  1.00  0.00     0.014 C 
HETATM   31  C3  UNL     1      -7.068  43.272 -30.663  1.00  0.00     0.043 C 
ENDBRANCH  24  29
BRANCH  27  32
HETATM   32  O1  UNL     1      -4.498  46.324 -32.734  1.00  0.00    -0.390 OA
HETATM   33  H14 UNL     1      -3.653  46.411 -32.258  1.00  0.00     0.210 HD
ENDBRANCH  27  32
ENDBRANCH  22  23
ENDBRANCH  19  21
ENDBRANCH   1  18
BRANCH  15  34
HETATM   34  O4  UNL     1      -4.045  51.433 -21.437  1.00  0.00    -0.389 OA
HETATM   35  H44 UNL     1      -4.296  52.339 -21.187  1.00  0.00     0.210 HD
ENDBRANCH  15  34
BRANCH  11  36
HETATM   36  C26 UNL     1       0.267  52.546 -21.318  1.00  0.00     0.265 C 
HETATM   37  O3  UNL     1       1.301  52.822 -20.722  1.00  0.00    -0.302 OA
ENDBRANCH  11  36
TORSDOF 7
ENDMDL
MODEL 9
REMARK minimizedAffinity -8.82048416
REMARK  7 active torsions:
REMARK  status: ('A' for Active; 'I' for Inactive)
REMARK    1  A    between atoms: C2_2  and  C4_4 
REMARK    2  A    between atoms: C7_7  and  O1_9 
REMARK    3  A    between atoms: C9_10  and  C10_11 
REMARK    4  A    between atoms: C11_12  and  C12_13 
REMARK    5  A    between atoms: C14_15  and  C15_16 
REMARK    6  A    between atoms: C24_26  and  C26_28 
REMARK    7  A    between atoms: C29_32  and  O4_34 
ROOT
HETATM    1  C15 UNL     1      -7.098  47.188 -25.990  1.00  0.00     0.149 C 
HETATM    2  C16 UNL     1      -6.689  47.067 -27.448  1.00  0.00     0.054 C 
HETATM    3  C17 UNL     1      -8.001  46.803 -28.246  1.00  0.00     0.050 C 
HETATM    4  C18 UNL     1      -9.072  47.290 -27.200  1.00  0.00     0.272 C 
HETATM    5  O2  UNL     1     -10.010  48.282 -27.561  1.00  0.00    -0.360 OA
HETATM    6  C19 UNL     1     -10.966  47.841 -28.510  1.00  0.00     0.171 C 
HETATM    7  C20 UNL     1     -10.435  48.043 -29.917  1.00  0.00     0.027 C 
HETATM    8  C21 UNL     1      -9.024  48.618 -29.937  1.00  0.00     0.012 C 
HETATM    9  C22 UNL     1      -7.907  47.595 -29.670  1.00  0.00     0.032 C 
HETATM   10  C23 UNL     1      -7.495  46.662 -30.859  1.00  0.00    -0.066 C 
HETATM   11  C24 UNL     1      -7.879  46.681 -32.167  1.00  0.00    -0.021 C 
HETATM   12  C25 UNL     1      -8.708  47.708 -32.885  1.00  0.00     0.052 C 
HETATM   13  C27 UNL     1      -6.447  45.686 -30.367  1.00  0.00     0.038 C 
HETATM   14  C28 UNL     1      -7.072  44.661 -29.436  1.00  0.00     0.042 C 
HETATM   15  C29 UNL     1      -8.168  45.240 -28.503  1.00  0.00     0.067 C 
HETATM   16  C30 UNL     1      -8.192  44.328 -27.258  1.00  0.00     0.047 C 
HETATM   17  O5  UNL     1      -8.369  47.804 -26.054  1.00  0.00    -0.351 OA
ENDROOT
BRANCH   1  18
HETATM   18  C14 UNL     1      -6.099  47.978 -25.185  1.00  0.00     0.011 C 
HETATM   19  C12 UNL     1      -4.886  48.459 -25.530  1.00  0.00    -0.064 C 
HETATM   20  C13 UNL     1      -4.312  48.371 -26.923  1.00  0.00     0.048 C 
BRANCH  19  21
HETATM   21  C11 UNL     1      -4.097  49.140 -24.502  1.00  0.00     0.003 C 
HETATM   22  C10 UNL     1      -3.010  48.660 -23.876  1.00  0.00    -0.018 C 
BRANCH  22  23
HETATM   23  C9  UNL     1      -2.210  49.361 -22.794  1.00  0.00     0.050 C 
HETATM   24  C4  UNL     1      -2.668  50.815 -22.449  1.00  0.00     0.024 C 
HETATM   25  C5  UNL     1      -2.428  50.950 -20.939  1.00  0.00     0.013 C 
HETATM   26  C6  UNL     1      -2.800  49.569 -20.414  1.00  0.00     0.039 C 
HETATM   27  C7  UNL     1      -2.138  48.618 -21.418  1.00  0.00     0.062 C 
HETATM   28  C8  UNL     1      -2.745  47.219 -21.346  1.00  0.00     0.046 C 
BRANCH  24  29
HETATM   29  C2  UNL     1      -2.020  51.897 -23.301  1.00  0.00    -0.088 C 
HETATM   30  C1  UNL     1      -2.727  52.568 -24.228  1.00  0.00     0.014 C 
HETATM   31  C3  UNL     1      -0.557  52.196 -23.094  1.00  0.00     0.043 C 
ENDBRANCH  24  29
BRANCH  27  32
HETATM   32  O1  UNL     1      -0.755  48.494 -21.042  1.00  0.00    -0.390 OA
HETATM   33  H14 UNL     1      -0.331  47.896 -21.682  1.00  0.00     0.210 HD
ENDBRANCH  27  32
ENDBRANCH  22  23
ENDBRANCH  19  21
ENDBRANCH   1  18
BRANCH  15  34
HETATM   34  O4  UNL     1      -9.442  45.057 -29.145  1.00  0.00    -0.389 OA
HETATM   35  H44 UNL     1      -9.570  44.109 -29.324  1.00  0.00     0.210 HD
ENDBRANCH  15  34
BRANCH  11  36
HETATM   36  C26 UNL     1      -7.435  45.576 -33.089  1.00  0.00     0.265 C 
HETATM   37  O3  UNL     1      -8.204  44.895 -33.757  1.00  0.00    -0.302 OA
ENDBRANCH  11  36
TORSDOF 7
ENDMDL
