MODEL 1
REMARK minimizedAffinity -7.35324955
REMARK CNNscore 0.58016336
REMARK CNNaffinity 6.88164759
REMARK  10 active torsions:
REMARK  status: ('A' for Active; 'I' for Inactive)
REMARK    1  A    between atoms: C3_3  and  O1_4 
REMARK    2  A    between atoms: N1_14  and  O2_16 
REMARK    3  A    between atoms: O2_16  and  C13_17 
REMARK    4  A    between atoms: C13_17  and  C14_18 
REMARK       I    between atoms: C14_18  and  N2_20 
REMARK    5  A    between atoms: N2_20  and  C15_21 
REMARK    6  A    between atoms: C15_21  and  C16_22 
REMARK       I    between atoms: C16_22  and  N3_24 
REMARK    7  A    between atoms: N3_24  and  C17_25 
REMARK    8  A    between atoms: C17_25  and  C18_26 
REMARK    9  A    between atoms: C17_25  and  C19_29 
REMARK   10  A    between atoms: C18_26  and  O6_28 
ROOT
HETATM    1  C1  UNL     1      -4.089  52.085 -10.317  1.00  0.00     0.015 C 
HETATM    2  C2  UNL     1      -2.921  52.187 -10.577  1.00  0.00    -0.078 C 
HETATM    3  C3  UNL     1      -1.487  52.288 -10.891  1.00  0.00     0.128 C 
HETATM    4  C4  UNL     1      -1.225  52.260 -12.400  1.00  0.00     0.052 C 
HETATM    5  C5  UNL     1       0.234  52.693 -12.486  1.00  0.00     0.010 C 
HETATM    6  C6  UNL     1       0.327  53.857 -11.491  1.00  0.00     0.002 C 
HETATM    7  C7  UNL     1       1.739  54.207 -10.969  1.00  0.00    -0.004 C 
HETATM    8  C8  UNL     1       2.655  53.029 -10.596  1.00  0.00     0.010 C 
HETATM    9  C9  UNL     1       4.033  53.502 -10.130  1.00  0.00     0.035 C 
HETATM   10  C10 UNL     1       3.992  54.589  -9.078  1.00  0.00    -0.069 C 
HETATM   11  C11 UNL     1       4.804  54.514  -8.007  1.00  0.00     0.030 C 
HETATM   12  C12 UNL     1       4.919  55.635  -7.028  1.00  0.00     0.032 C 
HETATM   13  N1  UNL     1       5.617  55.622  -5.933  1.00  0.00    -0.271 N 
ATOM     14  H1  UNL     1       5.702  56.417  -5.300  1.00  0.00     0.194 HD
HETATM   15  C22 UNL     1       4.216  56.932  -7.377  1.00  0.00     0.060 C 
HETATM   16  C23 UNL     1       2.890  56.647  -8.066  1.00  0.00     0.020 C 
HETATM   17  C24 UNL     1       3.040  55.756  -9.335  1.00  0.00    -0.016 C 
HETATM   18  C25 UNL     1       3.643  56.642 -10.458  1.00  0.00     0.020 C 
HETATM   19  C26 UNL     1       1.631  55.209  -9.790  1.00  0.00     0.002 C 
HETATM   20  C27 UNL     1       0.793  54.610  -8.627  1.00  0.00     0.007 C 
HETATM   21  C28 UNL     1      -0.194  53.500  -9.000  1.00  0.00     0.014 C 
HETATM   22  C29 UNL     1      -0.785  53.612 -10.415  1.00  0.00     0.003 C 
HETATM   23  C30 UNL     1      -1.760  54.821 -10.447  1.00  0.00     0.020 C 
ENDROOT
BRANCH   3  24
HETATM   24  O1  UNL     1      -0.834  51.143 -10.333  1.00  0.00    -0.377 OA
HETATM   25  H2  UNL     1      -1.352  50.364 -10.596  1.00  0.00     0.211 HD
ENDBRANCH   3  24
BRANCH  13  26
HETATM   26  O2  UNL     1       6.240  54.380  -5.727  1.00  0.00    -0.271 OA
BRANCH  26  27
HETATM   27  C13 UNL     1       7.262  54.542  -4.756  1.00  0.00     0.303 C 
BRANCH  27  28
HETATM   28  C14 UNL     1       8.435  55.339  -5.321  1.00  0.00     0.244 C 
HETATM   29  O3  UNL     1       8.389  55.989  -6.361  1.00  0.00    -0.271 OA
HETATM   30  N2  UNL     1       9.584  55.249  -4.554  1.00  0.00    -0.350 N 
HETATM   31  H16 UNL     1       9.482  54.973  -3.584  1.00  0.00     0.163 HD
BRANCH  30  32
HETATM   32  C15 UNL     1      10.738  56.082  -4.874  1.00  0.00     0.225 C 
BRANCH  32  33
HETATM   33  C16 UNL     1      12.059  55.368  -4.580  1.00  0.00     0.236 C 
HETATM   34  O4  UNL     1      13.045  55.954  -4.146  1.00  0.00    -0.272 OA
HETATM   35  N3  UNL     1      12.069  54.034  -4.920  1.00  0.00    -0.345 N 
HETATM   36  H19 UNL     1      11.341  53.709  -5.554  1.00  0.00     0.163 HD
BRANCH  35  37
HETATM   37  C17 UNL     1      13.281  53.209  -4.847  1.00  0.00     0.185 C 
BRANCH  37  38
HETATM   38  C18 UNL     1      14.101  53.394  -6.135  1.00  0.00     0.163 C 
HETATM   39  O5  UNL     1      14.040  52.721  -7.149  1.00  0.00    -0.648 OA
BRANCH  38  40
HETATM   40  O6  UNL     1      14.963  54.439  -6.076  1.00  0.00    -0.775 OA
HETATM   41  H21 UNL     1      15.413  54.409  -6.950  1.00  0.00     0.167 HD
ENDBRANCH  38  40
ENDBRANCH  37  38
BRANCH  37  42
HETATM   42  C19 UNL     1      12.917  51.734  -4.565  1.00  0.00     0.010 C 
HETATM   43  C20 UNL     1      11.446  51.434  -4.869  1.00  0.00     0.012 C 
HETATM   44  C21 UNL     1      13.265  51.295  -3.140  1.00  0.00     0.012 C 
ENDBRANCH  37  42
ENDBRANCH  35  37
ENDBRANCH  32  33
ENDBRANCH  30  32
ENDBRANCH  27  28
ENDBRANCH  26  27
ENDBRANCH  13  26
TORSDOF 10
ENDMDL
MODEL 2
REMARK minimizedAffinity -7.04126501
REMARK CNNscore 0.43918559
REMARK CNNaffinity 6.17025995
REMARK  10 active torsions:
REMARK  status: ('A' for Active; 'I' for Inactive)
REMARK    1  A    between atoms: C3_3  and  O1_4 
REMARK    2  A    between atoms: N1_14  and  O2_16 
REMARK    3  A    between atoms: O2_16  and  C13_17 
REMARK    4  A    between atoms: C13_17  and  C14_18 
REMARK       I    between atoms: C14_18  and  N2_20 
REMARK    5  A    between atoms: N2_20  and  C15_21 
REMARK    6  A    between atoms: C15_21  and  C16_22 
REMARK       I    between atoms: C16_22  and  N3_24 
REMARK    7  A    between atoms: N3_24  and  C17_25 
REMARK    8  A    between atoms: C17_25  and  C18_26 
REMARK    9  A    between atoms: C17_25  and  C19_29 
REMARK   10  A    between atoms: C18_26  and  O6_28 
ROOT
HETATM    1  C1  UNL     1      -2.015  50.894  -8.917  1.00  0.00     0.015 C 
HETATM    2  C2  UNL     1      -1.279  51.800  -9.199  1.00  0.00    -0.078 C 
HETATM    3  C3  UNL     1      -0.367  52.896  -9.561  1.00  0.00     0.128 C 
HETATM    4  C4  UNL     1      -1.003  53.870 -10.557  1.00  0.00     0.052 C 
HETATM    5  C5  UNL     1      -0.035  55.047 -10.528  1.00  0.00     0.010 C 
HETATM    6  C6  UNL     1       0.274  55.225  -9.037  1.00  0.00     0.002 C 
HETATM    7  C7  UNL     1       1.571  55.991  -8.688  1.00  0.00    -0.004 C 
HETATM    8  C8  UNL     1       2.821  55.658  -9.520  1.00  0.00     0.010 C 
HETATM    9  C9  UNL     1       4.025  56.505  -9.107  1.00  0.00     0.035 C 
HETATM   10  C10 UNL     1       4.284  56.528  -7.616  1.00  0.00    -0.069 C 
HETATM   11  C11 UNL     1       5.540  56.383  -7.153  1.00  0.00     0.030 C 
HETATM   12  C12 UNL     1       5.870  56.558  -5.708  1.00  0.00     0.032 C 
HETATM   13  N1  UNL     1       7.033  56.368  -5.163  1.00  0.00    -0.271 N 
ATOM     14  H1  UNL     1       7.235  56.529  -4.176  1.00  0.00     0.194 HD
HETATM   15  C22 UNL     1       4.767  57.074  -4.805  1.00  0.00     0.060 C 
HETATM   16  C23 UNL     1       3.424  56.491  -5.221  1.00  0.00     0.020 C 
HETATM   17  C24 UNL     1       3.075  56.768  -6.714  1.00  0.00    -0.016 C 
HETATM   18  C25 UNL     1       2.668  58.261  -6.828  1.00  0.00     0.020 C 
HETATM   19  C26 UNL     1       1.873  55.853  -7.173  1.00  0.00     0.002 C 
HETATM   20  C27 UNL     1       2.040  54.362  -6.773  1.00  0.00     0.007 C 
HETATM   21  C28 UNL     1       1.368  53.332  -7.687  1.00  0.00     0.014 C 
HETATM   22  C29 UNL     1       0.081  53.819  -8.371  1.00  0.00     0.003 C 
HETATM   23  C30 UNL     1      -1.032  53.947  -7.294  1.00  0.00     0.020 C 
ENDROOT
BRANCH   3  24
HETATM   24  O1  UNL     1       0.772  52.322 -10.210  1.00  0.00    -0.377 OA
HETATM   25  H2  UNL     1       0.437  51.705 -10.882  1.00  0.00     0.211 HD
ENDBRANCH   3  24
BRANCH  13  26
HETATM   26  O2  UNL     1       7.978  55.914  -6.098  1.00  0.00    -0.271 OA
BRANCH  26  27
HETATM   27  C13 UNL     1       9.246  56.452  -5.757  1.00  0.00     0.303 C 
BRANCH  27  28
HETATM   28  C14 UNL     1      10.031  55.489  -4.869  1.00  0.00     0.244 C 
HETATM   29  O3  UNL     1       9.546  54.870  -3.927  1.00  0.00    -0.271 OA
HETATM   30  N2  UNL     1      11.368  55.385  -5.214  1.00  0.00    -0.350 N 
HETATM   31  H16 UNL     1      11.634  55.658  -6.153  1.00  0.00     0.163 HD
BRANCH  30  32
HETATM   32  C15 UNL     1      12.210  54.385  -4.566  1.00  0.00     0.225 C 
BRANCH  32  33
HETATM   33  C16 UNL     1      13.453  54.060  -5.396  1.00  0.00     0.236 C 
HETATM   34  O4  UNL     1      13.971  54.870  -6.157  1.00  0.00    -0.272 OA
HETATM   35  N3  UNL     1      13.889  52.759  -5.277  1.00  0.00    -0.345 N 
HETATM   36  H19 UNL     1      13.235  52.083  -4.888  1.00  0.00     0.163 HD
BRANCH  35  37
HETATM   37  C17 UNL     1      14.978  52.213  -6.096  1.00  0.00     0.185 C 
BRANCH  37  38
HETATM   38  C18 UNL     1      14.383  51.430  -7.278  1.00  0.00     0.163 C 
HETATM   39  O5  UNL     1      13.325  50.825  -7.301  1.00  0.00    -0.648 OA
BRANCH  38  40
HETATM   40  O6  UNL     1      15.162  51.458  -8.387  1.00  0.00    -0.775 OA
HETATM   41  H21 UNL     1      14.660  50.908  -9.029  1.00  0.00     0.167 HD
ENDBRANCH  38  40
ENDBRANCH  37  38
BRANCH  37  42
HETATM   42  C19 UNL     1      15.937  51.368  -5.228  1.00  0.00     0.010 C 
HETATM   43  C20 UNL     1      15.951  51.828  -3.767  1.00  0.00     0.012 C 
HETATM   44  C21 UNL     1      17.364  51.324  -5.785  1.00  0.00     0.012 C 
ENDBRANCH  37  42
ENDBRANCH  35  37
ENDBRANCH  32  33
ENDBRANCH  30  32
ENDBRANCH  27  28
ENDBRANCH  26  27
ENDBRANCH  13  26
TORSDOF 10
ENDMDL
MODEL 3
REMARK minimizedAffinity -8.82444763
REMARK CNNscore 0.416264594
REMARK CNNaffinity 6.41884995
REMARK  10 active torsions:
REMARK  status: ('A' for Active; 'I' for Inactive)
REMARK    1  A    between atoms: C3_3  and  O1_4 
REMARK    2  A    between atoms: N1_14  and  O2_16 
REMARK    3  A    between atoms: O2_16  and  C13_17 
REMARK    4  A    between atoms: C13_17  and  C14_18 
REMARK       I    between atoms: C14_18  and  N2_20 
REMARK    5  A    between atoms: N2_20  and  C15_21 
REMARK    6  A    between atoms: C15_21  and  C16_22 
REMARK       I    between atoms: C16_22  and  N3_24 
REMARK    7  A    between atoms: N3_24  and  C17_25 
REMARK    8  A    between atoms: C17_25  and  C18_26 
REMARK    9  A    between atoms: C17_25  and  C19_29 
REMARK   10  A    between atoms: C18_26  and  O6_28 
ROOT
HETATM    1  C1  UNL     1     -15.035  45.599 -25.292  1.00  0.00     0.015 C 
HETATM    2  C2  UNL     1     -14.172  45.209 -26.030  1.00  0.00    -0.078 C 
HETATM    3  C3  UNL     1     -13.105  44.717 -26.917  1.00  0.00     0.128 C 
HETATM    4  C4  UNL     1     -13.586  43.574 -27.816  1.00  0.00     0.052 C 
HETATM    5  C5  UNL     1     -12.455  43.459 -28.832  1.00  0.00     0.010 C 
HETATM    6  C6  UNL     1     -12.131  44.916 -29.180  1.00  0.00     0.002 C 
HETATM    7  C7  UNL     1     -10.737  45.186 -29.792  1.00  0.00    -0.004 C 
HETATM    8  C8  UNL     1      -9.545  44.445 -29.163  1.00  0.00     0.010 C 
HETATM    9  C9  UNL     1      -8.232  44.764 -29.877  1.00  0.00     0.035 C 
HETATM   10  C10 UNL     1      -7.981  46.243 -30.081  1.00  0.00    -0.069 C 
HETATM   11  C11 UNL     1      -6.762  46.755 -29.825  1.00  0.00     0.030 C 
HETATM   12  C12 UNL     1      -6.418  48.168 -30.162  1.00  0.00     0.032 C 
HETATM   13  N1  UNL     1      -5.299  48.766 -29.887  1.00  0.00    -0.271 N 
ATOM     14  H1  UNL     1      -5.081  49.724 -30.160  1.00  0.00     0.194 HD
HETATM   15  C22 UNL     1      -7.438  48.957 -30.959  1.00  0.00     0.060 C 
HETATM   16  C23 UNL     1      -8.850  48.593 -30.523  1.00  0.00     0.020 C 
HETATM   17  C24 UNL     1      -9.146  47.067 -30.625  1.00  0.00    -0.016 C 
HETATM   18  C25 UNL     1      -9.328  46.727 -32.128  1.00  0.00     0.020 C 
HETATM   19  C26 UNL     1     -10.468  46.713 -29.836  1.00  0.00     0.002 C 
HETATM   20  C27 UNL     1     -10.524  47.328 -28.412  1.00  0.00     0.007 C 
HETATM   21  C28 UNL     1     -11.335  46.555 -27.368  1.00  0.00     0.014 C 
HETATM   22  C29 UNL     1     -12.533  45.773 -27.931  1.00  0.00     0.003 C 
HETATM   23  C30 UNL     1     -13.621  46.789 -28.375  1.00  0.00     0.020 C 
ENDROOT
BRANCH   3  24
HETATM   24  O1  UNL     1     -12.060  44.190 -26.095  1.00  0.00    -0.377 OA
HETATM   25  H2  UNL     1     -12.479  43.605 -25.441  1.00  0.00     0.211 HD
ENDBRANCH   3  24
BRANCH  13  26
HETATM   26  O2  UNL     1      -4.426  47.933 -29.168  1.00  0.00    -0.271 OA
BRANCH  26  27
HETATM   27  C13 UNL     1      -4.569  48.213 -27.785  1.00  0.00     0.303 C 
BRANCH  27  28
HETATM   28  C14 UNL     1      -3.834  49.496 -27.405  1.00  0.00     0.244 C 
HETATM   29  O3  UNL     1      -3.073  50.101 -28.153  1.00  0.00    -0.271 OA
HETATM   30  N2  UNL     1      -4.090  49.916 -26.110  1.00  0.00    -0.350 N 
HETATM   31  H16 UNL     1      -4.932  49.574 -25.662  1.00  0.00     0.163 HD
BRANCH  30  32
HETATM   32  C15 UNL     1      -3.591  51.208 -25.654  1.00  0.00     0.225 C 
BRANCH  32  33
HETATM   33  C16 UNL     1      -2.141  51.124 -25.173  1.00  0.00     0.236 C 
HETATM   34  O4  UNL     1      -1.834  50.677 -24.073  1.00  0.00    -0.272 OA
HETATM   35  N3  UNL     1      -1.223  51.667 -26.044  1.00  0.00    -0.345 N 
HETATM   36  H19 UNL     1      -1.579  52.290 -26.767  1.00  0.00     0.163 HD
BRANCH  35  37
HETATM   37  C17 UNL     1       0.198  51.810 -25.705  1.00  0.00     0.185 C 
BRANCH  37  38
HETATM   38  C18 UNL     1       0.506  53.288 -25.412  1.00  0.00     0.163 C 
HETATM   39  O5  UNL     1       0.448  54.221 -26.195  1.00  0.00    -0.648 OA
BRANCH  38  40
HETATM   40  O6  UNL     1       0.870  53.515 -24.126  1.00  0.00    -0.775 OA
HETATM   41  H21 UNL     1       1.045  54.483 -24.109  1.00  0.00     0.167 HD
ENDBRANCH  38  40
ENDBRANCH  37  38
BRANCH  37  42
HETATM   42  C19 UNL     1       1.084  51.216 -26.823  1.00  0.00     0.010 C 
HETATM   43  C20 UNL     1       2.577  51.389 -26.530  1.00  0.00     0.012 C 
HETATM   44  C21 UNL     1       0.748  51.771 -28.211  1.00  0.00     0.012 C 
ENDBRANCH  37  42
ENDBRANCH  35  37
ENDBRANCH  32  33
ENDBRANCH  30  32
ENDBRANCH  27  28
ENDBRANCH  26  27
ENDBRANCH  13  26
TORSDOF 10
ENDMDL
MODEL 4
REMARK minimizedAffinity -7.90928125
REMARK CNNscore 0.415851533
REMARK CNNaffinity 6.07198763
REMARK  10 active torsions:
REMARK  status: ('A' for Active; 'I' for Inactive)
REMARK    1  A    between atoms: C3_3  and  O1_4 
REMARK    2  A    between atoms: N1_14  and  O2_16 
REMARK    3  A    between atoms: O2_16  and  C13_17 
REMARK    4  A    between atoms: C13_17  and  C14_18 
REMARK       I    between atoms: C14_18  and  N2_20 
REMARK    5  A    between atoms: N2_20  and  C15_21 
REMARK    6  A    between atoms: C15_21  and  C16_22 
REMARK       I    between atoms: C16_22  and  N3_24 
REMARK    7  A    between atoms: N3_24  and  C17_25 
REMARK    8  A    between atoms: C17_25  and  C18_26 
REMARK    9  A    between atoms: C17_25  and  C19_29 
REMARK   10  A    between atoms: C18_26  and  O6_28 
ROOT
HETATM    1  C1  UNL     1      -1.250  52.873 -24.609  1.00  0.00     0.015 C 
HETATM    2  C2  UNL     1      -2.034  51.964 -24.646  1.00  0.00    -0.078 C 
HETATM    3  C3  UNL     1      -3.008  50.863 -24.707  1.00  0.00     0.128 C 
HETATM    4  C4  UNL     1      -2.572  49.762 -25.680  1.00  0.00     0.052 C 
HETATM    5  C5  UNL     1      -3.530  48.626 -25.340  1.00  0.00     0.010 C 
HETATM    6  C6  UNL     1      -3.564  48.629 -23.807  1.00  0.00     0.002 C 
HETATM    7  C7  UNL     1      -4.784  47.948 -23.143  1.00  0.00    -0.004 C 
HETATM    8  C8  UNL     1      -6.161  48.222 -23.772  1.00  0.00     0.010 C 
HETATM    9  C9  UNL     1      -7.278  47.465 -23.052  1.00  0.00     0.035 C 
HETATM   10  C10 UNL     1      -7.262  47.620 -21.546  1.00  0.00    -0.069 C 
HETATM   11  C11 UNL     1      -8.411  47.855 -20.886  1.00  0.00     0.030 C 
HETATM   12  C12 UNL     1      -8.475  47.855 -19.395  1.00  0.00     0.032 C 
HETATM   13  N1  UNL     1      -9.517  48.141 -18.677  1.00  0.00    -0.271 N 
ATOM     14  H1  UNL     1      -9.538  48.100 -17.658  1.00  0.00     0.194 HD
HETATM   15  C22 UNL     1      -7.231  47.411 -18.650  1.00  0.00     0.060 C 
HETATM   16  C23 UNL     1      -5.981  47.902 -19.366  1.00  0.00     0.020 C 
HETATM   17  C24 UNL     1      -5.911  47.447 -20.854  1.00  0.00    -0.016 C 
HETATM   18  C25 UNL     1      -5.546  45.939 -20.864  1.00  0.00     0.020 C 
HETATM   19  C26 UNL     1      -4.804  48.266 -21.626  1.00  0.00     0.002 C 
HETATM   20  C27 UNL     1      -4.881  49.798 -21.380  1.00  0.00     0.007 C 
HETATM   21  C28 UNL     1      -4.377  50.696 -22.514  1.00  0.00     0.014 C 
HETATM   22  C29 UNL     1      -3.240  50.094 -23.356  1.00  0.00     0.003 C 
HETATM   23  C30 UNL     1      -1.952  50.056 -22.489  1.00  0.00     0.020 C 
ENDROOT
BRANCH   3  24
HETATM   24  O1  UNL     1      -4.240  51.394 -25.204  1.00  0.00    -0.377 OA
HETATM   25  H2  UNL     1      -4.026  51.920 -25.993  1.00  0.00     0.211 HD
ENDBRANCH   3  24
BRANCH  13  26
HETATM   26  O2  UNL     1     -10.612  48.515 -19.473  1.00  0.00    -0.271 OA
BRANCH  26  27
HETATM   27  C13 UNL     1     -11.712  47.679 -19.151  1.00  0.00     0.303 C 
BRANCH  27  28
HETATM   28  C14 UNL     1     -12.918  47.993 -20.034  1.00  0.00     0.244 C 
HETATM   29  O3  UNL     1     -13.318  49.127 -20.275  1.00  0.00    -0.271 OA
HETATM   30  N2  UNL     1     -13.545  46.864 -20.534  1.00  0.00    -0.350 N 
HETATM   31  H16 UNL     1     -13.011  46.004 -20.565  1.00  0.00     0.163 HD
BRANCH  30  32
HETATM   32  C15 UNL     1     -14.610  47.003 -21.522  1.00  0.00     0.225 C 
BRANCH  32  33
HETATM   33  C16 UNL     1     -15.704  45.949 -21.334  1.00  0.00     0.236 C 
HETATM   34  O4  UNL     1     -15.638  44.831 -21.833  1.00  0.00    -0.272 OA
HETATM   35  N3  UNL     1     -16.801  46.392 -20.630  1.00  0.00    -0.345 N 
HETATM   36  H19 UNL     1     -16.916  47.399 -20.531  1.00  0.00     0.163 HD
BRANCH  35  37
HETATM   37  C17 UNL     1     -18.013  45.581 -20.464  1.00  0.00     0.185 C 
BRANCH  37  38
HETATM   38  C18 UNL     1     -18.905  45.737 -21.707  1.00  0.00     0.163 C 
HETATM   39  O5  UNL     1     -18.806  46.581 -22.582  1.00  0.00    -0.648 OA
BRANCH  38  40
HETATM   40  O6  UNL     1     -19.885  44.804 -21.786  1.00  0.00    -0.775 OA
HETATM   41  H21 UNL     1     -20.365  45.050 -22.608  1.00  0.00     0.167 HD
ENDBRANCH  38  40
ENDBRANCH  37  38
BRANCH  37  42
HETATM   42  C19 UNL     1     -18.735  45.947 -19.148  1.00  0.00     0.010 C 
HETATM   43  C20 UNL     1     -19.612  44.802 -18.633  1.00  0.00     0.012 C 
HETATM   44  C21 UNL     1     -19.555  47.237 -19.255  1.00  0.00     0.012 C 
ENDBRANCH  37  42
ENDBRANCH  35  37
ENDBRANCH  32  33
ENDBRANCH  30  32
ENDBRANCH  27  28
ENDBRANCH  26  27
ENDBRANCH  13  26
TORSDOF 10
ENDMDL
MODEL 5
REMARK minimizedAffinity -7.96475172
REMARK CNNscore 0.411963373
REMARK CNNaffinity 5.99787283
REMARK  10 active torsions:
REMARK  status: ('A' for Active; 'I' for Inactive)
REMARK    1  A    between atoms: C3_3  and  O1_4 
REMARK    2  A    between atoms: N1_14  and  O2_16 
REMARK    3  A    between atoms: O2_16  and  C13_17 
REMARK    4  A    between atoms: C13_17  and  C14_18 
REMARK       I    between atoms: C14_18  and  N2_20 
REMARK    5  A    between atoms: N2_20  and  C15_21 
REMARK    6  A    between atoms: C15_21  and  C16_22 
REMARK       I    between atoms: C16_22  and  N3_24 
REMARK    7  A    between atoms: N3_24  and  C17_25 
REMARK    8  A    between atoms: C17_25  and  C18_26 
REMARK    9  A    between atoms: C17_25  and  C19_29 
REMARK   10  A    between atoms: C18_26  and  O6_28 
ROOT
HETATM    1  C1  UNL     1      -1.155  52.949 -24.596  1.00  0.00     0.015 C 
HETATM    2  C2  UNL     1      -1.928  52.034 -24.691  1.00  0.00    -0.078 C 
HETATM    3  C3  UNL     1      -2.888  50.927 -24.822  1.00  0.00     0.128 C 
HETATM    4  C4  UNL     1      -2.418  49.875 -25.832  1.00  0.00     0.052 C 
HETATM    5  C5  UNL     1      -3.371  48.715 -25.563  1.00  0.00     0.010 C 
HETATM    6  C6  UNL     1      -3.440  48.650 -24.033  1.00  0.00     0.002 C 
HETATM    7  C7  UNL     1      -4.666  47.928 -23.428  1.00  0.00    -0.004 C 
HETATM    8  C8  UNL     1      -6.032  48.216 -24.074  1.00  0.00     0.010 C 
HETATM    9  C9  UNL     1      -7.156  47.417 -23.414  1.00  0.00     0.035 C 
HETATM   10  C10 UNL     1      -7.175  47.506 -21.903  1.00  0.00    -0.069 C 
HETATM   11  C11 UNL     1      -8.342  47.700 -21.260  1.00  0.00     0.030 C 
HETATM   12  C12 UNL     1      -8.438  47.634 -19.772  1.00  0.00     0.032 C 
HETATM   13  N1  UNL     1      -9.500  47.878 -19.066  1.00  0.00    -0.271 N 
ATOM     14  H1  UNL     1      -9.543  47.792 -18.050  1.00  0.00     0.194 HD
HETATM   15  C22 UNL     1      -7.207  47.171 -19.019  1.00  0.00     0.060 C 
HETATM   16  C23 UNL     1      -5.946  47.705 -19.684  1.00  0.00     0.020 C 
HETATM   17  C24 UNL     1      -5.838  47.316 -21.189  1.00  0.00    -0.016 C 
HETATM   18  C25 UNL     1      -5.456  45.814 -21.256  1.00  0.00     0.020 C 
HETATM   19  C26 UNL     1      -4.723  48.180 -21.898  1.00  0.00     0.002 C 
HETATM   20  C27 UNL     1      -4.823  49.698 -21.588  1.00  0.00     0.007 C 
HETATM   21  C28 UNL     1      -4.304  50.650 -22.669  1.00  0.00     0.014 C 
HETATM   22  C29 UNL     1      -3.142  50.097 -23.511  1.00  0.00     0.003 C 
HETATM   23  C30 UNL     1      -1.873  50.034 -22.617  1.00  0.00     0.020 C 
ENDROOT
BRANCH   3  24
HETATM   24  O1  UNL     1      -4.114  51.467 -25.322  1.00  0.00    -0.377 OA
HETATM   25  H2  UNL     1      -3.889  52.029 -26.083  1.00  0.00     0.211 HD
ENDBRANCH   3  24
BRANCH  13  26
HETATM   26  O2  UNL     1     -10.581  48.275 -19.870  1.00  0.00    -0.271 OA
BRANCH  26  27
HETATM   27  C13 UNL     1     -11.538  47.228 -19.891  1.00  0.00     0.303 C 
BRANCH  27  28
HETATM   28  C14 UNL     1     -12.952  47.780 -20.059  1.00  0.00     0.244 C 
HETATM   29  O3  UNL     1     -13.281  48.929 -19.782  1.00  0.00    -0.271 OA
HETATM   30  N2  UNL     1     -13.854  46.847 -20.543  1.00  0.00    -0.350 N 
HETATM   31  H16 UNL     1     -13.482  46.043 -21.035  1.00  0.00     0.163 HD
BRANCH  30  32
HETATM   32  C15 UNL     1     -15.203  47.264 -20.910  1.00  0.00     0.225 C 
BRANCH  32  33
HETATM   33  C16 UNL     1     -15.433  47.192 -22.421  1.00  0.00     0.236 C 
HETATM   34  O4  UNL     1     -14.679  47.722 -23.231  1.00  0.00    -0.272 OA
HETATM   35  N3  UNL     1     -16.598  46.556 -22.786  1.00  0.00    -0.345 N 
HETATM   36  H19 UNL     1     -17.307  46.432 -22.066  1.00  0.00     0.163 HD
BRANCH  35  37
HETATM   37  C17 UNL     1     -17.067  46.506 -24.176  1.00  0.00     0.185 C 
BRANCH  37  38
HETATM   38  C18 UNL     1     -18.601  46.620 -24.200  1.00  0.00     0.163 C 
HETATM   39  O5  UNL     1     -19.297  46.976 -25.135  1.00  0.00    -0.648 OA
BRANCH  38  40
HETATM   40  O6  UNL     1     -19.184  46.267 -23.028  1.00  0.00    -0.775 OA
HETATM   41  H21 UNL     1     -20.141  46.411 -23.200  1.00  0.00     0.167 HD
ENDBRANCH  38  40
ENDBRANCH  37  38
BRANCH  37  42
HETATM   42  C19 UNL     1     -16.542  45.234 -24.881  1.00  0.00     0.010 C 
HETATM   43  C20 UNL     1     -15.834  45.557 -26.200  1.00  0.00     0.012 C 
HETATM   44  C21 UNL     1     -17.632  44.182 -25.106  1.00  0.00     0.012 C 
ENDBRANCH  37  42
ENDBRANCH  35  37
ENDBRANCH  32  33
ENDBRANCH  30  32
ENDBRANCH  27  28
ENDBRANCH  26  27
ENDBRANCH  13  26
TORSDOF 10
ENDMDL
MODEL 6
REMARK minimizedAffinity -7.16827917
REMARK CNNscore 0.332764089
REMARK CNNaffinity 5.65383005
REMARK  10 active torsions:
REMARK  status: ('A' for Active; 'I' for Inactive)
REMARK    1  A    between atoms: C3_3  and  O1_4 
REMARK    2  A    between atoms: N1_14  and  O2_16 
REMARK    3  A    between atoms: O2_16  and  C13_17 
REMARK    4  A    between atoms: C13_17  and  C14_18 
REMARK       I    between atoms: C14_18  and  N2_20 
REMARK    5  A    between atoms: N2_20  and  C15_21 
REMARK    6  A    between atoms: C15_21  and  C16_22 
REMARK       I    between atoms: C16_22  and  N3_24 
REMARK    7  A    between atoms: N3_24  and  C17_25 
REMARK    8  A    between atoms: C17_25  and  C18_26 
REMARK    9  A    between atoms: C17_25  and  C19_29 
REMARK   10  A    between atoms: C18_26  and  O6_28 
ROOT
HETATM    1  C1  UNL     1      -2.832  52.529 -23.430  1.00  0.00     0.015 C 
HETATM    2  C2  UNL     1      -3.611  51.624 -23.565  1.00  0.00    -0.078 C 
HETATM    3  C3  UNL     1      -4.576  50.529 -23.746  1.00  0.00     0.128 C 
HETATM    4  C4  UNL     1      -4.037  49.434 -24.671  1.00  0.00     0.052 C 
HETATM    5  C5  UNL     1      -5.034  48.301 -24.452  1.00  0.00     0.010 C 
HETATM    6  C6  UNL     1      -5.245  48.292 -22.933  1.00  0.00     0.002 C 
HETATM    7  C7  UNL     1      -6.536  47.614 -22.420  1.00  0.00    -0.004 C 
HETATM    8  C8  UNL     1      -7.830  47.901 -23.200  1.00  0.00     0.010 C 
HETATM    9  C9  UNL     1      -9.026  47.146 -22.619  1.00  0.00     0.035 C 
HETATM   10  C10 UNL     1      -9.182  47.289 -21.121  1.00  0.00    -0.069 C 
HETATM   11  C11 UNL     1     -10.399  47.526 -20.595  1.00  0.00     0.030 C 
HETATM   12  C12 UNL     1     -10.633  47.516 -19.121  1.00  0.00     0.032 C 
HETATM   13  N1  UNL     1     -11.750  47.803 -18.525  1.00  0.00    -0.271 N 
ATOM     14  H1  UNL     1     -11.888  47.754 -17.516  1.00  0.00     0.194 HD
HETATM   15  C22 UNL     1      -9.486  47.059 -18.242  1.00  0.00     0.060 C 
HETATM   16  C23 UNL     1      -8.159  47.548 -18.805  1.00  0.00     0.020 C 
HETATM   17  C24 UNL     1      -7.921  47.103 -20.279  1.00  0.00    -0.016 C 
HETATM   18  C25 UNL     1      -7.565  45.593 -20.259  1.00  0.00     0.020 C 
HETATM   19  C26 UNL     1      -6.728  47.921 -20.912  1.00  0.00     0.002 C 
HETATM   20  C27 UNL     1      -6.826  49.451 -20.665  1.00  0.00     0.007 C 
HETATM   21  C28 UNL     1      -6.190  50.355 -21.726  1.00  0.00     0.014 C 
HETATM   22  C29 UNL     1      -4.967  49.752 -22.436  1.00  0.00     0.003 C 
HETATM   23  C30 UNL     1      -3.787  49.700 -21.427  1.00  0.00     0.020 C 
ENDROOT
BRANCH   3  24
HETATM   24  O1  UNL     1      -5.741  51.071 -24.376  1.00  0.00    -0.377 OA
HETATM   25  H2  UNL     1      -5.435  51.602 -25.131  1.00  0.00     0.211 HD
ENDBRANCH   3  24
BRANCH  13  26
HETATM   26  O2  UNL     1     -12.745  48.189 -19.439  1.00  0.00    -0.271 OA
BRANCH  26  27
HETATM   27  C13 UNL     1     -13.965  47.568 -19.069  1.00  0.00     0.303 C 
BRANCH  27  28
HETATM   28  C14 UNL     1     -14.300  46.412 -20.009  1.00  0.00     0.244 C 
HETATM   29  O3  UNL     1     -14.738  45.327 -19.639  1.00  0.00    -0.271 OA
HETATM   30  N2  UNL     1     -14.043  46.691 -21.341  1.00  0.00    -0.350 N 
HETATM   31  H16 UNL     1     -13.986  47.665 -21.615  1.00  0.00     0.163 HD
BRANCH  30  32
HETATM   32  C15 UNL     1     -14.461  45.750 -22.375  1.00  0.00     0.225 C 
BRANCH  32  33
HETATM   33  C16 UNL     1     -15.232  46.443 -23.501  1.00  0.00     0.236 C 
HETATM   34  O4  UNL     1     -15.108  47.638 -23.750  1.00  0.00    -0.272 OA
HETATM   35  N3  UNL     1     -16.133  45.631 -24.152  1.00  0.00    -0.345 N 
HETATM   36  H19 UNL     1     -16.401  44.766 -23.688  1.00  0.00     0.163 HD
BRANCH  35  37
HETATM   37  C17 UNL     1     -17.066  46.141 -25.165  1.00  0.00     0.185 C 
BRANCH  37  38
HETATM   38  C18 UNL     1     -18.365  46.593 -24.479  1.00  0.00     0.163 C 
HETATM   39  O5  UNL     1     -19.033  47.579 -24.743  1.00  0.00    -0.648 OA
BRANCH  38  40
HETATM   40  O6  UNL     1     -18.765  45.762 -23.484  1.00  0.00    -0.775 OA
HETATM   41  H21 UNL     1     -19.581  46.193 -23.145  1.00  0.00     0.167 HD
ENDBRANCH  38  40
ENDBRANCH  37  38
BRANCH  37  42
HETATM   42  C19 UNL     1     -17.297  45.084 -26.269  1.00  0.00     0.010 C 
HETATM   43  C20 UNL     1     -16.223  45.143 -27.358  1.00  0.00     0.012 C 
HETATM   44  C21 UNL     1     -18.693  45.170 -26.895  1.00  0.00     0.012 C 
ENDBRANCH  37  42
ENDBRANCH  35  37
ENDBRANCH  32  33
ENDBRANCH  30  32
ENDBRANCH  27  28
ENDBRANCH  26  27
ENDBRANCH  13  26
TORSDOF 10
ENDMDL
MODEL 7
REMARK minimizedAffinity -7.93426323
REMARK CNNscore 0.33266741
REMARK CNNaffinity 6.20785904
REMARK  10 active torsions:
REMARK  status: ('A' for Active; 'I' for Inactive)
REMARK    1  A    between atoms: C3_3  and  O1_4 
REMARK    2  A    between atoms: N1_14  and  O2_16 
REMARK    3  A    between atoms: O2_16  and  C13_17 
REMARK    4  A    between atoms: C13_17  and  C14_18 
REMARK       I    between atoms: C14_18  and  N2_20 
REMARK    5  A    between atoms: N2_20  and  C15_21 
REMARK    6  A    between atoms: C15_21  and  C16_22 
REMARK       I    between atoms: C16_22  and  N3_24 
REMARK    7  A    between atoms: N3_24  and  C17_25 
REMARK    8  A    between atoms: C17_25  and  C18_26 
REMARK    9  A    between atoms: C17_25  and  C19_29 
REMARK   10  A    between atoms: C18_26  and  O6_28 
ROOT
HETATM    1  C1  UNL     1      -0.289  51.508 -27.526  1.00  0.00     0.015 C 
HETATM    2  C2  UNL     1      -1.066  51.630 -26.618  1.00  0.00    -0.078 C 
HETATM    3  C3  UNL     1      -2.010  51.803 -25.503  1.00  0.00     0.128 C 
HETATM    4  C4  UNL     1      -3.418  52.154 -25.990  1.00  0.00     0.052 C 
HETATM    5  C5  UNL     1      -4.257  51.965 -24.731  1.00  0.00     0.010 C 
HETATM    6  C6  UNL     1      -3.719  50.660 -24.131  1.00  0.00     0.002 C 
HETATM    7  C7  UNL     1      -3.994  50.429 -22.627  1.00  0.00    -0.004 C 
HETATM    8  C8  UNL     1      -3.810  51.636 -21.692  1.00  0.00     0.010 C 
HETATM    9  C9  UNL     1      -4.147  51.291 -20.241  1.00  0.00     0.035 C 
HETATM   10  C10 UNL     1      -3.482  50.030 -19.733  1.00  0.00    -0.069 C 
HETATM   11  C11 UNL     1      -2.912  50.020 -18.513  1.00  0.00     0.030 C 
HETATM   12  C12 UNL     1      -2.388  48.763 -17.902  1.00  0.00     0.032 C 
HETATM   13  N1  UNL     1      -1.761  48.670 -16.769  1.00  0.00    -0.271 N 
ATOM     14  H1  UNL     1      -1.444  47.791 -16.361  1.00  0.00     0.194 HD
HETATM   15  C22 UNL     1      -2.675  47.467 -18.633  1.00  0.00     0.060 C 
HETATM   16  C23 UNL     1      -2.599  47.678 -20.138  1.00  0.00     0.020 C 
HETATM   17  C24 UNL     1      -3.547  48.806 -20.645  1.00  0.00    -0.016 C 
HETATM   18  C25 UNL     1      -4.994  48.248 -20.612  1.00  0.00     0.020 C 
HETATM   19  C26 UNL     1      -3.169  49.217 -22.122  1.00  0.00     0.002 C 
HETATM   20  C27 UNL     1      -1.648  49.455 -22.329  1.00  0.00     0.007 C 
HETATM   21  C28 UNL     1      -1.258  50.457 -23.419  1.00  0.00     0.014 C 
HETATM   22  C29 UNL     1      -2.232  50.531 -24.606  1.00  0.00     0.003 C 
HETATM   23  C30 UNL     1      -2.104  49.220 -25.430  1.00  0.00     0.020 C 
ENDROOT
BRANCH   3  24
HETATM   24  O1  UNL     1      -1.556  52.904 -24.710  1.00  0.00    -0.377 OA
HETATM   25  H2  UNL     1      -1.362  53.634 -25.322  1.00  0.00     0.211 HD
ENDBRANCH   3  24
BRANCH  13  26
HETATM   26  O2  UNL     1      -1.573  49.928 -16.173  1.00  0.00    -0.271 OA
BRANCH  26  27
HETATM   27  C13 UNL     1      -1.067  49.737 -14.862  1.00  0.00     0.303 C 
BRANCH  27  28
HETATM   28  C14 UNL     1      -1.104  51.038 -14.063  1.00  0.00     0.244 C 
HETATM   29  O3  UNL     1      -2.136  51.595 -13.702  1.00  0.00    -0.271 OA
HETATM   30  N2  UNL     1       0.151  51.556 -13.792  1.00  0.00    -0.350 N 
HETATM   31  H16 UNL     1       0.941  50.923 -13.833  1.00  0.00     0.163 HD
BRANCH  30  32
HETATM   32  C15 UNL     1       0.286  52.704 -12.902  1.00  0.00     0.225 C 
BRANCH  32  33
HETATM   33  C16 UNL     1       1.475  52.553 -11.951  1.00  0.00     0.236 C 
HETATM   34  O4  UNL     1       1.820  51.470 -11.490  1.00  0.00    -0.272 OA
HETATM   35  N3  UNL     1       2.069  53.743 -11.594  1.00  0.00    -0.345 N 
HETATM   36  H19 UNL     1       1.538  54.596 -11.758  1.00  0.00     0.163 HD
BRANCH  35  37
HETATM   37  C17 UNL     1       3.132  53.823 -10.585  1.00  0.00     0.185 C 
BRANCH  37  38
HETATM   38  C18 UNL     1       2.501  53.884  -9.184  1.00  0.00     0.163 C 
HETATM   39  O5  UNL     1       2.070  54.872  -8.614  1.00  0.00    -0.648 OA
BRANCH  38  40
HETATM   40  O6  UNL     1       2.441  52.677  -8.569  1.00  0.00    -0.775 OA
HETATM   41  H21 UNL     1       2.038  52.888  -7.697  1.00  0.00     0.167 HD
ENDBRANCH  38  40
ENDBRANCH  37  38
BRANCH  37  42
HETATM   42  C19 UNL     1       4.072  55.014 -10.880  1.00  0.00     0.010 C 
HETATM   43  C20 UNL     1       5.184  55.144  -9.836  1.00  0.00     0.012 C 
HETATM   44  C21 UNL     1       3.324  56.342 -11.028  1.00  0.00     0.012 C 
ENDBRANCH  37  42
ENDBRANCH  35  37
ENDBRANCH  32  33
ENDBRANCH  30  32
ENDBRANCH  27  28
ENDBRANCH  26  27
ENDBRANCH  13  26
TORSDOF 10
ENDMDL
MODEL 8
REMARK minimizedAffinity -8.58911228
REMARK CNNscore 0.310248315
REMARK CNNaffinity 6.71792841
REMARK  10 active torsions:
REMARK  status: ('A' for Active; 'I' for Inactive)
REMARK    1  A    between atoms: C3_3  and  O1_4 
REMARK    2  A    between atoms: N1_14  and  O2_16 
REMARK    3  A    between atoms: O2_16  and  C13_17 
REMARK    4  A    between atoms: C13_17  and  C14_18 
REMARK       I    between atoms: C14_18  and  N2_20 
REMARK    5  A    between atoms: N2_20  and  C15_21 
REMARK    6  A    between atoms: C15_21  and  C16_22 
REMARK       I    between atoms: C16_22  and  N3_24 
REMARK    7  A    between atoms: N3_24  and  C17_25 
REMARK    8  A    between atoms: C17_25  and  C18_26 
REMARK    9  A    between atoms: C17_25  and  C19_29 
REMARK   10  A    between atoms: C18_26  and  O6_28 
ROOT
HETATM    1  C1  UNL     1      -7.944  49.718 -23.734  1.00  0.00     0.015 C 
HETATM    2  C2  UNL     1      -6.801  49.418 -23.518  1.00  0.00    -0.078 C 
HETATM    3  C3  UNL     1      -5.409  49.031 -23.242  1.00  0.00     0.128 C 
HETATM    4  C4  UNL     1      -4.730  48.411 -24.468  1.00  0.00     0.052 C 
HETATM    5  C5  UNL     1      -3.263  48.396 -24.056  1.00  0.00     0.010 C 
HETATM    6  C6  UNL     1      -3.055  49.769 -23.405  1.00  0.00     0.002 C 
HETATM    7  C7  UNL     1      -1.843  49.904 -22.453  1.00  0.00    -0.004 C 
HETATM    8  C8  UNL     1      -1.586  48.738 -21.484  1.00  0.00     0.010 C 
HETATM    9  C9  UNL     1      -0.342  48.973 -20.626  1.00  0.00     0.035 C 
HETATM   10  C10 UNL     1      -0.296  50.331 -19.959  1.00  0.00    -0.069 C 
HETATM   11  C11 UNL     1       0.064  50.429 -18.666  1.00  0.00     0.030 C 
HETATM   12  C12 UNL     1       0.280  51.752 -18.008  1.00  0.00     0.032 C 
HETATM   13  N1  UNL     1       0.557  51.943 -16.755  1.00  0.00    -0.271 N 
ATOM     14  H1  UNL     1       0.732  52.859 -16.342  1.00  0.00     0.194 HD
HETATM   15  C22 UNL     1       0.246  52.979 -18.898  1.00  0.00     0.060 C 
HETATM   16  C23 UNL     1      -0.815  52.822 -19.977  1.00  0.00     0.020 C 
HETATM   17  C24 UNL     1      -0.625  51.537 -20.837  1.00  0.00    -0.016 C 
HETATM   18  C25 UNL     1       0.571  51.788 -21.793  1.00  0.00     0.020 C 
HETATM   19  C26 UNL     1      -1.928  51.247 -21.682  1.00  0.00     0.002 C 
HETATM   20  C27 UNL     1      -3.237  51.329 -20.851  1.00  0.00     0.007 C 
HETATM   21  C28 UNL     1      -4.400  50.452 -21.324  1.00  0.00     0.014 C 
HETATM   22  C29 UNL     1      -4.449  50.210 -22.841  1.00  0.00     0.003 C 
HETATM   23  C30 UNL     1      -4.851  51.538 -23.540  1.00  0.00     0.020 C 
ENDROOT
BRANCH   3  24
HETATM   24  O1  UNL     1      -5.426  48.027 -22.223  1.00  0.00    -0.377 OA
HETATM   25  H2  UNL     1      -6.089  47.366 -22.485  1.00  0.00     0.211 HD
ENDBRANCH   3  24
BRANCH  13  26
HETATM   26  O2  UNL     1       0.584  50.737 -16.036  1.00  0.00    -0.271 OA
BRANCH  26  27
HETATM   27  C13 UNL     1       1.446  50.893 -14.921  1.00  0.00     0.303 C 
BRANCH  27  28
HETATM   28  C14 UNL     1       0.669  51.335 -13.683  1.00  0.00     0.244 C 
HETATM   29  O3  UNL     1      -0.059  50.597 -13.027  1.00  0.00    -0.271 OA
HETATM   30  N2  UNL     1       0.844  52.673 -13.370  1.00  0.00    -0.350 N 
HETATM   31  H16 UNL     1       1.665  53.139 -13.737  1.00  0.00     0.163 HD
BRANCH  30  32
HETATM   32  C15 UNL     1       0.298  53.205 -12.126  1.00  0.00     0.225 C 
BRANCH  32  33
HETATM   33  C16 UNL     1       1.343  53.236 -11.009  1.00  0.00     0.236 C 
HETATM   34  O4  UNL     1       1.716  52.224 -10.424  1.00  0.00    -0.272 OA
HETATM   35  N3  UNL     1       1.766  54.500 -10.664  1.00  0.00    -0.345 N 
HETATM   36  H19 UNL     1       1.188  55.282 -10.965  1.00  0.00     0.163 HD
BRANCH  35  37
HETATM   37  C17 UNL     1       2.657  54.751  -9.526  1.00  0.00     0.185 C 
BRANCH  37  38
HETATM   38  C18 UNL     1       1.815  55.057  -8.277  1.00  0.00     0.163 C 
HETATM   39  O5  UNL     1       2.015  54.664  -7.140  1.00  0.00    -0.648 OA
BRANCH  38  40
HETATM   40  O6  UNL     1       0.751  55.859  -8.529  1.00  0.00    -0.775 OA
HETATM   41  H21 UNL     1       0.317  55.941  -7.651  1.00  0.00     0.167 HD
ENDBRANCH  38  40
ENDBRANCH  37  38
BRANCH  37  42
HETATM   42  C19 UNL     1       3.669  55.869  -9.865  1.00  0.00     0.010 C 
HETATM   43  C20 UNL     1       3.738  56.937  -8.770  1.00  0.00     0.012 C 
HETATM   44  C21 UNL     1       3.405  56.520 -11.226  1.00  0.00     0.012 C 
ENDBRANCH  37  42
ENDBRANCH  35  37
ENDBRANCH  32  33
ENDBRANCH  30  32
ENDBRANCH  27  28
ENDBRANCH  26  27
ENDBRANCH  13  26
TORSDOF 10
ENDMDL
MODEL 9
REMARK minimizedAffinity -7.61179829
REMARK CNNscore 0.299076945
REMARK CNNaffinity 5.32033682
REMARK  10 active torsions:
REMARK  status: ('A' for Active; 'I' for Inactive)
REMARK    1  A    between atoms: C3_3  and  O1_4 
REMARK    2  A    between atoms: N1_14  and  O2_16 
REMARK    3  A    between atoms: O2_16  and  C13_17 
REMARK    4  A    between atoms: C13_17  and  C14_18 
REMARK       I    between atoms: C14_18  and  N2_20 
REMARK    5  A    between atoms: N2_20  and  C15_21 
REMARK    6  A    between atoms: C15_21  and  C16_22 
REMARK       I    between atoms: C16_22  and  N3_24 
REMARK    7  A    between atoms: N3_24  and  C17_25 
REMARK    8  A    between atoms: C17_25  and  C18_26 
REMARK    9  A    between atoms: C17_25  and  C19_29 
REMARK   10  A    between atoms: C18_26  and  O6_28 
ROOT
HETATM    1  C1  UNL     1      -4.113  48.262 -33.715  1.00  0.00     0.015 C 
HETATM    2  C2  UNL     1      -4.794  47.383 -33.259  1.00  0.00    -0.078 C 
HETATM    3  C3  UNL     1      -5.637  46.303 -32.723  1.00  0.00     0.128 C 
HETATM    4  C4  UNL     1      -4.865  44.987 -32.581  1.00  0.00     0.052 C 
HETATM    5  C5  UNL     1      -5.811  44.143 -31.735  1.00  0.00     0.010 C 
HETATM    6  C6  UNL     1      -6.302  45.118 -30.658  1.00  0.00     0.002 C 
HETATM    7  C7  UNL     1      -7.620  44.747 -29.940  1.00  0.00    -0.004 C 
HETATM    8  C8  UNL     1      -8.761  44.205 -30.818  1.00  0.00     0.010 C 
HETATM    9  C9  UNL     1      -9.994  43.840 -29.991  1.00  0.00     0.035 C 
HETATM   10  C10 UNL     1     -10.437  44.921 -29.028  1.00  0.00    -0.069 C 
HETATM   11  C11 UNL     1     -11.743  45.231 -28.927  1.00  0.00     0.030 C 
HETATM   12  C12 UNL     1     -12.248  46.171 -27.883  1.00  0.00     0.032 C 
HETATM   13  N1  UNL     1     -13.473  46.582 -27.756  1.00  0.00    -0.271 N 
ATOM     14  H1  UNL     1     -13.795  47.199 -27.011  1.00  0.00     0.194 HD
HETATM   15  C22 UNL     1     -11.259  46.632 -26.831  1.00  0.00     0.060 C 
HETATM   16  C23 UNL     1      -9.884  46.838 -27.450  1.00  0.00     0.020 C 
HETATM   17  C24 UNL     1      -9.346  45.571 -28.179  1.00  0.00    -0.016 C 
HETATM   18  C25 UNL     1      -8.905  44.559 -27.089  1.00  0.00     0.020 C 
HETATM   19  C26 UNL     1      -8.111  45.946 -29.088  1.00  0.00     0.002 C 
HETATM   20  C27 UNL     1      -8.350  47.198 -29.975  1.00  0.00     0.007 C 
HETATM   21  C28 UNL     1      -7.586  47.249 -31.301  1.00  0.00     0.014 C 
HETATM   22  C29 UNL     1      -6.215  46.553 -31.283  1.00  0.00     0.003 C 
HETATM   23  C30 UNL     1      -5.244  47.398 -30.413  1.00  0.00     0.020 C 
ENDROOT
BRANCH   3  24
HETATM   24  O1  UNL     1      -6.695  46.068 -33.657  1.00  0.00    -0.377 OA
HETATM   25  H2  UNL     1      -6.287  45.997 -34.537  1.00  0.00     0.211 HD
ENDBRANCH   3  24
BRANCH  13  26
HETATM   26  O2  UNL     1     -14.301  46.074 -28.771  1.00  0.00    -0.271 OA
BRANCH  26  27
HETATM   27  C13 UNL     1     -14.939  44.901 -28.290  1.00  0.00     0.303 C 
BRANCH  27  28
HETATM   28  C14 UNL     1     -15.348  45.059 -26.827  1.00  0.00     0.244 C 
HETATM   29  O3  UNL     1     -15.843  46.079 -26.356  1.00  0.00    -0.271 OA
HETATM   30  N2  UNL     1     -15.091  43.937 -26.057  1.00  0.00    -0.350 N 
HETATM   31  H16 UNL     1     -14.982  43.052 -26.538  1.00  0.00     0.163 HD
BRANCH  30  32
HETATM   32  C15 UNL     1     -15.572  43.874 -24.682  1.00  0.00     0.225 C 
BRANCH  32  33
HETATM   33  C16 UNL     1     -17.100  43.918 -24.608  1.00  0.00     0.236 C 
HETATM   34  O4  UNL     1     -17.815  43.157 -25.252  1.00  0.00    -0.272 OA
HETATM   35  N3  UNL     1     -17.600  44.934 -23.826  1.00  0.00    -0.345 N 
HETATM   36  H19 UNL     1     -16.968  45.697 -23.592  1.00  0.00     0.163 HD
BRANCH  35  37
HETATM   37  C17 UNL     1     -19.035  45.230 -23.739  1.00  0.00     0.185 C 
BRANCH  37  38
HETATM   38  C18 UNL     1     -19.360  46.439 -24.632  1.00  0.00     0.163 C 
HETATM   39  O5  UNL     1     -18.671  47.429 -24.810  1.00  0.00    -0.648 OA
BRANCH  38  40
HETATM   40  O6  UNL     1     -20.552  46.330 -25.269  1.00  0.00    -0.775 OA
HETATM   41  H21 UNL     1     -20.616  47.173 -25.772  1.00  0.00     0.167 HD
ENDBRANCH  38  40
ENDBRANCH  37  38
BRANCH  37  42
HETATM   42  C19 UNL     1     -19.459  45.432 -22.266  1.00  0.00     0.010 C 
HETATM   43  C20 UNL     1     -18.473  46.315 -21.497  1.00  0.00     0.012 C 
HETATM   44  C21 UNL     1     -19.681  44.111 -21.522  1.00  0.00     0.012 C 
ENDBRANCH  37  42
ENDBRANCH  35  37
ENDBRANCH  32  33
ENDBRANCH  30  32
ENDBRANCH  27  28
ENDBRANCH  26  27
ENDBRANCH  13  26
TORSDOF 10
ENDMDL
