MODEL 1
REMARK minimizedAffinity -8.47757149
REMARK CNNscore 0.599362314
REMARK CNNaffinity 7.0760932
REMARK  11 active torsions:
REMARK  status: ('A' for Active; 'I' for Inactive)
REMARK    1  A    between atoms: C3_3  and  O1_4 
REMARK    2  A    between atoms: N1_14  and  O2_16 
REMARK    3  A    between atoms: O2_16  and  C13_17 
REMARK    4  A    between atoms: C13_17  and  C14_18 
REMARK       I    between atoms: C14_18  and  N2_20 
REMARK    5  A    between atoms: N2_20  and  C15_21 
REMARK    6  A    between atoms: C15_21  and  C16_22 
REMARK    7  A    between atoms: C15_21  and  C17_25 
REMARK    8  A    between atoms: C16_22  and  O5_24 
REMARK    9  A    between atoms: C17_25  and  O6_26 
REMARK   10  A    between atoms: C17_25  and  C18_27 
REMARK   11  A    between atoms: C22_31  and  N3_32 
ROOT
HETATM    1  C1  UNL     1     -12.836   3.001  30.405  1.00  0.00     0.015 C 
HETATM    2  C2  UNL     1     -13.138   2.640  29.300  1.00  0.00    -0.078 C 
HETATM    3  C3  UNL     1     -13.518   2.180  27.956  1.00  0.00     0.128 C 
HETATM    4  C4  UNL     1     -12.288   1.902  27.077  1.00  0.00     0.052 C 
HETATM    5  C5  UNL     1     -12.723   2.197  25.635  1.00  0.00     0.010 C 
HETATM    6  C6  UNL     1     -14.189   2.665  25.697  1.00  0.00     0.002 C 
HETATM    7  C7  UNL     1     -14.630   3.637  24.580  1.00  0.00    -0.004 C 
HETATM    8  C8  UNL     1     -14.334   3.051  23.192  1.00  0.00     0.010 C 
HETATM    9  C9  UNL     1     -14.876   3.948  22.090  1.00  0.00     0.035 C 
HETATM   10  C10 UNL     1     -14.346   5.358  22.200  1.00  0.00    -0.069 C 
HETATM   11  C11 UNL     1     -13.844   5.959  21.107  1.00  0.00     0.030 C 
HETATM   12  C12 UNL     1     -13.462   7.394  21.102  1.00  0.00     0.032 C 
HETATM   13  N1  UNL     1     -13.056   7.903  19.974  1.00  0.00    -0.271 N 
ATOM     14  H1  UNL     1     -12.935   7.367  19.114  1.00  0.00     0.194 HD
HETATM   15  C24 UNL     1     -13.655   8.185  22.377  1.00  0.00     0.060 C 
HETATM   16  C25 UNL     1     -13.546   7.291  23.606  1.00  0.00     0.020 C 
HETATM   17  C26 UNL     1     -14.471   6.040  23.566  1.00  0.00    -0.016 C 
HETATM   18  C27 UNL     1     -15.941   6.491  23.738  1.00  0.00     0.020 C 
HETATM   19  C28 UNL     1     -14.014   5.052  24.714  1.00  0.00     0.002 C 
HETATM   20  C29 UNL     1     -14.266   5.599  26.133  1.00  0.00     0.007 C 
HETATM   21  C30 UNL     1     -13.754   4.652  27.220  1.00  0.00     0.014 C 
HETATM   22  C31 UNL     1     -14.347   3.220  27.134  1.00  0.00     0.003 C 
HETATM   23  C32 UNL     1     -15.827   3.240  27.562  1.00  0.00     0.020 C 
ENDROOT
BRANCH   3  24
HETATM   24  O1  UNL     1     -14.245   0.959  28.117  1.00  0.00    -0.377 OA
HETATM   25  H2  UNL     1     -14.273   0.501  27.264  1.00  0.00     0.211 HD
ENDBRANCH   3  24
BRANCH  13  26
HETATM   26  O2  UNL     1     -12.804   9.279  20.085  1.00  0.00    -0.271 OA
BRANCH  26  27
HETATM   27  C13 UNL     1     -11.498   9.541  19.585  1.00  0.00     0.303 C 
BRANCH  27  28
HETATM   28  C14 UNL     1     -11.578   9.870  18.103  1.00  0.00     0.244 C 
HETATM   29  O3  UNL     1     -11.773  11.009  17.684  1.00  0.00    -0.271 OA
HETATM   30  N2  UNL     1     -11.472   8.778  17.276  1.00  0.00    -0.342 N 
HETATM   31  H16 UNL     1     -11.183   7.884  17.665  1.00  0.00     0.163 HD
BRANCH  30  32
HETATM   32  C15 UNL     1     -11.549   8.879  15.816  1.00  0.00     0.216 C 
BRANCH  32  33
HETATM   33  C16 UNL     1     -12.488  10.007  15.395  1.00  0.00     0.166 C 
HETATM   34  O4  UNL     1     -12.175  10.995  14.748  1.00  0.00    -0.648 OA
BRANCH  33  35
HETATM   35  O5  UNL     1     -13.769   9.851  15.807  1.00  0.00    -0.775 OA
HETATM   36  H18 UNL     1     -14.221  10.658  15.476  1.00  0.00     0.167 HD
ENDBRANCH  33  35
ENDBRANCH  32  33
BRANCH  32  37
HETATM   37  C17 UNL     1     -10.175   9.134  15.150  1.00  0.00     0.184 C 
BRANCH  37  38
HETATM   38  O6  UNL     1      -9.507  10.238  15.781  1.00  0.00    -0.388 OA
HETATM   39  H20 UNL     1      -8.651  10.337  15.327  1.00  0.00     0.210 HD
ENDBRANCH  37  38
BRANCH  37  40
HETATM   40  C18 UNL     1      -9.269   7.912  15.150  1.00  0.00    -0.025 A 
HETATM   41  C19 UNL     1      -8.439   7.607  16.242  1.00  0.00     0.010 A 
HETATM   42  C20 UNL     1      -7.637   6.463  16.242  1.00  0.00     0.003 A 
HETATM   43  C21 UNL     1      -7.656   5.595  15.151  1.00  0.00     0.036 A 
HETATM   44  C22 UNL     1      -8.485   5.883  14.061  1.00  0.00     0.103 A 
HETATM   45  C23 UNL     1      -9.287   7.034  14.054  1.00  0.00     0.045 A 
BRANCH  44  46
HETATM   46  N3  UNL     1      -8.511   4.972  12.910  1.00  0.00    -0.116 N 
HETATM   47  O7  UNL     1      -8.406   3.756  13.133  1.00  0.00    -0.532 OA
HETATM   48  O8  UNL     1      -8.650   5.468  11.783  1.00  0.00    -0.532 OA
ENDBRANCH  44  46
ENDBRANCH  37  40
ENDBRANCH  32  37
ENDBRANCH  30  32
ENDBRANCH  27  28
ENDBRANCH  26  27
ENDBRANCH  13  26
TORSDOF 11
ENDMDL
MODEL 2
REMARK minimizedAffinity -7.81087255
REMARK CNNscore 0.393552452
REMARK CNNaffinity 6.40216684
REMARK  11 active torsions:
REMARK  status: ('A' for Active; 'I' for Inactive)
REMARK    1  A    between atoms: C3_3  and  O1_4 
REMARK    2  A    between atoms: N1_14  and  O2_16 
REMARK    3  A    between atoms: O2_16  and  C13_17 
REMARK    4  A    between atoms: C13_17  and  C14_18 
REMARK       I    between atoms: C14_18  and  N2_20 
REMARK    5  A    between atoms: N2_20  and  C15_21 
REMARK    6  A    between atoms: C15_21  and  C16_22 
REMARK    7  A    between atoms: C15_21  and  C17_25 
REMARK    8  A    between atoms: C16_22  and  O5_24 
REMARK    9  A    between atoms: C17_25  and  O6_26 
REMARK   10  A    between atoms: C17_25  and  C18_27 
REMARK   11  A    between atoms: C22_31  and  N3_32 
ROOT
HETATM    1  C1  UNL     1      -7.634  15.186  24.549  1.00  0.00     0.015 C 
HETATM    2  C2  UNL     1      -7.829  15.118  23.366  1.00  0.00    -0.078 C 
HETATM    3  C3  UNL     1      -8.084  15.052  21.919  1.00  0.00     0.128 C 
HETATM    4  C4  UNL     1      -8.654  13.687  21.500  1.00  0.00     0.052 C 
HETATM    5  C5  UNL     1      -8.166  13.447  20.065  1.00  0.00     0.010 C 
HETATM    6  C6  UNL     1      -7.301  14.661  19.678  1.00  0.00     0.002 C 
HETATM    7  C7  UNL     1      -6.182  14.386  18.649  1.00  0.00    -0.004 C 
HETATM    8  C8  UNL     1      -6.749  13.733  17.381  1.00  0.00     0.010 C 
HETATM    9  C9  UNL     1      -5.674  13.571  16.317  1.00  0.00     0.035 C 
HETATM   10  C10 UNL     1      -4.484  12.797  16.833  1.00  0.00    -0.069 C 
HETATM   11  C11 UNL     1      -3.992  11.782  16.101  1.00  0.00     0.030 C 
HETATM   12  C12 UNL     1      -2.729  11.090  16.461  1.00  0.00     0.032 C 
HETATM   13  N1  UNL     1      -2.295  10.169  15.648  1.00  0.00    -0.271 N 
ATOM     14  H1  UNL     1      -2.794   9.863  14.812  1.00  0.00     0.194 HD
HETATM   15  C24 UNL     1      -1.989  11.558  17.695  1.00  0.00     0.060 C 
HETATM   16  C25 UNL     1      -2.945  12.152  18.722  1.00  0.00     0.020 C 
HETATM   17  C26 UNL     1      -3.873  13.267  18.156  1.00  0.00    -0.016 C 
HETATM   18  C27 UNL     1      -3.029  14.530  17.867  1.00  0.00     0.020 C 
HETATM   19  C28 UNL     1      -5.013  13.543  19.217  1.00  0.00     0.002 C 
HETATM   20  C29 UNL     1      -4.498  14.180  20.523  1.00  0.00     0.007 C 
HETATM   21  C30 UNL     1      -5.612  14.374  21.554  1.00  0.00     0.014 C 
HETATM   22  C31 UNL     1      -6.806  15.218  21.035  1.00  0.00     0.003 C 
HETATM   23  C32 UNL     1      -6.386  16.695  20.908  1.00  0.00     0.020 C 
ENDROOT
BRANCH   3  24
HETATM   24  O1  UNL     1      -9.052  16.059  21.614  1.00  0.00    -0.377 OA
HETATM   25  H2  UNL     1      -9.434  15.869  20.744  1.00  0.00     0.211 HD
ENDBRANCH   3  24
BRANCH  13  26
HETATM   26  O2  UNL     1      -1.058   9.651  16.060  1.00  0.00    -0.271 OA
BRANCH  26  27
HETATM   27  C13 UNL     1      -1.120   8.231  15.996  1.00  0.00     0.303 C 
BRANCH  27  28
HETATM   28  C14 UNL     1      -0.269   7.738  14.837  1.00  0.00     0.244 C 
HETATM   29  O3  UNL     1       0.952   7.620  14.911  1.00  0.00    -0.271 OA
HETATM   30  N2  UNL     1      -0.975   7.492  13.684  1.00  0.00    -0.342 N 
HETATM   31  H16 UNL     1      -1.990   7.479  13.714  1.00  0.00     0.163 HD
BRANCH  30  32
HETATM   32  C15 UNL     1      -0.336   7.034  12.447  1.00  0.00     0.216 C 
BRANCH  32  33
HETATM   33  C16 UNL     1      -0.853   5.655  12.043  1.00  0.00     0.166 C 
HETATM   34  O4  UNL     1      -0.787   5.166  10.925  1.00  0.00    -0.648 OA
BRANCH  33  35
HETATM   35  O5  UNL     1      -1.431   4.958  13.049  1.00  0.00    -0.775 OA
HETATM   36  H18 UNL     1      -1.719   4.123  12.620  1.00  0.00     0.167 HD
ENDBRANCH  33  35
ENDBRANCH  32  33
BRANCH  32  37
HETATM   37  C17 UNL     1      -0.562   7.993  11.253  1.00  0.00     0.184 C 
BRANCH  37  38
HETATM   38  O6  UNL     1      -0.757   9.338  11.717  1.00  0.00    -0.388 OA
HETATM   39  H20 UNL     1      -0.880   9.889  10.924  1.00  0.00     0.210 HD
ENDBRANCH  37  38
BRANCH  37  40
HETATM   40  C18 UNL     1       0.563   7.957  10.229  1.00  0.00    -0.025 A 
HETATM   41  C19 UNL     1       0.344   8.289   8.881  1.00  0.00     0.010 A 
HETATM   42  C20 UNL     1       1.394   8.284   7.958  1.00  0.00     0.003 A 
HETATM   43  C21 UNL     1       2.686   7.956   8.368  1.00  0.00     0.036 A 
HETATM   44  C22 UNL     1       2.917   7.633   9.709  1.00  0.00     0.103 A 
HETATM   45  C23 UNL     1       1.865   7.630  10.639  1.00  0.00     0.045 A 
BRANCH  44  46
HETATM   46  N3  UNL     1       4.275   7.290  10.148  1.00  0.00    -0.116 N 
HETATM   47  O7  UNL     1       4.994   8.207  10.572  1.00  0.00    -0.532 OA
HETATM   48  O8  UNL     1       4.621   6.102  10.083  1.00  0.00    -0.532 OA
ENDBRANCH  44  46
ENDBRANCH  37  40
ENDBRANCH  32  37
ENDBRANCH  30  32
ENDBRANCH  27  28
ENDBRANCH  26  27
ENDBRANCH  13  26
TORSDOF 11
ENDMDL
MODEL 3
REMARK minimizedAffinity -9.62028122
REMARK CNNscore 0.280301929
REMARK CNNaffinity 7.47011518
REMARK  11 active torsions:
REMARK  status: ('A' for Active; 'I' for Inactive)
REMARK    1  A    between atoms: C3_3  and  O1_4 
REMARK    2  A    between atoms: N1_14  and  O2_16 
REMARK    3  A    between atoms: O2_16  and  C13_17 
REMARK    4  A    between atoms: C13_17  and  C14_18 
REMARK       I    between atoms: C14_18  and  N2_20 
REMARK    5  A    between atoms: N2_20  and  C15_21 
REMARK    6  A    between atoms: C15_21  and  C16_22 
REMARK    7  A    between atoms: C15_21  and  C17_25 
REMARK    8  A    between atoms: C16_22  and  O5_24 
REMARK    9  A    between atoms: C17_25  and  O6_26 
REMARK   10  A    between atoms: C17_25  and  C18_27 
REMARK   11  A    between atoms: C22_31  and  N3_32 
ROOT
HETATM    1  C1  UNL     1       2.360   6.662   6.921  1.00  0.00     0.015 C 
HETATM    2  C2  UNL     1       2.476   6.563   8.112  1.00  0.00    -0.078 C 
HETATM    3  C3  UNL     1       2.641   6.444   9.569  1.00  0.00     0.128 C 
HETATM    4  C4  UNL     1       2.116   5.098  10.095  1.00  0.00     0.052 C 
HETATM    5  C5  UNL     1       1.624   5.366  11.524  1.00  0.00     0.010 C 
HETATM    6  C6  UNL     1       1.846   6.866  11.800  1.00  0.00     0.002 C 
HETATM    7  C7  UNL     1       0.867   7.515  12.803  1.00  0.00    -0.004 C 
HETATM    8  C8  UNL     1       0.848   6.744  14.131  1.00  0.00     0.010 C 
HETATM    9  C9  UNL     1      -0.020   7.448  15.163  1.00  0.00     0.035 C 
HETATM   10  C10 UNL     1      -1.425   7.676  14.655  1.00  0.00    -0.069 C 
HETATM   11  C11 UNL     1      -2.468   7.339  15.432  1.00  0.00     0.030 C 
HETATM   12  C12 UNL     1      -3.865   7.688  15.072  1.00  0.00     0.032 C 
HETATM   13  N1  UNL     1      -4.801   7.384  15.926  1.00  0.00    -0.271 N 
ATOM     14  H1  UNL     1      -4.638   6.879  16.798  1.00  0.00     0.194 HD
HETATM   15  C24 UNL     1      -4.099   8.448  13.784  1.00  0.00     0.060 C 
HETATM   16  C25 UNL     1      -3.016   8.141  12.756  1.00  0.00     0.020 C 
HETATM   17  C26 UNL     1      -1.565   8.341  13.282  1.00  0.00    -0.016 C 
HETATM   18  C27 UNL     1      -1.294   9.854  13.458  1.00  0.00     0.020 C 
HETATM   19  C28 UNL     1      -0.570   7.675  12.248  1.00  0.00     0.002 C 
HETATM   20  C29 UNL     1      -0.525   8.395  10.886  1.00  0.00     0.007 C 
HETATM   21  C30 UNL     1       0.394   7.691   9.886  1.00  0.00     0.014 C 
HETATM   22  C31 UNL     1       1.850   7.510  10.393  1.00  0.00     0.003 C 
HETATM   23  C32 UNL     1       2.571   8.872  10.408  1.00  0.00     0.020 C 
ENDROOT
BRANCH   3  24
HETATM   24  O1  UNL     1       4.043   6.521   9.844  1.00  0.00    -0.377 OA
HETATM   25  H2  UNL     1       4.202   6.183  10.737  1.00  0.00     0.211 HD
ENDBRANCH   3  24
BRANCH  13  26
HETATM   26  O2  UNL     1      -6.059   7.837  15.503  1.00  0.00    -0.271 OA
BRANCH  26  27
HETATM   27  C13 UNL     1      -7.055   7.235  16.322  1.00  0.00     0.303 C 
BRANCH  27  28
HETATM   28  C14 UNL     1      -8.050   6.491  15.448  1.00  0.00     0.244 C 
HETATM   29  O3  UNL     1      -9.267   6.629  15.560  1.00  0.00    -0.271 OA
HETATM   30  N2  UNL     1      -7.477   5.610  14.563  1.00  0.00    -0.342 N 
HETATM   31  H16 UNL     1      -6.471   5.631  14.421  1.00  0.00     0.163 HD
BRANCH  30  32
HETATM   32  C15 UNL     1      -8.266   4.779  13.649  1.00  0.00     0.216 C 
BRANCH  32  33
HETATM   33  C16 UNL     1      -8.443   5.469  12.299  1.00  0.00     0.166 C 
HETATM   34  O4  UNL     1      -9.373   6.197  11.983  1.00  0.00    -0.648 OA
BRANCH  33  35
HETATM   35  O5  UNL     1      -7.457   5.212  11.406  1.00  0.00    -0.775 OA
HETATM   36  H18 UNL     1      -7.734   5.706  10.604  1.00  0.00     0.167 HD
ENDBRANCH  33  35
ENDBRANCH  32  33
BRANCH  32  37
HETATM   37  C17 UNL     1      -7.635   3.389  13.392  1.00  0.00     0.184 C 
BRANCH  37  38
HETATM   38  O6  UNL     1      -8.554   2.541  12.687  1.00  0.00    -0.388 OA
HETATM   39  H20 UNL     1      -8.096   1.693  12.547  1.00  0.00     0.210 HD
ENDBRANCH  37  38
BRANCH  37  40
HETATM   40  C18 UNL     1      -6.313   3.456  12.642  1.00  0.00    -0.025 A 
HETATM   41  C19 UNL     1      -6.214   3.097  11.287  1.00  0.00     0.010 A 
HETATM   42  C20 UNL     1      -5.000   3.195  10.602  1.00  0.00     0.003 A 
HETATM   43  C21 UNL     1      -3.861   3.663  11.257  1.00  0.00     0.036 A 
HETATM   44  C22 UNL     1      -3.950   4.032  12.604  1.00  0.00     0.103 A 
HETATM   45  C23 UNL     1      -5.165   3.929  13.298  1.00  0.00     0.045 A 
BRANCH  44  46
HETATM   46  N3  UNL     1      -2.756   4.528  13.299  1.00  0.00    -0.116 N 
HETATM   47  O7  UNL     1      -1.766   4.819  12.610  1.00  0.00    -0.532 OA
HETATM   48  O8  UNL     1      -2.809   4.641  14.532  1.00  0.00    -0.532 OA
ENDBRANCH  44  46
ENDBRANCH  37  40
ENDBRANCH  32  37
ENDBRANCH  30  32
ENDBRANCH  27  28
ENDBRANCH  26  27
ENDBRANCH  13  26
TORSDOF 11
ENDMDL
MODEL 4
REMARK minimizedAffinity -8.2356863
REMARK CNNscore 0.248892993
REMARK CNNaffinity 6.83498001
REMARK  11 active torsions:
REMARK  status: ('A' for Active; 'I' for Inactive)
REMARK    1  A    between atoms: C3_3  and  O1_4 
REMARK    2  A    between atoms: N1_14  and  O2_16 
REMARK    3  A    between atoms: O2_16  and  C13_17 
REMARK    4  A    between atoms: C13_17  and  C14_18 
REMARK       I    between atoms: C14_18  and  N2_20 
REMARK    5  A    between atoms: N2_20  and  C15_21 
REMARK    6  A    between atoms: C15_21  and  C16_22 
REMARK    7  A    between atoms: C15_21  and  C17_25 
REMARK    8  A    between atoms: C16_22  and  O5_24 
REMARK    9  A    between atoms: C17_25  and  O6_26 
REMARK   10  A    between atoms: C17_25  and  C18_27 
REMARK   11  A    between atoms: C22_31  and  N3_32 
ROOT
HETATM    1  C1  UNL     1      -4.396   4.399  13.501  1.00  0.00     0.015 C 
HETATM    2  C2  UNL     1      -4.979   5.233  14.140  1.00  0.00    -0.078 C 
HETATM    3  C3  UNL     1      -5.672   6.265  14.925  1.00  0.00     0.128 C 
HETATM    4  C4  UNL     1      -6.289   5.689  16.210  1.00  0.00     0.052 C 
HETATM    5  C5  UNL     1      -7.534   6.539  16.500  1.00  0.00     0.010 C 
HETATM    6  C6  UNL     1      -7.637   7.580  15.369  1.00  0.00     0.002 C 
HETATM    7  C7  UNL     1      -9.065   8.063  15.031  1.00  0.00    -0.004 C 
HETATM    8  C8  UNL     1      -9.780   8.589  16.283  1.00  0.00     0.010 C 
HETATM    9  C9  UNL     1     -11.139   9.177  15.935  1.00  0.00     0.035 C 
HETATM   10  C10 UNL     1     -12.009   8.186  15.199  1.00  0.00    -0.069 C 
HETATM   11  C11 UNL     1     -13.277   7.996  15.602  1.00  0.00     0.030 C 
HETATM   12  C12 UNL     1     -14.236   7.169  14.828  1.00  0.00     0.032 C 
HETATM   13  N1  UNL     1     -15.463   7.107  15.261  1.00  0.00    -0.271 N 
ATOM     14  H1  UNL     1     -15.789   7.547  16.122  1.00  0.00     0.194 HD
HETATM   15  C24 UNL     1     -13.749   6.528  13.546  1.00  0.00     0.060 C 
HETATM   16  C25 UNL     1     -12.251   6.252  13.600  1.00  0.00     0.020 C 
HETATM   17  C26 UNL     1     -11.389   7.491  13.982  1.00  0.00    -0.016 C 
HETATM   18  C27 UNL     1     -11.397   8.496  12.806  1.00  0.00     0.020 C 
HETATM   19  C28 UNL     1      -9.929   6.987  14.325  1.00  0.00     0.002 C 
HETATM   20  C29 UNL     1      -9.170   6.426  13.107  1.00  0.00     0.007 C 
HETATM   21  C30 UNL     1      -7.788   5.887  13.481  1.00  0.00     0.014 C 
HETATM   22  C31 UNL     1      -6.879   6.929  14.187  1.00  0.00     0.003 C 
HETATM   23  C32 UNL     1      -6.416   7.991  13.172  1.00  0.00     0.020 C 
ENDROOT
BRANCH   3  24
HETATM   24  O1  UNL     1      -4.696   7.244  15.292  1.00  0.00    -0.377 OA
HETATM   25  H2  UNL     1      -5.051   7.779  16.018  1.00  0.00     0.211 HD
ENDBRANCH   3  24
BRANCH  13  26
HETATM   26  O2  UNL     1     -16.282   6.361  14.400  1.00  0.00    -0.271 OA
BRANCH  26  27
HETATM   27  C13 UNL     1     -17.375   5.846  15.151  1.00  0.00     0.303 C 
BRANCH  27  28
HETATM   28  C14 UNL     1     -17.117   4.386  15.486  1.00  0.00     0.244 C 
HETATM   29  O3  UNL     1     -16.757   4.013  16.601  1.00  0.00    -0.271 OA
HETATM   30  N2  UNL     1     -17.263   3.528  14.423  1.00  0.00    -0.342 N 
HETATM   31  H16 UNL     1     -17.686   3.867  13.563  1.00  0.00     0.163 HD
BRANCH  30  32
HETATM   32  C15 UNL     1     -17.035   2.084  14.533  1.00  0.00     0.216 C 
BRANCH  32  33
HETATM   33  C16 UNL     1     -15.551   1.753  14.395  1.00  0.00     0.166 C 
HETATM   34  O4  UNL     1     -14.644   2.244  15.051  1.00  0.00    -0.648 OA
BRANCH  33  35
HETATM   35  O5  UNL     1     -15.269   0.832  13.443  1.00  0.00    -0.775 OA
HETATM   36  H18 UNL     1     -14.291   0.755  13.474  1.00  0.00     0.167 HD
ENDBRANCH  33  35
ENDBRANCH  32  33
BRANCH  32  37
HETATM   37  C17 UNL     1     -17.530   1.490  15.873  1.00  0.00     0.184 C 
BRANCH  37  38
HETATM   38  O6  UNL     1     -18.825   2.013  16.209  1.00  0.00    -0.388 OA
HETATM   39  H20 UNL     1     -19.083   1.594  17.049  1.00  0.00     0.210 HD
ENDBRANCH  37  38
BRANCH  37  40
HETATM   40  C18 UNL     1     -17.569  -0.031  15.882  1.00  0.00    -0.025 A 
HETATM   41  C19 UNL     1     -18.086  -0.763  14.799  1.00  0.00     0.010 A 
HETATM   42  C20 UNL     1     -18.084  -2.160  14.807  1.00  0.00     0.003 A 
HETATM   43  C21 UNL     1     -17.557  -2.854  15.895  1.00  0.00     0.036 A 
HETATM   44  C22 UNL     1     -17.031  -2.136  16.975  1.00  0.00     0.103 A 
HETATM   45  C23 UNL     1     -17.036  -0.733  16.975  1.00  0.00     0.045 A 
BRANCH  44  46
HETATM   46  N3  UNL     1     -16.471  -2.861  18.123  1.00  0.00    -0.116 N 
HETATM   47  O7  UNL     1     -16.403  -2.261  19.207  1.00  0.00    -0.532 OA
HETATM   48  O8  UNL     1     -16.113  -4.034  17.948  1.00  0.00    -0.532 OA
ENDBRANCH  44  46
ENDBRANCH  37  40
ENDBRANCH  32  37
ENDBRANCH  30  32
ENDBRANCH  27  28
ENDBRANCH  26  27
ENDBRANCH  13  26
TORSDOF 11
ENDMDL
MODEL 5
REMARK minimizedAffinity -8.26365662
REMARK CNNscore 0.2448024
REMARK CNNaffinity 5.68866777
REMARK  11 active torsions:
REMARK  status: ('A' for Active; 'I' for Inactive)
REMARK    1  A    between atoms: C3_3  and  O1_4 
REMARK    2  A    between atoms: N1_14  and  O2_16 
REMARK    3  A    between atoms: O2_16  and  C13_17 
REMARK    4  A    between atoms: C13_17  and  C14_18 
REMARK       I    between atoms: C14_18  and  N2_20 
REMARK    5  A    between atoms: N2_20  and  C15_21 
REMARK    6  A    between atoms: C15_21  and  C16_22 
REMARK    7  A    between atoms: C15_21  and  C17_25 
REMARK    8  A    between atoms: C16_22  and  O5_24 
REMARK    9  A    between atoms: C17_25  and  O6_26 
REMARK   10  A    between atoms: C17_25  and  C18_27 
REMARK   11  A    between atoms: C22_31  and  N3_32 
ROOT
HETATM    1  C1  UNL     1      -4.582  -9.596   8.535  1.00  0.00     0.015 C 
HETATM    2  C2  UNL     1      -4.043 -10.022   7.550  1.00  0.00    -0.078 C 
HETATM    3  C3  UNL     1      -3.371 -10.557   6.357  1.00  0.00     0.128 C 
HETATM    4  C4  UNL     1      -2.604  -9.465   5.594  1.00  0.00     0.052 C 
HETATM    5  C5  UNL     1      -2.630  -9.883   4.117  1.00  0.00     0.010 C 
HETATM    6  C6  UNL     1      -3.431 -11.197   4.038  1.00  0.00     0.002 C 
HETATM    7  C7  UNL     1      -4.175 -11.449   2.708  1.00  0.00    -0.004 C 
HETATM    8  C8  UNL     1      -3.214 -11.359   1.514  1.00  0.00     0.010 C 
HETATM    9  C9  UNL     1      -3.915 -11.727   0.215  1.00  0.00     0.035 C 
HETATM   10  C10 UNL     1      -5.144 -10.880  -0.021  1.00  0.00    -0.069 C 
HETATM   11  C11 UNL     1      -5.323 -10.301  -1.220  1.00  0.00     0.030 C 
HETATM   12  C12 UNL     1      -6.582  -9.599  -1.576  1.00  0.00     0.032 C 
HETATM   13  N1  UNL     1      -6.689  -9.135  -2.789  1.00  0.00    -0.271 N 
ATOM     14  H1  UNL     1      -5.946  -9.180  -3.487  1.00  0.00     0.194 HD
HETATM   15  C24 UNL     1      -7.684  -9.546  -0.541  1.00  0.00     0.060 C 
HETATM   16  C25 UNL     1      -7.118  -9.593   0.873  1.00  0.00     0.020 C 
HETATM   17  C26 UNL     1      -6.149 -10.784   1.131  1.00  0.00    -0.016 C 
HETATM   18  C27 UNL     1      -6.961 -12.100   1.163  1.00  0.00     0.020 C 
HETATM   19  C28 UNL     1      -5.394 -10.517   2.495  1.00  0.00     0.002 C 
HETATM   20  C29 UNL     1      -6.315 -10.573   3.730  1.00  0.00     0.007 C 
HETATM   21  C30 UNL     1      -5.571 -10.247   5.026  1.00  0.00     0.014 C 
HETATM   22  C31 UNL     1      -4.342 -11.158   5.289  1.00  0.00     0.003 C 
HETATM   23  C32 UNL     1      -4.813 -12.573   5.676  1.00  0.00     0.020 C 
ENDROOT
BRANCH   3  24
HETATM   24  O1  UNL     1      -2.433 -11.539   6.805  1.00  0.00    -0.377 OA
HETATM   25  H2  UNL     1      -1.799 -11.711   6.092  1.00  0.00     0.211 HD
ENDBRANCH   3  24
BRANCH  13  26
HETATM   26  O2  UNL     1      -7.951  -8.567  -3.020  1.00  0.00    -0.271 OA
BRANCH  26  27
HETATM   27  C13 UNL     1      -7.823  -7.151  -2.979  1.00  0.00     0.303 C 
BRANCH  27  28
HETATM   28  C14 UNL     1      -9.123  -6.510  -3.434  1.00  0.00     0.244 C 
HETATM   29  O3  UNL     1     -10.210  -6.777  -2.925  1.00  0.00    -0.271 OA
HETATM   30  N2  UNL     1      -8.988  -5.653  -4.500  1.00  0.00    -0.342 N 
HETATM   31  H16 UNL     1      -8.058  -5.369  -4.796  1.00  0.00     0.163 HD
BRANCH  30  32
HETATM   32  C15 UNL     1     -10.126  -4.954  -5.104  1.00  0.00     0.216 C 
BRANCH  32  33
HETATM   33  C16 UNL     1     -10.173  -3.496  -4.653  1.00  0.00     0.166 C 
HETATM   34  O4  UNL     1     -11.180  -2.874  -4.347  1.00  0.00    -0.648 OA
BRANCH  33  35
HETATM   35  O5  UNL     1      -8.966  -2.884  -4.611  1.00  0.00    -0.775 OA
HETATM   36  H18 UNL     1      -9.178  -1.968  -4.328  1.00  0.00     0.167 HD
ENDBRANCH  33  35
ENDBRANCH  32  33
BRANCH  32  37
HETATM   37  C17 UNL     1     -10.099  -4.971  -6.651  1.00  0.00     0.184 C 
BRANCH  37  38
HETATM   38  O6  UNL     1     -10.312  -6.302  -7.145  1.00  0.00    -0.388 OA
HETATM   39  H20 UNL     1     -10.296  -6.242  -8.117  1.00  0.00     0.210 HD
ENDBRANCH  37  38
BRANCH  37  40
HETATM   40  C18 UNL     1     -11.104  -4.018  -7.283  1.00  0.00    -0.025 A 
HETATM   41  C19 UNL     1     -10.701  -2.817  -7.891  1.00  0.00     0.010 A 
HETATM   42  C20 UNL     1     -11.631  -1.968  -8.497  1.00  0.00     0.003 A 
HETATM   43  C21 UNL     1     -12.983  -2.309  -8.513  1.00  0.00     0.036 A 
HETATM   44  C22 UNL     1     -13.395  -3.507  -7.920  1.00  0.00     0.103 A 
HETATM   45  C23 UNL     1     -12.465  -4.360  -7.304  1.00  0.00     0.045 A 
BRANCH  44  46
HETATM   46  N3  UNL     1     -14.817  -3.873  -7.937  1.00  0.00    -0.116 N 
HETATM   47  O7  UNL     1     -15.105  -5.056  -8.171  1.00  0.00    -0.532 OA
HETATM   48  O8  UNL     1     -15.646  -2.983  -7.703  1.00  0.00    -0.532 OA
ENDBRANCH  44  46
ENDBRANCH  37  40
ENDBRANCH  32  37
ENDBRANCH  30  32
ENDBRANCH  27  28
ENDBRANCH  26  27
ENDBRANCH  13  26
TORSDOF 11
ENDMDL
MODEL 6
REMARK minimizedAffinity -8.87748432
REMARK CNNscore 0.238212183
REMARK CNNaffinity 6.54445076
REMARK  11 active torsions:
REMARK  status: ('A' for Active; 'I' for Inactive)
REMARK    1  A    between atoms: C3_3  and  O1_4 
REMARK    2  A    between atoms: N1_14  and  O2_16 
REMARK    3  A    between atoms: O2_16  and  C13_17 
REMARK    4  A    between atoms: C13_17  and  C14_18 
REMARK       I    between atoms: C14_18  and  N2_20 
REMARK    5  A    between atoms: N2_20  and  C15_21 
REMARK    6  A    between atoms: C15_21  and  C16_22 
REMARK    7  A    between atoms: C15_21  and  C17_25 
REMARK    8  A    between atoms: C16_22  and  O5_24 
REMARK    9  A    between atoms: C17_25  and  O6_26 
REMARK   10  A    between atoms: C17_25  and  C18_27 
REMARK   11  A    between atoms: C22_31  and  N3_32 
ROOT
HETATM    1  C1  UNL     1     -12.765   3.081  30.588  1.00  0.00     0.015 C 
HETATM    2  C2  UNL     1     -13.085   2.689  29.498  1.00  0.00    -0.078 C 
HETATM    3  C3  UNL     1     -13.488   2.191  28.174  1.00  0.00     0.128 C 
HETATM    4  C4  UNL     1     -12.272   1.871  27.290  1.00  0.00     0.052 C 
HETATM    5  C5  UNL     1     -12.721   2.124  25.845  1.00  0.00     0.010 C 
HETATM    6  C6  UNL     1     -14.181   2.612  25.910  1.00  0.00     0.002 C 
HETATM    7  C7  UNL     1     -14.625   3.553  24.767  1.00  0.00    -0.004 C 
HETATM    8  C8  UNL     1     -14.354   2.920  23.396  1.00  0.00     0.010 C 
HETATM    9  C9  UNL     1     -14.899   3.787  22.272  1.00  0.00     0.035 C 
HETATM   10  C10 UNL     1     -14.352   5.194  22.330  1.00  0.00    -0.069 C 
HETATM   11  C11 UNL     1     -13.857   5.754  21.213  1.00  0.00     0.030 C 
HETATM   12  C12 UNL     1     -13.459   7.183  21.157  1.00  0.00     0.032 C 
HETATM   13  N1  UNL     1     -13.061   7.652  20.009  1.00  0.00    -0.271 N 
ATOM     14  H1  UNL     1     -12.957   7.087  19.165  1.00  0.00     0.194 HD
HETATM   15  C24 UNL     1     -13.626   8.017  22.409  1.00  0.00     0.060 C 
HETATM   16  C25 UNL     1     -13.512   7.161  23.664  1.00  0.00     0.020 C 
HETATM   17  C26 UNL     1     -14.452   5.920  23.675  1.00  0.00    -0.016 C 
HETATM   18  C27 UNL     1     -15.914   6.394  23.850  1.00  0.00     0.020 C 
HETATM   19  C28 UNL     1     -13.991   4.964  24.848  1.00  0.00     0.002 C 
HETATM   20  C29 UNL     1     -14.220   5.559  26.252  1.00  0.00     0.007 C 
HETATM   21  C30 UNL     1     -13.705   4.641  27.363  1.00  0.00     0.014 C 
HETATM   22  C31 UNL     1     -14.315   3.214  27.330  1.00  0.00     0.003 C 
HETATM   23  C32 UNL     1     -15.789   3.265  27.775  1.00  0.00     0.020 C 
ENDROOT
BRANCH   3  24
HETATM   24  O1  UNL     1     -14.227   0.984  28.383  1.00  0.00    -0.377 OA
HETATM   25  H2  UNL     1     -14.271   0.499  27.546  1.00  0.00     0.211 HD
ENDBRANCH   3  24
BRANCH  13  26
HETATM   26  O2  UNL     1     -12.792   9.027  20.073  1.00  0.00    -0.271 OA
BRANCH  26  27
HETATM   27  C13 UNL     1     -11.578   9.283  19.376  1.00  0.00     0.303 C 
BRANCH  27  28
HETATM   28  C14 UNL     1     -11.890   9.673  17.940  1.00  0.00     0.244 C 
HETATM   29  O3  UNL     1     -12.792  10.453  17.643  1.00  0.00    -0.271 OA
HETATM   30  N2  UNL     1     -11.115   9.035  17.002  1.00  0.00    -0.342 N 
HETATM   31  H16 UNL     1     -10.302   8.505  17.303  1.00  0.00     0.163 HD
BRANCH  30  32
HETATM   32  C15 UNL     1     -11.275   9.254  15.561  1.00  0.00     0.216 C 
BRANCH  32  33
HETATM   33  C16 UNL     1     -10.244  10.253  15.042  1.00  0.00     0.166 C 
HETATM   34  O4  UNL     1     -10.489  11.351  14.564  1.00  0.00    -0.648 OA
BRANCH  33  35
HETATM   35  O5  UNL     1      -8.960   9.834  15.140  1.00  0.00    -0.775 OA
HETATM   36  H18 UNL     1      -8.443  10.572  14.751  1.00  0.00     0.167 HD
ENDBRANCH  33  35
ENDBRANCH  32  33
BRANCH  32  37
HETATM   37  C17 UNL     1     -11.137   7.956  14.729  1.00  0.00     0.184 C 
BRANCH  37  38
HETATM   38  O6  UNL     1     -10.476   6.935  15.492  1.00  0.00    -0.388 OA
HETATM   39  H20 UNL     1     -10.432   6.148  14.921  1.00  0.00     0.210 HD
ENDBRANCH  37  38
BRANCH  37  40
HETATM   40  C18 UNL     1     -12.466   7.431  14.204  1.00  0.00    -0.025 A 
HETATM   41  C19 UNL     1     -13.006   6.213  14.649  1.00  0.00     0.010 A 
HETATM   42  C20 UNL     1     -14.243   5.760  14.184  1.00  0.00     0.003 A 
HETATM   43  C21 UNL     1     -14.969   6.522  13.270  1.00  0.00     0.036 A 
HETATM   44  C22 UNL     1     -14.446   7.742  12.827  1.00  0.00     0.103 A 
HETATM   45  C23 UNL     1     -13.201   8.198  13.286  1.00  0.00     0.045 A 
BRANCH  44  46
HETATM   46  N3  UNL     1     -15.207   8.551  11.866  1.00  0.00    -0.116 N 
HETATM   47  O7  UNL     1     -14.976   9.769  11.827  1.00  0.00    -0.532 OA
HETATM   48  O8  UNL     1     -16.026   7.969  11.141  1.00  0.00    -0.532 OA
ENDBRANCH  44  46
ENDBRANCH  37  40
ENDBRANCH  32  37
ENDBRANCH  30  32
ENDBRANCH  27  28
ENDBRANCH  26  27
ENDBRANCH  13  26
TORSDOF 11
ENDMDL
MODEL 7
REMARK minimizedAffinity -7.76415062
REMARK CNNscore 0.198196396
REMARK CNNaffinity 5.2072072
REMARK  11 active torsions:
REMARK  status: ('A' for Active; 'I' for Inactive)
REMARK    1  A    between atoms: C3_3  and  O1_4 
REMARK    2  A    between atoms: N1_14  and  O2_16 
REMARK    3  A    between atoms: O2_16  and  C13_17 
REMARK    4  A    between atoms: C13_17  and  C14_18 
REMARK       I    between atoms: C14_18  and  N2_20 
REMARK    5  A    between atoms: N2_20  and  C15_21 
REMARK    6  A    between atoms: C15_21  and  C16_22 
REMARK    7  A    between atoms: C15_21  and  C17_25 
REMARK    8  A    between atoms: C16_22  and  O5_24 
REMARK    9  A    between atoms: C17_25  and  O6_26 
REMARK   10  A    between atoms: C17_25  and  C18_27 
REMARK   11  A    between atoms: C22_31  and  N3_32 
ROOT
HETATM    1  C1  UNL     1       9.065  19.777  23.240  1.00  0.00     0.015 C 
HETATM    2  C2  UNL     1       9.079  18.585  23.388  1.00  0.00    -0.078 C 
HETATM    3  C3  UNL     1       9.110  17.129  23.588  1.00  0.00     0.128 C 
HETATM    4  C4  UNL     1       9.718  16.398  22.380  1.00  0.00     0.052 C 
HETATM    5  C5  UNL     1       9.034  15.025  22.327  1.00  0.00     0.010 C 
HETATM    6  C6  UNL     1       8.022  14.985  23.488  1.00  0.00     0.002 C 
HETATM    7  C7  UNL     1       6.783  14.089  23.267  1.00  0.00    -0.004 C 
HETATM    8  C8  UNL     1       7.197  12.659  22.895  1.00  0.00     0.010 C 
HETATM    9  C9  UNL     1       5.987  11.744  22.795  1.00  0.00     0.035 C 
HETATM   10  C10 UNL     1       4.959  12.273  21.824  1.00  0.00    -0.069 C 
HETATM   11  C11 UNL     1       4.443  11.448  20.896  1.00  0.00     0.030 C 
HETATM   12  C12 UNL     1       3.313  11.852  20.022  1.00  0.00     0.032 C 
HETATM   13  N1  UNL     1       2.835  10.956  19.206  1.00  0.00    -0.271 N 
ATOM     14  H1  UNL     1       3.221  10.018  19.096  1.00  0.00     0.194 HD
HETATM   15  C24 UNL     1       2.738  13.240  20.199  1.00  0.00     0.060 C 
HETATM   16  C25 UNL     1       3.790  14.214  20.717  1.00  0.00     0.020 C 
HETATM   17  C26 UNL     1       4.525  13.732  22.002  1.00  0.00    -0.016 C 
HETATM   18  C27 UNL     1       3.546  13.792  23.198  1.00  0.00     0.020 C 
HETATM   19  C28 UNL     1       5.790  14.656  22.221  1.00  0.00     0.002 C 
HETATM   20  C29 UNL     1       5.434  16.113  22.576  1.00  0.00     0.007 C 
HETATM   21  C30 UNL     1       6.675  16.997  22.717  1.00  0.00     0.014 C 
HETATM   22  C31 UNL     1       7.701  16.475  23.759  1.00  0.00     0.003 C 
HETATM   23  C32 UNL     1       7.146  16.673  25.183  1.00  0.00     0.020 C 
ENDROOT
BRANCH   3  24
HETATM   24  O1  UNL     1       9.933  16.876  24.730  1.00  0.00    -0.377 OA
HETATM   25  H2  UNL     1      10.189  15.942  24.727  1.00  0.00     0.211 HD
ENDBRANCH   3  24
BRANCH  13  26
HETATM   26  O2  UNL     1       1.724  11.437  18.498  1.00  0.00    -0.271 OA
BRANCH  26  27
HETATM   27  C13 UNL     1       1.274  10.417  17.614  1.00  0.00     0.303 C 
BRANCH  27  28
HETATM   28  C14 UNL     1       2.267  10.258  16.474  1.00  0.00     0.244 C 
HETATM   29  O3  UNL     1       2.793  11.217  15.913  1.00  0.00    -0.271 OA
HETATM   30  N2  UNL     1       2.479   8.957  16.088  1.00  0.00    -0.342 N 
HETATM   31  H16 UNL     1       2.124   8.201  16.665  1.00  0.00     0.163 HD
BRANCH  30  32
HETATM   32  C15 UNL     1       3.381   8.594  14.990  1.00  0.00     0.216 C 
BRANCH  32  33
HETATM   33  C16 UNL     1       4.796   8.344  15.506  1.00  0.00     0.166 C 
HETATM   34  O4  UNL     1       5.569   9.197  15.919  1.00  0.00    -0.648 OA
BRANCH  33  35
HETATM   35  O5  UNL     1       5.181   7.046  15.476  1.00  0.00    -0.775 OA
HETATM   36  H18 UNL     1       6.102   7.067  15.814  1.00  0.00     0.167 HD
ENDBRANCH  33  35
ENDBRANCH  32  33
BRANCH  32  37
HETATM   37  C17 UNL     1       2.926   7.329  14.222  1.00  0.00     0.184 C 
BRANCH  37  38
HETATM   38  O6  UNL     1       2.025   6.550  15.023  1.00  0.00    -0.388 OA
HETATM   39  H20 UNL     1       1.769   5.782  14.482  1.00  0.00     0.210 HD
ENDBRANCH  37  38
BRANCH  37  40
HETATM   40  C18 UNL     1       2.287   7.638  12.876  1.00  0.00    -0.025 A 
HETATM   41  C19 UNL     1       1.044   8.287  12.780  1.00  0.00     0.010 A 
HETATM   42  C20 UNL     1       0.486   8.595  11.537  1.00  0.00     0.003 A 
HETATM   43  C21 UNL     1       1.164   8.266  10.363  1.00  0.00     0.036 A 
HETATM   44  C22 UNL     1       2.406   7.629  10.447  1.00  0.00     0.103 A 
HETATM   45  C23 UNL     1       2.969   7.312  11.692  1.00  0.00     0.045 A 
BRANCH  44  46
HETATM   46  N3  UNL     1       3.127   7.283   9.215  1.00  0.00    -0.116 N 
HETATM   47  O7  UNL     1       3.033   8.061   8.253  1.00  0.00    -0.532 OA
HETATM   48  O8  UNL     1       3.799   6.242   9.211  1.00  0.00    -0.532 OA
ENDBRANCH  44  46
ENDBRANCH  37  40
ENDBRANCH  32  37
ENDBRANCH  30  32
ENDBRANCH  27  28
ENDBRANCH  26  27
ENDBRANCH  13  26
TORSDOF 11
ENDMDL
MODEL 8
REMARK minimizedAffinity -8.02204323
REMARK CNNscore 0.191696048
REMARK CNNaffinity 5.46757174
REMARK  11 active torsions:
REMARK  status: ('A' for Active; 'I' for Inactive)
REMARK    1  A    between atoms: C3_3  and  O1_4 
REMARK    2  A    between atoms: N1_14  and  O2_16 
REMARK    3  A    between atoms: O2_16  and  C13_17 
REMARK    4  A    between atoms: C13_17  and  C14_18 
REMARK       I    between atoms: C14_18  and  N2_20 
REMARK    5  A    between atoms: N2_20  and  C15_21 
REMARK    6  A    between atoms: C15_21  and  C16_22 
REMARK    7  A    between atoms: C15_21  and  C17_25 
REMARK    8  A    between atoms: C16_22  and  O5_24 
REMARK    9  A    between atoms: C17_25  and  O6_26 
REMARK   10  A    between atoms: C17_25  and  C18_27 
REMARK   11  A    between atoms: C22_31  and  N3_32 
ROOT
HETATM    1  C1  UNL     1       8.773  17.763  22.234  1.00  0.00     0.015 C 
HETATM    2  C2  UNL     1       8.377  16.697  22.621  1.00  0.00    -0.078 C 
HETATM    3  C3  UNL     1       7.900  15.397  23.116  1.00  0.00     0.128 C 
HETATM    4  C4  UNL     1       8.610  14.224  22.420  1.00  0.00     0.052 C 
HETATM    5  C5  UNL     1       7.597  13.072  22.393  1.00  0.00     0.010 C 
HETATM    6  C6  UNL     1       6.306  13.596  23.050  1.00  0.00     0.002 C 
HETATM    7  C7  UNL     1       4.992  12.950  22.556  1.00  0.00    -0.004 C 
HETATM    8  C8  UNL     1       5.050  11.421  22.682  1.00  0.00     0.010 C 
HETATM    9  C9  UNL     1       3.717  10.788  22.313  1.00  0.00     0.035 C 
HETATM   10  C10 UNL     1       3.264  11.195  20.930  1.00  0.00    -0.069 C 
HETATM   11  C11 UNL     1       2.848  10.251  20.069  1.00  0.00     0.030 C 
HETATM   12  C12 UNL     1       2.234  10.592  18.762  1.00  0.00     0.032 C 
HETATM   13  N1  UNL     1       1.793   9.608  18.030  1.00  0.00    -0.271 N 
ATOM     14  H1  UNL     1       1.890   8.623  18.277  1.00  0.00     0.194 HD
HETATM   15  C24 UNL     1       2.081  12.055  18.407  1.00  0.00     0.060 C 
HETATM   16  C25 UNL     1       3.156  12.902  19.078  1.00  0.00     0.020 C 
HETATM   17  C26 UNL     1       3.260  12.695  20.618  1.00  0.00    -0.016 C 
HETATM   18  C27 UNL     1       2.017  13.317  21.297  1.00  0.00     0.020 C 
HETATM   19  C28 UNL     1       4.606  13.362  21.114  1.00  0.00     0.002 C 
HETATM   20  C29 UNL     1       4.614  14.898  20.990  1.00  0.00     0.007 C 
HETATM   21  C30 UNL     1       5.951  15.508  21.415  1.00  0.00     0.014 C 
HETATM   22  C31 UNL     1       6.382  15.130  22.858  1.00  0.00     0.003 C 
HETATM   23  C32 UNL     1       5.490  15.863  23.879  1.00  0.00     0.020 C 
ENDROOT
BRANCH   3  24
HETATM   24  O1  UNL     1       8.199  15.341  24.514  1.00  0.00    -0.377 OA
HETATM   25  H2  UNL     1       8.147  14.419  24.805  1.00  0.00     0.211 HD
ENDBRANCH   3  24
BRANCH  13  26
HETATM   26  O2  UNL     1       1.167  10.068  16.862  1.00  0.00    -0.271 OA
BRANCH  26  27
HETATM   27  C13 UNL     1       0.244   9.077  16.424  1.00  0.00     0.303 C 
BRANCH  27  28
HETATM   28  C14 UNL     1       0.789   8.388  15.184  1.00  0.00     0.244 C 
HETATM   29  O3  UNL     1       1.967   8.052  15.074  1.00  0.00    -0.271 OA
HETATM   30  N2  UNL     1      -0.132   8.226  14.178  1.00  0.00    -0.342 N 
HETATM   31  H16 UNL     1      -1.115   8.400  14.368  1.00  0.00     0.163 HD
BRANCH  30  32
HETATM   32  C15 UNL     1       0.201   7.606  12.892  1.00  0.00     0.216 C 
BRANCH  32  33
HETATM   33  C16 UNL     1      -0.983   6.813  12.344  1.00  0.00     0.166 C 
HETATM   34  O4  UNL     1      -0.948   6.034  11.403  1.00  0.00    -0.648 OA
BRANCH  33  35
HETATM   35  O5  UNL     1      -2.152   7.035  12.991  1.00  0.00    -0.775 OA
HETATM   36  H18 UNL     1      -2.797   6.475  12.507  1.00  0.00     0.167 HD
ENDBRANCH  33  35
ENDBRANCH  32  33
BRANCH  32  37
HETATM   37  C17 UNL     1       0.624   8.632  11.813  1.00  0.00     0.184 C 
BRANCH  37  38
HETATM   38  O6  UNL     1       1.703   9.451  12.290  1.00  0.00    -0.388 OA
HETATM   39  H20 UNL     1       1.928  10.061  11.566  1.00  0.00     0.210 HD
ENDBRANCH  37  38
BRANCH  37  40
HETATM   40  C18 UNL     1       1.009   7.991  10.487  1.00  0.00    -0.025 A 
HETATM   41  C19 UNL     1       0.527   8.481   9.262  1.00  0.00     0.010 A 
HETATM   42  C20 UNL     1       0.916   7.902   8.051  1.00  0.00     0.003 A 
HETATM   43  C21 UNL     1       1.803   6.827   8.041  1.00  0.00     0.036 A 
HETATM   44  C22 UNL     1       2.297   6.336   9.255  1.00  0.00     0.103 A 
HETATM   45  C23 UNL     1       1.905   6.909  10.474  1.00  0.00     0.045 A 
BRANCH  44  46
HETATM   46  N3  UNL     1       3.234   5.205   9.251  1.00  0.00    -0.116 N 
HETATM   47  O7  UNL     1       3.834   4.956   8.195  1.00  0.00    -0.532 OA
HETATM   48  O8  UNL     1       3.381   4.574  10.307  1.00  0.00    -0.532 OA
ENDBRANCH  44  46
ENDBRANCH  37  40
ENDBRANCH  32  37
ENDBRANCH  30  32
ENDBRANCH  27  28
ENDBRANCH  26  27
ENDBRANCH  13  26
TORSDOF 11
ENDMDL
MODEL 9
REMARK minimizedAffinity -9.27092266
REMARK CNNscore 0.191446245
REMARK CNNaffinity 6.30842066
REMARK  11 active torsions:
REMARK  status: ('A' for Active; 'I' for Inactive)
REMARK    1  A    between atoms: C3_3  and  O1_4 
REMARK    2  A    between atoms: N1_14  and  O2_16 
REMARK    3  A    between atoms: O2_16  and  C13_17 
REMARK    4  A    between atoms: C13_17  and  C14_18 
REMARK       I    between atoms: C14_18  and  N2_20 
REMARK    5  A    between atoms: N2_20  and  C15_21 
REMARK    6  A    between atoms: C15_21  and  C16_22 
REMARK    7  A    between atoms: C15_21  and  C17_25 
REMARK    8  A    between atoms: C16_22  and  O5_24 
REMARK    9  A    between atoms: C17_25  and  O6_26 
REMARK   10  A    between atoms: C17_25  and  C18_27 
REMARK   11  A    between atoms: C22_31  and  N3_32 
ROOT
HETATM    1  C1  UNL     1       2.327   7.689   7.285  1.00  0.00     0.015 C 
HETATM    2  C2  UNL     1       2.073   7.258   8.377  1.00  0.00    -0.078 C 
HETATM    3  C3  UNL     1       1.762   6.710   9.706  1.00  0.00     0.128 C 
HETATM    4  C4  UNL     1       0.420   7.234  10.242  1.00  0.00     0.052 C 
HETATM    5  C5  UNL     1       0.559   7.269  11.770  1.00  0.00     0.010 C 
HETATM    6  C6  UNL     1       1.985   6.789  12.100  1.00  0.00     0.002 C 
HETATM    7  C7  UNL     1       2.599   7.358  13.399  1.00  0.00    -0.004 C 
HETATM    8  C8  UNL     1       1.679   7.104  14.600  1.00  0.00     0.010 C 
HETATM    9  C9  UNL     1       2.333   7.552  15.898  1.00  0.00     0.035 C 
HETATM   10  C10 UNL     1       2.756   9.001  15.844  1.00  0.00    -0.069 C 
HETATM   11  C11 UNL     1       2.430   9.820  16.859  1.00  0.00     0.030 C 
HETATM   12  C12 UNL     1       2.953  11.206  16.953  1.00  0.00     0.032 C 
HETATM   13  N1  UNL     1       2.640  11.896  18.013  1.00  0.00    -0.271 N 
ATOM     14  H1  UNL     1       2.020  11.562  18.751  1.00  0.00     0.194 HD
HETATM   15  C24 UNL     1       3.883  11.691  15.862  1.00  0.00     0.060 C 
HETATM   16  C25 UNL     1       3.599  10.987  14.540  1.00  0.00     0.020 C 
HETATM   17  C26 UNL     1       3.593   9.433  14.636  1.00  0.00    -0.016 C 
HETATM   18  C27 UNL     1       5.040   8.933  14.859  1.00  0.00     0.020 C 
HETATM   19  C28 UNL     1       2.965   8.861  13.303  1.00  0.00     0.002 C 
HETATM   20  C29 UNL     1       3.837   9.106  12.056  1.00  0.00     0.007 C 
HETATM   21  C30 UNL     1       3.174   8.600  10.773  1.00  0.00     0.014 C 
HETATM   22  C31 UNL     1       2.792   7.096  10.816  1.00  0.00     0.003 C 
HETATM   23  C32 UNL     1       4.066   6.232  10.741  1.00  0.00     0.020 C 
ENDROOT
BRANCH   3  24
HETATM   24  O1  UNL     1       1.670   5.289   9.566  1.00  0.00    -0.377 OA
HETATM   25  H2  UNL     1       1.211   4.931  10.341  1.00  0.00     0.211 HD
ENDBRANCH   3  24
BRANCH  13  26
HETATM   26  O2  UNL     1       3.261  13.154  18.017  1.00  0.00    -0.271 OA
BRANCH  26  27
HETATM   27  C13 UNL     1       2.809  13.877  19.156  1.00  0.00     0.303 C 
BRANCH  27  28
HETATM   28  C14 UNL     1       2.200  12.913  20.161  1.00  0.00     0.244 C 
HETATM   29  O3  UNL     1       0.988  12.817  20.340  1.00  0.00    -0.271 OA
HETATM   30  N2  UNL     1       3.122  12.203  20.891  1.00  0.00    -0.342 N 
HETATM   31  H16 UNL     1       4.100  12.223  20.614  1.00  0.00     0.163 HD
BRANCH  30  32
HETATM   32  C15 UNL     1       2.739  11.239  21.928  1.00  0.00     0.216 C 
BRANCH  32  33
HETATM   33  C16 UNL     1       2.472   9.863  21.323  1.00  0.00     0.166 C 
HETATM   34  O4  UNL     1       1.831   8.964  21.848  1.00  0.00    -0.648 OA
BRANCH  33  35
HETATM   35  O5  UNL     1       3.020   9.673  20.100  1.00  0.00    -0.775 OA
HETATM   36  H18 UNL     1       2.774   8.750  19.874  1.00  0.00     0.167 HD
ENDBRANCH  33  35
ENDBRANCH  32  33
BRANCH  32  37
HETATM   37  C17 UNL     1       3.814  11.072  23.029  1.00  0.00     0.184 C 
BRANCH  37  38
HETATM   38  O6  UNL     1       4.430   9.778  22.941  1.00  0.00    -0.388 OA
HETATM   39  H20 UNL     1       5.099   9.742  23.647  1.00  0.00     0.210 HD
ENDBRANCH  37  38
BRANCH  37  40
HETATM   40  C18 UNL     1       4.882  12.156  23.001  1.00  0.00    -0.025 A 
HETATM   41  C19 UNL     1       4.549  13.521  23.031  1.00  0.00     0.010 A 
HETATM   42  C20 UNL     1       5.542  14.505  23.038  1.00  0.00     0.003 A 
HETATM   43  C21 UNL     1       6.888  14.142  23.024  1.00  0.00     0.036 A 
HETATM   44  C22 UNL     1       7.231  12.786  23.003  1.00  0.00     0.103 A 
HETATM   45  C23 UNL     1       6.239  11.794  22.989  1.00  0.00     0.045 A 
BRANCH  44  46
HETATM   46  N3  UNL     1       8.647  12.397  22.990  1.00  0.00    -0.116 N 
HETATM   47  O7  UNL     1       9.467  13.216  22.548  1.00  0.00    -0.532 OA
HETATM   48  O8  UNL     1       8.944  11.279  23.434  1.00  0.00    -0.532 OA
ENDBRANCH  44  46
ENDBRANCH  37  40
ENDBRANCH  32  37
ENDBRANCH  30  32
ENDBRANCH  27  28
ENDBRANCH  26  27
ENDBRANCH  13  26
TORSDOF 11
ENDMDL
