MODEL 1
REMARK minimizedAffinity -9.62778568
REMARK  4 active torsions:
REMARK  status: ('A' for Active; 'I' for Inactive)
REMARK    1  A    between atoms: C2_2  and  C3_3 
REMARK    2  A    between atoms: C2_2  and  C9_9 
REMARK    3  A    between atoms: C4_4  and  C5_5 
REMARK    4  A    between atoms: C23_23  and  O1_24 
ROOT
HETATM    1  C9  UNL     1      -1.757  49.404 -19.965  1.00  0.00     0.001 C 
HETATM    2  C10 UNL     1      -3.068  48.723 -20.464  1.00  0.00     0.006 C 
HETATM    3  C11 UNL     1      -3.245  49.104 -21.941  1.00  0.00     0.009 C 
HETATM    4  C12 UNL     1      -1.949  49.824 -22.288  1.00  0.00     0.036 C 
HETATM    5  C13 UNL     1      -1.557  50.571 -20.987  1.00  0.00    -0.033 C 
HETATM    6  C14 UNL     1      -2.468  51.767 -20.631  1.00  0.00     0.016 C 
HETATM    7  C15 UNL     1      -0.103  51.050 -21.174  1.00  0.00     0.010 C 
HETATM    8  C16 UNL     1       0.063  51.930 -22.426  1.00  0.00     0.010 C 
HETATM    9  C17 UNL     1      -0.437  51.253 -23.718  1.00  0.00     0.039 C 
HETATM   10  C18 UNL     1      -1.870  50.636 -23.586  1.00  0.00     0.123 C 
HETATM   11  C19 UNL     1      -2.967  51.636 -23.845  1.00  0.00     0.014 C 
HETATM   12  C20 UNL     1      -2.886  52.216 -25.050  1.00  0.00     0.014 C 
HETATM   13  C21 UNL     1      -1.663  51.806 -25.847  1.00  0.00     0.124 C 
HETATM   14  C22 UNL     1      -1.677  52.405 -27.259  1.00  0.00     0.078 C 
HETATM   15  C23 UNL     1      -0.346  52.252 -28.005  1.00  0.00     0.121 C 
HETATM   16  C24 UNL     1       0.671  51.358 -27.305  1.00  0.00     0.033 C 
HETATM   17  C25 UNL     1       0.926  51.770 -25.852  1.00  0.00     0.015 C 
HETATM   18  C26 UNL     1      -0.360  52.135 -25.038  1.00  0.00     0.001 C 
HETATM   19  C27 UNL     1      -0.286  53.656 -24.730  1.00  0.00     0.019 C 
HETATM   20  O2  UNL     1      -1.721  50.358 -25.992  1.00  0.00    -0.223 OA
HETATM   21  O3  UNL     1      -1.997  49.689 -24.684  1.00  0.00    -0.224 OA
ENDROOT
BRANCH   1  22
HETATM   22  C2  UNL     1      -1.796  49.715 -18.444  1.00  0.00     0.008 C 
HETATM   23  C1  UNL     1      -2.729  50.879 -18.090  1.00  0.00     0.014 C 
BRANCH  22  24
HETATM   24  C3  UNL     1      -0.388  49.932 -17.912  1.00  0.00    -0.026 C 
HETATM   25  C4  UNL     1       0.015  50.872 -17.042  1.00  0.00    -0.025 C 
BRANCH  25  26
HETATM   26  C5  UNL     1       1.384  51.042 -16.544  1.00  0.00     0.012 A 
HETATM   27  C6  UNL     1       1.576  51.396 -15.090  1.00  0.00     0.013 A 
HETATM   28  C7  UNL     1       1.867  52.418 -16.154  1.00  0.00    -0.010 A 
HETATM   29  C8  UNL     1       3.272  52.826 -16.439  1.00  0.00     0.010 C 
ENDBRANCH  25  26
ENDBRANCH  22  24
ENDBRANCH   1  22
BRANCH  15  30
HETATM   30  O1  UNL     1       0.222  53.554 -28.175  1.00  0.00    -0.395 OA
HETATM   31  H33 UNL     1       1.019  53.456 -28.725  1.00  0.00     0.210 HD
ENDBRANCH  15  30
TORSDOF 4
ENDMDL
MODEL 2
REMARK minimizedAffinity -9.5054245
REMARK  4 active torsions:
REMARK  status: ('A' for Active; 'I' for Inactive)
REMARK    1  A    between atoms: C2_2  and  C3_3 
REMARK    2  A    between atoms: C2_2  and  C9_9 
REMARK    3  A    between atoms: C4_4  and  C5_5 
REMARK    4  A    between atoms: C23_23  and  O1_24 
ROOT
HETATM    1  C9  UNL     1      -0.109  50.756 -19.099  1.00  0.00     0.001 C 
HETATM    2  C10 UNL     1      -1.476  50.004 -19.103  1.00  0.00     0.006 C 
HETATM    3  C11 UNL     1      -2.029  50.073 -20.533  1.00  0.00     0.009 C 
HETATM    4  C12 UNL     1      -0.889  50.689 -21.333  1.00  0.00     0.036 C 
HETATM    5  C13 UNL     1      -0.215  51.683 -20.353  1.00  0.00    -0.033 C 
HETATM    6  C14 UNL     1      -1.056  52.940 -20.031  1.00  0.00     0.016 C 
HETATM    7  C15 UNL     1       1.126  52.094 -20.993  1.00  0.00     0.010 C 
HETATM    8  C16 UNL     1       0.941  52.693 -22.399  1.00  0.00     0.010 C 
HETATM    9  C17 UNL     1       0.163  51.770 -23.358  1.00  0.00     0.039 C 
HETATM   10  C18 UNL     1      -1.167  51.212 -22.748  1.00  0.00     0.123 C 
HETATM   11  C19 UNL     1      -2.332  52.153 -22.920  1.00  0.00     0.014 C 
HETATM   12  C20 UNL     1      -2.576  52.469 -24.199  1.00  0.00     0.014 C 
HETATM   13  C21 UNL     1      -1.575  51.887 -25.177  1.00  0.00     0.124 C 
HETATM   14  C22 UNL     1      -1.962  52.180 -26.632  1.00  0.00     0.078 C 
HETATM   15  C23 UNL     1      -0.853  51.858 -27.641  1.00  0.00     0.121 C 
HETATM   16  C24 UNL     1       0.340  51.115 -27.051  1.00  0.00     0.033 C 
HETATM   17  C25 UNL     1       0.931  51.816 -25.825  1.00  0.00     0.015 C 
HETATM   18  C26 UNL     1      -0.125  52.358 -24.806  1.00  0.00     0.001 C 
HETATM   19  C27 UNL     1      -0.036  53.909 -24.843  1.00  0.00     0.019 C 
HETATM   20  O2  UNL     1      -1.610  50.441 -25.005  1.00  0.00    -0.223 OA
HETATM   21  O3  UNL     1      -1.526  50.061 -23.562  1.00  0.00    -0.224 OA
ENDROOT
BRANCH   1  22
HETATM   22  C2  UNL     1       0.218  51.376 -17.712  1.00  0.00     0.008 C 
HETATM   23  C1  UNL     1       1.319  52.441 -17.772  1.00  0.00     0.014 C 
BRANCH  22  24
HETATM   24  C3  UNL     1       0.538  50.281 -16.706  1.00  0.00    -0.026 C 
HETATM   25  C4  UNL     1      -0.313  49.379 -16.191  1.00  0.00    -0.025 C 
BRANCH  25  26
HETATM   26  C5  UNL     1       0.038  48.329 -15.229  1.00  0.00     0.012 A 
HETATM   27  C6  UNL     1       0.747  48.733 -13.960  1.00  0.00     0.013 A 
HETATM   28  C7  UNL     1       1.489  47.968 -15.021  1.00  0.00    -0.010 A 
HETATM   29  C8  UNL     1       1.880  46.549 -14.788  1.00  0.00     0.010 C 
ENDBRANCH  25  26
ENDBRANCH  22  24
ENDBRANCH   1  22
BRANCH  15  30
HETATM   30  O1  UNL     1      -0.397  53.089 -28.209  1.00  0.00    -0.395 OA
HETATM   31  H33 UNL     1       0.241  52.868 -28.910  1.00  0.00     0.210 HD
ENDBRANCH  15  30
TORSDOF 4
ENDMDL
MODEL 3
REMARK minimizedAffinity -9.25121021
REMARK  4 active torsions:
REMARK  status: ('A' for Active; 'I' for Inactive)
REMARK    1  A    between atoms: C2_2  and  C3_3 
REMARK    2  A    between atoms: C2_2  and  C9_9 
REMARK    3  A    between atoms: C4_4  and  C5_5 
REMARK    4  A    between atoms: C23_23  and  O1_24 
ROOT
HETATM    1  C9  UNL     1      -0.242  51.406 -20.885  1.00  0.00     0.001 C 
HETATM    2  C10 UNL     1      -0.714  52.180 -19.616  1.00  0.00     0.006 C 
HETATM    3  C11 UNL     1      -2.088  51.618 -19.225  1.00  0.00     0.009 C 
HETATM    4  C12 UNL     1      -2.272  50.428 -20.157  1.00  0.00     0.036 C 
HETATM    5  C13 UNL     1      -1.580  50.854 -21.477  1.00  0.00    -0.033 C 
HETATM    6  C14 UNL     1      -2.321  51.957 -22.266  1.00  0.00     0.016 C 
HETATM    7  C15 UNL     1      -1.452  49.582 -22.340  1.00  0.00     0.010 C 
HETATM    8  C16 UNL     1      -2.813  48.905 -22.585  1.00  0.00     0.010 C 
HETATM    9  C17 UNL     1      -3.577  48.584 -21.285  1.00  0.00     0.039 C 
HETATM   10  C18 UNL     1      -3.661  49.792 -20.293  1.00  0.00     0.123 C 
HETATM   11  C19 UNL     1      -4.817  50.714 -20.586  1.00  0.00     0.014 C 
HETATM   12  C20 UNL     1      -6.006  50.098 -20.573  1.00  0.00     0.014 C 
HETATM   13  C21 UNL     1      -5.918  48.599 -20.357  1.00  0.00     0.124 C 
HETATM   14  C22 UNL     1      -7.307  47.959 -20.234  1.00  0.00     0.078 C 
HETATM   15  C23 UNL     1      -7.284  46.427 -20.292  1.00  0.00     0.121 C 
HETATM   16  C24 UNL     1      -5.890  45.813 -20.246  1.00  0.00     0.033 C 
HETATM   17  C25 UNL     1      -4.948  46.394 -21.306  1.00  0.00     0.015 C 
HETATM   18  C26 UNL     1      -5.022  47.948 -21.468  1.00  0.00     0.001 C 
HETATM   19  C27 UNL     1      -5.618  48.230 -22.875  1.00  0.00     0.019 C 
HETATM   20  O2  UNL     1      -5.236  48.397 -19.086  1.00  0.00    -0.223 OA
HETATM   21  O3  UNL     1      -3.992  49.221 -18.996  1.00  0.00    -0.224 OA
ENDROOT
BRANCH   1  22
HETATM   22  C2  UNL     1       0.699  52.259 -21.780  1.00  0.00     0.008 C 
HETATM   23  C1  UNL     1       0.976  53.653 -21.206  1.00  0.00     0.014 C 
BRANCH  22  24
HETATM   24  C3  UNL     1       0.159  52.325 -23.201  1.00  0.00    -0.026 C 
HETATM   25  C4  UNL     1       0.853  52.168 -24.340  1.00  0.00    -0.025 C 
BRANCH  25  26
HETATM   26  C5  UNL     1       0.292  52.228 -25.694  1.00  0.00     0.012 A 
HETATM   27  C6  UNL     1      -0.563  51.077 -26.163  1.00  0.00     0.013 A 
HETATM   28  C7  UNL     1       0.805  51.281 -26.752  1.00  0.00    -0.010 A 
HETATM   29  C8  UNL     1       0.954  51.745 -28.161  1.00  0.00     0.010 C 
ENDBRANCH  25  26
ENDBRANCH  22  24
ENDBRANCH   1  22
BRANCH  15  30
HETATM   30  O1  UNL     1      -7.930  46.016 -21.501  1.00  0.00    -0.395 OA
HETATM   31  H33 UNL     1      -7.990  45.045 -21.485  1.00  0.00     0.210 HD
ENDBRANCH  15  30
TORSDOF 4
ENDMDL
MODEL 4
REMARK minimizedAffinity -9.08705139
REMARK  4 active torsions:
REMARK  status: ('A' for Active; 'I' for Inactive)
REMARK    1  A    between atoms: C2_2  and  C3_3 
REMARK    2  A    between atoms: C2_2  and  C9_9 
REMARK    3  A    between atoms: C4_4  and  C5_5 
REMARK    4  A    between atoms: C23_23  and  O1_24 
ROOT
HETATM    1  C9  UNL     1      -4.187  47.711 -21.893  1.00  0.00     0.001 C 
HETATM    2  C10 UNL     1      -5.413  47.581 -22.848  1.00  0.00     0.006 C 
HETATM    3  C11 UNL     1      -5.127  48.455 -24.078  1.00  0.00     0.009 C 
HETATM    4  C12 UNL     1      -3.685  48.902 -23.877  1.00  0.00     0.036 C 
HETATM    5  C13 UNL     1      -3.534  49.059 -22.343  1.00  0.00    -0.033 C 
HETATM    6  C14 UNL     1      -4.297  50.261 -21.740  1.00  0.00     0.016 C 
HETATM    7  C15 UNL     1      -2.024  49.195 -22.059  1.00  0.00     0.010 C 
HETATM    8  C16 UNL     1      -1.389  50.365 -22.832  1.00  0.00     0.010 C 
HETATM    9  C17 UNL     1      -1.634  50.295 -24.353  1.00  0.00     0.039 C 
HETATM   10  C18 UNL     1      -3.132  50.046 -24.735  1.00  0.00     0.123 C 
HETATM   11  C19 UNL     1      -3.940  51.317 -24.799  1.00  0.00     0.014 C 
HETATM   12  C20 UNL     1      -3.449  52.219 -25.658  1.00  0.00     0.014 C 
HETATM   13  C21 UNL     1      -2.143  51.801 -26.306  1.00  0.00     0.124 C 
HETATM   14  C22 UNL     1      -1.683  52.812 -27.364  1.00  0.00     0.078 C 
HETATM   15  C23 UNL     1      -0.246  52.584 -27.848  1.00  0.00     0.121 C 
HETATM   16  C24 UNL     1       0.387  51.286 -27.359  1.00  0.00     0.033 C 
HETATM   17  C25 UNL     1       0.312  51.124 -25.838  1.00  0.00     0.015 C 
HETATM   18  C26 UNL     1      -1.065  51.511 -25.204  1.00  0.00     0.001 C 
HETATM   19  C27 UNL     1      -0.825  52.778 -24.337  1.00  0.00     0.019 C 
HETATM   20  O2  UNL     1      -2.398  50.543 -26.994  1.00  0.00    -0.223 OA
HETATM   21  O3  UNL     1      -3.118  49.574 -26.112  1.00  0.00    -0.224 OA
ENDROOT
BRANCH   1  22
HETATM   22  C2  UNL     1      -4.577  47.508 -20.403  1.00  0.00     0.008 C 
HETATM   23  C1  UNL     1      -6.093  47.501 -20.171  1.00  0.00     0.014 C 
BRANCH  22  24
HETATM   24  C3  UNL     1      -3.871  48.532 -19.528  1.00  0.00    -0.026 C 
HETATM   25  C4  UNL     1      -2.852  48.311 -18.682  1.00  0.00    -0.025 C 
BRANCH  25  26
HETATM   26  C5  UNL     1      -2.189  49.330 -17.861  1.00  0.00     0.012 A 
HETATM   27  C6  UNL     1      -2.163  50.750 -18.372  1.00  0.00     0.013 A 
HETATM   28  C7  UNL     1      -0.895  49.942 -18.340  1.00  0.00    -0.010 A 
HETATM   29  C8  UNL     1       0.181  50.273 -17.364  1.00  0.00     0.010 C 
ENDBRANCH  25  26
ENDBRANCH  22  24
ENDBRANCH   1  22
BRANCH  15  30
HETATM   30  O1  UNL     1       0.554  53.685 -27.405  1.00  0.00    -0.395 OA
HETATM   31  H33 UNL     1       1.440  53.576 -27.792  1.00  0.00     0.210 HD
ENDBRANCH  15  30
TORSDOF 4
ENDMDL
MODEL 5
REMARK minimizedAffinity -9.03417015
REMARK  4 active torsions:
REMARK  status: ('A' for Active; 'I' for Inactive)
REMARK    1  A    between atoms: C2_2  and  C3_3 
REMARK    2  A    between atoms: C2_2  and  C9_9 
REMARK    3  A    between atoms: C4_4  and  C5_5 
REMARK    4  A    between atoms: C23_23  and  O1_24 
ROOT
HETATM    1  C9  UNL     1      -1.340  51.922 -25.708  1.00  0.00     0.001 C 
HETATM    2  C10 UNL     1      -0.990  50.627 -26.504  1.00  0.00     0.006 C 
HETATM    3  C11 UNL     1      -1.956  49.530 -26.035  1.00  0.00     0.009 C 
HETATM    4  C12 UNL     1      -2.937  50.270 -25.137  1.00  0.00     0.036 C 
HETATM    5  C13 UNL     1      -2.087  51.370 -24.450  1.00  0.00    -0.033 C 
HETATM    6  C14 UNL     1      -1.077  50.844 -23.405  1.00  0.00     0.016 C 
HETATM    7  C15 UNL     1      -3.079  52.344 -23.783  1.00  0.00     0.010 C 
HETATM    8  C16 UNL     1      -4.021  51.631 -22.796  1.00  0.00     0.010 C 
HETATM    9  C17 UNL     1      -4.787  50.451 -23.428  1.00  0.00     0.039 C 
HETATM   10  C18 UNL     1      -3.870  49.464 -24.225  1.00  0.00     0.123 C 
HETATM   11  C19 UNL     1      -3.239  48.411 -23.349  1.00  0.00     0.014 C 
HETATM   12  C20 UNL     1      -4.132  47.676 -22.673  1.00  0.00     0.014 C 
HETATM   13  C21 UNL     1      -5.568  48.124 -22.867  1.00  0.00     0.124 C 
HETATM   14  C22 UNL     1      -6.558  47.183 -22.168  1.00  0.00     0.078 C 
HETATM   15  C23 UNL     1      -7.987  47.735 -22.099  1.00  0.00     0.121 C 
HETATM   16  C24 UNL     1      -8.214  49.003 -22.913  1.00  0.00     0.033 C 
HETATM   17  C25 UNL     1      -7.206  50.109 -22.586  1.00  0.00     0.015 C 
HETATM   18  C26 UNL     1      -5.725  49.626 -22.445  1.00  0.00     0.001 C 
HETATM   19  C27 UNL     1      -5.327  49.812 -20.954  1.00  0.00     0.019 C 
HETATM   20  O2  UNL     1      -5.841  48.052 -24.296  1.00  0.00    -0.223 OA
HETATM   21  O3  UNL     1      -4.759  48.707 -25.093  1.00  0.00    -0.224 OA
ENDROOT
BRANCH   1  22
HETATM   22  C2  UNL     1      -0.108  52.851 -25.521  1.00  0.00     0.008 C 
HETATM   23  C1  UNL     1       1.032  52.543 -26.498  1.00  0.00     0.014 C 
BRANCH  22  24
HETATM   24  C3  UNL     1       0.359  52.824 -24.074  1.00  0.00    -0.026 C 
HETATM   25  C4  UNL     1       0.798  53.863 -23.344  1.00  0.00    -0.025 C 
BRANCH  25  26
HETATM   26  C5  UNL     1       1.230  53.799 -21.944  1.00  0.00     0.012 A 
HETATM   27  C6  UNL     1       1.512  52.442 -21.347  1.00  0.00     0.013 A 
HETATM   28  C7  UNL     1       0.300  53.216 -20.907  1.00  0.00    -0.010 A 
HETATM   29  C8  UNL     1       0.242  53.806 -19.540  1.00  0.00     0.010 C 
ENDBRANCH  25  26
ENDBRANCH  22  24
ENDBRANCH   1  22
BRANCH  15  30
HETATM   30  O1  UNL     1      -8.295  48.003 -20.728  1.00  0.00    -0.395 OA
HETATM   31  H33 UNL     1      -9.231  48.267 -20.686  1.00  0.00     0.210 HD
ENDBRANCH  15  30
TORSDOF 4
ENDMDL
MODEL 6
REMARK minimizedAffinity -9.01244831
REMARK  4 active torsions:
REMARK  status: ('A' for Active; 'I' for Inactive)
REMARK    1  A    between atoms: C2_2  and  C3_3 
REMARK    2  A    between atoms: C2_2  and  C9_9 
REMARK    3  A    between atoms: C4_4  and  C5_5 
REMARK    4  A    between atoms: C23_23  and  O1_24 
ROOT
HETATM    1  C9  UNL     1      -4.558  48.797 -21.694  1.00  0.00     0.001 C 
HETATM    2  C10 UNL     1      -4.342  49.919 -20.633  1.00  0.00     0.006 C 
HETATM    3  C11 UNL     1      -3.485  51.009 -21.291  1.00  0.00     0.009 C 
HETATM    4  C12 UNL     1      -3.398  50.571 -22.747  1.00  0.00     0.036 C 
HETATM    5  C13 UNL     1      -3.374  49.022 -22.689  1.00  0.00    -0.033 C 
HETATM    6  C14 UNL     1      -2.068  48.418 -22.126  1.00  0.00     0.016 C 
HETATM    7  C15 UNL     1      -3.609  48.522 -24.129  1.00  0.00     0.010 C 
HETATM    8  C16 UNL     1      -2.573  49.087 -25.118  1.00  0.00     0.010 C 
HETATM    9  C17 UNL     1      -2.491  50.626 -25.103  1.00  0.00     0.039 C 
HETATM   10  C18 UNL     1      -2.362  51.232 -23.665  1.00  0.00     0.123 C 
HETATM   11  C19 UNL     1      -0.938  51.285 -23.175  1.00  0.00     0.014 C 
HETATM   12  C20 UNL     1      -0.123  51.980 -23.981  1.00  0.00     0.014 C 
HETATM   13  C21 UNL     1      -0.792  52.479 -25.247  1.00  0.00     0.124 C 
HETATM   14  C22 UNL     1       0.148  53.363 -26.077  1.00  0.00     0.078 C 
HETATM   15  C23 UNL     1      -0.377  53.665 -27.486  1.00  0.00     0.121 C 
HETATM   16  C24 UNL     1      -1.813  53.219 -27.734  1.00  0.00     0.033 C 
HETATM   17  C25 UNL     1      -2.047  51.745 -27.390  1.00  0.00     0.015 C 
HETATM   18  C26 UNL     1      -1.391  51.272 -26.050  1.00  0.00     0.001 C 
HETATM   19  C27 UNL     1      -0.269  50.264 -26.426  1.00  0.00     0.019 C 
HETATM   20  O2  UNL     1      -1.912  53.312 -24.831  1.00  0.00    -0.223 OA
HETATM   21  O3  UNL     1      -2.740  52.632 -23.788  1.00  0.00    -0.224 OA
ENDROOT
BRANCH   1  22
HETATM   22  C2  UNL     1      -4.757  47.400 -21.042  1.00  0.00     0.008 C 
HETATM   23  C1  UNL     1      -3.459  46.592 -20.941  1.00  0.00     0.014 C 
BRANCH  22  24
HETATM   24  C3  UNL     1      -5.852  46.631 -21.765  1.00  0.00    -0.026 C 
HETATM   25  C4  UNL     1      -6.093  45.311 -21.703  1.00  0.00    -0.025 C 
BRANCH  25  26
HETATM   26  C5  UNL     1      -7.169  44.607 -22.409  1.00  0.00     0.012 A 
HETATM   27  C6  UNL     1      -7.915  43.522 -21.672  1.00  0.00     0.013 A 
HETATM   28  C7  UNL     1      -6.981  43.160 -22.793  1.00  0.00    -0.010 A 
HETATM   29  C8  UNL     1      -7.523  42.654 -24.087  1.00  0.00     0.010 C 
ENDBRANCH  25  26
ENDBRANCH  22  24
ENDBRANCH   1  22
BRANCH  15  30
HETATM   30  O1  UNL     1       0.480  53.014 -28.429  1.00  0.00    -0.395 OA
HETATM   31  H33 UNL     1       0.192  53.284 -29.319  1.00  0.00     0.210 HD
ENDBRANCH  15  30
TORSDOF 4
ENDMDL
MODEL 7
REMARK minimizedAffinity -8.94669342
REMARK  4 active torsions:
REMARK  status: ('A' for Active; 'I' for Inactive)
REMARK    1  A    between atoms: C2_2  and  C3_3 
REMARK    2  A    between atoms: C2_2  and  C9_9 
REMARK    3  A    between atoms: C4_4  and  C5_5 
REMARK    4  A    between atoms: C23_23  and  O1_24 
ROOT
HETATM    1  C9  UNL     1      -4.177  47.709 -21.882  1.00  0.00     0.001 C 
HETATM    2  C10 UNL     1      -5.406  47.584 -22.834  1.00  0.00     0.006 C 
HETATM    3  C11 UNL     1      -5.120  48.458 -24.063  1.00  0.00     0.009 C 
HETATM    4  C12 UNL     1      -3.676  48.900 -23.867  1.00  0.00     0.036 C 
HETATM    5  C13 UNL     1      -3.520  49.055 -22.332  1.00  0.00    -0.033 C 
HETATM    6  C14 UNL     1      -4.276  50.259 -21.726  1.00  0.00     0.016 C 
HETATM    7  C15 UNL     1      -2.009  49.185 -22.053  1.00  0.00     0.010 C 
HETATM    8  C16 UNL     1      -1.372  50.353 -22.826  1.00  0.00     0.010 C 
HETATM    9  C17 UNL     1      -1.621  50.286 -24.347  1.00  0.00     0.039 C 
HETATM   10  C18 UNL     1      -3.121  50.043 -24.725  1.00  0.00     0.123 C 
HETATM   11  C19 UNL     1      -3.925  51.317 -24.785  1.00  0.00     0.014 C 
HETATM   12  C20 UNL     1      -3.433  52.218 -25.644  1.00  0.00     0.014 C 
HETATM   13  C21 UNL     1      -2.131  51.796 -26.296  1.00  0.00     0.124 C 
HETATM   14  C22 UNL     1      -1.670  52.806 -27.355  1.00  0.00     0.078 C 
HETATM   15  C23 UNL     1      -0.235  52.574 -27.843  1.00  0.00     0.121 C 
HETATM   16  C24 UNL     1       0.395  51.273 -27.358  1.00  0.00     0.033 C 
HETATM   17  C25 UNL     1       0.323  51.109 -25.836  1.00  0.00     0.015 C 
HETATM   18  C26 UNL     1      -1.050  51.501 -25.198  1.00  0.00     0.001 C 
HETATM   19  C27 UNL     1      -0.804  52.766 -24.331  1.00  0.00     0.019 C 
HETATM   20  O2  UNL     1      -2.392  50.539 -26.985  1.00  0.00    -0.223 OA
HETATM   21  O3  UNL     1      -3.113  49.572 -26.102  1.00  0.00    -0.224 OA
ENDROOT
BRANCH   1  22
HETATM   22  C2  UNL     1      -4.563  47.505 -20.391  1.00  0.00     0.008 C 
HETATM   23  C1  UNL     1      -4.112  46.152 -19.831  1.00  0.00     0.014 C 
BRANCH  22  24
HETATM   24  C3  UNL     1      -6.054  47.734 -20.196  1.00  0.00    -0.026 C 
HETATM   25  C4  UNL     1      -6.637  48.662 -19.419  1.00  0.00    -0.025 C 
BRANCH  25  26
HETATM   26  C5  UNL     1      -8.083  48.858 -19.266  1.00  0.00     0.012 A 
HETATM   27  C6  UNL     1      -8.660  48.852 -17.872  1.00  0.00     0.013 A 
HETATM   28  C7  UNL     1      -8.943  47.707 -18.805  1.00  0.00    -0.010 A 
HETATM   29  C8  UNL     1     -10.309  47.521 -19.371  1.00  0.00     0.010 C 
ENDBRANCH  25  26
ENDBRANCH  22  24
ENDBRANCH   1  22
BRANCH  15  30
HETATM   30  O1  UNL     1       0.570  53.671 -27.401  1.00  0.00    -0.395 OA
HETATM   31  H33 UNL     1       1.455  53.559 -27.791  1.00  0.00     0.210 HD
ENDBRANCH  15  30
TORSDOF 4
ENDMDL
MODEL 8
REMARK minimizedAffinity -8.89356709
REMARK  4 active torsions:
REMARK  status: ('A' for Active; 'I' for Inactive)
REMARK    1  A    between atoms: C2_2  and  C3_3 
REMARK    2  A    between atoms: C2_2  and  C9_9 
REMARK    3  A    between atoms: C4_4  and  C5_5 
REMARK    4  A    between atoms: C23_23  and  O1_24 
ROOT
HETATM    1  C9  UNL     1      -0.232  51.310 -23.799  1.00  0.00     0.001 C 
HETATM    2  C10 UNL     1       0.618  52.347 -23.003  1.00  0.00     0.006 C 
HETATM    3  C11 UNL     1       0.283  52.164 -21.516  1.00  0.00     0.009 C 
HETATM    4  C12 UNL     1      -0.594  50.919 -21.492  1.00  0.00     0.036 C 
HETATM    5  C13 UNL     1      -1.402  50.985 -22.814  1.00  0.00    -0.033 C 
HETATM    6  C14 UNL     1      -2.476  52.095 -22.858  1.00  0.00     0.016 C 
HETATM    7  C15 UNL     1      -2.062  49.603 -22.997  1.00  0.00     0.010 C 
HETATM    8  C16 UNL     1      -2.939  49.213 -21.793  1.00  0.00     0.010 C 
HETATM    9  C17 UNL     1      -2.186  49.261 -20.449  1.00  0.00     0.039 C 
HETATM   10  C18 UNL     1      -1.391  50.591 -20.224  1.00  0.00     0.123 C 
HETATM   11  C19 UNL     1      -2.239  51.691 -19.636  1.00  0.00     0.014 C 
HETATM   12  C20 UNL     1      -2.808  51.359 -18.470  1.00  0.00     0.014 C 
HETATM   13  C21 UNL     1      -2.548  49.926 -18.047  1.00  0.00     0.124 C 
HETATM   14  C22 UNL     1      -3.122  49.630 -16.655  1.00  0.00     0.078 C 
HETATM   15  C23 UNL     1      -3.131  48.139 -16.298  1.00  0.00     0.121 C 
HETATM   16  C24 UNL     1      -2.385  47.249 -17.284  1.00  0.00     0.033 C 
HETATM   17  C25 UNL     1      -2.846  47.446 -18.731  1.00  0.00     0.015 C 
HETATM   18  C26 UNL     1      -3.053  48.938 -19.156  1.00  0.00     0.001 C 
HETATM   19  C27 UNL     1      -4.575  49.133 -19.401  1.00  0.00     0.019 C 
HETATM   20  O2  UNL     1      -1.103  49.768 -17.960  1.00  0.00    -0.223 OA
HETATM   21  O3  UNL     1      -0.421  50.303 -19.178  1.00  0.00    -0.224 OA
ENDROOT
BRANCH   1  22
HETATM   22  C2  UNL     1      -0.556  51.796 -25.239  1.00  0.00     0.008 C 
HETATM   23  C1  UNL     1      -0.415  53.313 -25.411  1.00  0.00     0.014 C 
BRANCH  22  24
HETATM   24  C3  UNL     1      -1.929  51.299 -25.668  1.00  0.00    -0.026 C 
HETATM   25  C4  UNL     1      -2.207  50.184 -26.362  1.00  0.00    -0.025 C 
BRANCH  25  26
HETATM   26  C5  UNL     1      -3.548  49.733 -26.747  1.00  0.00     0.012 A 
HETATM   27  C6  UNL     1      -4.138  48.548 -26.021  1.00  0.00     0.013 A 
HETATM   28  C7  UNL     1      -3.711  48.410 -27.456  1.00  0.00    -0.010 A 
HETATM   29  C8  UNL     1      -4.732  48.260 -28.532  1.00  0.00     0.010 C 
ENDBRANCH  25  26
ENDBRANCH  22  24
ENDBRANCH   1  22
BRANCH  15  30
HETATM   30  O1  UNL     1      -4.493  47.708 -16.223  1.00  0.00    -0.395 OA
HETATM   31  H33 UNL     1      -4.491  46.786 -15.909  1.00  0.00     0.210 HD
ENDBRANCH  15  30
TORSDOF 4
ENDMDL
MODEL 9
REMARK minimizedAffinity -8.71845531
REMARK  4 active torsions:
REMARK  status: ('A' for Active; 'I' for Inactive)
REMARK    1  A    between atoms: C2_2  and  C3_3 
REMARK    2  A    between atoms: C2_2  and  C9_9 
REMARK    3  A    between atoms: C4_4  and  C5_5 
REMARK    4  A    between atoms: C23_23  and  O1_24 
ROOT
HETATM    1  C9  UNL     1      -2.141  51.857 -22.151  1.00  0.00     0.001 C 
HETATM    2  C10 UNL     1      -2.718  52.494 -23.452  1.00  0.00     0.006 C 
HETATM    3  C11 UNL     1      -4.059  51.805 -23.740  1.00  0.00     0.009 C 
HETATM    4  C12 UNL     1      -4.295  50.941 -22.508  1.00  0.00     0.036 C 
HETATM    5  C13 UNL     1      -2.879  50.481 -22.077  1.00  0.00    -0.033 C 
HETATM    6  C14 UNL     1      -2.216  49.457 -23.026  1.00  0.00     0.016 C 
HETATM    7  C15 UNL     1      -3.022  49.877 -20.665  1.00  0.00     0.010 C 
HETATM    8  C16 UNL     1      -4.048  48.730 -20.623  1.00  0.00     0.010 C 
HETATM    9  C17 UNL     1      -5.434  49.131 -21.166  1.00  0.00     0.039 C 
HETATM   10  C18 UNL     1      -5.377  49.856 -22.553  1.00  0.00     0.123 C 
HETATM   11  C19 UNL     1      -5.348  48.897 -23.716  1.00  0.00     0.014 C 
HETATM   12  C20 UNL     1      -6.392  48.058 -23.740  1.00  0.00     0.014 C 
HETATM   13  C21 UNL     1      -7.319  48.197 -22.549  1.00  0.00     0.124 C 
HETATM   14  C22 UNL     1      -8.556  47.300 -22.682  1.00  0.00     0.078 C 
HETATM   15  C23 UNL     1      -9.380  47.193 -21.393  1.00  0.00     0.121 C 
HETATM   16  C24 UNL     1      -8.952  48.153 -20.289  1.00  0.00     0.033 C 
HETATM   17  C25 UNL     1      -7.457  48.061 -19.967  1.00  0.00     0.015 C 
HETATM   18  C26 UNL     1      -6.521  47.973 -21.217  1.00  0.00     0.001 C 
HETATM   19  C27 UNL     1      -5.879  46.558 -21.205  1.00  0.00     0.019 C 
HETATM   20  O2  UNL     1      -7.787  49.577 -22.538  1.00  0.00    -0.223 OA
HETATM   21  O3  UNL     1      -6.654  50.539 -22.697  1.00  0.00    -0.224 OA
ENDROOT
BRANCH   1  22
HETATM   22  C2  UNL     1      -0.588  51.898 -22.113  1.00  0.00     0.008 C 
HETATM   23  C1  UNL     1      -0.035  52.738 -20.956  1.00  0.00     0.014 C 
BRANCH  22  24
HETATM   24  C3  UNL     1      -0.039  52.350 -23.458  1.00  0.00    -0.026 C 
HETATM   25  C4  UNL     1      -0.021  51.648 -24.603  1.00  0.00    -0.025 C 
BRANCH  25  26
HETATM   26  C5  UNL     1       0.509  52.124 -25.885  1.00  0.00     0.012 A 
HETATM   27  C6  UNL     1       0.153  51.355 -27.134  1.00  0.00     0.013 A 
HETATM   28  C7  UNL     1       1.559  51.310 -26.602  1.00  0.00    -0.010 A 
HETATM   29  C8  UNL     1       2.661  51.994 -27.337  1.00  0.00     0.010 C 
ENDBRANCH  25  26
ENDBRANCH  22  24
ENDBRANCH   1  22
BRANCH  15  30
HETATM   30  O1  UNL     1      -9.277  45.852 -20.906  1.00  0.00    -0.395 OA
HETATM   31  H33 UNL     1      -9.873  45.772 -20.141  1.00  0.00     0.210 HD
ENDBRANCH  15  30
TORSDOF 4
ENDMDL
