MODEL 1
REMARK minimizedAffinity -6.1491766
REMARK  8 active torsions:
REMARK  status: ('A' for Active; 'I' for Inactive)
REMARK    1  A    between atoms: C2_2  and  N1_3 
REMARK    2  A    between atoms: N1_3  and  C3_4 
REMARK    3  A    between atoms: N1_3  and  C5_6 
REMARK    4  A    between atoms: C5_6  and  C6_7 
REMARK    5  A    between atoms: C6_7  and  O1_8 
REMARK    6  A    between atoms: O1_8  and  C7_9 
REMARK    7  A    between atoms: C7_9  and  C8_11 
REMARK    8  A    between atoms: C11_14  and  N2_15 
ROOT
HETATM    1  C8  UNL     1      -0.774  52.004 -26.904  1.00  0.00     0.061 A 
HETATM    2  C9  UNL     1      -0.138  51.958 -28.150  1.00  0.00     0.021 A 
HETATM    3  C10 UNL     1       1.250  51.818 -28.221  1.00  0.00     0.024 A 
HETATM    4  C11 UNL     1       2.022  51.762 -27.058  1.00  0.00     0.007 A 
HETATM    5  C12 UNL     1       1.373  51.751 -25.820  1.00  0.00     0.048 A 
HETATM    6  C13 UNL     1      -0.019  51.891 -25.734  1.00  0.00     0.052 A 
HETATM    7 CL1  UNL     1      -0.721  51.958 -24.158  1.00  0.00    -0.083 Cl
ENDROOT
BRANCH   1   8
HETATM    8  C7  UNL     1      -2.242  52.121 -26.862  1.00  0.00     0.295 C 
HETATM    9  O2  UNL     1      -2.852  53.025 -26.321  1.00  0.00    -0.259 OA
BRANCH   8  10
HETATM   10  O1  UNL     1      -2.768  51.065 -27.531  1.00  0.00    -0.316 OA
BRANCH  10  11
HETATM   11  C6  UNL     1      -3.242  49.989 -26.699  1.00  0.00     0.209 C 
BRANCH  11  12
HETATM   12  C5  UNL     1      -3.652  50.511 -25.313  1.00  0.00     0.299 C 
BRANCH  12  13
HETATM   13  N1  UNL     1      -4.725  49.691 -24.706  1.00  0.00     0.089 N 
BRANCH  13  14
HETATM   14  C2  UNL     1      -5.422  50.476 -23.667  1.00  0.00     0.268 C 
HETATM   15  C1  UNL     1      -5.005  51.943 -23.623  1.00  0.00     0.037 C 
ENDBRANCH  13  14
BRANCH  13  16
HETATM   16  C3  UNL     1      -4.199  48.427 -24.150  1.00  0.00     0.268 C 
HETATM   17  C4  UNL     1      -2.972  48.587 -23.259  1.00  0.00     0.037 C 
ENDBRANCH  13  16
ENDBRANCH  12  13
ENDBRANCH  11  12
ENDBRANCH  10  11
ENDBRANCH   8  10
ENDBRANCH   1   8
BRANCH   4  18
HETATM   18  N2  UNL     1       3.392  51.499 -27.138  1.00  0.00    -0.303 NA
HETATM   19  H17 UNL     1       3.834  51.815 -27.996  1.00  0.00     0.124 HD
HETATM   20  H18 UNL     1       3.923  51.765 -26.313  1.00  0.00     0.124 HD
ENDBRANCH   4  18
TORSDOF 8
ENDMDL
MODEL 2
REMARK minimizedAffinity -6.1371007
REMARK  8 active torsions:
REMARK  status: ('A' for Active; 'I' for Inactive)
REMARK    1  A    between atoms: C2_2  and  N1_3 
REMARK    2  A    between atoms: N1_3  and  C3_4 
REMARK    3  A    between atoms: N1_3  and  C5_6 
REMARK    4  A    between atoms: C5_6  and  C6_7 
REMARK    5  A    between atoms: C6_7  and  O1_8 
REMARK    6  A    between atoms: O1_8  and  C7_9 
REMARK    7  A    between atoms: C7_9  and  C8_11 
REMARK    8  A    between atoms: C11_14  and  N2_15 
ROOT
HETATM    1  C8  UNL     1      -0.825  52.088 -26.215  1.00  0.00     0.061 A 
HETATM    2  C9  UNL     1      -0.505  51.707 -27.524  1.00  0.00     0.021 A 
HETATM    3  C10 UNL     1       0.831  51.525 -27.892  1.00  0.00     0.024 A 
HETATM    4  C11 UNL     1       1.860  51.757 -26.976  1.00  0.00     0.007 A 
HETATM    5  C12 UNL     1       1.527  52.082 -25.658  1.00  0.00     0.048 A 
HETATM    6  C13 UNL     1       0.192  52.268 -25.276  1.00  0.00     0.052 A 
HETATM    7 CL1  UNL     1      -0.114  52.756 -23.648  1.00  0.00    -0.083 Cl
ENDROOT
BRANCH   1   8
HETATM    8  C7  UNL     1      -2.245  52.243 -25.851  1.00  0.00     0.295 C 
HETATM    9  O2  UNL     1      -3.015  53.028 -26.372  1.00  0.00    -0.259 OA
BRANCH   8  10
HETATM   10  O1  UNL     1      -2.523  51.362 -24.858  1.00  0.00    -0.316 OA
BRANCH  10  11
HETATM   11  C6  UNL     1      -3.760  51.598 -24.159  1.00  0.00     0.209 C 
BRANCH  11  12
HETATM   12  C5  UNL     1      -4.635  50.333 -24.159  1.00  0.00     0.299 C 
BRANCH  12  13
HETATM   13  N1  UNL     1      -3.837  49.107 -24.385  1.00  0.00     0.089 N 
BRANCH  13  14
HETATM   14  C2  UNL     1      -4.282  48.449 -25.631  1.00  0.00     0.268 C 
HETATM   15  C1  UNL     1      -3.236  48.467 -26.742  1.00  0.00     0.037 C 
ENDBRANCH  13  14
BRANCH  13  16
HETATM   16  C3  UNL     1      -3.920  48.181 -23.238  1.00  0.00     0.268 C 
HETATM   17  C4  UNL     1      -2.644  48.081 -22.409  1.00  0.00     0.037 C 
ENDBRANCH  13  16
ENDBRANCH  12  13
ENDBRANCH  11  12
ENDBRANCH  10  11
ENDBRANCH   8  10
ENDBRANCH   1   8
BRANCH   4  18
HETATM   18  N2  UNL     1       3.182  51.454 -27.316  1.00  0.00    -0.303 NA
HETATM   19  H17 UNL     1       3.390  51.526 -28.307  1.00  0.00     0.124 HD
HETATM   20  H18 UNL     1       3.882  51.914 -26.741  1.00  0.00     0.124 HD
ENDBRANCH   4  18
TORSDOF 8
ENDMDL
MODEL 3
REMARK minimizedAffinity -6.09474039
REMARK  8 active torsions:
REMARK  status: ('A' for Active; 'I' for Inactive)
REMARK    1  A    between atoms: C2_2  and  N1_3 
REMARK    2  A    between atoms: N1_3  and  C3_4 
REMARK    3  A    between atoms: N1_3  and  C5_6 
REMARK    4  A    between atoms: C5_6  and  C6_7 
REMARK    5  A    between atoms: C6_7  and  O1_8 
REMARK    6  A    between atoms: O1_8  and  C7_9 
REMARK    7  A    between atoms: C7_9  and  C8_11 
REMARK    8  A    between atoms: C11_14  and  N2_15 
ROOT
HETATM    1  C8  UNL     1      -0.793  52.041 -26.613  1.00  0.00     0.061 A 
HETATM    2  C9  UNL     1      -0.313  52.030 -27.929  1.00  0.00     0.021 A 
HETATM    3  C10 UNL     1       1.055  51.882 -28.172  1.00  0.00     0.024 A 
HETATM    4  C11 UNL     1       1.960  51.781 -27.113  1.00  0.00     0.007 A 
HETATM    5  C12 UNL     1       1.466  51.735 -25.806  1.00  0.00     0.048 A 
HETATM    6  C13 UNL     1       0.097  51.884 -25.548  1.00  0.00     0.052 A 
HETATM    7 CL1  UNL     1      -0.408  51.904 -23.897  1.00  0.00    -0.083 Cl
ENDROOT
BRANCH   1   8
HETATM    8  C7  UNL     1      -2.244  52.169 -26.390  1.00  0.00     0.295 C 
HETATM    9  O2  UNL     1      -2.761  52.954 -25.618  1.00  0.00    -0.259 OA
BRANCH   8  10
HETATM   10  O1  UNL     1      -2.874  51.277 -27.194  1.00  0.00    -0.316 OA
BRANCH  10  11
HETATM   11  C6  UNL     1      -3.375  50.101 -26.529  1.00  0.00     0.209 C 
BRANCH  11  12
HETATM   12  C5  UNL     1      -3.772  49.024 -27.552  1.00  0.00     0.299 C 
BRANCH  12  13
HETATM   13  N1  UNL     1      -4.687  48.017 -26.970  1.00  0.00     0.089 N 
BRANCH  13  14
HETATM   14  C2  UNL     1      -5.898  47.904 -27.808  1.00  0.00     0.268 C 
HETATM   15  C1  UNL     1      -5.602  47.745 -29.296  1.00  0.00     0.037 C 
ENDBRANCH  13  14
BRANCH  13  16
HETATM   16  C3  UNL     1      -5.039  48.340 -25.572  1.00  0.00     0.268 C 
HETATM   17  C4  UNL     1      -6.448  47.929 -25.159  1.00  0.00     0.037 C 
ENDBRANCH  13  16
ENDBRANCH  12  13
ENDBRANCH  11  12
ENDBRANCH  10  11
ENDBRANCH   8  10
ENDBRANCH   1   8
BRANCH   4  18
HETATM   18  N2  UNL     1       3.308  51.510 -27.367  1.00  0.00    -0.303 NA
HETATM   19  H17 UNL     1       3.646  51.850 -28.262  1.00  0.00     0.124 HD
HETATM   20  H18 UNL     1       3.938  51.744 -26.604  1.00  0.00     0.124 HD
ENDBRANCH   4  18
TORSDOF 8
ENDMDL
MODEL 4
REMARK minimizedAffinity -6.08019781
REMARK  8 active torsions:
REMARK  status: ('A' for Active; 'I' for Inactive)
REMARK    1  A    between atoms: C2_2  and  N1_3 
REMARK    2  A    between atoms: N1_3  and  C3_4 
REMARK    3  A    between atoms: N1_3  and  C5_6 
REMARK    4  A    between atoms: C5_6  and  C6_7 
REMARK    5  A    between atoms: C6_7  and  O1_8 
REMARK    6  A    between atoms: O1_8  and  C7_9 
REMARK    7  A    between atoms: C7_9  and  C8_11 
REMARK    8  A    between atoms: C11_14  and  N2_15 
ROOT
HETATM    1  C8  UNL     1      -0.848  51.879 -26.854  1.00  0.00     0.061 A 
HETATM    2  C9  UNL     1      -0.257  51.961 -28.121  1.00  0.00     0.021 A 
HETATM    3  C10 UNL     1       1.132  51.873 -28.251  1.00  0.00     0.024 A 
HETATM    4  C11 UNL     1       1.946  51.743 -27.124  1.00  0.00     0.007 A 
HETATM    5  C12 UNL     1       1.344  51.606 -25.870  1.00  0.00     0.048 A 
HETATM    6  C13 UNL     1      -0.047  51.692 -25.725  1.00  0.00     0.052 A 
HETATM    7 CL1  UNL     1      -0.693  51.600 -24.126  1.00  0.00    -0.083 Cl
ENDROOT
BRANCH   1   8
HETATM    8  C7  UNL     1      -2.317  51.944 -26.752  1.00  0.00     0.295 C 
HETATM    9  O2  UNL     1      -2.936  52.838 -26.206  1.00  0.00    -0.259 OA
BRANCH   8  10
HETATM   10  O1  UNL     1      -2.830  50.855 -27.375  1.00  0.00    -0.316 OA
BRANCH  10  11
HETATM   11  C6  UNL     1      -2.769  49.631 -26.616  1.00  0.00     0.209 C 
BRANCH  11  12
HETATM   12  C5  UNL     1      -4.037  49.453 -25.765  1.00  0.00     0.299 C 
BRANCH  12  13
HETATM   13  N1  UNL     1      -3.813  49.831 -24.351  1.00  0.00     0.089 N 
BRANCH  13  14
HETATM   14  C2  UNL     1      -3.845  48.622 -23.504  1.00  0.00     0.268 C 
HETATM   15  C1  UNL     1      -2.585  48.424 -22.666  1.00  0.00     0.037 C 
ENDBRANCH  13  14
BRANCH  13  16
HETATM   16  C3  UNL     1      -4.799  50.829 -23.888  1.00  0.00     0.268 C 
HETATM   17  C4  UNL     1      -4.212  51.962 -23.053  1.00  0.00     0.037 C 
ENDBRANCH  13  16
ENDBRANCH  12  13
ENDBRANCH  11  12
ENDBRANCH  10  11
ENDBRANCH   8  10
ENDBRANCH   1   8
BRANCH   4  18
HETATM   18  N2  UNL     1       3.320  51.533 -27.272  1.00  0.00    -0.303 NA
HETATM   19  H17 UNL     1       3.720  51.935 -28.115  1.00  0.00     0.124 HD
HETATM   20  H18 UNL     1       3.873  51.745 -26.445  1.00  0.00     0.124 HD
ENDBRANCH   4  18
TORSDOF 8
ENDMDL
MODEL 5
REMARK minimizedAffinity -6.05541992
REMARK  8 active torsions:
REMARK  status: ('A' for Active; 'I' for Inactive)
REMARK    1  A    between atoms: C2_2  and  N1_3 
REMARK    2  A    between atoms: N1_3  and  C3_4 
REMARK    3  A    between atoms: N1_3  and  C5_6 
REMARK    4  A    between atoms: C5_6  and  C6_7 
REMARK    5  A    between atoms: C6_7  and  O1_8 
REMARK    6  A    between atoms: O1_8  and  C7_9 
REMARK    7  A    between atoms: C7_9  and  C8_11 
REMARK    8  A    between atoms: C11_14  and  N2_15 
ROOT
HETATM    1  C8  UNL     1       5.569  63.880 -34.820  1.00  0.00     0.061 A 
HETATM    2  C9  UNL     1       5.288  62.512 -34.718  1.00  0.00     0.021 A 
HETATM    3  C10 UNL     1       4.429  62.048 -33.717  1.00  0.00     0.024 A 
HETATM    4  C11 UNL     1       3.874  62.931 -32.789  1.00  0.00     0.007 A 
HETATM    5  C12 UNL     1       4.115  64.301 -32.934  1.00  0.00     0.048 A 
HETATM    6  C13 UNL     1       4.975  64.779 -33.932  1.00  0.00     0.052 A 
HETATM    7 CL1  UNL     1       5.283  66.478 -33.976  1.00  0.00    -0.083 Cl
ENDROOT
BRANCH   1   8
HETATM    8  C7  UNL     1       6.456  64.341 -35.903  1.00  0.00     0.295 C 
HETATM    9  O2  UNL     1       6.259  64.152 -37.089  1.00  0.00    -0.259 OA
BRANCH   8  10
HETATM   10  O1  UNL     1       7.496  65.005 -35.342  1.00  0.00    -0.316 OA
BRANCH  10  11
HETATM   11  C6  UNL     1       8.126  64.331 -34.234  1.00  0.00     0.209 C 
BRANCH  11  12
HETATM   12  C5  UNL     1       9.071  63.227 -34.735  1.00  0.00     0.299 C 
BRANCH  12  13
HETATM   13  N1  UNL     1       8.805  61.929 -34.075  1.00  0.00     0.089 N 
BRANCH  13  14
HETATM   14  C2  UNL     1       9.911  61.608 -33.150  1.00  0.00     0.268 C 
HETATM   15  C1  UNL     1      10.790  62.806 -32.804  1.00  0.00     0.037 C 
ENDBRANCH  13  14
BRANCH  13  16
HETATM   16  C3  UNL     1       8.606  60.845 -35.059  1.00  0.00     0.268 C 
HETATM   17  C4  UNL     1       7.516  59.845 -34.691  1.00  0.00     0.037 C 
ENDBRANCH  13  16
ENDBRANCH  12  13
ENDBRANCH  11  12
ENDBRANCH  10  11
ENDBRANCH   8  10
ENDBRANCH   1   8
BRANCH   4  18
HETATM   18  N2  UNL     1       2.922  62.477 -31.872  1.00  0.00    -0.303 NA
HETATM   19  H17 UNL     1       3.017  61.500 -31.613  1.00  0.00     0.124 HD
HETATM   20  H18 UNL     1       2.793  63.079 -31.062  1.00  0.00     0.124 HD
ENDBRANCH   4  18
TORSDOF 8
ENDMDL
MODEL 6
REMARK minimizedAffinity -6.00426054
REMARK  8 active torsions:
REMARK  status: ('A' for Active; 'I' for Inactive)
REMARK    1  A    between atoms: C2_2  and  N1_3 
REMARK    2  A    between atoms: N1_3  and  C3_4 
REMARK    3  A    between atoms: N1_3  and  C5_6 
REMARK    4  A    between atoms: C5_6  and  C6_7 
REMARK    5  A    between atoms: C6_7  and  O1_8 
REMARK    6  A    between atoms: O1_8  and  C7_9 
REMARK    7  A    between atoms: C7_9  and  C8_11 
REMARK    8  A    between atoms: C11_14  and  N2_15 
ROOT
HETATM    1  C8  UNL     1      -0.875  51.789 -26.561  1.00  0.00     0.061 A 
HETATM    2  C9  UNL     1      -0.412  51.821 -27.882  1.00  0.00     0.021 A 
HETATM    3  C10 UNL     1       0.961  51.818 -28.141  1.00  0.00     0.024 A 
HETATM    4  C11 UNL     1       1.884  51.824 -27.093  1.00  0.00     0.007 A 
HETATM    5  C12 UNL     1       1.413  51.734 -25.780  1.00  0.00     0.048 A 
HETATM    6  C13 UNL     1       0.039  51.737 -25.506  1.00  0.00     0.052 A 
HETATM    7 CL1  UNL     1      -0.447  51.715 -23.849  1.00  0.00    -0.083 Cl
ENDROOT
BRANCH   1   8
HETATM    8  C7  UNL     1      -2.329  51.762 -26.321  1.00  0.00     0.295 C 
HETATM    9  O2  UNL     1      -3.036  52.748 -26.231  1.00  0.00    -0.259 OA
BRANCH   8  10
HETATM   10  O1  UNL     1      -2.717  50.466 -26.233  1.00  0.00    -0.316 OA
BRANCH  10  11
HETATM   11  C6  UNL     1      -3.636  50.174 -25.163  1.00  0.00     0.209 C 
BRANCH  11  12
HETATM   12  C5  UNL     1      -3.200  48.914 -24.398  1.00  0.00     0.299 C 
BRANCH  12  13
HETATM   13  N1  UNL     1      -3.327  49.082 -22.933  1.00  0.00     0.089 N 
BRANCH  13  14
HETATM   14  C2  UNL     1      -3.888  50.416 -22.634  1.00  0.00     0.268 C 
HETATM   15  C1  UNL     1      -3.178  51.139 -21.493  1.00  0.00     0.037 C 
ENDBRANCH  13  14
BRANCH  13  16
HETATM   16  C3  UNL     1      -2.036  48.884 -22.244  1.00  0.00     0.268 C 
HETATM   17  C4  UNL     1      -1.846  47.498 -21.637  1.00  0.00     0.037 C 
ENDBRANCH  13  16
ENDBRANCH  12  13
ENDBRANCH  11  12
ENDBRANCH  10  11
ENDBRANCH   8  10
ENDBRANCH   1   8
BRANCH   4  18
HETATM   18  N2  UNL     1       3.250  51.697 -27.362  1.00  0.00    -0.303 NA
HETATM   19  H17 UNL     1       3.540  52.064 -28.263  1.00  0.00     0.124 HD
HETATM   20  H18 UNL     1       3.860  52.003 -26.608  1.00  0.00     0.124 HD
ENDBRANCH   4  18
TORSDOF 8
ENDMDL
MODEL 7
REMARK minimizedAffinity -5.99337244
REMARK  8 active torsions:
REMARK  status: ('A' for Active; 'I' for Inactive)
REMARK    1  A    between atoms: C2_2  and  N1_3 
REMARK    2  A    between atoms: N1_3  and  C3_4 
REMARK    3  A    between atoms: N1_3  and  C5_6 
REMARK    4  A    between atoms: C5_6  and  C6_7 
REMARK    5  A    between atoms: C6_7  and  O1_8 
REMARK    6  A    between atoms: O1_8  and  C7_9 
REMARK    7  A    between atoms: C7_9  and  C8_11 
REMARK    8  A    between atoms: C11_14  and  N2_15 
ROOT
HETATM    1  C8  UNL     1      -0.852  52.031 -26.257  1.00  0.00     0.061 A 
HETATM    2  C9  UNL     1      -0.552  51.715 -27.588  1.00  0.00     0.021 A 
HETATM    3  C10 UNL     1       0.780  51.611 -27.997  1.00  0.00     0.024 A 
HETATM    4  C11 UNL     1       1.823  51.859 -27.101  1.00  0.00     0.007 A 
HETATM    5  C12 UNL     1       1.513  52.118 -25.763  1.00  0.00     0.048 A 
HETATM    6  C13 UNL     1       0.182  52.225 -25.339  1.00  0.00     0.052 A 
HETATM    7 CL1  UNL     1      -0.100  52.637 -23.686  1.00  0.00    -0.083 Cl
ENDROOT
BRANCH   1   8
HETATM    8  C7  UNL     1      -2.266  52.104 -25.849  1.00  0.00     0.295 C 
HETATM    9  O2  UNL     1      -3.030  53.003 -26.146  1.00  0.00    -0.259 OA
BRANCH   8  10
HETATM   10  O1  UNL     1      -2.547  51.004 -25.107  1.00  0.00    -0.316 OA
BRANCH  10  11
HETATM   11  C6  UNL     1      -3.418  51.230 -23.982  1.00  0.00     0.209 C 
BRANCH  11  12
HETATM   12  C5  UNL     1      -4.806  50.619 -24.237  1.00  0.00     0.299 C 
BRANCH  12  13
HETATM   13  N1  UNL     1      -4.778  49.139 -24.190  1.00  0.00     0.089 N 
BRANCH  13  14
HETATM   14  C2  UNL     1      -3.508  48.687 -23.585  1.00  0.00     0.268 C 
HETATM   15  C1  UNL     1      -3.668  48.109 -22.182  1.00  0.00     0.037 C 
ENDBRANCH  13  14
BRANCH  13  16
HETATM   16  C3  UNL     1      -4.968  48.545 -25.529  1.00  0.00     0.268 C 
HETATM   17  C4  UNL     1      -3.676  48.253 -26.284  1.00  0.00     0.037 C 
ENDBRANCH  13  16
ENDBRANCH  12  13
ENDBRANCH  11  12
ENDBRANCH  10  11
ENDBRANCH   8  10
ENDBRANCH   1   8
BRANCH   4  18
HETATM   18  N2  UNL     1       3.147  51.633 -27.488  1.00  0.00    -0.303 NA
HETATM   19  H17 UNL     1       3.324  51.752 -28.480  1.00  0.00     0.124 HD
HETATM   20  H18 UNL     1       3.842  52.105 -26.914  1.00  0.00     0.124 HD
ENDBRANCH   4  18
TORSDOF 8
ENDMDL
MODEL 8
REMARK minimizedAffinity -5.76573038
REMARK  8 active torsions:
REMARK  status: ('A' for Active; 'I' for Inactive)
REMARK    1  A    between atoms: C2_2  and  N1_3 
REMARK    2  A    between atoms: N1_3  and  C3_4 
REMARK    3  A    between atoms: N1_3  and  C5_6 
REMARK    4  A    between atoms: C5_6  and  C6_7 
REMARK    5  A    between atoms: C6_7  and  O1_8 
REMARK    6  A    between atoms: O1_8  and  C7_9 
REMARK    7  A    between atoms: C7_9  and  C8_11 
REMARK    8  A    between atoms: C11_14  and  N2_15 
ROOT
HETATM    1  C8  UNL     1      -0.543  51.788 -25.489  1.00  0.00     0.061 A 
HETATM    2  C9  UNL     1       0.647  52.130 -24.835  1.00  0.00     0.021 A 
HETATM    3  C10 UNL     1       1.866  52.046 -25.514  1.00  0.00     0.024 A 
HETATM    4  C11 UNL     1       1.918  51.585 -26.831  1.00  0.00     0.007 A 
HETATM    5  C12 UNL     1       0.720  51.300 -27.493  1.00  0.00     0.048 A 
HETATM    6  C13 UNL     1      -0.509  51.379 -26.825  1.00  0.00     0.052 A 
HETATM    7 CL1  UNL     1      -1.926  50.921 -27.698  1.00  0.00    -0.083 Cl
ENDROOT
BRANCH   1   8
HETATM    8  C7  UNL     1      -1.815  51.915 -24.757  1.00  0.00     0.295 C 
HETATM    9  O2  UNL     1      -2.575  52.862 -24.843  1.00  0.00    -0.259 OA
BRANCH   8  10
HETATM   10  O1  UNL     1      -1.977  50.804 -23.997  1.00  0.00    -0.316 OA
BRANCH  10  11
HETATM   11  C6  UNL     1      -2.739  50.993 -22.790  1.00  0.00     0.209 C 
BRANCH  11  12
HETATM   12  C5  UNL     1      -1.859  51.585 -21.677  1.00  0.00     0.299 C 
BRANCH  12  13
HETATM   13  N1  UNL     1      -0.591  50.837 -21.516  1.00  0.00     0.089 N 
BRANCH  13  14
HETATM   14  C2  UNL     1      -0.704  49.912 -20.370  1.00  0.00     0.268 C 
HETATM   15  C1  UNL     1      -0.865  48.449 -20.774  1.00  0.00     0.037 C 
ENDBRANCH  13  14
BRANCH  13  16
HETATM   16  C3  UNL     1       0.563  51.745 -21.353  1.00  0.00     0.268 C 
HETATM   17  C4  UNL     1       0.337  52.890 -20.373  1.00  0.00     0.037 C 
ENDBRANCH  13  16
ENDBRANCH  12  13
ENDBRANCH  11  12
ENDBRANCH  10  11
ENDBRANCH   8  10
ENDBRANCH   1   8
BRANCH   4  18
HETATM   18  N2  UNL     1       3.123  51.621 -27.540  1.00  0.00    -0.303 NA
HETATM   19  H17 UNL     1       3.954  51.534 -26.963  1.00  0.00     0.124 HD
HETATM   20  H18 UNL     1       3.154  51.013 -28.354  1.00  0.00     0.124 HD
ENDBRANCH   4  18
TORSDOF 8
ENDMDL
MODEL 9
REMARK minimizedAffinity -5.70296144
REMARK  8 active torsions:
REMARK  status: ('A' for Active; 'I' for Inactive)
REMARK    1  A    between atoms: C2_2  and  N1_3 
REMARK    2  A    between atoms: N1_3  and  C3_4 
REMARK    3  A    between atoms: N1_3  and  C5_6 
REMARK    4  A    between atoms: C5_6  and  C6_7 
REMARK    5  A    between atoms: C6_7  and  O1_8 
REMARK    6  A    between atoms: O1_8  and  C7_9 
REMARK    7  A    between atoms: C7_9  and  C8_11 
REMARK    8  A    between atoms: C11_14  and  N2_15 
ROOT
HETATM    1  C8  UNL     1      -0.008  52.467 -21.946  1.00  0.00     0.061 A 
HETATM    2  C9  UNL     1      -0.487  51.593 -20.962  1.00  0.00     0.021 A 
HETATM    3  C10 UNL     1      -0.103  51.764 -19.629  1.00  0.00     0.024 A 
HETATM    4  C11 UNL     1       0.787  52.778 -19.268  1.00  0.00     0.007 A 
HETATM    5  C12 UNL     1       1.213  53.680 -20.248  1.00  0.00     0.048 A 
HETATM    6  C13 UNL     1       0.837  53.520 -21.588  1.00  0.00     0.052 A 
HETATM    7 CL1  UNL     1       1.486  54.630 -22.740  1.00  0.00    -0.083 Cl
ENDROOT
BRANCH   1   8
HETATM    8  C7  UNL     1      -0.455  52.279 -23.337  1.00  0.00     0.295 C 
HETATM    9  O2  UNL     1       0.259  51.914 -24.253  1.00  0.00    -0.259 OA
BRANCH   8  10
HETATM   10  O1  UNL     1      -1.777  52.572 -23.399  1.00  0.00    -0.316 OA
BRANCH  10  11
HETATM   11  C6  UNL     1      -2.615  51.516 -23.906  1.00  0.00     0.209 C 
BRANCH  11  12
HETATM   12  C5  UNL     1      -3.385  51.983 -25.153  1.00  0.00     0.299 C 
BRANCH  12  13
HETATM   13  N1  UNL     1      -3.329  50.985 -26.245  1.00  0.00     0.089 N 
BRANCH  13  14
HETATM   14  C2  UNL     1      -2.622  49.776 -25.776  1.00  0.00     0.268 C 
HETATM   15  C1  UNL     1      -3.372  48.478 -26.058  1.00  0.00     0.037 C 
ENDBRANCH  13  14
BRANCH  13  16
HETATM   16  C3  UNL     1      -2.689  51.536 -27.458  1.00  0.00     0.268 C 
HETATM   17  C4  UNL     1      -1.172  51.395 -27.496  1.00  0.00     0.037 C 
ENDBRANCH  13  16
ENDBRANCH  12  13
ENDBRANCH  11  12
ENDBRANCH  10  11
ENDBRANCH   8  10
ENDBRANCH   1   8
BRANCH   4  18
HETATM   18  N2  UNL     1       1.067  53.018 -17.919  1.00  0.00    -0.303 NA
HETATM   19  H17 UNL     1       0.997  52.200 -17.322  1.00  0.00     0.124 HD
HETATM   20  H18 UNL     1       1.919  53.546 -17.752  1.00  0.00     0.124 HD
ENDBRANCH   4  18
TORSDOF 8
ENDMDL
