MODEL 1
REMARK minimizedAffinity -8.27597809
REMARK CNNscore 0.597881734
REMARK CNNaffinity 7.59521103
REMARK  8 active torsions:
REMARK  status: ('A' for Active; 'I' for Inactive)
REMARK    1  A    between atoms: C2_2  and  N1_3 
REMARK    2  A    between atoms: C2_2  and  C24_33 
REMARK       I    between atoms: N1_3  and  C3_4 
REMARK    3  A    between atoms: C3_4  and  C4_6 
REMARK    4  A    between atoms: C4_6  and  C5_7 
REMARK    5  A    between atoms: C10_12  and  C12_14 
REMARK    6  A    between atoms: C12_14  and  O2_15 
REMARK    7  A    between atoms: C13_16  and  O3_17 
REMARK    8  A    between atoms: C18_23  and  C19_24 
ROOT
HETATM    1  C5  UNL     1      -1.229  50.121 -17.546  1.00  0.00     0.054 C 
HETATM    2  C6  UNL     1      -0.295  51.145 -18.153  1.00  0.00     0.028 A 
HETATM    3  C7  UNL     1       0.661  51.835 -17.432  1.00  0.00     0.008 A 
HETATM    4  C8  UNL     1       0.900  51.703 -15.957  1.00  0.00     0.054 C 
HETATM    5  C9  UNL     1      -0.378  51.083 -15.329  1.00  0.00     0.012 C 
HETATM    6  C10 UNL     1      -0.496  51.056 -13.764  1.00  0.00     0.008 C 
HETATM    7  C11 UNL     1      -0.173  52.463 -13.190  1.00  0.00     0.020 C 
HETATM    8  C13 UNL     1      -1.995  50.754 -13.406  1.00  0.00     0.128 C 
HETATM    9  C14 UNL     1      -2.785  49.995 -14.485  1.00  0.00     0.033 C 
HETATM   10  C15 UNL     1      -1.921  49.023 -15.280  1.00  0.00     0.013 C 
HETATM   11  C16 UNL     1      -0.770  49.721 -16.064  1.00  0.00    -0.030 C 
HETATM   12  C17 UNL     1       0.402  48.712 -16.130  1.00  0.00     0.016 C 
HETATM   13  S1  UNL     1       1.522  52.885 -18.450  1.00  0.00    -0.074 SA
HETATM   14  C18 UNL     1       0.521  52.410 -19.782  1.00  0.00     0.086 A 
HETATM   15  N3  UNL     1      -0.404  51.514 -19.479  1.00  0.00    -0.352 N 
ATOM     16  H3  UNL     1      -1.098  51.147 -20.131  1.00  0.00     0.166 HD
ENDROOT
BRANCH   1  17
HETATM   17  C4  UNL     1      -1.578  48.982 -18.525  1.00  0.00     0.114 C 
BRANCH  17  18
HETATM   18  C3  UNL     1      -3.013  48.871 -19.021  1.00  0.00     0.218 C 
HETATM   19  N1  UNL     1      -3.081  48.360 -20.302  1.00  0.00    -0.353 N 
HETATM   20  H5  UNL     1      -2.245  47.997 -20.740  1.00  0.00     0.163 HD
HETATM   21  O1  UNL     1      -4.011  49.210 -18.396  1.00  0.00    -0.274 OA
BRANCH  19  22
HETATM   22  C2  UNL     1      -4.346  48.167 -20.990  1.00  0.00     0.113 C 
HETATM   23  C1  UNL     1      -4.990  46.836 -20.600  1.00  0.00     0.037 C 
BRANCH  22  24
HETATM   24  C24 UNL     1      -4.126  48.332 -22.485  1.00  0.00    -0.036 A 
HETATM   25  C25 UNL     1      -5.200  48.100 -23.363  1.00  0.00     0.009 A 
HETATM   26  C26 UNL     1      -5.047  48.267 -24.741  1.00  0.00     0.001 A 
HETATM   27  C27 UNL     1      -3.822  48.681 -25.261  1.00  0.00     0.000 A 
HETATM   28  C28 UNL     1      -2.752  48.928 -24.405  1.00  0.00     0.001 A 
HETATM   29  C29 UNL     1      -2.902  48.761 -23.024  1.00  0.00     0.009 A 
ENDBRANCH  22  24
ENDBRANCH  19  22
ENDBRANCH  17  18
ENDBRANCH   1  17
BRANCH  14  30
HETATM   30  C19 UNL     1       0.686  52.981 -21.127  1.00  0.00     0.013 A 
HETATM   31  C20 UNL     1       0.171  52.419 -22.303  1.00  0.00     0.017 A 
HETATM   32  C21 UNL     1       0.395  53.035 -23.536  1.00  0.00     0.018 A 
HETATM   33  C22 UNL     1       1.132  54.206 -23.564  1.00  0.00     0.087 A 
HETATM   34  N2  UNL     1       1.649  54.788 -22.464  1.00  0.00    -0.374 N 
HETATM   35  C23 UNL     1       1.411  54.164 -21.280  1.00  0.00     0.101 A 
ATOM     36  H2  UNL     1       2.191  55.650 -22.516  1.00  0.00     0.164 HD
ENDBRANCH  14  30
BRANCH   6  37
HETATM   37  C12 UNL     1       0.458  50.067 -13.054  1.00  0.00     0.176 C 
BRANCH  37  38
HETATM   38  O2  UNL     1      -0.185  48.827 -12.797  1.00  0.00    -0.400 OA
HETATM   39  H17 UNL     1       0.453  48.270 -12.318  1.00  0.00     0.209 HD
ENDBRANCH  37  38
ENDBRANCH   6  37
BRANCH   8  40
HETATM   40  O3  UNL     1      -2.102  50.030 -12.181  1.00  0.00    -0.395 OA
HETATM   41  H19 UNL     1      -1.942  50.658 -11.454  1.00  0.00     0.210 HD
ENDBRANCH   8  40
TORSDOF 8
ENDMDL
MODEL 2
REMARK minimizedAffinity -8.3718586
REMARK CNNscore 0.433355421
REMARK CNNaffinity 7.71083021
REMARK  8 active torsions:
REMARK  status: ('A' for Active; 'I' for Inactive)
REMARK    1  A    between atoms: C2_2  and  N1_3 
REMARK    2  A    between atoms: C2_2  and  C24_33 
REMARK       I    between atoms: N1_3  and  C3_4 
REMARK    3  A    between atoms: C3_4  and  C4_6 
REMARK    4  A    between atoms: C4_6  and  C5_7 
REMARK    5  A    between atoms: C10_12  and  C12_14 
REMARK    6  A    between atoms: C12_14  and  O2_15 
REMARK    7  A    between atoms: C13_16  and  O3_17 
REMARK    8  A    between atoms: C18_23  and  C19_24 
ROOT
HETATM    1  C5  UNL     1      -2.687  50.428 -21.717  1.00  0.00     0.054 C 
HETATM    2  C6  UNL     1      -1.486  51.124 -21.116  1.00  0.00     0.028 A 
HETATM    3  C7  UNL     1      -0.582  51.868 -21.850  1.00  0.00     0.008 A 
HETATM    4  C8  UNL     1      -0.630  52.075 -23.335  1.00  0.00     0.054 C 
HETATM    5  C9  UNL     1      -1.517  50.950 -23.937  1.00  0.00     0.012 C 
HETATM    6  C10 UNL     1      -1.544  50.783 -25.497  1.00  0.00     0.008 C 
HETATM    7  C11 UNL     1      -0.090  50.752 -26.045  1.00  0.00     0.020 C 
HETATM    8  C13 UNL     1      -2.177  49.380 -25.812  1.00  0.00     0.128 C 
HETATM    9  C14 UNL     1      -3.116  48.828 -24.728  1.00  0.00     0.033 C 
HETATM   10  C15 UNL     1      -3.875  49.921 -23.987  1.00  0.00     0.013 C 
HETATM   11  C16 UNL     1      -2.945  50.909 -23.224  1.00  0.00    -0.030 C 
HETATM   12  C17 UNL     1      -3.658  52.283 -23.222  1.00  0.00     0.016 C 
HETATM   13  S1  UNL     1       0.621  52.503 -20.835  1.00  0.00    -0.074 SA
HETATM   14  C18 UNL     1      -0.095  51.689 -19.483  1.00  0.00     0.086 A 
HETATM   15  N3  UNL     1      -1.175  50.984 -19.778  1.00  0.00    -0.352 N 
ATOM     16  H3  UNL     1      -1.702  50.418 -19.113  1.00  0.00     0.166 HD
ENDROOT
BRANCH   1  17
HETATM   17  C4  UNL     1      -3.892  50.387 -20.757  1.00  0.00     0.114 C 
BRANCH  17  18
HETATM   18  C3  UNL     1      -3.672  49.864 -19.343  1.00  0.00     0.218 C 
HETATM   19  N1  UNL     1      -3.579  48.487 -19.309  1.00  0.00    -0.353 N 
HETATM   20  H5  UNL     1      -3.533  47.967 -20.175  1.00  0.00     0.163 HD
HETATM   21  O1  UNL     1      -3.607  50.553 -18.332  1.00  0.00    -0.274 OA
BRANCH  19  22
HETATM   22  C2  UNL     1      -3.374  47.759 -18.069  1.00  0.00     0.113 C 
HETATM   23  C1  UNL     1      -2.025  48.110 -17.438  1.00  0.00     0.037 C 
BRANCH  22  24
HETATM   24  C24 UNL     1      -3.565  46.274 -18.330  1.00  0.00    -0.036 A 
HETATM   25  C25 UNL     1      -3.983  45.853 -19.605  1.00  0.00     0.009 A 
HETATM   26  C26 UNL     1      -4.144  44.496 -19.894  1.00  0.00     0.001 A 
HETATM   27  C27 UNL     1      -3.878  43.539 -18.917  1.00  0.00     0.000 A 
HETATM   28  C28 UNL     1      -3.450  43.938 -17.652  1.00  0.00     0.001 A 
HETATM   29  C29 UNL     1      -3.288  45.296 -17.361  1.00  0.00     0.009 A 
ENDBRANCH  22  24
ENDBRANCH  19  22
ENDBRANCH  17  18
ENDBRANCH   1  17
BRANCH  14  30
HETATM   30  C19 UNL     1       0.476  51.770 -18.130  1.00  0.00     0.013 A 
HETATM   31  C20 UNL     1       0.318  50.794 -17.137  1.00  0.00     0.017 A 
HETATM   32  C21 UNL     1       0.892  50.971 -15.877  1.00  0.00     0.018 A 
HETATM   33  C22 UNL     1       1.614  52.127 -15.638  1.00  0.00     0.087 A 
HETATM   34  N2  UNL     1       1.796  53.096 -16.557  1.00  0.00    -0.374 N 
HETATM   35  C23 UNL     1       1.226  52.891 -17.774  1.00  0.00     0.101 A 
ATOM     36  H2  UNL     1       2.332  53.939 -16.350  1.00  0.00     0.164 HD
ENDBRANCH  14  30
BRANCH   6  37
HETATM   37  C12 UNL     1      -2.274  51.910 -26.262  1.00  0.00     0.176 C 
BRANCH  37  38
HETATM   38  O2  UNL     1      -3.619  51.553 -26.544  1.00  0.00    -0.400 OA
HETATM   39  H17 UNL     1      -4.006  52.284 -27.057  1.00  0.00     0.209 HD
ENDBRANCH  37  38
ENDBRANCH   6  37
BRANCH   8  40
HETATM   40  O3  UNL     1      -2.885  49.396 -27.051  1.00  0.00    -0.395 OA
HETATM   41  H19 UNL     1      -2.224  49.379 -27.767  1.00  0.00     0.210 HD
ENDBRANCH   8  40
TORSDOF 8
ENDMDL
MODEL 3
REMARK minimizedAffinity -9.25617599
REMARK CNNscore 0.398400605
REMARK CNNaffinity 7.51414824
REMARK  8 active torsions:
REMARK  status: ('A' for Active; 'I' for Inactive)
REMARK    1  A    between atoms: C2_2  and  N1_3 
REMARK    2  A    between atoms: C2_2  and  C24_33 
REMARK       I    between atoms: N1_3  and  C3_4 
REMARK    3  A    between atoms: C3_4  and  C4_6 
REMARK    4  A    between atoms: C4_6  and  C5_7 
REMARK    5  A    between atoms: C10_12  and  C12_14 
REMARK    6  A    between atoms: C12_14  and  O2_15 
REMARK    7  A    between atoms: C13_16  and  O3_17 
REMARK    8  A    between atoms: C18_23  and  C19_24 
ROOT
HETATM    1  C5  UNL     1      -1.469  50.635 -20.758  1.00  0.00     0.054 C 
HETATM    2  C6  UNL     1      -1.134  50.340 -19.313  1.00  0.00     0.028 A 
HETATM    3  C7  UNL     1      -1.858  49.472 -18.518  1.00  0.00     0.008 A 
HETATM    4  C8  UNL     1      -3.085  48.722 -18.944  1.00  0.00     0.054 C 
HETATM    5  C9  UNL     1      -3.666  49.444 -20.191  1.00  0.00     0.012 C 
HETATM    6  C10 UNL     1      -5.087  49.012 -20.700  1.00  0.00     0.008 C 
HETATM    7  C11 UNL     1      -6.084  48.985 -19.509  1.00  0.00     0.020 C 
HETATM    8  C13 UNL     1      -5.592  50.123 -21.689  1.00  0.00     0.128 C 
HETATM    9  C14 UNL     1      -4.486  50.942 -22.374  1.00  0.00     0.033 C 
HETATM   10  C15 UNL     1      -3.221  50.133 -22.630  1.00  0.00     0.013 C 
HETATM   11  C16 UNL     1      -2.555  49.602 -21.326  1.00  0.00    -0.030 C 
HETATM   12  C17 UNL     1      -1.868  48.263 -21.689  1.00  0.00     0.016 C 
HETATM   13  S1  UNL     1      -1.177  49.389 -16.966  1.00  0.00    -0.074 SA
HETATM   14  C18 UNL     1       0.005  50.571 -17.423  1.00  0.00     0.086 A 
HETATM   15  N3  UNL     1      -0.106  51.000 -18.670  1.00  0.00    -0.352 N 
ATOM     16  H3  UNL     1       0.483  51.717 -19.095  1.00  0.00     0.166 HD
ENDROOT
BRANCH   1  17
HETATM   17  C4  UNL     1      -0.217  50.908 -21.615  1.00  0.00     0.114 C 
BRANCH  17  18
HETATM   18  C3  UNL     1      -0.276  52.029 -22.644  1.00  0.00     0.218 C 
HETATM   19  N1  UNL     1      -0.802  51.602 -23.847  1.00  0.00    -0.353 N 
HETATM   20  H5  UNL     1      -1.204  50.677 -23.916  1.00  0.00     0.163 HD
HETATM   21  O1  UNL     1       0.111  53.178 -22.467  1.00  0.00    -0.274 OA
BRANCH  19  22
HETATM   22  C2  UNL     1      -0.952  52.495 -24.983  1.00  0.00     0.113 C 
HETATM   23  C1  UNL     1      -2.373  52.437 -25.547  1.00  0.00     0.037 C 
BRANCH  22  24
HETATM   24  C24 UNL     1       0.130  52.182 -26.004  1.00  0.00    -0.036 A 
HETATM   25  C25 UNL     1       1.420  51.850 -25.552  1.00  0.00     0.009 A 
HETATM   26  C26 UNL     1       2.435  51.530 -26.456  1.00  0.00     0.001 A 
HETATM   27  C27 UNL     1       2.172  51.523 -27.824  1.00  0.00     0.000 A 
HETATM   28  C28 UNL     1       0.897  51.836 -28.289  1.00  0.00     0.001 A 
HETATM   29  C29 UNL     1      -0.121  52.158 -27.385  1.00  0.00     0.009 A 
ENDBRANCH  22  24
ENDBRANCH  19  22
ENDBRANCH  17  18
ENDBRANCH   1  17
BRANCH  14  30
HETATM   30  C19 UNL     1       1.026  51.061 -16.485  1.00  0.00     0.013 A 
HETATM   31  C20 UNL     1       1.375  50.429 -15.284  1.00  0.00     0.017 A 
HETATM   32  C21 UNL     1       2.351  50.983 -14.454  1.00  0.00     0.018 A 
HETATM   33  C22 UNL     1       2.959  52.163 -14.847  1.00  0.00     0.087 A 
HETATM   34  N2  UNL     1       2.660  52.810 -15.990  1.00  0.00    -0.374 N 
HETATM   35  C23 UNL     1       1.707  52.243 -16.777  1.00  0.00     0.101 A 
ATOM     36  H2  UNL     1       3.123  53.680 -16.252  1.00  0.00     0.164 HD
ENDBRANCH  14  30
BRANCH   6  37
HETATM   37  C12 UNL     1      -5.149  47.613 -21.353  1.00  0.00     0.176 C 
BRANCH  37  38
HETATM   38  O2  UNL     1      -5.012  47.696 -22.764  1.00  0.00    -0.400 OA
HETATM   39  H17 UNL     1      -5.099  46.792 -23.112  1.00  0.00     0.209 HD
ENDBRANCH  37  38
ENDBRANCH   6  37
BRANCH   8  40
HETATM   40  O3  UNL     1      -6.434  49.574 -22.701  1.00  0.00    -0.395 OA
HETATM   41  H19 UNL     1      -7.300  49.389 -22.295  1.00  0.00     0.210 HD
ENDBRANCH   8  40
TORSDOF 8
ENDMDL
MODEL 4
REMARK minimizedAffinity -8.3768549
REMARK CNNscore 0.370114505
REMARK CNNaffinity 6.34297895
REMARK  8 active torsions:
REMARK  status: ('A' for Active; 'I' for Inactive)
REMARK    1  A    between atoms: C2_2  and  N1_3 
REMARK    2  A    between atoms: C2_2  and  C24_33 
REMARK       I    between atoms: N1_3  and  C3_4 
REMARK    3  A    between atoms: C3_4  and  C4_6 
REMARK    4  A    between atoms: C4_6  and  C5_7 
REMARK    5  A    between atoms: C10_12  and  C12_14 
REMARK    6  A    between atoms: C12_14  and  O2_15 
REMARK    7  A    between atoms: C13_16  and  O3_17 
REMARK    8  A    between atoms: C18_23  and  C19_24 
ROOT
HETATM    1  C5  UNL     1      -7.689  47.146 -28.710  1.00  0.00     0.054 C 
HETATM    2  C6  UNL     1      -6.420  47.691 -28.091  1.00  0.00     0.028 A 
HETATM    3  C7  UNL     1      -5.317  48.086 -28.822  1.00  0.00     0.008 A 
HETATM    4  C8  UNL     1      -5.192  48.012 -30.315  1.00  0.00     0.054 C 
HETATM    5  C9  UNL     1      -6.249  46.993 -30.824  1.00  0.00     0.012 C 
HETATM    6  C10 UNL     1      -6.178  46.541 -32.325  1.00  0.00     0.008 C 
HETATM    7  C11 UNL     1      -4.725  46.117 -32.677  1.00  0.00     0.020 C 
HETATM    8  C13 UNL     1      -7.073  45.259 -32.476  1.00  0.00     0.128 C 
HETATM    9  C14 UNL     1      -8.199  45.121 -31.438  1.00  0.00     0.033 C 
HETATM   10  C15 UNL     1      -8.762  46.464 -30.991  1.00  0.00     0.013 C 
HETATM   11  C16 UNL     1      -7.706  47.374 -30.296  1.00  0.00    -0.030 C 
HETATM   12  C17 UNL     1      -8.100  48.837 -30.613  1.00  0.00     0.016 C 
HETATM   13  S1  UNL     1      -4.095  48.650 -27.788  1.00  0.00    -0.074 SA
HETATM   14  C18 UNL     1      -5.084  48.268 -26.417  1.00  0.00     0.086 A 
HETATM   15  N3  UNL     1      -6.263  47.749 -26.721  1.00  0.00    -0.352 N 
ATOM     16  H3  UNL     1      -6.956  47.437 -26.040  1.00  0.00     0.166 HD
ENDROOT
BRANCH   1  17
HETATM   17  C4  UNL     1      -8.951  47.530 -27.912  1.00  0.00     0.114 C 
BRANCH  17  18
HETATM   18  C3  UNL     1     -10.058  46.494 -27.770  1.00  0.00     0.218 C 
HETATM   19  N1  UNL     1     -11.272  47.072 -27.455  1.00  0.00    -0.353 N 
HETATM   20  H5  UNL     1     -11.365  48.079 -27.470  1.00  0.00     0.163 HD
HETATM   21  O1  UNL     1      -9.919  45.282 -27.889  1.00  0.00    -0.274 OA
BRANCH  19  22
HETATM   22  C2  UNL     1     -12.476  46.282 -27.263  1.00  0.00     0.113 C 
HETATM   23  C1  UNL     1     -13.484  46.530 -28.387  1.00  0.00     0.037 C 
BRANCH  22  24
HETATM   24  C24 UNL     1     -13.025  46.548 -25.872  1.00  0.00    -0.036 A 
HETATM   25  C25 UNL     1     -14.403  46.789 -25.715  1.00  0.00     0.009 A 
HETATM   26  C26 UNL     1     -14.951  47.010 -24.450  1.00  0.00     0.001 A 
HETATM   27  C27 UNL     1     -14.135  46.981 -23.322  1.00  0.00     0.000 A 
HETATM   28  C28 UNL     1     -12.772  46.730 -23.457  1.00  0.00     0.001 A 
HETATM   29  C29 UNL     1     -12.219  46.509 -24.722  1.00  0.00     0.009 A 
ENDBRANCH  22  24
ENDBRANCH  19  22
ENDBRANCH  17  18
ENDBRANCH   1  17
BRANCH  14  30
HETATM   30  C19 UNL     1      -4.626  48.489 -25.037  1.00  0.00     0.013 A 
HETATM   31  C20 UNL     1      -3.285  48.597 -24.648  1.00  0.00     0.017 A 
HETATM   32  C21 UNL     1      -2.954  48.794 -23.306  1.00  0.00     0.018 A 
HETATM   33  C22 UNL     1      -3.978  48.880 -22.379  1.00  0.00     0.087 A 
HETATM   34  N2  UNL     1      -5.283  48.783 -22.700  1.00  0.00    -0.374 N 
HETATM   35  C23 UNL     1      -5.571  48.594 -24.015  1.00  0.00     0.101 A 
ATOM     36  H2  UNL     1      -6.017  48.848 -21.994  1.00  0.00     0.164 HD
ENDBRANCH  14  30
BRANCH   6  37
HETATM   37  C12 UNL     1      -6.577  47.624 -33.353  1.00  0.00     0.176 C 
BRANCH  37  38
HETATM   38  O2  UNL     1      -5.823  47.500 -34.550  1.00  0.00    -0.400 OA
HETATM   39  H17 UNL     1      -6.093  48.230 -35.133  1.00  0.00     0.209 HD
ENDBRANCH  37  38
ENDBRANCH   6  37
BRANCH   8  40
HETATM   40  O3  UNL     1      -7.653  45.179 -33.777  1.00  0.00    -0.395 OA
HETATM   41  H19 UNL     1      -6.953  44.895 -34.393  1.00  0.00     0.210 HD
ENDBRANCH   8  40
TORSDOF 8
ENDMDL
MODEL 5
REMARK minimizedAffinity -8.13230991
REMARK CNNscore 0.36716935
REMARK CNNaffinity 6.40999603
REMARK  8 active torsions:
REMARK  status: ('A' for Active; 'I' for Inactive)
REMARK    1  A    between atoms: C2_2  and  N1_3 
REMARK    2  A    between atoms: C2_2  and  C24_33 
REMARK       I    between atoms: N1_3  and  C3_4 
REMARK    3  A    between atoms: C3_4  and  C4_6 
REMARK    4  A    between atoms: C4_6  and  C5_7 
REMARK    5  A    between atoms: C10_12  and  C12_14 
REMARK    6  A    between atoms: C12_14  and  O2_15 
REMARK    7  A    between atoms: C13_16  and  O3_17 
REMARK    8  A    between atoms: C18_23  and  C19_24 
ROOT
HETATM    1  C5  UNL     1      -7.640  47.110 -28.700  1.00  0.00     0.054 C 
HETATM    2  C6  UNL     1      -6.374  47.661 -28.083  1.00  0.00     0.028 A 
HETATM    3  C7  UNL     1      -5.277  48.070 -28.816  1.00  0.00     0.008 A 
HETATM    4  C8  UNL     1      -5.157  48.008 -30.310  1.00  0.00     0.054 C 
HETATM    5  C9  UNL     1      -6.208  46.984 -30.821  1.00  0.00     0.012 C 
HETATM    6  C10 UNL     1      -6.140  46.543 -32.326  1.00  0.00     0.008 C 
HETATM    7  C11 UNL     1      -4.685  46.133 -32.686  1.00  0.00     0.020 C 
HETATM    8  C13 UNL     1      -7.024  45.254 -32.482  1.00  0.00     0.128 C 
HETATM    9  C14 UNL     1      -8.145  45.099 -31.441  1.00  0.00     0.033 C 
HETATM   10  C15 UNL     1      -8.717  46.435 -30.982  1.00  0.00     0.013 C 
HETATM   11  C16 UNL     1      -7.666  47.348 -30.285  1.00  0.00    -0.030 C 
HETATM   12  C17 UNL     1      -8.074  48.811 -30.590  1.00  0.00     0.016 C 
HETATM   13  S1  UNL     1      -4.056  48.637 -27.782  1.00  0.00    -0.074 SA
HETATM   14  C18 UNL     1      -5.036  48.237 -26.410  1.00  0.00     0.086 A 
HETATM   15  N3  UNL     1      -6.211  47.711 -26.713  1.00  0.00    -0.352 N 
ATOM     16  H3  UNL     1      -6.899  47.387 -26.031  1.00  0.00     0.166 HD
ENDROOT
BRANCH   1  17
HETATM   17  C4  UNL     1      -8.903  47.477 -27.895  1.00  0.00     0.114 C 
BRANCH  17  18
HETATM   18  C3  UNL     1      -9.605  46.377 -27.111  1.00  0.00     0.218 C 
HETATM   19  N1  UNL     1     -10.270  45.495 -27.938  1.00  0.00    -0.353 N 
HETATM   20  H5  UNL     1     -10.145  45.557 -28.940  1.00  0.00     0.163 HD
HETATM   21  O1  UNL     1      -9.620  46.272 -25.890  1.00  0.00    -0.274 OA
BRANCH  19  22
HETATM   22  C2  UNL     1     -11.019  44.364 -27.417  1.00  0.00     0.113 C 
HETATM   23  C1  UNL     1     -10.406  43.038 -27.873  1.00  0.00     0.037 C 
BRANCH  22  24
HETATM   24  C24 UNL     1     -12.483  44.526 -27.788  1.00  0.00    -0.036 A 
HETATM   25  C25 UNL     1     -12.922  45.755 -28.314  1.00  0.00     0.009 A 
HETATM   26  C26 UNL     1     -14.254  45.936 -28.693  1.00  0.00     0.001 A 
HETATM   27  C27 UNL     1     -15.164  44.889 -28.565  1.00  0.00     0.000 A 
HETATM   28  C28 UNL     1     -14.743  43.661 -28.058  1.00  0.00     0.001 A 
HETATM   29  C29 UNL     1     -13.410  43.477 -27.678  1.00  0.00     0.009 A 
ENDBRANCH  22  24
ENDBRANCH  19  22
ENDBRANCH  17  18
ENDBRANCH   1  17
BRANCH  14  30
HETATM   30  C19 UNL     1      -4.575  48.452 -25.030  1.00  0.00     0.013 A 
HETATM   31  C20 UNL     1      -5.365  48.272 -23.887  1.00  0.00     0.017 A 
HETATM   32  C21 UNL     1      -4.834  48.516 -22.618  1.00  0.00     0.018 A 
HETATM   33  C22 UNL     1      -3.519  48.936 -22.523  1.00  0.00     0.087 A 
HETATM   34  N2  UNL     1      -2.717  49.124 -23.590  1.00  0.00    -0.374 N 
HETATM   35  C23 UNL     1      -3.264  48.876 -24.809  1.00  0.00     0.101 A 
ATOM     36  H2  UNL     1      -1.752  49.437 -23.488  1.00  0.00     0.164 HD
ENDBRANCH  14  30
BRANCH   6  37
HETATM   37  C12 UNL     1      -6.551  47.630 -33.345  1.00  0.00     0.176 C 
BRANCH  37  38
HETATM   38  O2  UNL     1      -5.796  47.524 -34.543  1.00  0.00    -0.400 OA
HETATM   39  H17 UNL     1      -6.076  48.256 -35.120  1.00  0.00     0.209 HD
ENDBRANCH  37  38
ENDBRANCH   6  37
BRANCH   8  40
HETATM   40  O3  UNL     1      -7.608  45.179 -33.782  1.00  0.00    -0.395 OA
HETATM   41  H19 UNL     1      -6.909  44.905 -34.402  1.00  0.00     0.210 HD
ENDBRANCH   8  40
TORSDOF 8
ENDMDL
MODEL 6
REMARK minimizedAffinity -10.0294037
REMARK CNNscore 0.310935587
REMARK CNNaffinity 7.48784637
REMARK  8 active torsions:
REMARK  status: ('A' for Active; 'I' for Inactive)
REMARK    1  A    between atoms: C2_2  and  N1_3 
REMARK    2  A    between atoms: C2_2  and  C24_33 
REMARK       I    between atoms: N1_3  and  C3_4 
REMARK    3  A    between atoms: C3_4  and  C4_6 
REMARK    4  A    between atoms: C4_6  and  C5_7 
REMARK    5  A    between atoms: C10_12  and  C12_14 
REMARK    6  A    between atoms: C12_14  and  O2_15 
REMARK    7  A    between atoms: C13_16  and  O3_17 
REMARK    8  A    between atoms: C18_23  and  C19_24 
ROOT
HETATM    1  C5  UNL     1      -1.990  50.785 -22.846  1.00  0.00     0.054 C 
HETATM    2  C6  UNL     1      -1.029  51.278 -21.786  1.00  0.00     0.028 A 
HETATM    3  C7  UNL     1      -0.016  52.185 -22.030  1.00  0.00     0.008 A 
HETATM    4  C8  UNL     1       0.305  52.791 -23.364  1.00  0.00     0.054 C 
HETATM    5  C9  UNL     1      -0.326  51.884 -24.456  1.00  0.00     0.012 C 
HETATM    6  C10 UNL     1       0.058  52.151 -25.954  1.00  0.00     0.008 C 
HETATM    7  C11 UNL     1       1.603  52.256 -26.087  1.00  0.00     0.020 C 
HETATM    8  C13 UNL     1      -0.384  50.895 -26.787  1.00  0.00     0.128 C 
HETATM    9  C14 UNL     1      -1.533  50.076 -26.177  1.00  0.00     0.033 C 
HETATM   10  C15 UNL     1      -2.524  50.932 -25.398  1.00  0.00     0.013 C 
HETATM   11  C16 UNL     1      -1.883  51.664 -24.182  1.00  0.00    -0.030 C 
HETATM   12  C17 UNL     1      -2.658  52.992 -24.001  1.00  0.00     0.016 C 
HETATM   13  S1  UNL     1       0.845  52.505 -20.603  1.00  0.00    -0.074 SA
HETATM   14  C18 UNL     1      -0.142  51.359 -19.755  1.00  0.00     0.086 A 
HETATM   15  N3  UNL     1      -1.063  50.774 -20.502  1.00  0.00    -0.352 N 
ATOM     16  H3  UNL     1      -1.707  50.052 -20.175  1.00  0.00     0.166 HD
ENDROOT
BRANCH   1  17
HETATM   17  C4  UNL     1      -3.396  50.495 -22.284  1.00  0.00     0.114 C 
BRANCH  17  18
HETATM   18  C3  UNL     1      -4.077  49.191 -22.678  1.00  0.00     0.218 C 
HETATM   19  N1  UNL     1      -5.348  49.399 -23.174  1.00  0.00    -0.353 N 
HETATM   20  H5  UNL     1      -5.666  50.342 -23.354  1.00  0.00     0.163 HD
HETATM   21  O1  UNL     1      -3.593  48.072 -22.557  1.00  0.00    -0.274 OA
BRANCH  19  22
HETATM   22  C2  UNL     1      -6.195  48.302 -23.611  1.00  0.00     0.113 C 
HETATM   23  C1  UNL     1      -5.955  47.050 -22.766  1.00  0.00     0.037 C 
BRANCH  22  24
HETATM   24  C24 UNL     1      -5.997  48.088 -25.102  1.00  0.00    -0.036 A 
HETATM   25  C25 UNL     1      -7.074  47.614 -25.873  1.00  0.00     0.009 A 
HETATM   26  C26 UNL     1      -6.941  47.430 -27.251  1.00  0.00     0.001 A 
HETATM   27  C27 UNL     1      -5.735  47.728 -27.881  1.00  0.00     0.000 A 
HETATM   28  C28 UNL     1      -4.662  48.212 -27.135  1.00  0.00     0.001 A 
HETATM   29  C29 UNL     1      -4.792  48.397 -25.755  1.00  0.00     0.009 A 
ENDBRANCH  22  24
ENDBRANCH  19  22
ENDBRANCH  17  18
ENDBRANCH   1  17
BRANCH  14  30
HETATM   30  C19 UNL     1       0.058  51.060 -18.329  1.00  0.00     0.013 A 
HETATM   31  C20 UNL     1      -0.327  49.867 -17.702  1.00  0.00     0.017 A 
HETATM   32  C21 UNL     1      -0.104  49.686 -16.336  1.00  0.00     0.018 A 
HETATM   33  C22 UNL     1       0.503  50.707 -15.625  1.00  0.00     0.087 A 
HETATM   34  N2  UNL     1       0.892  51.872 -16.179  1.00  0.00    -0.374 N 
HETATM   35  C23 UNL     1       0.662  52.016 -17.511  1.00  0.00     0.101 A 
ATOM     36  H2  UNL     1       1.334  52.608 -15.628  1.00  0.00     0.164 HD
ENDBRANCH  14  30
BRANCH   6  37
HETATM   37  C12 UNL     1      -0.520  53.452 -26.554  1.00  0.00     0.176 C 
BRANCH  37  38
HETATM   38  O2  UNL     1       0.277  54.576 -26.212  1.00  0.00    -0.400 OA
HETATM   39  H17 UNL     1      -0.161  55.360 -26.585  1.00  0.00     0.209 HD
ENDBRANCH  37  38
ENDBRANCH   6  37
BRANCH   8  40
HETATM   40  O3  UNL     1      -0.751  51.257 -28.118  1.00  0.00    -0.395 OA
HETATM   41  H19 UNL     1       0.071  51.430 -28.612  1.00  0.00     0.210 HD
ENDBRANCH   8  40
TORSDOF 8
ENDMDL
MODEL 7
REMARK minimizedAffinity -8.71335602
REMARK CNNscore 0.291586339
REMARK CNNaffinity 7.11033106
REMARK  8 active torsions:
REMARK  status: ('A' for Active; 'I' for Inactive)
REMARK    1  A    between atoms: C2_2  and  N1_3 
REMARK    2  A    between atoms: C2_2  and  C24_33 
REMARK       I    between atoms: N1_3  and  C3_4 
REMARK    3  A    between atoms: C3_4  and  C4_6 
REMARK    4  A    between atoms: C4_6  and  C5_7 
REMARK    5  A    between atoms: C10_12  and  C12_14 
REMARK    6  A    between atoms: C12_14  and  O2_15 
REMARK    7  A    between atoms: C13_16  and  O3_17 
REMARK    8  A    between atoms: C18_23  and  C19_24 
ROOT
HETATM    1  C5  UNL     1      -4.706  50.872 -22.800  1.00  0.00     0.054 C 
HETATM    2  C6  UNL     1      -3.245  50.841 -22.411  1.00  0.00     0.028 A 
HETATM    3  C7  UNL     1      -2.605  49.721 -21.917  1.00  0.00     0.008 A 
HETATM    4  C8  UNL     1      -3.251  48.391 -21.665  1.00  0.00     0.054 C 
HETATM    5  C9  UNL     1      -4.784  48.626 -21.570  1.00  0.00     0.012 C 
HETATM    6  C10 UNL     1      -5.685  47.441 -21.072  1.00  0.00     0.008 C 
HETATM    7  C11 UNL     1      -5.091  46.845 -19.765  1.00  0.00     0.020 C 
HETATM    8  C13 UNL     1      -7.089  48.038 -20.700  1.00  0.00     0.128 C 
HETATM    9  C14 UNL     1      -7.458  49.343 -21.423  1.00  0.00     0.033 C 
HETATM   10  C15 UNL     1      -6.880  49.426 -22.830  1.00  0.00     0.013 C 
HETATM   11  C16 UNL     1      -5.323  49.395 -22.860  1.00  0.00    -0.030 C 
HETATM   12  C17 UNL     1      -4.916  48.708 -24.187  1.00  0.00     0.016 C 
HETATM   13  S1  UNL     1      -0.972  50.064 -21.605  1.00  0.00    -0.074 SA
HETATM   14  C18 UNL     1      -1.230  51.711 -22.082  1.00  0.00     0.086 A 
HETATM   15  N3  UNL     1      -2.470  51.983 -22.454  1.00  0.00    -0.352 N 
ATOM     16  H3  UNL     1      -2.806  52.906 -22.733  1.00  0.00     0.166 HD
ENDROOT
BRANCH   1  17
HETATM   17  C4  UNL     1      -4.986  51.819 -23.984  1.00  0.00     0.114 C 
BRANCH  17  18
HETATM   18  C3  UNL     1      -4.034  51.790 -25.173  1.00  0.00     0.218 C 
HETATM   19  N1  UNL     1      -4.116  50.602 -25.872  1.00  0.00    -0.353 N 
HETATM   20  H5  UNL     1      -4.842  49.936 -25.644  1.00  0.00     0.163 HD
HETATM   21  O1  UNL     1      -3.257  52.684 -25.485  1.00  0.00    -0.274 OA
BRANCH  19  22
HETATM   22  C2  UNL     1      -3.298  50.339 -27.044  1.00  0.00     0.113 C 
HETATM   23  C1  UNL     1      -3.484  48.903 -27.537  1.00  0.00     0.037 C 
BRANCH  22  24
HETATM   24  C24 UNL     1      -1.856  50.702 -26.732  1.00  0.00    -0.036 A 
HETATM   25  C25 UNL     1      -1.128  51.468 -27.661  1.00  0.00     0.009 A 
HETATM   26  C26 UNL     1       0.191  51.846 -27.400  1.00  0.00     0.001 A 
HETATM   27  C27 UNL     1       0.797  51.477 -26.201  1.00  0.00     0.000 A 
HETATM   28  C28 UNL     1       0.087  50.731 -25.264  1.00  0.00     0.001 A 
HETATM   29  C29 UNL     1      -1.234  50.350 -25.523  1.00  0.00     0.009 A 
ENDBRANCH  22  24
ENDBRANCH  19  22
ENDBRANCH  17  18
ENDBRANCH   1  17
BRANCH  14  30
HETATM   30  C19 UNL     1      -0.154  52.713 -22.048  1.00  0.00     0.013 A 
HETATM   31  C20 UNL     1       0.351  53.379 -23.171  1.00  0.00     0.017 A 
HETATM   32  C21 UNL     1       1.387  54.307 -23.033  1.00  0.00     0.018 A 
HETATM   33  C22 UNL     1       1.893  54.547 -21.768  1.00  0.00     0.087 A 
HETATM   34  N2  UNL     1       1.443  53.933 -20.656  1.00  0.00    -0.374 N 
HETATM   35  C23 UNL     1       0.434  53.038 -20.825  1.00  0.00     0.101 A 
ATOM     36  H2  UNL     1       1.839  54.128 -19.737  1.00  0.00     0.164 HD
ENDBRANCH  14  30
BRANCH   6  37
HETATM   37  C12 UNL     1      -5.823  46.264 -22.064  1.00  0.00     0.176 C 
BRANCH  37  38
HETATM   38  O2  UNL     1      -6.988  46.400 -22.864  1.00  0.00    -0.400 OA
HETATM   39  H17 UNL     1      -7.035  45.612 -23.434  1.00  0.00     0.209 HD
ENDBRANCH  37  38
ENDBRANCH   6  37
BRANCH   8  40
HETATM   40  O3  UNL     1      -8.133  47.091 -20.926  1.00  0.00    -0.395 OA
HETATM   41  H19 UNL     1      -8.098  46.439 -20.203  1.00  0.00     0.210 HD
ENDBRANCH   8  40
TORSDOF 8
ENDMDL
MODEL 8
REMARK minimizedAffinity -9.44799137
REMARK CNNscore 0.252274543
REMARK CNNaffinity 7.23249626
REMARK  8 active torsions:
REMARK  status: ('A' for Active; 'I' for Inactive)
REMARK    1  A    between atoms: C2_2  and  N1_3 
REMARK    2  A    between atoms: C2_2  and  C24_33 
REMARK       I    between atoms: N1_3  and  C3_4 
REMARK    3  A    between atoms: C3_4  and  C4_6 
REMARK    4  A    between atoms: C4_6  and  C5_7 
REMARK    5  A    between atoms: C10_12  and  C12_14 
REMARK    6  A    between atoms: C12_14  and  O2_15 
REMARK    7  A    between atoms: C13_16  and  O3_17 
REMARK    8  A    between atoms: C18_23  and  C19_24 
ROOT
HETATM    1  C5  UNL     1      -3.028  50.093 -22.317  1.00  0.00     0.054 C 
HETATM    2  C6  UNL     1      -1.864  50.839 -21.704  1.00  0.00     0.028 A 
HETATM    3  C7  UNL     1      -1.010  51.654 -22.423  1.00  0.00     0.008 A 
HETATM    4  C8  UNL     1      -1.082  51.901 -23.900  1.00  0.00     0.054 C 
HETATM    5  C9  UNL     1      -1.910  50.745 -24.528  1.00  0.00     0.012 C 
HETATM    6  C10 UNL     1      -1.940  50.622 -26.093  1.00  0.00     0.008 C 
HETATM    7  C11 UNL     1      -0.492  50.690 -26.652  1.00  0.00     0.020 C 
HETATM    8  C13 UNL     1      -2.496  49.195 -26.445  1.00  0.00     0.128 C 
HETATM    9  C14 UNL     1      -3.392  48.559 -25.370  1.00  0.00     0.033 C 
HETATM   10  C15 UNL     1      -4.206  49.585 -24.592  1.00  0.00     0.013 C 
HETATM   11  C16 UNL     1      -3.326  50.602 -23.807  1.00  0.00    -0.030 C 
HETATM   12  C17 UNL     1      -4.117  51.933 -23.759  1.00  0.00     0.016 C 
HETATM   13  S1  UNL     1       0.164  52.326 -21.398  1.00  0.00    -0.074 SA
HETATM   14  C18 UNL     1      -0.493  51.435 -20.065  1.00  0.00     0.086 A 
HETATM   15  N3  UNL     1      -1.534  50.678 -20.373  1.00  0.00    -0.352 N 
ATOM     16  H3  UNL     1      -2.023  50.064 -19.721  1.00  0.00     0.166 HD
ENDROOT
BRANCH   1  17
HETATM   17  C4  UNL     1      -4.221  49.956 -21.350  1.00  0.00     0.114 C 
BRANCH  17  18
HETATM   18  C3  UNL     1      -5.063  48.688 -21.417  1.00  0.00     0.218 C 
HETATM   19  N1  UNL     1      -6.406  48.966 -21.581  1.00  0.00    -0.353 N 
HETATM   20  H5  UNL     1      -6.700  49.916 -21.766  1.00  0.00     0.163 HD
HETATM   21  O1  UNL     1      -4.636  47.544 -21.314  1.00  0.00    -0.274 OA
BRANCH  19  22
HETATM   22  C2  UNL     1      -7.406  47.916 -21.666  1.00  0.00     0.113 C 
HETATM   23  C1  UNL     1      -8.054  47.881 -23.051  1.00  0.00     0.037 C 
BRANCH  22  24
HETATM   24  C24 UNL     1      -8.396  48.082 -20.526  1.00  0.00    -0.036 A 
HETATM   25  C25 UNL     1      -9.657  47.466 -20.620  1.00  0.00     0.009 A 
HETATM   26  C26 UNL     1     -10.584  47.571 -19.582  1.00  0.00     0.001 A 
HETATM   27  C27 UNL     1     -10.262  48.282 -18.428  1.00  0.00     0.000 A 
HETATM   28  C28 UNL     1      -9.012  48.887 -18.312  1.00  0.00     0.001 A 
HETATM   29  C29 UNL     1      -8.081  48.784 -19.350  1.00  0.00     0.009 A 
ENDBRANCH  22  24
ENDBRANCH  19  22
ENDBRANCH  17  18
ENDBRANCH   1  17
BRANCH  14  30
HETATM   30  C19 UNL     1       0.084  51.508 -18.714  1.00  0.00     0.013 A 
HETATM   31  C20 UNL     1      -0.012  50.497 -17.749  1.00  0.00     0.017 A 
HETATM   32  C21 UNL     1       0.562  50.671 -16.488  1.00  0.00     0.018 A 
HETATM   33  C22 UNL     1       1.222  51.857 -16.221  1.00  0.00     0.087 A 
HETATM   34  N2  UNL     1       1.343  52.860 -17.113  1.00  0.00    -0.374 N 
HETATM   35  C23 UNL     1       0.775  52.658 -18.331  1.00  0.00     0.101 A 
ATOM     36  H2  UNL     1       1.833  53.725 -16.886  1.00  0.00     0.164 HD
ENDBRANCH  14  30
BRANCH   6  37
HETATM   37  C12 UNL     1      -2.740  51.727 -26.819  1.00  0.00     0.176 C 
BRANCH  37  38
HETATM   38  O2  UNL     1      -2.443  51.749 -28.208  1.00  0.00    -0.400 OA
HETATM   39  H17 UNL     1      -2.945  52.487 -28.595  1.00  0.00     0.209 HD
ENDBRANCH  37  38
ENDBRANCH   6  37
BRANCH   8  40
HETATM   40  O3  UNL     1      -3.214  49.207 -27.677  1.00  0.00    -0.395 OA
HETATM   41  H19 UNL     1      -2.559  49.248 -28.398  1.00  0.00     0.210 HD
ENDBRANCH   8  40
TORSDOF 8
ENDMDL
MODEL 9
REMARK minimizedAffinity -9.02407265
REMARK CNNscore 0.244920671
REMARK CNNaffinity 7.22369957
REMARK  8 active torsions:
REMARK  status: ('A' for Active; 'I' for Inactive)
REMARK    1  A    between atoms: C2_2  and  N1_3 
REMARK    2  A    between atoms: C2_2  and  C24_33 
REMARK       I    between atoms: N1_3  and  C3_4 
REMARK    3  A    between atoms: C3_4  and  C4_6 
REMARK    4  A    between atoms: C4_6  and  C5_7 
REMARK    5  A    between atoms: C10_12  and  C12_14 
REMARK    6  A    between atoms: C12_14  and  O2_15 
REMARK    7  A    between atoms: C13_16  and  O3_17 
REMARK    8  A    between atoms: C18_23  and  C19_24 
ROOT
HETATM    1  C5  UNL     1      -2.830  50.539 -22.344  1.00  0.00     0.054 C 
HETATM    2  C6  UNL     1      -1.616  51.136 -21.668  1.00  0.00     0.028 A 
HETATM    3  C7  UNL     1      -0.627  51.830 -22.338  1.00  0.00     0.008 A 
HETATM    4  C8  UNL     1      -0.586  52.073 -23.818  1.00  0.00     0.054 C 
HETATM    5  C9  UNL     1      -1.517  51.027 -24.490  1.00  0.00     0.012 C 
HETATM    6  C10 UNL     1      -1.477  50.897 -26.054  1.00  0.00     0.008 C 
HETATM    7  C11 UNL     1      -0.003  50.776 -26.532  1.00  0.00     0.020 C 
HETATM    8  C13 UNL     1      -2.189  49.549 -26.435  1.00  0.00     0.128 C 
HETATM    9  C14 UNL     1      -3.217  49.040 -25.412  1.00  0.00     0.033 C 
HETATM   10  C15 UNL     1      -3.936  50.167 -24.681  1.00  0.00     0.013 C 
HETATM   11  C16 UNL     1      -2.978  51.070 -23.849  1.00  0.00    -0.030 C 
HETATM   12  C17 UNL     1      -3.595  52.491 -23.846  1.00  0.00     0.016 C 
HETATM   13  S1  UNL     1       0.564  52.357 -21.250  1.00  0.00    -0.074 SA
HETATM   14  C18 UNL     1      -0.273  51.565 -19.955  1.00  0.00     0.086 A 
HETATM   15  N3  UNL     1      -1.383  50.945 -20.321  1.00  0.00    -0.352 N 
ATOM     16  H3  UNL     1      -1.981  50.402 -19.697  1.00  0.00     0.166 HD
ENDROOT
BRANCH   1  17
HETATM   17  C4  UNL     1      -4.082  50.561 -21.445  1.00  0.00     0.114 C 
BRANCH  17  18
HETATM   18  C3  UNL     1      -4.841  49.258 -21.231  1.00  0.00     0.218 C 
HETATM   19  N1  UNL     1      -4.148  48.169 -21.721  1.00  0.00    -0.353 N 
HETATM   20  H5  UNL     1      -3.197  48.286 -22.045  1.00  0.00     0.163 HD
HETATM   21  O1  UNL     1      -5.946  49.155 -20.712  1.00  0.00    -0.274 OA
BRANCH  19  22
HETATM   22  C2  UNL     1      -4.676  46.818 -21.636  1.00  0.00     0.113 C 
HETATM   23  C1  UNL     1      -6.194  46.805 -21.821  1.00  0.00     0.037 C 
BRANCH  22  24
HETATM   24  C24 UNL     1      -4.207  46.185 -20.337  1.00  0.00    -0.036 A 
HETATM   25  C25 UNL     1      -3.484  46.967 -19.417  1.00  0.00     0.009 A 
HETATM   26  C26 UNL     1      -3.059  46.431 -18.200  1.00  0.00     0.001 A 
HETATM   27  C27 UNL     1      -3.360  45.110 -17.877  1.00  0.00     0.000 A 
HETATM   28  C28 UNL     1      -4.087  44.325 -18.770  1.00  0.00     0.001 A 
HETATM   29  C29 UNL     1      -4.514  44.859 -19.990  1.00  0.00     0.009 A 
ENDBRANCH  22  24
ENDBRANCH  19  22
ENDBRANCH  17  18
ENDBRANCH   1  17
BRANCH  14  30
HETATM   30  C19 UNL     1       0.233  51.575 -18.574  1.00  0.00     0.013 A 
HETATM   31  C20 UNL     1       0.051  50.539 -17.650  1.00  0.00     0.017 A 
HETATM   32  C21 UNL     1       0.562  50.652 -16.355  1.00  0.00     0.018 A 
HETATM   33  C22 UNL     1       1.248  51.805 -16.015  1.00  0.00     0.087 A 
HETATM   34  N2  UNL     1       1.451  52.830 -16.866  1.00  0.00    -0.374 N 
HETATM   35  C23 UNL     1       0.943  52.687 -18.118  1.00  0.00     0.101 A 
ATOM     36  H2  UNL     1       1.959  53.668 -16.585  1.00  0.00     0.164 HD
ENDBRANCH  14  30
BRANCH   6  37
HETATM   37  C12 UNL     1      -2.088  52.089 -26.825  1.00  0.00     0.176 C 
BRANCH  37  38
HETATM   38  O2  UNL     1      -1.492  52.234 -28.105  1.00  0.00    -0.400 OA
HETATM   39  H17 UNL     1      -1.892  53.020 -28.518  1.00  0.00     0.209 HD
ENDBRANCH  37  38
ENDBRANCH   6  37
BRANCH   8  40
HETATM   40  O3  UNL     1      -2.831  49.642 -27.706  1.00  0.00    -0.395 OA
HETATM   41  H19 UNL     1      -2.138  49.595 -28.389  1.00  0.00     0.210 HD
ENDBRANCH   8  40
TORSDOF 8
ENDMDL
