MODEL 1
REMARK minimizedAffinity -6.0356741
REMARK CNNscore 0.577471793
REMARK CNNaffinity 6.59821892
REMARK  4 active torsions:
REMARK  status: ('A' for Active; 'I' for Inactive)
REMARK    1  A    between atoms: C4_4  and  C5_5 
REMARK    2  A    between atoms: C5_5  and  C6_6 
REMARK    3  A    between atoms: C6_6  and  C7_7 
REMARK    4  A    between atoms: C7_7  and  C9_9 
ROOT
HETATM    1  C9  UNL     1     -13.583 -12.888  28.070  1.00  0.00    -0.002 C 
HETATM    2  C10 UNL     1     -14.565 -13.489  29.120  1.00  0.00     0.007 C 
HETATM    3  C11 UNL     1     -15.266 -12.320  29.810  1.00  0.00     0.015 C 
HETATM    4  C12 UNL     1     -14.218 -11.196  29.773  1.00  0.00    -0.013 C 
HETATM    5  C13 UNL     1     -13.163 -11.511  30.874  1.00  0.00     0.021 C 
HETATM    6  C14 UNL     1     -14.704  -9.780  30.029  1.00  0.00    -0.070 C 
HETATM    7  C15 UNL     1     -15.850  -9.480  30.660  1.00  0.00    -0.022 C 
HETATM    8  C16 UNL     1     -16.317  -8.069  30.820  1.00  0.00     0.034 C 
HETATM    9  C17 UNL     1     -15.201  -7.009  31.032  1.00  0.00     0.013 C 
HETATM   10  C18 UNL     1     -15.662  -5.577  30.582  1.00  0.00     0.018 C 
HETATM   11  C19 UNL     1     -15.999  -5.458  29.084  1.00  0.00     0.023 C 
HETATM   12  C20 UNL     1     -16.926  -5.157  31.374  1.00  0.00     0.023 C 
HETATM   13  C21 UNL     1     -14.549  -4.576  30.922  1.00  0.00     0.135 C 
HETATM   14  O1  UNL     1     -14.782  -3.451  31.387  1.00  0.00    -0.297 OA
HETATM   15  C22 UNL     1     -13.113  -4.971  30.670  1.00  0.00     0.080 C 
HETATM   16  C23 UNL     1     -12.969  -6.279  29.915  1.00  0.00     0.017 C 
HETATM   17  C24 UNL     1     -13.762  -7.459  30.534  1.00  0.00    -0.031 C 
HETATM   18  C25 UNL     1     -12.974  -7.929  31.796  1.00  0.00     0.016 C 
HETATM   19  C26 UNL     1     -13.863  -8.634  29.482  1.00  0.00     0.024 C 
HETATM   20  C27 UNL     1     -12.503  -9.067  28.867  1.00  0.00     0.010 C 
HETATM   21  C28 UNL     1     -12.427 -10.444  28.164  1.00  0.00     0.011 C 
HETATM   22  C29 UNL     1     -13.681 -11.324  28.307  1.00  0.00    -0.029 C 
HETATM   23  C30 UNL     1     -14.706 -10.830  27.228  1.00  0.00     0.016 C 
ENDROOT
BRANCH   1  24
HETATM   24  C7  UNL     1     -12.175 -13.566  28.037  1.00  0.00    -0.014 C 
HETATM   25  C8  UNL     1     -11.753 -14.064  29.430  1.00  0.00     0.010 C 
BRANCH  24  26
HETATM   26  C6  UNL     1     -11.044 -12.682  27.437  1.00  0.00     0.008 C 
BRANCH  26  27
HETATM   27  C5  UNL     1      -9.858 -13.392  26.758  1.00  0.00     0.028 C 
BRANCH  27  28
HETATM   28  C4  UNL     1      -8.973 -12.473  25.963  1.00  0.00    -0.025 C 
HETATM   29  C2  UNL     1      -8.539 -12.614  24.693  1.00  0.00    -0.091 C 
HETATM   30  C1  UNL     1      -8.868 -13.763  23.780  1.00  0.00     0.042 C 
HETATM   31  C3  UNL     1      -7.653 -11.563  24.068  1.00  0.00     0.042 C 
ENDBRANCH  27  28
ENDBRANCH  26  27
ENDBRANCH  24  26
ENDBRANCH   1  24
TORSDOF 4
ENDMDL
MODEL 2
REMARK minimizedAffinity -8.18267441
REMARK CNNscore 0.467538655
REMARK CNNaffinity 6.68754625
REMARK  4 active torsions:
REMARK  status: ('A' for Active; 'I' for Inactive)
REMARK    1  A    between atoms: C4_4  and  C5_5 
REMARK    2  A    between atoms: C5_5  and  C6_6 
REMARK    3  A    between atoms: C6_6  and  C7_7 
REMARK    4  A    between atoms: C7_7  and  C9_9 
ROOT
HETATM    1  C9  UNL     1      -1.692  11.827  18.349  1.00  0.00    -0.002 C 
HETATM    2  C10 UNL     1      -2.562  12.923  17.664  1.00  0.00     0.007 C 
HETATM    3  C11 UNL     1      -3.600  12.207  16.801  1.00  0.00     0.015 C 
HETATM    4  C12 UNL     1      -2.886  10.915  16.373  1.00  0.00    -0.013 C 
HETATM    5  C13 UNL     1      -1.879  11.295  15.248  1.00  0.00     0.021 C 
HETATM    6  C14 UNL     1      -3.747   9.791  15.823  1.00  0.00    -0.070 C 
HETATM    7  C15 UNL     1      -4.980   9.964  15.319  1.00  0.00    -0.022 C 
HETATM    8  C16 UNL     1      -5.814   8.812  14.859  1.00  0.00     0.034 C 
HETATM    9  C17 UNL     1      -5.037   7.638  14.201  1.00  0.00     0.013 C 
HETATM   10  C18 UNL     1      -5.821   6.283  14.314  1.00  0.00     0.018 C 
HETATM   11  C19 UNL     1      -6.054   5.801  15.758  1.00  0.00     0.023 C 
HETATM   12  C20 UNL     1      -7.211   6.419  13.643  1.00  0.00     0.023 C 
HETATM   13  C21 UNL     1      -5.043   5.202  13.549  1.00  0.00     0.135 C 
HETATM   14  O1  UNL     1      -5.601   4.353  12.841  1.00  0.00    -0.297 OA
HETATM   15  C22 UNL     1      -3.538   5.164  13.674  1.00  0.00     0.080 C 
HETATM   16  C23 UNL     1      -2.993   6.117  14.721  1.00  0.00     0.017 C 
HETATM   17  C24 UNL     1      -3.494   7.576  14.573  1.00  0.00    -0.031 C 
HETATM   18  C25 UNL     1      -2.716   8.209  13.378  1.00  0.00     0.016 C 
HETATM   19  C26 UNL     1      -3.197   8.374  15.905  1.00  0.00     0.024 C 
HETATM   20  C27 UNL     1      -1.725   8.280  16.396  1.00  0.00     0.010 C 
HETATM   21  C28 UNL     1      -1.232   9.327  17.423  1.00  0.00     0.011 C 
HETATM   22  C29 UNL     1      -2.217  10.472  17.718  1.00  0.00    -0.029 C 
HETATM   23  C30 UNL     1      -3.245   9.926  18.769  1.00  0.00     0.016 C 
ENDROOT
BRANCH   1  24
HETATM   24  C7  UNL     1      -0.157  12.124  18.345  1.00  0.00    -0.014 C 
HETATM   25  C8  UNL     1       0.603  11.172  17.405  1.00  0.00     0.010 C 
BRANCH  24  26
HETATM   26  C6  UNL     1       0.509  12.106  19.752  1.00  0.00     0.008 C 
BRANCH  26  27
HETATM   27  C5  UNL     1       0.867  10.738  20.363  1.00  0.00     0.028 C 
BRANCH  27  28
HETATM   28  C4  UNL     1       2.195  10.715  21.066  1.00  0.00    -0.025 C 
HETATM   29  C2  UNL     1       2.692   9.772  21.895  1.00  0.00    -0.091 C 
HETATM   30  C1  UNL     1       1.990   8.504  22.295  1.00  0.00     0.042 C 
HETATM   31  C3  UNL     1       4.066   9.935  22.499  1.00  0.00     0.042 C 
ENDBRANCH  27  28
ENDBRANCH  26  27
ENDBRANCH  24  26
ENDBRANCH   1  24
TORSDOF 4
ENDMDL
MODEL 3
REMARK minimizedAffinity -7.2159934
REMARK CNNscore 0.416775465
REMARK CNNaffinity 6.52032137
REMARK  4 active torsions:
REMARK  status: ('A' for Active; 'I' for Inactive)
REMARK    1  A    between atoms: C4_4  and  C5_5 
REMARK    2  A    between atoms: C5_5  and  C6_6 
REMARK    3  A    between atoms: C6_6  and  C7_7 
REMARK    4  A    between atoms: C7_7  and  C9_9 
ROOT
HETATM    1  C9  UNL     1      -2.422  12.474  17.054  1.00  0.00    -0.002 C 
HETATM    2  C10 UNL     1      -1.378  11.996  18.107  1.00  0.00     0.007 C 
HETATM    3  C11 UNL     1      -0.796  10.676  17.603  1.00  0.00     0.015 C 
HETATM    4  C12 UNL     1      -1.954  10.049  16.810  1.00  0.00    -0.013 C 
HETATM    5  C13 UNL     1      -2.964   9.472  17.845  1.00  0.00     0.021 C 
HETATM    6  C14 UNL     1      -1.614   8.915  15.857  1.00  0.00    -0.070 C 
HETATM    7  C15 UNL     1      -0.501   8.170  15.940  1.00  0.00    -0.022 C 
HETATM    8  C16 UNL     1      -0.180   7.115  14.931  1.00  0.00     0.034 C 
HETATM    9  C17 UNL     1      -1.398   6.342  14.353  1.00  0.00     0.013 C 
HETATM   10  C18 UNL     1      -1.089   5.741  12.936  1.00  0.00     0.018 C 
HETATM   11  C19 UNL     1      -0.775   6.790  11.854  1.00  0.00     0.023 C 
HETATM   12  C20 UNL     1       0.130   4.788  13.021  1.00  0.00     0.023 C 
HETATM   13  C21 UNL     1      -2.297   4.907  12.485  1.00  0.00     0.135 C 
HETATM   14  O1  UNL     1      -2.177   3.817  11.908  1.00  0.00    -0.297 OA
HETATM   15  C22 UNL     1      -3.686   5.441  12.741  1.00  0.00     0.080 C 
HETATM   16  C23 UNL     1      -3.700   6.866  13.263  1.00  0.00     0.017 C 
HETATM   17  C24 UNL     1      -2.787   7.100  14.493  1.00  0.00    -0.031 C 
HETATM   18  C25 UNL     1      -3.514   6.483  15.728  1.00  0.00     0.016 C 
HETATM   19  C26 UNL     1      -2.571   8.652  14.702  1.00  0.00     0.024 C 
HETATM   20  C27 UNL     1      -3.884   9.483  14.748  1.00  0.00     0.010 C 
HETATM   21  C28 UNL     1      -3.822  10.908  15.350  1.00  0.00     0.011 C 
HETATM   22  C29 UNL     1      -2.483  11.286  16.008  1.00  0.00    -0.029 C 
HETATM   23  C30 UNL     1      -1.521  11.732  14.854  1.00  0.00     0.016 C 
ENDROOT
BRANCH   1  24
HETATM   24  C7  UNL     1      -3.753  13.020  17.665  1.00  0.00    -0.014 C 
HETATM   25  C8  UNL     1      -3.935  14.522  17.380  1.00  0.00     0.010 C 
BRANCH  24  26
HETATM   26  C6  UNL     1      -3.921  12.758  19.189  1.00  0.00     0.008 C 
BRANCH  26  27
HETATM   27  C5  UNL     1      -4.604  13.847  20.038  1.00  0.00     0.028 C 
BRANCH  27  28
HETATM   28  C4  UNL     1      -5.678  13.324  20.950  1.00  0.00    -0.025 C 
HETATM   29  C2  UNL     1      -5.992  13.729  22.198  1.00  0.00    -0.091 C 
HETATM   30  C1  UNL     1      -5.306  14.830  22.958  1.00  0.00     0.042 C 
HETATM   31  C3  UNL     1      -7.124  13.072  22.951  1.00  0.00     0.042 C 
ENDBRANCH  27  28
ENDBRANCH  26  27
ENDBRANCH  24  26
ENDBRANCH   1  24
TORSDOF 4
ENDMDL
MODEL 4
REMARK minimizedAffinity -5.86739159
REMARK CNNscore 0.343771547
REMARK CNNaffinity 6.17937708
REMARK  4 active torsions:
REMARK  status: ('A' for Active; 'I' for Inactive)
REMARK    1  A    between atoms: C4_4  and  C5_5 
REMARK    2  A    between atoms: C5_5  and  C6_6 
REMARK    3  A    between atoms: C6_6  and  C7_7 
REMARK    4  A    between atoms: C7_7  and  C9_9 
ROOT
HETATM    1  C9  UNL     1     -16.201   6.334  23.378  1.00  0.00    -0.002 C 
HETATM    2  C10 UNL     1     -16.212   6.379  24.936  1.00  0.00     0.007 C 
HETATM    3  C11 UNL     1     -15.469   7.645  25.360  1.00  0.00     0.015 C 
HETATM    4  C12 UNL     1     -14.434   7.850  24.242  1.00  0.00    -0.013 C 
HETATM    5  C13 UNL     1     -13.289   6.822  24.479  1.00  0.00     0.021 C 
HETATM    6  C14 UNL     1     -13.778   9.216  24.139  1.00  0.00    -0.070 C 
HETATM    7  C15 UNL     1     -13.724  10.103  25.145  1.00  0.00    -0.022 C 
HETATM    8  C16 UNL     1     -13.131  11.463  24.967  1.00  0.00     0.034 C 
HETATM    9  C17 UNL     1     -11.915  11.548  24.003  1.00  0.00     0.013 C 
HETATM   10  C18 UNL     1     -11.749  12.987  23.397  1.00  0.00     0.018 C 
HETATM   11  C19 UNL     1     -12.934  13.453  22.531  1.00  0.00     0.023 C 
HETATM   12  C20 UNL     1     -11.575  14.023  24.536  1.00  0.00     0.023 C 
HETATM   13  C21 UNL     1     -10.471  13.015  22.547  1.00  0.00     0.135 C 
HETATM   14  O1  UNL     1      -9.688  13.976  22.550  1.00  0.00    -0.297 OA
HETATM   15  C22 UNL     1     -10.160  11.832  21.661  1.00  0.00     0.080 C 
HETATM   16  C23 UNL     1     -11.287  10.818  21.588  1.00  0.00     0.017 C 
HETATM   17  C24 UNL     1     -11.807  10.347  22.970  1.00  0.00    -0.031 C 
HETATM   18  C25 UNL     1     -10.750   9.352  23.543  1.00  0.00     0.016 C 
HETATM   19  C26 UNL     1     -13.200   9.623  22.790  1.00  0.00     0.024 C 
HETATM   20  C27 UNL     1     -13.207   8.497  21.718  1.00  0.00     0.010 C 
HETATM   21  C28 UNL     1     -14.363   7.469  21.750  1.00  0.00     0.011 C 
HETATM   22  C29 UNL     1     -15.300   7.571  22.966  1.00  0.00    -0.029 C 
HETATM   23  C30 UNL     1     -16.326   8.714  22.653  1.00  0.00     0.016 C 
ENDROOT
BRANCH   1  24
HETATM   24  C7  UNL     1     -15.886   4.928  22.774  1.00  0.00    -0.014 C 
HETATM   25  C8  UNL     1     -16.968   3.897  23.140  1.00  0.00     0.010 C 
BRANCH  24  26
HETATM   26  C6  UNL     1     -14.484   4.363  23.145  1.00  0.00     0.008 C 
BRANCH  26  27
HETATM   27  C5  UNL     1     -14.405   3.308  24.265  1.00  0.00     0.028 C 
BRANCH  27  28
HETATM   28  C4  UNL     1     -13.207   2.406  24.168  1.00  0.00    -0.025 C 
HETATM   29  C2  UNL     1     -12.435   1.922  25.164  1.00  0.00    -0.091 C 
HETATM   30  C1  UNL     1     -12.629   2.195  26.630  1.00  0.00     0.042 C 
HETATM   31  C3  UNL     1     -11.269   1.015  24.854  1.00  0.00     0.042 C 
ENDBRANCH  27  28
ENDBRANCH  26  27
ENDBRANCH  24  26
ENDBRANCH   1  24
TORSDOF 4
ENDMDL
MODEL 5
REMARK minimizedAffinity -6.90233946
REMARK CNNscore 0.320800245
REMARK CNNaffinity 6.25527954
REMARK  4 active torsions:
REMARK  status: ('A' for Active; 'I' for Inactive)
REMARK    1  A    between atoms: C4_4  and  C5_5 
REMARK    2  A    between atoms: C5_5  and  C6_6 
REMARK    3  A    between atoms: C6_6  and  C7_7 
REMARK    4  A    between atoms: C7_7  and  C9_9 
ROOT
HETATM    1  C9  UNL     1      -3.387  13.394  17.899  1.00  0.00    -0.002 C 
HETATM    2  C10 UNL     1      -2.340  13.038  18.997  1.00  0.00     0.007 C 
HETATM    3  C11 UNL     1      -1.467  11.912  18.446  1.00  0.00     0.015 C 
HETATM    4  C12 UNL     1      -2.416  11.143  17.512  1.00  0.00    -0.013 C 
HETATM    5  C13 UNL     1      -3.353  10.285  18.412  1.00  0.00     0.021 C 
HETATM    6  C14 UNL     1      -1.788  10.191  16.508  1.00  0.00    -0.070 C 
HETATM    7  C15 UNL     1      -0.553   9.678  16.628  1.00  0.00    -0.022 C 
HETATM    8  C16 UNL     1       0.045   8.805  15.572  1.00  0.00     0.034 C 
HETATM    9  C17 UNL     1      -0.947   7.862  14.836  1.00  0.00     0.013 C 
HETATM   10  C18 UNL     1      -0.427   7.466  13.408  1.00  0.00     0.018 C 
HETATM   11  C19 UNL     1      -0.264   8.651  12.440  1.00  0.00     0.023 C 
HETATM   12  C20 UNL     1       0.953   6.770  13.523  1.00  0.00     0.023 C 
HETATM   13  C21 UNL     1      -1.405   6.454  12.795  1.00  0.00     0.135 C 
HETATM   14  O1  UNL     1      -1.026   5.466  12.149  1.00  0.00    -0.297 OA
HETATM   15  C22 UNL     1      -2.889   6.675  12.973  1.00  0.00     0.080 C 
HETATM   16  C23 UNL     1      -3.230   8.015  13.599  1.00  0.00     0.017 C 
HETATM   17  C24 UNL     1      -2.468   8.312  14.916  1.00  0.00    -0.031 C 
HETATM   18  C25 UNL     1      -3.135   7.452  16.035  1.00  0.00     0.016 C 
HETATM   19  C26 UNL     1      -2.591   9.850  15.260  1.00  0.00     0.024 C 
HETATM   20  C27 UNL     1      -4.046  10.396  15.258  1.00  0.00     0.010 C 
HETATM   21  C28 UNL     1      -4.318  11.743  15.970  1.00  0.00     0.011 C 
HETATM   22  C29 UNL     1      -3.133  12.318  16.765  1.00  0.00    -0.029 C 
HETATM   23  C30 UNL     1      -2.208  13.050  15.733  1.00  0.00     0.016 C 
ENDROOT
BRANCH   1  24
HETATM   24  C7  UNL     1      -4.840  13.606  18.436  1.00  0.00    -0.014 C 
HETATM   25  C8  UNL     1      -5.304  15.063  18.259  1.00  0.00     0.010 C 
BRANCH  24  26
HETATM   26  C6  UNL     1      -5.055  13.169  19.914  1.00  0.00     0.008 C 
BRANCH  26  27
HETATM   27  C5  UNL     1      -5.513  14.238  20.923  1.00  0.00     0.028 C 
BRANCH  27  28
HETATM   28  C4  UNL     1      -6.328  13.692  22.061  1.00  0.00    -0.025 C 
HETATM   29  C2  UNL     1      -7.606  13.257  22.048  1.00  0.00    -0.091 C 
HETATM   30  C1  UNL     1      -8.506  13.227  20.844  1.00  0.00     0.042 C 
HETATM   31  C3  UNL     1      -8.246  12.732  23.311  1.00  0.00     0.042 C 
ENDBRANCH  27  28
ENDBRANCH  26  27
ENDBRANCH  24  26
ENDBRANCH   1  24
TORSDOF 4
ENDMDL
MODEL 6
REMARK minimizedAffinity -6.04772139
REMARK CNNscore 0.301793516
REMARK CNNaffinity 5.99627352
REMARK  4 active torsions:
REMARK  status: ('A' for Active; 'I' for Inactive)
REMARK    1  A    between atoms: C4_4  and  C5_5 
REMARK    2  A    between atoms: C5_5  and  C6_6 
REMARK    3  A    between atoms: C6_6  and  C7_7 
REMARK    4  A    between atoms: C7_7  and  C9_9 
ROOT
HETATM    1  C9  UNL     1      -4.739  15.016  19.167  1.00  0.00    -0.002 C 
HETATM    2  C10 UNL     1      -3.804  16.029  18.440  1.00  0.00     0.007 C 
HETATM    3  C11 UNL     1      -3.126  15.280  17.293  1.00  0.00     0.015 C 
HETATM    4  C12 UNL     1      -3.024  13.837  17.813  1.00  0.00    -0.013 C 
HETATM    5  C13 UNL     1      -1.852  13.797  18.837  1.00  0.00     0.021 C 
HETATM    6  C14 UNL     1      -2.749  12.745  16.794  1.00  0.00    -0.070 C 
HETATM    7  C15 UNL     1      -2.206  12.963  15.585  1.00  0.00    -0.022 C 
HETATM    8  C16 UNL     1      -2.025  11.862  14.591  1.00  0.00     0.034 C 
HETATM    9  C17 UNL     1      -1.672  10.469  15.184  1.00  0.00     0.013 C 
HETATM   10  C18 UNL     1      -2.097   9.301  14.225  1.00  0.00     0.018 C 
HETATM   11  C19 UNL     1      -3.611   9.212  13.961  1.00  0.00     0.023 C 
HETATM   12  C20 UNL     1      -1.398   9.466  12.851  1.00  0.00     0.023 C 
HETATM   13  C21 UNL     1      -1.618   7.973  14.830  1.00  0.00     0.135 C 
HETATM   14  O1  UNL     1      -1.126   7.066  14.144  1.00  0.00    -0.297 OA
HETATM   15  C22 UNL     1      -1.763   7.758  16.318  1.00  0.00     0.080 C 
HETATM   16  C23 UNL     1      -2.560   8.847  17.012  1.00  0.00     0.017 C 
HETATM   17  C24 UNL     1      -2.064  10.284  16.712  1.00  0.00    -0.031 C 
HETATM   18  C25 UNL     1      -0.760  10.502  17.541  1.00  0.00     0.016 C 
HETATM   19  C26 UNL     1      -3.171  11.325  17.147  1.00  0.00     0.024 C 
HETATM   20  C27 UNL     1      -3.685  11.147  18.603  1.00  0.00     0.010 C 
HETATM   21  C28 UNL     1      -4.439  12.330  19.258  1.00  0.00     0.011 C 
HETATM   22  C29 UNL     1      -4.443  13.637  18.446  1.00  0.00    -0.029 C 
HETATM   23  C30 UNL     1      -5.583  13.503  17.378  1.00  0.00     0.016 C 
ENDROOT
BRANCH   1  24
HETATM   24  C7  UNL     1      -4.680  15.088  20.727  1.00  0.00    -0.014 C 
HETATM   25  C8  UNL     1      -3.263  15.416  21.228  1.00  0.00     0.010 C 
BRANCH  24  26
HETATM   26  C6  UNL     1      -5.206  13.817  21.455  1.00  0.00     0.008 C 
BRANCH  26  27
HETATM   27  C5  UNL     1      -6.287  14.000  22.537  1.00  0.00     0.028 C 
BRANCH  27  28
HETATM   28  C4  UNL     1      -7.500  13.136  22.338  1.00  0.00    -0.025 C 
HETATM   29  C2  UNL     1      -8.550  12.955  23.167  1.00  0.00    -0.091 C 
HETATM   30  C1  UNL     1      -8.725  13.611  24.509  1.00  0.00     0.042 C 
HETATM   31  C3  UNL     1      -9.684  12.040  22.774  1.00  0.00     0.042 C 
ENDBRANCH  27  28
ENDBRANCH  26  27
ENDBRANCH  24  26
ENDBRANCH   1  24
TORSDOF 4
ENDMDL
MODEL 7
REMARK minimizedAffinity -6.62410545
REMARK CNNscore 0.300362289
REMARK CNNaffinity 6.55305147
REMARK  4 active torsions:
REMARK  status: ('A' for Active; 'I' for Inactive)
REMARK    1  A    between atoms: C4_4  and  C5_5 
REMARK    2  A    between atoms: C5_5  and  C6_6 
REMARK    3  A    between atoms: C6_6  and  C7_7 
REMARK    4  A    between atoms: C7_7  and  C9_9 
ROOT
HETATM    1  C9  UNL     1       1.093   7.652  12.093  1.00  0.00    -0.002 C 
HETATM    2  C10 UNL     1       1.990   6.383  12.216  1.00  0.00     0.007 C 
HETATM    3  C11 UNL     1       1.077   5.165  12.083  1.00  0.00     0.015 C 
HETATM    4  C12 UNL     1      -0.261   5.651  12.662  1.00  0.00    -0.013 C 
HETATM    5  C13 UNL     1      -0.117   5.658  14.213  1.00  0.00     0.021 C 
HETATM    6  C14 UNL     1      -1.499   4.829  12.345  1.00  0.00    -0.070 C 
HETATM    7  C15 UNL     1      -1.470   3.544  11.956  1.00  0.00    -0.022 C 
HETATM    8  C16 UNL     1      -2.714   2.804  11.585  1.00  0.00     0.034 C 
HETATM    9  C17 UNL     1      -3.987   3.174  12.396  1.00  0.00     0.013 C 
HETATM   10  C18 UNL     1      -5.301   2.863  11.595  1.00  0.00     0.018 C 
HETATM   11  C19 UNL     1      -5.455   3.662  10.289  1.00  0.00     0.023 C 
HETATM   12  C20 UNL     1      -5.349   1.358  11.225  1.00  0.00     0.023 C 
HETATM   13  C21 UNL     1      -6.506   3.153  12.502  1.00  0.00     0.135 C 
HETATM   14  O1  UNL     1      -7.504   2.420  12.541  1.00  0.00    -0.297 OA
HETATM   15  C22 UNL     1      -6.481   4.388  13.371  1.00  0.00     0.080 C 
HETATM   16  C23 UNL     1      -5.307   5.306  13.085  1.00  0.00     0.017 C 
HETATM   17  C24 UNL     1      -3.929   4.597  13.100  1.00  0.00    -0.031 C 
HETATM   18  C25 UNL     1      -3.560   4.345  14.595  1.00  0.00     0.016 C 
HETATM   19  C26 UNL     1      -2.850   5.528  12.418  1.00  0.00     0.024 C 
HETATM   20  C27 UNL     1      -2.799   6.975  12.983  1.00  0.00     0.010 C 
HETATM   21  C28 UNL     1      -1.538   7.825  12.693  1.00  0.00     0.011 C 
HETATM   22  C29 UNL     1      -0.379   7.073  12.016  1.00  0.00    -0.029 C 
HETATM   23  C30 UNL     1      -0.702   7.030  10.482  1.00  0.00     0.016 C 
ENDROOT
BRANCH   1  24
HETATM   24  C7  UNL     1       1.417   8.776  13.129  1.00  0.00    -0.014 C 
HETATM   25  C8  UNL     1       0.243   9.757  13.288  1.00  0.00     0.010 C 
BRANCH  24  26
HETATM   26  C6  UNL     1       2.722   9.571  12.837  1.00  0.00     0.008 C 
BRANCH  26  27
HETATM   27  C5  UNL     1       3.973   9.237  13.671  1.00  0.00     0.028 C 
BRANCH  27  28
HETATM   28  C4  UNL     1       4.292  10.258  14.726  1.00  0.00    -0.025 C 
HETATM   29  C2  UNL     1       5.502  10.682  15.149  1.00  0.00    -0.091 C 
HETATM   30  C1  UNL     1       6.827  10.200  14.627  1.00  0.00     0.042 C 
HETATM   31  C3  UNL     1       5.608  11.734  16.227  1.00  0.00     0.042 C 
ENDBRANCH  27  28
ENDBRANCH  26  27
ENDBRANCH  24  26
ENDBRANCH   1  24
TORSDOF 4
ENDMDL
MODEL 8
REMARK minimizedAffinity -6.24952078
REMARK CNNscore 0.29185459
REMARK CNNaffinity 5.89728689
REMARK  4 active torsions:
REMARK  status: ('A' for Active; 'I' for Inactive)
REMARK    1  A    between atoms: C4_4  and  C5_5 
REMARK    2  A    between atoms: C5_5  and  C6_6 
REMARK    3  A    between atoms: C6_6  and  C7_7 
REMARK    4  A    between atoms: C7_7  and  C9_9 
ROOT
HETATM    1  C9  UNL     1      -0.626   9.764  16.670  1.00  0.00    -0.002 C 
HETATM    2  C10 UNL     1      -0.193  10.728  15.525  1.00  0.00     0.007 C 
HETATM    3  C11 UNL     1      -0.655  12.132  15.911  1.00  0.00     0.015 C 
HETATM    4  C12 UNL     1      -1.924  11.879  16.741  1.00  0.00    -0.013 C 
HETATM    5  C13 UNL     1      -3.067  11.529  15.743  1.00  0.00     0.021 C 
HETATM    6  C14 UNL     1      -2.435  13.022  17.602  1.00  0.00    -0.070 C 
HETATM    7  C15 UNL     1      -2.123  14.312  17.403  1.00  0.00    -0.022 C 
HETATM    8  C16 UNL     1      -2.593  15.390  18.326  1.00  0.00     0.034 C 
HETATM    9  C17 UNL     1      -4.007  15.184  18.937  1.00  0.00     0.013 C 
HETATM   10  C18 UNL     1      -4.175  15.957  20.294  1.00  0.00     0.018 C 
HETATM   11  C19 UNL     1      -3.223  15.494  21.412  1.00  0.00     0.023 C 
HETATM   12  C20 UNL     1      -3.926  17.471  20.073  1.00  0.00     0.023 C 
HETATM   13  C21 UNL     1      -5.624  15.792  20.774  1.00  0.00     0.135 C 
HETATM   14  O1  UNL     1      -6.270  16.722  21.277  1.00  0.00    -0.297 OA
HETATM   15  C22 UNL     1      -6.285  14.441  20.641  1.00  0.00     0.080 C 
HETATM   16  C23 UNL     1      -5.334  13.342  20.205  1.00  0.00     0.017 C 
HETATM   17  C24 UNL     1      -4.515  13.679  18.933  1.00  0.00    -0.031 C 
HETATM   18  C25 UNL     1      -5.479  13.533  17.715  1.00  0.00     0.016 C 
HETATM   19  C26 UNL     1      -3.307  12.669  18.800  1.00  0.00     0.024 C 
HETATM   20  C27 UNL     1      -3.708  11.170  18.889  1.00  0.00     0.010 C 
HETATM   21  C28 UNL     1      -2.702  10.116  18.369  1.00  0.00     0.011 C 
HETATM   22  C29 UNL     1      -1.468  10.685  17.647  1.00  0.00    -0.029 C 
HETATM   23  C30 UNL     1      -0.447  11.108  18.759  1.00  0.00     0.016 C 
ENDROOT
BRANCH   1  24
HETATM   24  C7  UNL     1      -1.240   8.413  16.181  1.00  0.00    -0.014 C 
HETATM   25  C8  UNL     1      -0.147   7.386  15.834  1.00  0.00     0.010 C 
BRANCH  24  26
HETATM   26  C6  UNL     1      -2.226   8.544  14.985  1.00  0.00     0.008 C 
BRANCH  26  27
HETATM   27  C5  UNL     1      -2.012   7.624  13.768  1.00  0.00     0.028 C 
BRANCH  27  28
HETATM   28  C4  UNL     1      -3.057   6.554  13.622  1.00  0.00    -0.025 C 
HETATM   29  C2  UNL     1      -4.378   6.695  13.386  1.00  0.00    -0.091 C 
HETATM   30  C1  UNL     1      -5.099   8.002  13.211  1.00  0.00     0.042 C 
HETATM   31  C3  UNL     1      -5.265   5.479  13.265  1.00  0.00     0.042 C 
ENDBRANCH  27  28
ENDBRANCH  26  27
ENDBRANCH  24  26
ENDBRANCH   1  24
TORSDOF 4
ENDMDL
MODEL 9
REMARK minimizedAffinity -6.95849609
REMARK CNNscore 0.291784078
REMARK CNNaffinity 6.87540102
REMARK  4 active torsions:
REMARK  status: ('A' for Active; 'I' for Inactive)
REMARK    1  A    between atoms: C4_4  and  C5_5 
REMARK    2  A    between atoms: C5_5  and  C6_6 
REMARK    3  A    between atoms: C6_6  and  C7_7 
REMARK    4  A    between atoms: C7_7  and  C9_9 
ROOT
HETATM    1  C9  UNL     1      -7.888   6.168  14.926  1.00  0.00    -0.002 C 
HETATM    2  C10 UNL     1      -7.811   5.099  13.795  1.00  0.00     0.007 C 
HETATM    3  C11 UNL     1      -6.338   4.936  13.422  1.00  0.00     0.015 C 
HETATM    4  C12 UNL     1      -5.741   6.328  13.689  1.00  0.00    -0.013 C 
HETATM    5  C13 UNL     1      -6.175   7.250  12.512  1.00  0.00     0.021 C 
HETATM    6  C14 UNL     1      -4.229   6.431  13.788  1.00  0.00    -0.070 C 
HETATM    7  C15 UNL     1      -3.377   5.525  13.282  1.00  0.00    -0.022 C 
HETATM    8  C16 UNL     1      -1.899   5.638  13.473  1.00  0.00     0.034 C 
HETATM    9  C17 UNL     1      -1.329   7.083  13.481  1.00  0.00     0.013 C 
HETATM   10  C18 UNL     1       0.026   7.173  14.269  1.00  0.00     0.018 C 
HETATM   11  C19 UNL     1      -0.081   6.814  15.762  1.00  0.00     0.023 C 
HETATM   12  C20 UNL     1       1.067   6.214  13.638  1.00  0.00     0.023 C 
HETATM   13  C21 UNL     1       0.575   8.601  14.138  1.00  0.00     0.135 C 
HETATM   14  O1  UNL     1       1.778   8.840  13.959  1.00  0.00    -0.297 OA
HETATM   15  C22 UNL     1      -0.386   9.762  14.246  1.00  0.00     0.080 C 
HETATM   16  C23 UNL     1      -1.785   9.353  14.667  1.00  0.00     0.017 C 
HETATM   17  C24 UNL     1      -2.396   8.212  13.814  1.00  0.00    -0.031 C 
HETATM   18  C25 UNL     1      -2.829   8.839  12.452  1.00  0.00     0.016 C 
HETATM   19  C26 UNL     1      -3.650   7.608  14.563  1.00  0.00     0.024 C 
HETATM   20  C27 UNL     1      -4.699   8.662  15.015  1.00  0.00     0.010 C 
HETATM   21  C28 UNL     1      -6.121   8.167  15.372  1.00  0.00     0.011 C 
HETATM   22  C29 UNL     1      -6.397   6.684  15.067  1.00  0.00    -0.029 C 
HETATM   23  C30 UNL     1      -5.809   5.858  16.263  1.00  0.00     0.016 C 
ENDROOT
BRANCH   1  24
HETATM   24  C7  UNL     1      -9.041   7.209  14.754  1.00  0.00    -0.014 C 
HETATM   25  C8  UNL     1      -9.607   7.659  16.113  1.00  0.00     0.010 C 
BRANCH  24  26
HETATM   26  C6  UNL     1     -10.206   6.739  13.836  1.00  0.00     0.008 C 
BRANCH  26  27
HETATM   27  C5  UNL     1     -11.162   7.811  13.279  1.00  0.00     0.028 C 
BRANCH  27  28
HETATM   28  C4  UNL     1     -12.512   7.278  12.887  1.00  0.00    -0.025 C 
HETATM   29  C2  UNL     1     -13.719   7.868  13.018  1.00  0.00    -0.091 C 
HETATM   30  C1  UNL     1     -13.966   9.231  13.602  1.00  0.00     0.042 C 
HETATM   31  C3  UNL     1     -14.968   7.160  12.551  1.00  0.00     0.042 C 
ENDBRANCH  27  28
ENDBRANCH  26  27
ENDBRANCH  24  26
ENDBRANCH   1  24
TORSDOF 4
ENDMDL
