MODEL 1
REMARK minimizedAffinity -10.0505781
REMARK  0 active torsions:
REMARK  status: ('A' for Active; 'I' for Inactive)
ROOT
HETATM    1  C1  UNL     1       4.485   6.294  10.801  1.00  0.00     0.023 C 
HETATM    2  C2  UNL     1       3.566   7.536  10.779  1.00  0.00     0.017 C 
HETATM    3  C3  UNL     1       4.440   8.702  11.313  1.00  0.00     0.023 C 
HETATM    4  C4  UNL     1       3.162   7.819   9.325  1.00  0.00     0.135 C 
HETATM    5  O1  UNL     1       3.743   8.659   8.636  1.00  0.00    -0.297 OA
HETATM    6  C5  UNL     1       2.084   6.948   8.714  1.00  0.00     0.080 C 
HETATM    7  C6  UNL     1       0.857   6.817   9.611  1.00  0.00     0.017 C 
HETATM    8  C7  UNL     1       1.160   6.376  11.080  1.00  0.00    -0.035 C 
HETATM    9  C8  UNL     1       1.684   4.920  11.025  1.00  0.00     0.016 C 
HETATM   10  C9  UNL     1       2.245   7.368  11.643  1.00  0.00     0.009 C 
HETATM   11  C10 UNL     1       1.647   8.772  11.950  1.00  0.00     0.007 C 
HETATM   12  C11 UNL     1       0.153   8.859  12.233  1.00  0.00     0.011 C 
HETATM   13  C12 UNL     1      -0.453   7.607  12.888  1.00  0.00    -0.032 C 
HETATM   14  C13 UNL     1       0.302   7.379  14.234  1.00  0.00     0.016 C 
HETATM   15  C14 UNL     1      -0.229   6.405  11.911  1.00  0.00     0.003 C 
HETATM   16  C15 UNL     1      -0.632   5.089  12.631  1.00  0.00     0.006 C 
HETATM   17  C16 UNL     1      -1.899   5.188  13.497  1.00  0.00     0.006 C 
HETATM   18  C17 UNL     1      -2.792   6.364  13.099  1.00  0.00    -0.000 C 
HETATM   19  C18 UNL     1      -4.189   6.400  13.756  1.00  0.00     0.009 C 
HETATM   20  C19 UNL     1      -4.986   5.105  13.954  1.00  0.00     0.067 C 
HETATM   21  C20 UNL     1      -6.144   5.553  14.885  1.00  0.00     0.140 C 
HETATM   22  C21 UNL     1      -5.777   6.952  15.414  1.00  0.00     0.042 C 
HETATM   23  C22 UNL     1      -4.269   7.085  15.130  1.00  0.00    -0.037 C 
HETATM   24  C23 UNL     1      -3.504   6.387  16.276  1.00  0.00     0.015 C 
HETATM   25  C24 UNL     1      -3.793   8.532  14.972  1.00  0.00     0.010 C 
HETATM   26  C25 UNL     1      -2.346   8.583  14.460  1.00  0.00     0.011 C 
HETATM   27  C26 UNL     1      -2.059   7.778  13.142  1.00  0.00    -0.032 C 
HETATM   28  C27 UNL     1      -2.712   8.619  11.992  1.00  0.00     0.016 C 
HETATM   29  O2  UNL     1      -7.349   5.639  14.102  1.00  0.00    -0.313 OA
HETATM   30  C28 UNL     1      -7.148   5.093  12.867  1.00  0.00     0.297 C 
HETATM   31  O3  UNL     1      -7.974   5.025  11.973  1.00  0.00    -0.262 OA
HETATM   32  C29 UNL     1      -5.750   4.641  12.769  1.00  0.00     0.175 A 
HETATM   33  C30 UNL     1      -5.132   4.123  11.496  1.00  0.00     0.218 A 
HETATM   34  O4  UNL     1      -5.594   3.230  12.516  1.00  0.00    -0.364 OA
ENDROOT
TORSDOF 0
ENDMDL
MODEL 2
REMARK minimizedAffinity -10.0135889
REMARK  0 active torsions:
REMARK  status: ('A' for Active; 'I' for Inactive)
ROOT
HETATM    1  C1  UNL     1      -7.576   7.597  14.759  1.00  0.00     0.023 C 
HETATM    2  C2  UNL     1      -6.548   6.538  15.217  1.00  0.00     0.017 C 
HETATM    3  C3  UNL     1      -6.844   6.304  16.722  1.00  0.00     0.023 C 
HETATM    4  C4  UNL     1      -6.803   5.242  14.434  1.00  0.00     0.135 C 
HETATM    5  O1  UNL     1      -7.460   4.312  14.904  1.00  0.00    -0.297 OA
HETATM    6  C5  UNL     1      -6.308   5.177  13.005  1.00  0.00     0.080 C 
HETATM    7  C6  UNL     1      -4.858   5.631  12.864  1.00  0.00     0.017 C 
HETATM    8  C7  UNL     1      -4.540   7.023  13.498  1.00  0.00    -0.035 C 
HETATM    9  C8  UNL     1      -5.300   8.091  12.673  1.00  0.00     0.016 C 
HETATM   10  C9  UNL     1      -5.039   6.973  14.990  1.00  0.00     0.009 C 
HETATM   11  C10 UNL     1      -4.111   6.102  15.886  1.00  0.00     0.007 C 
HETATM   12  C11 UNL     1      -2.665   5.920  15.442  1.00  0.00     0.011 C 
HETATM   13  C12 UNL     1      -2.080   7.102  14.652  1.00  0.00    -0.032 C 
HETATM   14  C13 UNL     1      -2.170   8.361  15.569  1.00  0.00     0.016 C 
HETATM   15  C14 UNL     1      -2.948   7.287  13.362  1.00  0.00     0.003 C 
HETATM   16  C15 UNL     1      -2.523   8.602  12.653  1.00  0.00     0.006 C 
HETATM   17  C16 UNL     1      -1.008   8.868  12.640  1.00  0.00     0.006 C 
HETATM   18  C17 UNL     1      -0.186   7.596  12.854  1.00  0.00    -0.000 C 
HETATM   19  C18 UNL     1       1.334   7.731  12.624  1.00  0.00     0.009 C 
HETATM   20  C19 UNL     1       1.870   8.582  11.466  1.00  0.00     0.067 C 
HETATM   21  C20 UNL     1       3.386   8.679  11.784  1.00  0.00     0.140 C 
HETATM   22  C21 UNL     1       3.574   8.173  13.226  1.00  0.00     0.042 C 
HETATM   23  C22 UNL     1       2.158   8.208  13.831  1.00  0.00    -0.037 C 
HETATM   24  C23 UNL     1       1.878   9.649  14.311  1.00  0.00     0.015 C 
HETATM   25  C24 UNL     1       1.949   7.212  14.976  1.00  0.00     0.010 C 
HETATM   26  C25 UNL     1       0.467   7.130  15.370  1.00  0.00     0.011 C 
HETATM   27  C26 UNL     1      -0.535   6.818  14.201  1.00  0.00    -0.032 C 
HETATM   28  C27 UNL     1      -0.327   5.301  13.870  1.00  0.00     0.016 C 
HETATM   29  O2  UNL     1       4.097   7.814  10.878  1.00  0.00    -0.313 OA
HETATM   30  C28 UNL     1       3.257   7.367   9.899  1.00  0.00     0.297 C 
HETATM   31  O3  UNL     1       3.557   6.611   8.991  1.00  0.00    -0.262 OA
HETATM   32  C29 UNL     1       1.909   7.906  10.145  1.00  0.00     0.175 A 
HETATM   33  C30 UNL     1       0.695   7.502   9.350  1.00  0.00     0.218 A 
HETATM   34  O4  UNL     1       1.388   8.725   9.078  1.00  0.00    -0.364 OA
ENDROOT
TORSDOF 0
ENDMDL
MODEL 3
REMARK minimizedAffinity -9.88494015
REMARK  0 active torsions:
REMARK  status: ('A' for Active; 'I' for Inactive)
ROOT
HETATM    1  C1  UNL     1       3.517   9.673  15.934  1.00  0.00     0.023 C 
HETATM    2  C2  UNL     1       2.444  10.400  15.093  1.00  0.00     0.017 C 
HETATM    3  C3  UNL     1       2.300  11.804  15.739  1.00  0.00     0.023 C 
HETATM    4  C4  UNL     1       2.966  10.545  13.657  1.00  0.00     0.135 C 
HETATM    5  O1  UNL     1       3.495  11.582  13.254  1.00  0.00    -0.297 OA
HETATM    6  C5  UNL     1       2.910   9.324  12.763  1.00  0.00     0.080 C 
HETATM    7  C6  UNL     1       1.546   8.639  12.788  1.00  0.00     0.017 C 
HETATM    8  C7  UNL     1       1.003   8.308  14.215  1.00  0.00    -0.035 C 
HETATM    9  C8  UNL     1       1.927   7.222  14.820  1.00  0.00     0.016 C 
HETATM   10  C9  UNL     1       1.050   9.645  15.047  1.00  0.00     0.009 C 
HETATM   11  C10 UNL     1      -0.063  10.641  14.609  1.00  0.00     0.007 C 
HETATM   12  C11 UNL     1      -1.310  10.066  13.949  1.00  0.00     0.011 C 
HETATM   13  C12 UNL     1      -1.687   8.648  14.408  1.00  0.00    -0.032 C 
HETATM   14  C13 UNL     1      -1.917   8.708  15.950  1.00  0.00     0.016 C 
HETATM   15  C14 UNL     1      -0.490   7.702  14.058  1.00  0.00     0.003 C 
HETATM   16  C15 UNL     1      -0.743   6.311  14.701  1.00  0.00     0.006 C 
HETATM   17  C16 UNL     1      -2.198   5.819  14.623  1.00  0.00     0.006 C 
HETATM   18  C17 UNL     1      -2.995   6.513  13.518  1.00  0.00    -0.000 C 
HETATM   19  C18 UNL     1      -4.388   5.918  13.218  1.00  0.00     0.009 C 
HETATM   20  C19 UNL     1      -4.598   4.399  13.220  1.00  0.00     0.067 C 
HETATM   21  C20 UNL     1      -6.144   4.266  13.175  1.00  0.00     0.140 C 
HETATM   22  C21 UNL     1      -6.722   5.663  13.468  1.00  0.00     0.042 C 
HETATM   23  C22 UNL     1      -5.545   6.442  14.085  1.00  0.00    -0.037 C 
HETATM   24  C23 UNL     1      -5.474   6.091  15.587  1.00  0.00     0.015 C 
HETATM   25  C24 UNL     1      -5.638   7.959  13.892  1.00  0.00     0.010 C 
HETATM   26  C25 UNL     1      -4.332   8.648  14.314  1.00  0.00     0.011 C 
HETATM   27  C26 UNL     1      -3.023   8.103  13.640  1.00  0.00    -0.032 C 
HETATM   28  C27 UNL     1      -3.065   8.631  12.165  1.00  0.00     0.016 C 
HETATM   29  O2  UNL     1      -6.526   3.860  11.847  1.00  0.00    -0.313 OA
HETATM   30  C28 UNL     1      -5.421   3.507  11.127  1.00  0.00     0.297 C 
HETATM   31  O3  UNL     1      -5.415   3.130   9.967  1.00  0.00    -0.262 OA
HETATM   32  C29 UNL     1      -4.225   3.704  11.963  1.00  0.00     0.175 A 
HETATM   33  C30 UNL     1      -2.818   3.557  11.447  1.00  0.00     0.218 A 
HETATM   34  O4  UNL     1      -3.450   2.509  12.189  1.00  0.00    -0.364 OA
ENDROOT
TORSDOF 0
ENDMDL
MODEL 4
REMARK minimizedAffinity -9.03135109
REMARK  0 active torsions:
REMARK  status: ('A' for Active; 'I' for Inactive)
ROOT
HETATM    1  C1  UNL     1       2.766   6.068   8.103  1.00  0.00     0.023 C 
HETATM    2  C2  UNL     1       2.892   5.644   9.584  1.00  0.00     0.017 C 
HETATM    3  C3  UNL     1       3.025   4.098   9.557  1.00  0.00     0.023 C 
HETATM    4  C4  UNL     1       4.173   6.261  10.160  1.00  0.00     0.135 C 
HETATM    5  O1  UNL     1       5.226   5.626  10.244  1.00  0.00    -0.297 OA
HETATM    6  C5  UNL     1       4.140   7.729  10.532  1.00  0.00     0.080 C 
HETATM    7  C6  UNL     1       2.924   8.093  11.378  1.00  0.00     0.017 C 
HETATM    8  C7  UNL     1       1.551   7.640  10.785  1.00  0.00    -0.035 C 
HETATM    9  C8  UNL     1       1.311   8.461   9.494  1.00  0.00     0.016 C 
HETATM   10  C9  UNL     1       1.667   6.098  10.484  1.00  0.00     0.009 C 
HETATM   11  C10 UNL     1       1.640   5.248  11.787  1.00  0.00     0.007 C 
HETATM   12  C11 UNL     1       0.966   5.850  13.013  1.00  0.00     0.011 C 
HETATM   13  C12 UNL     1      -0.189   6.816  12.704  1.00  0.00    -0.032 C 
HETATM   14  C13 UNL     1      -1.252   6.019  11.886  1.00  0.00     0.016 C 
HETATM   15  C14 UNL     1       0.394   7.998  11.859  1.00  0.00     0.003 C 
HETATM   16  C15 UNL     1      -0.778   8.878  11.346  1.00  0.00     0.006 C 
HETATM   17  C16 UNL     1      -1.908   9.107  12.364  1.00  0.00     0.006 C 
HETATM   18  C17 UNL     1      -1.454   8.877  13.807  1.00  0.00    -0.000 C 
HETATM   19  C18 UNL     1      -2.453   9.308  14.902  1.00  0.00     0.009 C 
HETATM   20  C19 UNL     1      -3.264  10.600  14.747  1.00  0.00     0.067 C 
HETATM   21  C20 UNL     1      -4.315  10.486  15.883  1.00  0.00     0.140 C 
HETATM   22  C21 UNL     1      -4.256   9.036  16.402  1.00  0.00     0.042 C 
HETATM   23  C22 UNL     1      -3.511   8.264  15.297  1.00  0.00    -0.037 C 
HETATM   24  C23 UNL     1      -4.533   7.893  14.200  1.00  0.00     0.015 C 
HETATM   25  C24 UNL     1      -2.785   7.013  15.799  1.00  0.00     0.010 C 
HETATM   26  C25 UNL     1      -1.876   6.430  14.706  1.00  0.00     0.011 C 
HETATM   27  C26 UNL     1      -0.843   7.428  14.071  1.00  0.00    -0.032 C 
HETATM   28  C27 UNL     1       0.259   7.636  15.165  1.00  0.00     0.016 C 
HETATM   29  O2  UNL     1      -3.938  11.387  16.942  1.00  0.00    -0.313 OA
HETATM   30  C28 UNL     1      -2.928  12.205  16.525  1.00  0.00     0.297 C 
HETATM   31  O3  UNL     1      -2.385  13.067  17.195  1.00  0.00    -0.262 OA
HETATM   32  C29 UNL     1      -2.561  11.844  15.146  1.00  0.00     0.175 A 
HETATM   33  C30 UNL     1      -1.384  12.439  14.416  1.00  0.00     0.218 A 
HETATM   34  O4  UNL     1      -2.716  12.911  14.187  1.00  0.00    -0.364 OA
ENDROOT
TORSDOF 0
ENDMDL
MODEL 5
REMARK minimizedAffinity -8.96933937
REMARK  0 active torsions:
REMARK  status: ('A' for Active; 'I' for Inactive)
ROOT
HETATM    1  C1  UNL     1      -7.423   3.652  14.664  1.00  0.00     0.023 C 
HETATM    2  C2  UNL     1      -6.671   4.206  13.432  1.00  0.00     0.017 C 
HETATM    3  C3  UNL     1      -6.439   2.980  12.509  1.00  0.00     0.023 C 
HETATM    4  C4  UNL     1      -7.579   5.220  12.723  1.00  0.00     0.135 C 
HETATM    5  O1  UNL     1      -8.261   4.915  11.743  1.00  0.00    -0.297 OA
HETATM    6  C5  UNL     1      -7.699   6.601  13.332  1.00  0.00     0.080 C 
HETATM    7  C6  UNL     1      -6.343   7.215  13.668  1.00  0.00     0.017 C 
HETATM    8  C7  UNL     1      -5.406   6.308  14.529  1.00  0.00    -0.035 C 
HETATM    9  C8  UNL     1      -6.058   6.166  15.927  1.00  0.00     0.016 C 
HETATM   10  C9  UNL     1      -5.301   4.922  13.789  1.00  0.00     0.009 C 
HETATM   11  C10 UNL     1      -4.416   5.010  12.512  1.00  0.00     0.007 C 
HETATM   12  C11 UNL     1      -3.369   6.115  12.450  1.00  0.00     0.011 C 
HETATM   13  C12 UNL     1      -2.794   6.536  13.812  1.00  0.00    -0.032 C 
HETATM   14  C13 UNL     1      -2.150   5.267  14.453  1.00  0.00     0.016 C 
HETATM   15  C14 UNL     1      -3.982   7.061  14.687  1.00  0.00     0.003 C 
HETATM   16  C15 UNL     1      -3.476   7.289  16.137  1.00  0.00     0.006 C 
HETATM   17  C16 UNL     1      -2.073   7.910  16.242  1.00  0.00     0.006 C 
HETATM   18  C17 UNL     1      -1.657   8.642  14.965  1.00  0.00    -0.000 C 
HETATM   19  C18 UNL     1      -0.369   9.487  15.065  1.00  0.00     0.009 C 
HETATM   20  C19 UNL     1      -0.075  10.307  16.327  1.00  0.00     0.067 C 
HETATM   21  C20 UNL     1       1.403  10.735  16.122  1.00  0.00     0.140 C 
HETATM   22  C21 UNL     1       1.954   9.897  14.953  1.00  0.00     0.042 C 
HETATM   23  C22 UNL     1       0.949   8.739  14.806  1.00  0.00    -0.037 C 
HETATM   24  C23 UNL     1       1.319   7.651  15.838  1.00  0.00     0.015 C 
HETATM   25  C24 UNL     1       0.893   8.144  13.397  1.00  0.00     0.010 C 
HETATM   26  C25 UNL     1      -0.284   7.166  13.259  1.00  0.00     0.011 C 
HETATM   27  C26 UNL     1      -1.694   7.734  13.656  1.00  0.00    -0.032 C 
HETATM   28  C27 UNL     1      -2.095   8.702  12.491  1.00  0.00     0.016 C 
HETATM   29  O2  UNL     1       1.425  12.130  15.762  1.00  0.00    -0.313 OA
HETATM   30  C28 UNL     1       0.187  12.679  15.934  1.00  0.00     0.297 C 
HETATM   31  O3  UNL     1      -0.117  13.837  15.704  1.00  0.00    -0.262 OA
HETATM   32  C29 UNL     1      -0.739  11.632  16.394  1.00  0.00     0.175 A 
HETATM   33  C30 UNL     1      -2.223  11.844  16.545  1.00  0.00     0.218 A 
HETATM   34  O4  UNL     1      -1.347  11.893  17.676  1.00  0.00    -0.364 OA
ENDROOT
TORSDOF 0
ENDMDL
MODEL 6
REMARK minimizedAffinity -8.72847748
REMARK  0 active torsions:
REMARK  status: ('A' for Active; 'I' for Inactive)
ROOT
HETATM    1  C1  UNL     1      -1.593  12.550  16.839  1.00  0.00     0.023 C 
HETATM    2  C2  UNL     1      -1.189  11.479  17.878  1.00  0.00     0.017 C 
HETATM    3  C3  UNL     1      -2.421  11.329  18.811  1.00  0.00     0.023 C 
HETATM    4  C4  UNL     1      -0.937  10.157  17.141  1.00  0.00     0.135 C 
HETATM    5  O1  UNL     1      -1.793   9.274  17.069  1.00  0.00    -0.297 OA
HETATM    6  C5  UNL     1       0.376  10.005  16.401  1.00  0.00     0.080 C 
HETATM    7  C6  UNL     1       1.579  10.401  17.252  1.00  0.00     0.017 C 
HETATM    8  C7  UNL     1       1.478  11.811  17.919  1.00  0.00    -0.035 C 
HETATM    9  C8  UNL     1       1.518  12.863  16.783  1.00  0.00     0.016 C 
HETATM   10  C9  UNL     1       0.114  11.851  18.704  1.00  0.00     0.009 C 
HETATM   11  C10 UNL     1       0.164  10.992  20.002  1.00  0.00     0.007 C 
HETATM   12  C11 UNL     1       1.528  10.739  20.632  1.00  0.00     0.011 C 
HETATM   13  C12 UNL     1       2.557  11.860  20.414  1.00  0.00    -0.032 C 
HETATM   14  C13 UNL     1       1.955  13.164  21.023  1.00  0.00     0.016 C 
HETATM   15  C14 UNL     1       2.772  12.012  18.870  1.00  0.00     0.003 C 
HETATM   16  C15 UNL     1       3.636  13.276  18.604  1.00  0.00     0.006 C 
HETATM   17  C16 UNL     1       4.792  13.488  19.596  1.00  0.00     0.006 C 
HETATM   18  C17 UNL     1       5.190  12.200  20.319  1.00  0.00    -0.000 C 
HETATM   19  C18 UNL     1       6.487  12.271  21.154  1.00  0.00     0.009 C 
HETATM   20  C19 UNL     1       7.704  13.045  20.632  1.00  0.00     0.067 C 
HETATM   21  C20 UNL     1       8.632  13.106  21.874  1.00  0.00     0.140 C 
HETATM   22  C21 UNL     1       7.787  12.664  23.085  1.00  0.00     0.042 C 
HETATM   23  C22 UNL     1       6.331  12.777  22.597  1.00  0.00    -0.037 C 
HETATM   24  C23 UNL     1       5.888  14.249  22.751  1.00  0.00     0.015 C 
HETATM   25  C24 UNL     1       5.359  11.846  23.328  1.00  0.00     0.010 C 
HETATM   26  C25 UNL     1       3.986  11.835  22.641  1.00  0.00     0.011 C 
HETATM   27  C26 UNL     1       3.993  11.501  21.106  1.00  0.00    -0.032 C 
HETATM   28  C27 UNL     1       4.279   9.963  21.016  1.00  0.00     0.016 C 
HETATM   29  O2  UNL     1       9.712  12.173  21.680  1.00  0.00    -0.313 OA
HETATM   30  C28 UNL     1       9.706  11.709  20.396  1.00  0.00     0.297 C 
HETATM   31  O3  UNL     1      10.488  10.899  19.927  1.00  0.00    -0.262 OA
HETATM   32  C29 UNL     1       8.567  12.305  19.679  1.00  0.00     0.175 A 
HETATM   33  C30 UNL     1       8.163  11.905  18.284  1.00  0.00     0.218 A 
HETATM   34  O4  UNL     1       8.932  13.089  18.524  1.00  0.00    -0.364 OA
ENDROOT
TORSDOF 0
ENDMDL
MODEL 7
REMARK minimizedAffinity -8.72134304
REMARK  0 active torsions:
REMARK  status: ('A' for Active; 'I' for Inactive)
ROOT
HETATM    1  C1  UNL     1      -1.026  12.522  19.266  1.00  0.00     0.023 C 
HETATM    2  C2  UNL     1      -1.965  12.352  18.051  1.00  0.00     0.017 C 
HETATM    3  C3  UNL     1      -3.394  12.258  18.649  1.00  0.00     0.023 C 
HETATM    4  C4  UNL     1      -1.856  13.604  17.171  1.00  0.00     0.135 C 
HETATM    5  O1  UNL     1      -2.671  14.526  17.240  1.00  0.00    -0.297 OA
HETATM    6  C5  UNL     1      -0.641  13.730  16.276  1.00  0.00     0.080 C 
HETATM    7  C6  UNL     1      -0.372  12.463  15.469  1.00  0.00     0.017 C 
HETATM    8  C7  UNL     1      -0.308  11.148  16.311  1.00  0.00    -0.035 C 
HETATM    9  C8  UNL     1       0.949  11.236  17.211  1.00  0.00     0.016 C 
HETATM   10  C9  UNL     1      -1.632  11.081  17.161  1.00  0.00     0.009 C 
HETATM   11  C10 UNL     1      -2.869  10.727  16.284  1.00  0.00     0.007 C 
HETATM   12  C11 UNL     1      -2.625   9.965  14.988  1.00  0.00     0.011 C 
HETATM   13  C12 UNL     1      -1.407   9.028  15.011  1.00  0.00    -0.032 C 
HETATM   14  C13 UNL     1      -1.637   8.000  16.162  1.00  0.00     0.016 C 
HETATM   15  C14 UNL     1      -0.139   9.903  15.289  1.00  0.00     0.003 C 
HETATM   16  C15 UNL     1       1.076   8.967  15.535  1.00  0.00     0.006 C 
HETATM   17  C16 UNL     1       1.142   7.738  14.612  1.00  0.00     0.006 C 
HETATM   18  C17 UNL     1       0.329   7.923  13.329  1.00  0.00    -0.000 C 
HETATM   19  C18 UNL     1       0.527   6.840  12.247  1.00  0.00     0.009 C 
HETATM   20  C19 UNL     1       1.921   6.261  11.974  1.00  0.00     0.067 C 
HETATM   21  C20 UNL     1       1.615   5.041  11.065  1.00  0.00     0.140 C 
HETATM   22  C21 UNL     1       0.094   4.805  11.131  1.00  0.00     0.042 C 
HETATM   23  C22 UNL     1      -0.362   5.591  12.373  1.00  0.00    -0.037 C 
HETATM   24  C23 UNL     1      -0.111   4.709  13.617  1.00  0.00     0.015 C 
HETATM   25  C24 UNL     1      -1.826   6.038  12.320  1.00  0.00     0.010 C 
HETATM   26  C25 UNL     1      -2.146   7.011  13.465  1.00  0.00     0.011 C 
HETATM   27  C26 UNL     1      -1.208   8.265  13.579  1.00  0.00    -0.032 C 
HETATM   28  C27 UNL     1      -1.622   9.202  12.393  1.00  0.00     0.016 C 
HETATM   29  O2  UNL     1       1.988   5.377   9.715  1.00  0.00    -0.313 OA
HETATM   30  C28 UNL     1       2.688   6.549   9.698  1.00  0.00     0.297 C 
HETATM   31  O3  UNL     1       3.132   7.101   8.706  1.00  0.00    -0.262 OA
HETATM   32  C29 UNL     1       2.779   7.069  11.073  1.00  0.00     0.175 A 
HETATM   33  C30 UNL     1       3.353   8.420  11.413  1.00  0.00     0.218 A 
HETATM   34  O4  UNL     1       4.126   7.224  11.566  1.00  0.00    -0.364 OA
ENDROOT
TORSDOF 0
ENDMDL
MODEL 8
REMARK minimizedAffinity -8.43185043
REMARK  0 active torsions:
REMARK  status: ('A' for Active; 'I' for Inactive)
ROOT
HETATM    1  C1  UNL     1      -3.771   5.877  15.543  1.00  0.00     0.023 C 
HETATM    2  C2  UNL     1      -3.482   6.021  14.032  1.00  0.00     0.017 C 
HETATM    3  C3  UNL     1      -3.991   4.702  13.391  1.00  0.00     0.023 C 
HETATM    4  C4  UNL     1      -4.296   7.204  13.491  1.00  0.00     0.135 C 
HETATM    5  O1  UNL     1      -5.378   7.049  12.922  1.00  0.00    -0.297 OA
HETATM    6  C5  UNL     1      -3.779   8.600  13.773  1.00  0.00     0.080 C 
HETATM    7  C6  UNL     1      -2.297   8.754  13.446  1.00  0.00     0.017 C 
HETATM    8  C7  UNL     1      -1.365   7.676  14.089  1.00  0.00    -0.035 C 
HETATM    9  C8  UNL     1      -1.389   7.901  15.621  1.00  0.00     0.016 C 
HETATM   10  C9  UNL     1      -1.952   6.269  13.696  1.00  0.00     0.009 C 
HETATM   11  C10 UNL     1      -1.690   5.927  12.200  1.00  0.00     0.007 C 
HETATM   12  C11 UNL     1      -0.511   6.605  11.513  1.00  0.00     0.011 C 
HETATM   13  C12 UNL     1       0.668   6.943  12.441  1.00  0.00    -0.032 C 
HETATM   14  C13 UNL     1       1.156   5.602  13.073  1.00  0.00     0.016 C 
HETATM   15  C14 UNL     1       0.139   7.920  13.544  1.00  0.00     0.003 C 
HETATM   16  C15 UNL     1       1.243   8.110  14.620  1.00  0.00     0.006 C 
HETATM   17  C16 UNL     1       2.672   8.231  14.065  1.00  0.00     0.006 C 
HETATM   18  C17 UNL     1       2.698   8.650  12.594  1.00  0.00    -0.000 C 
HETATM   19  C18 UNL     1       4.084   9.021  12.025  1.00  0.00     0.009 C 
HETATM   20  C19 UNL     1       5.084   9.816  12.874  1.00  0.00     0.067 C 
HETATM   21  C20 UNL     1       6.397   9.702  12.056  1.00  0.00     0.140 C 
HETATM   22  C21 UNL     1       6.166   8.615  10.988  1.00  0.00     0.042 C 
HETATM   23  C22 UNL     1       4.924   7.852  11.482  1.00  0.00    -0.037 C 
HETATM   24  C23 UNL     1       5.384   6.812  12.527  1.00  0.00     0.015 C 
HETATM   25  C24 UNL     1       4.129   7.172  10.363  1.00  0.00     0.010 C 
HETATM   26  C25 UNL     1       2.788   6.637  10.887  1.00  0.00     0.011 C 
HETATM   27  C26 UNL     1       1.879   7.681  11.629  1.00  0.00    -0.032 C 
HETATM   28  C27 UNL     1       1.304   8.606  10.503  1.00  0.00     0.016 C 
HETATM   29  O2  UNL     1       6.639  10.965  11.406  1.00  0.00    -0.313 OA
HETATM   30  C28 UNL     1       5.781  11.911  11.887  1.00  0.00     0.297 C 
HETATM   31  O3  UNL     1       5.729  13.076  11.528  1.00  0.00    -0.262 OA
HETATM   32  C29 UNL     1       4.888  11.287  12.876  1.00  0.00     0.175 A 
HETATM   33  C30 UNL     1       3.716  11.997  13.504  1.00  0.00     0.218 A 
HETATM   34  O4  UNL     1       4.962  11.863  14.197  1.00  0.00    -0.364 OA
ENDROOT
TORSDOF 0
ENDMDL
MODEL 9
REMARK minimizedAffinity -8.32523632
REMARK  0 active torsions:
REMARK  status: ('A' for Active; 'I' for Inactive)
ROOT
HETATM    1  C1  UNL     1      -4.795   8.823  13.843  1.00  0.00     0.023 C 
HETATM    2  C2  UNL     1      -3.850   8.345  14.968  1.00  0.00     0.017 C 
HETATM    3  C3  UNL     1      -4.355   9.050  16.255  1.00  0.00     0.023 C 
HETATM    4  C4  UNL     1      -4.001   6.825  15.119  1.00  0.00     0.135 C 
HETATM    5  O1  UNL     1      -4.724   6.322  15.980  1.00  0.00    -0.297 OA
HETATM    6  C5  UNL     1      -3.311   5.946  14.098  1.00  0.00     0.080 C 
HETATM    7  C6  UNL     1      -1.852   6.336  13.877  1.00  0.00     0.017 C 
HETATM    8  C7  UNL     1      -1.616   7.847  13.557  1.00  0.00    -0.035 C 
HETATM    9  C8  UNL     1      -2.245   8.130  12.171  1.00  0.00     0.016 C 
HETATM   10  C9  UNL     1      -2.321   8.673  14.699  1.00  0.00     0.009 C 
HETATM   11  C10 UNL     1      -1.533   8.602  16.039  1.00  0.00     0.007 C 
HETATM   12  C11 UNL     1      -0.040   8.305  15.970  1.00  0.00     0.011 C 
HETATM   13  C12 UNL     1       0.658   8.808  14.696  1.00  0.00    -0.032 C 
HETATM   14  C13 UNL     1       0.449  10.352  14.633  1.00  0.00     0.016 C 
HETATM   15  C14 UNL     1      -0.020   8.102  13.473  1.00  0.00     0.003 C 
HETATM   16  C15 UNL     1       0.510   8.745  12.163  1.00  0.00     0.006 C 
HETATM   17  C16 UNL     1       2.014   9.069  12.164  1.00  0.00     0.006 C 
HETATM   18  C17 UNL     1       2.788   8.259  13.205  1.00  0.00    -0.000 C 
HETATM   19  C18 UNL     1       4.327   8.349  13.117  1.00  0.00     0.009 C 
HETATM   20  C19 UNL     1       5.027   8.362  11.753  1.00  0.00     0.067 C 
HETATM   21  C20 UNL     1       6.483   8.753  12.116  1.00  0.00     0.140 C 
HETATM   22  C21 UNL     1       6.463   9.243  13.577  1.00  0.00     0.042 C 
HETATM   23  C22 UNL     1       4.977   9.524  13.866  1.00  0.00    -0.037 C 
HETATM   24  C23 UNL     1       4.643  10.933  13.327  1.00  0.00     0.015 C 
HETATM   25  C24 UNL     1       4.603   9.415  15.346  1.00  0.00     0.010 C 
HETATM   26  C25 UNL     1       3.079   9.470  15.534  1.00  0.00     0.011 C 
HETATM   27  C26 UNL     1       2.249   8.434  14.695  1.00  0.00    -0.032 C 
HETATM   28  C27 UNL     1       2.490   7.049  15.389  1.00  0.00     0.016 C 
HETATM   29  O2  UNL     1       7.308   7.576  12.019  1.00  0.00    -0.313 OA
HETATM   30  C28 UNL     1       6.610   6.562  11.430  1.00  0.00     0.297 C 
HETATM   31  O3  UNL     1       7.030   5.437  11.217  1.00  0.00    -0.262 OA
HETATM   32  C29 UNL     1       5.245   7.029  11.137  1.00  0.00     0.175 A 
HETATM   33  C30 UNL     1       4.152   6.129  10.622  1.00  0.00     0.218 A 
HETATM   34  O4  UNL     1       4.885   6.987   9.741  1.00  0.00    -0.364 OA
ENDROOT
TORSDOF 0
ENDMDL
