MODEL 1
REMARK minimizedAffinity -8.48676968
REMARK CNNscore 0.468163937
REMARK CNNaffinity 6.63976288
REMARK  10 active torsions:
REMARK  status: ('A' for Active; 'I' for Inactive)
REMARK    1  A    between atoms: C3_3  and  O1_4 
REMARK    2  A    between atoms: N1_14  and  O2_16 
REMARK    3  A    between atoms: O2_16  and  C13_17 
REMARK    4  A    between atoms: C13_17  and  C14_18 
REMARK       I    between atoms: C14_18  and  N2_20 
REMARK    5  A    between atoms: N2_20  and  C15_21 
REMARK    6  A    between atoms: C15_21  and  C16_22 
REMARK       I    between atoms: C16_22  and  N3_24 
REMARK    7  A    between atoms: N3_24  and  C17_25 
REMARK    8  A    between atoms: C17_25  and  C18_26 
REMARK    9  A    between atoms: C17_25  and  C19_29 
REMARK   10  A    between atoms: C18_26  and  O6_28 
ROOT
HETATM    1  C1  UNL     1       0.018  55.605 -26.986  1.00  0.00     0.015 C 
HETATM    2  C2  UNL     1      -0.262  54.437 -26.977  1.00  0.00    -0.078 C 
HETATM    3  C3  UNL     1      -0.611  53.007 -26.990  1.00  0.00     0.128 C 
HETATM    4  C4  UNL     1       0.592  52.124 -27.336  1.00  0.00     0.052 C 
HETATM    5  C5  UNL     1       0.089  50.729 -26.977  1.00  0.00     0.010 C 
HETATM    6  C6  UNL     1      -0.634  50.937 -25.640  1.00  0.00     0.002 C 
HETATM    7  C7  UNL     1      -1.671  49.862 -25.240  1.00  0.00    -0.004 C 
HETATM    8  C8  UNL     1      -2.607  49.352 -26.349  1.00  0.00     0.010 C 
HETATM    9  C9  UNL     1      -3.539  48.254 -25.839  1.00  0.00     0.035 C 
HETATM   10  C10 UNL     1      -4.270  48.606 -24.562  1.00  0.00    -0.069 C 
HETATM   11  C11 UNL     1      -5.578  48.318 -24.442  1.00  0.00     0.030 C 
HETATM   12  C12 UNL     1      -6.299  48.456 -23.150  1.00  0.00     0.032 C 
HETATM   13  N1  UNL     1      -7.561  48.128 -23.127  1.00  0.00    -0.271 N 
ATOM     14  H1  UNL     1      -8.095  47.844 -23.949  1.00  0.00     0.194 HD
HETATM   15  C22 UNL     1      -5.503  48.877 -21.931  1.00  0.00     0.060 C 
HETATM   16  C23 UNL     1      -4.358  49.804 -22.327  1.00  0.00     0.020 C 
HETATM   17  C24 UNL     1      -3.439  49.220 -23.439  1.00  0.00    -0.016 C 
HETATM   18  C25 UNL     1      -2.582  48.097 -22.795  1.00  0.00     0.020 C 
HETATM   19  C26 UNL     1      -2.493  50.347 -24.017  1.00  0.00     0.002 C 
HETATM   20  C27 UNL     1      -3.235  51.672 -24.338  1.00  0.00     0.007 C 
HETATM   21  C28 UNL     1      -2.643  52.532 -25.458  1.00  0.00     0.014 C 
HETATM   22  C29 UNL     1      -1.118  52.426 -25.620  1.00  0.00     0.003 C 
HETATM   23  C30 UNL     1      -0.444  53.134 -24.411  1.00  0.00     0.020 C 
ENDROOT
BRANCH   3  24
HETATM   24  O1  UNL     1      -1.584  52.794 -28.021  1.00  0.00    -0.377 OA
HETATM   25  H2  UNL     1      -1.352  53.386 -28.756  1.00  0.00     0.211 HD
ENDBRANCH   3  24
BRANCH  13  26
HETATM   26  O2  UNL     1      -8.094  48.214 -21.835  1.00  0.00    -0.271 OA
BRANCH  26  27
HETATM   27  C13 UNL     1      -8.739  46.982 -21.521  1.00  0.00     0.303 C 
BRANCH  27  28
HETATM   28  C14 UNL     1     -10.098  47.245 -20.882  1.00  0.00     0.244 C 
HETATM   29  O3  UNL     1     -10.234  47.915 -19.861  1.00  0.00    -0.271 OA
HETATM   30  N2  UNL     1     -11.168  46.739 -21.591  1.00  0.00    -0.350 N 
HETATM   31  H16 UNL     1     -10.950  45.979 -22.232  1.00  0.00     0.163 HD
BRANCH  30  32
HETATM   32  C15 UNL     1     -12.503  46.742 -21.029  1.00  0.00     0.225 C 
BRANCH  32  33
HETATM   33  C16 UNL     1     -13.517  47.134 -22.108  1.00  0.00     0.236 C 
HETATM   34  O4  UNL     1     -14.522  47.800 -21.860  1.00  0.00    -0.272 OA
HETATM   35  N3  UNL     1     -13.245  46.609 -23.356  1.00  0.00    -0.345 N 
HETATM   36  H19 UNL     1     -12.264  46.423 -23.540  1.00  0.00     0.163 HD
BRANCH  35  37
HETATM   37  C17 UNL     1     -14.005  47.051 -24.532  1.00  0.00     0.185 C 
BRANCH  37  38
HETATM   38  C18 UNL     1     -13.112  47.049 -25.783  1.00  0.00     0.163 C 
HETATM   39  O5  UNL     1     -13.179  47.827 -26.721  1.00  0.00    -0.648 OA
BRANCH  38  40
HETATM   40  O6  UNL     1     -12.234  46.021 -25.816  1.00  0.00    -0.775 OA
HETATM   41  H21 UNL     1     -11.728  46.164 -26.645  1.00  0.00     0.167 HD
ENDBRANCH  38  40
ENDBRANCH  37  38
BRANCH  37  42
HETATM   42  C19 UNL     1     -15.261  46.184 -24.765  1.00  0.00     0.010 C 
HETATM   43  C20 UNL     1     -16.572  46.915 -24.456  1.00  0.00     0.012 C 
HETATM   44  C21 UNL     1     -15.294  45.640 -26.197  1.00  0.00     0.012 C 
ENDBRANCH  37  42
ENDBRANCH  35  37
ENDBRANCH  32  33
ENDBRANCH  30  32
ENDBRANCH  27  28
ENDBRANCH  26  27
ENDBRANCH  13  26
TORSDOF 10
ENDMDL
MODEL 2
REMARK minimizedAffinity -7.77475119
REMARK CNNscore 0.389746159
REMARK CNNaffinity 6.67235327
REMARK  10 active torsions:
REMARK  status: ('A' for Active; 'I' for Inactive)
REMARK    1  A    between atoms: C3_3  and  O1_4 
REMARK    2  A    between atoms: N1_14  and  O2_16 
REMARK    3  A    between atoms: O2_16  and  C13_17 
REMARK    4  A    between atoms: C13_17  and  C14_18 
REMARK       I    between atoms: C14_18  and  N2_20 
REMARK    5  A    between atoms: N2_20  and  C15_21 
REMARK    6  A    between atoms: C15_21  and  C16_22 
REMARK       I    between atoms: C16_22  and  N3_24 
REMARK    7  A    between atoms: N3_24  and  C17_25 
REMARK    8  A    between atoms: C17_25  and  C18_26 
REMARK    9  A    between atoms: C17_25  and  C19_29 
REMARK   10  A    between atoms: C18_26  and  O6_28 
ROOT
HETATM    1  C1  UNL     1      -0.058  56.964  -7.390  1.00  0.00     0.015 C 
HETATM    2  C2  UNL     1       0.588  56.131  -7.966  1.00  0.00    -0.078 C 
HETATM    3  C3  UNL     1       1.398  55.128  -8.677  1.00  0.00     0.128 C 
HETATM    4  C4  UNL     1       2.243  54.287  -7.714  1.00  0.00     0.052 C 
HETATM    5  C5  UNL     1       2.721  53.147  -8.609  1.00  0.00     0.010 C 
HETATM    6  C6  UNL     1       1.471  52.770  -9.416  1.00  0.00     0.002 C 
HETATM    7  C7  UNL     1       1.707  52.011 -10.742  1.00  0.00    -0.004 C 
HETATM    8  C8  UNL     1       2.862  52.505 -11.630  1.00  0.00     0.010 C 
HETATM    9  C9  UNL     1       3.026  51.635 -12.876  1.00  0.00     0.035 C 
HETATM   10  C10 UNL     1       1.743  51.407 -13.645  1.00  0.00    -0.069 C 
HETATM   11  C11 UNL     1       1.746  51.494 -14.987  1.00  0.00     0.030 C 
HETATM   12  C12 UNL     1       0.573  51.088 -15.805  1.00  0.00     0.032 C 
HETATM   13  N1  UNL     1       0.681  51.185 -17.101  1.00  0.00    -0.271 N 
ATOM     14  H1  UNL     1       1.491  51.577 -17.581  1.00  0.00     0.194 HD
HETATM   15  C22 UNL     1      -0.628  50.505 -15.088  1.00  0.00     0.060 C 
HETATM   16  C23 UNL     1      -0.777  51.115 -13.699  1.00  0.00     0.020 C 
HETATM   17  C24 UNL     1       0.512  51.017 -12.831  1.00  0.00    -0.016 C 
HETATM   18  C25 UNL     1       0.667  49.537 -12.390  1.00  0.00     0.020 C 
HETATM   19  C26 UNL     1       0.388  51.943 -11.556  1.00  0.00     0.002 C 
HETATM   20  C27 UNL     1      -0.141  53.367 -11.875  1.00  0.00     0.007 C 
HETATM   21  C28 UNL     1       0.316  54.490 -10.940  1.00  0.00     0.014 C 
HETATM   22  C29 UNL     1       0.581  54.057  -9.489  1.00  0.00     0.003 C 
HETATM   23  C30 UNL     1      -0.780  53.738  -8.811  1.00  0.00     0.020 C 
ENDROOT
BRANCH   3  24
HETATM   24  O1  UNL     1       2.317  55.819  -9.531  1.00  0.00    -0.377 OA
HETATM   25  H2  UNL     1       2.593  56.623  -9.059  1.00  0.00     0.211 HD
ENDBRANCH   3  24
BRANCH  13  26
HETATM   26  O2  UNL     1      -0.453  50.684 -17.752  1.00  0.00    -0.271 OA
BRANCH  26  27
HETATM   27  C13 UNL     1      -1.126  51.764 -18.397  1.00  0.00     0.303 C 
BRANCH  27  28
HETATM   28  C14 UNL     1      -0.420  52.121 -19.701  1.00  0.00     0.244 C 
HETATM   29  O3  UNL     1       0.355  53.068 -19.800  1.00  0.00    -0.271 OA
HETATM   30  N2  UNL     1      -0.662  51.243 -20.737  1.00  0.00    -0.350 N 
HETATM   31  H16 UNL     1      -1.511  50.686 -20.653  1.00  0.00     0.163 HD
BRANCH  30  32
HETATM   32  C15 UNL     1      -0.219  51.538 -22.085  1.00  0.00     0.225 C 
BRANCH  32  33
HETATM   33  C16 UNL     1      -1.405  51.453 -23.049  1.00  0.00     0.236 C 
HETATM   34  O4  UNL     1      -2.569  51.613 -22.682  1.00  0.00    -0.272 OA
HETATM   35  N3  UNL     1      -1.060  51.102 -24.339  1.00  0.00    -0.345 N 
HETATM   36  H19 UNL     1      -0.119  51.362 -24.619  1.00  0.00     0.163 HD
BRANCH  35  37
HETATM   37  C17 UNL     1      -2.051  51.171 -25.420  1.00  0.00     0.185 C 
BRANCH  37  38
HETATM   38  C18 UNL     1      -1.602  52.170 -26.499  1.00  0.00     0.163 C 
HETATM   39  O5  UNL     1      -2.314  52.968 -27.088  1.00  0.00    -0.648 OA
BRANCH  38  40
HETATM   40  O6  UNL     1      -0.295  52.056 -26.829  1.00  0.00    -0.775 OA
HETATM   41  H21 UNL     1      -0.154  52.760 -27.499  1.00  0.00     0.167 HD
ENDBRANCH  38  40
ENDBRANCH  37  38
BRANCH  37  42
HETATM   42  C19 UNL     1      -2.318  49.786 -26.048  1.00  0.00     0.010 C 
HETATM   43  C20 UNL     1      -3.113  48.847 -25.134  1.00  0.00     0.012 C 
HETATM   44  C21 UNL     1      -3.029  49.922 -27.398  1.00  0.00     0.012 C 
ENDBRANCH  37  42
ENDBRANCH  35  37
ENDBRANCH  32  33
ENDBRANCH  30  32
ENDBRANCH  27  28
ENDBRANCH  26  27
ENDBRANCH  13  26
TORSDOF 10
ENDMDL
MODEL 3
REMARK minimizedAffinity -7.79581308
REMARK CNNscore 0.326979935
REMARK CNNaffinity 5.9132061
REMARK  10 active torsions:
REMARK  status: ('A' for Active; 'I' for Inactive)
REMARK    1  A    between atoms: C3_3  and  O1_4 
REMARK    2  A    between atoms: N1_14  and  O2_16 
REMARK    3  A    between atoms: O2_16  and  C13_17 
REMARK    4  A    between atoms: C13_17  and  C14_18 
REMARK       I    between atoms: C14_18  and  N2_20 
REMARK    5  A    between atoms: N2_20  and  C15_21 
REMARK    6  A    between atoms: C15_21  and  C16_22 
REMARK       I    between atoms: C16_22  and  N3_24 
REMARK    7  A    between atoms: N3_24  and  C17_25 
REMARK    8  A    between atoms: C17_25  and  C18_26 
REMARK    9  A    between atoms: C17_25  and  C19_29 
REMARK   10  A    between atoms: C18_26  and  O6_28 
ROOT
HETATM    1  C1  UNL     1      -2.968  51.578 -19.194  1.00  0.00     0.015 C 
HETATM    2  C2  UNL     1      -3.140  50.936 -20.193  1.00  0.00    -0.078 C 
HETATM    3  C3  UNL     1      -3.338  50.166 -21.433  1.00  0.00     0.128 C 
HETATM    4  C4  UNL     1      -2.244  49.114 -21.637  1.00  0.00     0.052 C 
HETATM    5  C5  UNL     1      -2.820  48.257 -22.761  1.00  0.00     0.010 C 
HETATM    6  C6  UNL     1      -4.294  48.088 -22.370  1.00  0.00     0.002 C 
HETATM    7  C7  UNL     1      -5.271  47.708 -23.506  1.00  0.00    -0.004 C 
HETATM    8  C8  UNL     1      -5.091  48.434 -24.850  1.00  0.00     0.010 C 
HETATM    9  C9  UNL     1      -6.077  47.925 -25.901  1.00  0.00     0.035 C 
HETATM   10  C10 UNL     1      -7.515  47.890 -25.435  1.00  0.00    -0.069 C 
HETATM   11  C11 UNL     1      -8.491  48.327 -26.251  1.00  0.00     0.030 C 
HETATM   12  C12 UNL     1      -9.930  48.134 -25.931  1.00  0.00     0.032 C 
HETATM   13  N1  UNL     1     -10.802  48.570 -26.796  1.00  0.00    -0.271 N 
ATOM     14  H1  UNL     1     -10.562  49.086 -27.643  1.00  0.00     0.194 HD
HETATM   15  C22 UNL     1     -10.284  47.365 -24.673  1.00  0.00     0.060 C 
HETATM   16  C23 UNL     1      -9.232  47.586 -23.591  1.00  0.00     0.020 C 
HETATM   17  C24 UNL     1      -7.779  47.282 -24.060  1.00  0.00    -0.016 C 
HETATM   18  C25 UNL     1      -7.638  45.740 -24.172  1.00  0.00     0.020 C 
HETATM   19  C26 UNL     1      -6.736  47.838 -23.012  1.00  0.00     0.002 C 
HETATM   20  C27 UNL     1      -7.038  49.288 -22.547  1.00  0.00     0.007 C 
HETATM   21  C28 UNL     1      -5.835  50.131 -22.117  1.00  0.00     0.014 C 
HETATM   22  C29 UNL     1      -4.672  49.336 -21.502  1.00  0.00     0.003 C 
HETATM   23  C30 UNL     1      -5.107  48.830 -20.099  1.00  0.00     0.020 C 
ENDROOT
BRANCH   3  24
HETATM   24  O1  UNL     1      -3.247  51.071 -22.540  1.00  0.00    -0.377 OA
HETATM   25  H2  UNL     1      -2.566  51.726 -22.315  1.00  0.00     0.211 HD
ENDBRANCH   3  24
BRANCH  13  26
HETATM   26  O2  UNL     1     -12.111  48.242 -26.420  1.00  0.00    -0.271 OA
BRANCH  26  27
HETATM   27  C13 UNL     1     -12.819  47.789 -27.572  1.00  0.00     0.303 C 
BRANCH  27  28
HETATM   28  C14 UNL     1     -13.364  46.385 -27.337  1.00  0.00     0.244 C 
HETATM   29  O3  UNL     1     -12.715  45.504 -26.779  1.00  0.00    -0.271 OA
HETATM   30  N2  UNL     1     -14.676  46.210 -27.729  1.00  0.00    -0.350 N 
HETATM   31  H16 UNL     1     -15.019  46.873 -28.421  1.00  0.00     0.163 HD
BRANCH  30  32
HETATM   32  C15 UNL     1     -15.281  44.894 -27.745  1.00  0.00     0.225 C 
BRANCH  32  33
HETATM   33  C16 UNL     1     -16.531  44.889 -26.860  1.00  0.00     0.236 C 
HETATM   34  O4  UNL     1     -17.538  44.239 -27.142  1.00  0.00    -0.272 OA
HETATM   35  N3  UNL     1     -16.456  45.736 -25.773  1.00  0.00    -0.345 N 
HETATM   36  H19 UNL     1     -15.518  45.911 -25.427  1.00  0.00     0.163 HD
BRANCH  35  37
HETATM   37  C17 UNL     1     -17.485  45.697 -24.726  1.00  0.00     0.185 C 
BRANCH  37  38
HETATM   38  C18 UNL     1     -18.794  46.323 -25.234  1.00  0.00     0.163 C 
HETATM   39  O5  UNL     1     -19.612  45.794 -25.970  1.00  0.00    -0.648 OA
BRANCH  38  40
HETATM   40  O6  UNL     1     -18.963  47.608 -24.846  1.00  0.00    -0.775 OA
HETATM   41  H21 UNL     1     -19.835  47.859 -25.220  1.00  0.00     0.167 HD
ENDBRANCH  38  40
ENDBRANCH  37  38
BRANCH  37  42
HETATM   42  C19 UNL     1     -17.737  44.261 -24.218  1.00  0.00     0.010 C 
HETATM   43  C20 UNL     1     -16.452  43.511 -23.851  1.00  0.00     0.012 C 
HETATM   44  C21 UNL     1     -18.698  44.261 -23.026  1.00  0.00     0.012 C 
ENDBRANCH  37  42
ENDBRANCH  35  37
ENDBRANCH  32  33
ENDBRANCH  30  32
ENDBRANCH  27  28
ENDBRANCH  26  27
ENDBRANCH  13  26
TORSDOF 10
ENDMDL
MODEL 4
REMARK minimizedAffinity -8.90122795
REMARK CNNscore 0.308066607
REMARK CNNaffinity 6.55560446
REMARK  10 active torsions:
REMARK  status: ('A' for Active; 'I' for Inactive)
REMARK    1  A    between atoms: C3_3  and  O1_4 
REMARK    2  A    between atoms: N1_14  and  O2_16 
REMARK    3  A    between atoms: O2_16  and  C13_17 
REMARK    4  A    between atoms: C13_17  and  C14_18 
REMARK       I    between atoms: C14_18  and  N2_20 
REMARK    5  A    between atoms: N2_20  and  C15_21 
REMARK    6  A    between atoms: C15_21  and  C16_22 
REMARK       I    between atoms: C16_22  and  N3_24 
REMARK    7  A    between atoms: N3_24  and  C17_25 
REMARK    8  A    between atoms: C17_25  and  C18_26 
REMARK    9  A    between atoms: C17_25  and  C19_29 
REMARK   10  A    between atoms: C18_26  and  O6_28 
ROOT
HETATM    1  C1  UNL     1      -0.617  53.672 -28.111  1.00  0.00     0.015 C 
HETATM    2  C2  UNL     1      -1.290  52.994 -27.384  1.00  0.00    -0.078 C 
HETATM    3  C3  UNL     1      -2.134  52.179 -26.495  1.00  0.00     0.128 C 
HETATM    4  C4  UNL     1      -2.866  51.069 -27.256  1.00  0.00     0.052 C 
HETATM    5  C5  UNL     1      -3.392  50.189 -26.126  1.00  0.00     0.010 C 
HETATM    6  C6  UNL     1      -2.212  50.107 -25.149  1.00  0.00     0.002 C 
HETATM    7  C7  UNL     1      -2.547  49.722 -23.690  1.00  0.00    -0.004 C 
HETATM    8  C8  UNL     1      -3.790  50.377 -23.065  1.00  0.00     0.010 C 
HETATM    9  C9  UNL     1      -4.043  49.867 -21.647  1.00  0.00     0.035 C 
HETATM   10  C10 UNL     1      -2.830  49.920 -20.745  1.00  0.00    -0.069 C 
HETATM   11  C11 UNL     1      -2.957  50.365 -19.482  1.00  0.00     0.030 C 
HETATM   12  C12 UNL     1      -1.854  50.253 -18.493  1.00  0.00     0.032 C 
HETATM   13  N1  UNL     1      -2.081  50.690 -17.286  1.00  0.00    -0.271 N 
ATOM     14  H1  UNL     1      -2.941  51.156 -16.997  1.00  0.00     0.194 HD
HETATM   15  C22 UNL     1      -0.577  49.560 -18.925  1.00  0.00     0.060 C 
HETATM   16  C23 UNL     1      -0.318  49.781 -20.412  1.00  0.00     0.020 C 
HETATM   17  C24 UNL     1      -1.521  49.388 -21.320  1.00  0.00    -0.016 C 
HETATM   18  C25 UNL     1      -1.595  47.838 -21.352  1.00  0.00     0.020 C 
HETATM   19  C26 UNL     1      -1.306  49.942 -22.785  1.00  0.00     0.002 C 
HETATM   20  C27 UNL     1      -0.846  51.424 -22.825  1.00  0.00     0.007 C 
HETATM   21  C28 UNL     1      -1.245  52.229 -24.064  1.00  0.00     0.014 C 
HETATM   22  C29 UNL     1      -1.367  51.409 -25.359  1.00  0.00     0.003 C 
HETATM   23  C30 UNL     1       0.059  50.988 -25.812  1.00  0.00     0.020 C 
ENDROOT
BRANCH   3  24
HETATM   24  O1  UNL     1      -3.145  53.027 -25.938  1.00  0.00    -0.377 OA
HETATM   25  H2  UNL     1      -3.399  53.659 -26.631  1.00  0.00     0.211 HD
ENDBRANCH   3  24
BRANCH  13  26
HETATM   26  O2  UNL     1      -0.997  50.441 -16.434  1.00  0.00    -0.271 OA
BRANCH  26  27
HETATM   27  C13 UNL     1      -0.533  51.682 -15.908  1.00  0.00     0.303 C 
BRANCH  27  28
HETATM   28  C14 UNL     1       0.724  51.463 -15.073  1.00  0.00     0.244 C 
HETATM   29  O3  UNL     1       1.660  50.764 -15.452  1.00  0.00    -0.271 OA
HETATM   30  N2  UNL     1       0.758  52.181 -13.895  1.00  0.00    -0.350 N 
HETATM   31  H16 UNL     1      -0.147  52.484 -13.540  1.00  0.00     0.163 HD
BRANCH  30  32
HETATM   32  C15 UNL     1       1.790  51.946 -12.907  1.00  0.00     0.225 C 
BRANCH  32  33
HETATM   33  C16 UNL     1       1.616  52.917 -11.736  1.00  0.00     0.236 C 
HETATM   34  O4  UNL     1       0.516  53.165 -11.240  1.00  0.00    -0.272 OA
HETATM   35  N3  UNL     1       2.782  53.545 -11.345  1.00  0.00    -0.345 N 
HETATM   36  H19 UNL     1       3.633  53.023 -11.526  1.00  0.00     0.163 HD
BRANCH  35  37
HETATM   37  C17 UNL     1       2.819  54.349 -10.116  1.00  0.00     0.185 C 
BRANCH  37  38
HETATM   38  C18 UNL     1       3.850  53.779  -9.130  1.00  0.00     0.163 C 
HETATM   39  O5  UNL     1       5.009  53.487  -9.382  1.00  0.00    -0.648 OA
BRANCH  38  40
HETATM   40  O6  UNL     1       3.343  53.537  -7.899  1.00  0.00    -0.775 OA
HETATM   41  H21 UNL     1       4.110  53.204  -7.385  1.00  0.00     0.167 HD
ENDBRANCH  38  40
ENDBRANCH  37  38
BRANCH  37  42
HETATM   42  C19 UNL     1       3.117  55.835 -10.409  1.00  0.00     0.010 C 
HETATM   43  C20 UNL     1       3.482  56.641  -9.158  1.00  0.00     0.012 C 
HETATM   44  C21 UNL     1       4.224  55.977 -11.459  1.00  0.00     0.012 C 
ENDBRANCH  37  42
ENDBRANCH  35  37
ENDBRANCH  32  33
ENDBRANCH  30  32
ENDBRANCH  27  28
ENDBRANCH  26  27
ENDBRANCH  13  26
TORSDOF 10
ENDMDL
MODEL 5
REMARK minimizedAffinity -7.79454279
REMARK CNNscore 0.285118133
REMARK CNNaffinity 6.33243608
REMARK  10 active torsions:
REMARK  status: ('A' for Active; 'I' for Inactive)
REMARK    1  A    between atoms: C3_3  and  O1_4 
REMARK    2  A    between atoms: N1_14  and  O2_16 
REMARK    3  A    between atoms: O2_16  and  C13_17 
REMARK    4  A    between atoms: C13_17  and  C14_18 
REMARK       I    between atoms: C14_18  and  N2_20 
REMARK    5  A    between atoms: N2_20  and  C15_21 
REMARK    6  A    between atoms: C15_21  and  C16_22 
REMARK       I    between atoms: C16_22  and  N3_24 
REMARK    7  A    between atoms: N3_24  and  C17_25 
REMARK    8  A    between atoms: C17_25  and  C18_26 
REMARK    9  A    between atoms: C17_25  and  C19_29 
REMARK   10  A    between atoms: C18_26  and  O6_28 
ROOT
HETATM    1  C1  UNL     1       2.214  51.828 -26.648  1.00  0.00     0.015 C 
HETATM    2  C2  UNL     1       1.037  51.966 -26.454  1.00  0.00    -0.078 C 
HETATM    3  C3  UNL     1      -0.402  52.158 -26.208  1.00  0.00     0.128 C 
HETATM    4  C4  UNL     1      -1.153  52.562 -27.481  1.00  0.00     0.052 C 
HETATM    5  C5  UNL     1      -2.612  52.386 -27.070  1.00  0.00     0.010 C 
HETATM    6  C6  UNL     1      -2.615  51.060 -26.298  1.00  0.00     0.002 C 
HETATM    7  C7  UNL     1      -3.797  50.826 -25.330  1.00  0.00    -0.004 C 
HETATM    8  C8  UNL     1      -4.234  52.020 -24.463  1.00  0.00     0.010 C 
HETATM    9  C9  UNL     1      -5.447  51.674 -23.599  1.00  0.00     0.035 C 
HETATM   10  C10 UNL     1      -5.299  50.393 -22.810  1.00  0.00    -0.069 C 
HETATM   11  C11 UNL     1      -5.688  50.353 -21.523  1.00  0.00     0.030 C 
HETATM   12  C12 UNL     1      -5.755  49.081 -20.759  1.00  0.00     0.032 C 
HETATM   13  N1  UNL     1      -6.168  49.141 -19.524  1.00  0.00    -0.271 N 
ATOM     14  H1  UNL     1      -6.388  50.009 -19.035  1.00  0.00     0.194 HD
HETATM   15  C22 UNL     1      -5.428  47.793 -21.489  1.00  0.00     0.060 C 
HETATM   16  C23 UNL     1      -4.385  48.037 -22.575  1.00  0.00     0.020 C 
HETATM   17  C24 UNL     1      -4.768  49.177 -23.564  1.00  0.00    -0.016 C 
HETATM   18  C25 UNL     1      -5.898  48.638 -24.481  1.00  0.00     0.020 C 
HETATM   19  C26 UNL     1      -3.518  49.585 -24.442  1.00  0.00     0.002 C 
HETATM   20  C27 UNL     1      -2.218  49.776 -23.616  1.00  0.00     0.007 C 
HETATM   21  C28 UNL     1      -1.193  50.766 -24.175  1.00  0.00     0.014 C 
HETATM   22  C29 UNL     1      -1.175  50.884 -25.707  1.00  0.00     0.003 C 
HETATM   23  C30 UNL     1      -0.572  49.578 -26.296  1.00  0.00     0.020 C 
ENDROOT
BRANCH   3  24
HETATM   24  O1  UNL     1      -0.556  53.241 -25.282  1.00  0.00    -0.377 OA
HETATM   25  H2  UNL     1       0.133  53.893 -25.491  1.00  0.00     0.211 HD
ENDBRANCH   3  24
BRANCH  13  26
HETATM   26  O2  UNL     1      -6.272  47.867 -18.951  1.00  0.00    -0.271 OA
BRANCH  26  27
HETATM   27  C13 UNL     1      -7.200  47.926 -17.870  1.00  0.00     0.303 C 
BRANCH  27  28
HETATM   28  C14 UNL     1      -8.558  48.410 -18.366  1.00  0.00     0.244 C 
HETATM   29  O3  UNL     1      -8.982  49.542 -18.144  1.00  0.00    -0.271 OA
HETATM   30  N2  UNL     1      -9.234  47.501 -19.154  1.00  0.00    -0.350 N 
HETATM   31  H16 UNL     1      -8.954  46.529 -19.041  1.00  0.00     0.163 HD
BRANCH  30  32
HETATM   32  C15 UNL     1     -10.608  47.733 -19.550  1.00  0.00     0.225 C 
BRANCH  32  33
HETATM   33  C16 UNL     1     -11.535  46.791 -18.774  1.00  0.00     0.236 C 
HETATM   34  O4  UNL     1     -11.110  45.941 -17.992  1.00  0.00    -0.272 OA
HETATM   35  N3  UNL     1     -12.871  46.928 -19.092  1.00  0.00    -0.345 N 
HETATM   36  H19 UNL     1     -13.144  47.849 -19.420  1.00  0.00     0.163 HD
BRANCH  35  37
HETATM   37  C17 UNL     1     -13.899  46.242 -18.298  1.00  0.00     0.185 C 
BRANCH  37  38
HETATM   38  C18 UNL     1     -14.237  47.054 -17.037  1.00  0.00     0.163 C 
HETATM   39  O5  UNL     1     -14.002  46.731 -15.884  1.00  0.00    -0.648 OA
BRANCH  38  40
HETATM   40  O6  UNL     1     -14.918  48.193 -17.297  1.00  0.00    -0.775 OA
HETATM   41  H21 UNL     1     -15.040  48.607 -16.415  1.00  0.00     0.167 HD
ENDBRANCH  38  40
ENDBRANCH  37  38
BRANCH  37  42
HETATM   42  C19 UNL     1     -15.177  45.969 -19.121  1.00  0.00     0.010 C 
HETATM   43  C20 UNL     1     -16.167  45.036 -18.417  1.00  0.00     0.012 C 
HETATM   44  C21 UNL     1     -15.876  47.279 -19.500  1.00  0.00     0.012 C 
ENDBRANCH  37  42
ENDBRANCH  35  37
ENDBRANCH  32  33
ENDBRANCH  30  32
ENDBRANCH  27  28
ENDBRANCH  26  27
ENDBRANCH  13  26
TORSDOF 10
ENDMDL
MODEL 6
REMARK minimizedAffinity -7.6284914
REMARK CNNscore 0.278581202
REMARK CNNaffinity 6.47567368
REMARK  10 active torsions:
REMARK  status: ('A' for Active; 'I' for Inactive)
REMARK    1  A    between atoms: C3_3  and  O1_4 
REMARK    2  A    between atoms: N1_14  and  O2_16 
REMARK    3  A    between atoms: O2_16  and  C13_17 
REMARK    4  A    between atoms: C13_17  and  C14_18 
REMARK       I    between atoms: C14_18  and  N2_20 
REMARK    5  A    between atoms: N2_20  and  C15_21 
REMARK    6  A    between atoms: C15_21  and  C16_22 
REMARK       I    between atoms: C16_22  and  N3_24 
REMARK    7  A    between atoms: N3_24  and  C17_25 
REMARK    8  A    between atoms: C17_25  and  C18_26 
REMARK    9  A    between atoms: C17_25  and  C19_29 
REMARK   10  A    between atoms: C18_26  and  O6_28 
ROOT
HETATM    1  C1  UNL     1       1.090  52.257 -17.050  1.00  0.00     0.015 C 
HETATM    2  C2  UNL     1       0.711  52.366 -18.184  1.00  0.00    -0.078 C 
HETATM    3  C3  UNL     1       0.244  52.525 -19.572  1.00  0.00     0.128 C 
HETATM    4  C4  UNL     1       1.402  52.770 -20.544  1.00  0.00     0.052 C 
HETATM    5  C5  UNL     1       0.735  52.578 -21.902  1.00  0.00     0.010 C 
HETATM    6  C6  UNL     1      -0.144  51.336 -21.704  1.00  0.00     0.002 C 
HETATM    7  C7  UNL     1      -1.315  51.152 -22.696  1.00  0.00    -0.004 C 
HETATM    8  C8  UNL     1      -2.131  52.407 -23.050  1.00  0.00     0.010 C 
HETATM    9  C9  UNL     1      -3.216  52.102 -24.082  1.00  0.00     0.035 C 
HETATM   10  C10 UNL     1      -4.082  50.911 -23.735  1.00  0.00    -0.069 C 
HETATM   11  C11 UNL     1      -5.414  50.984 -23.903  1.00  0.00     0.030 C 
HETATM   12  C12 UNL     1      -6.291  49.792 -23.771  1.00  0.00     0.032 C 
HETATM   13  N1  UNL     1      -7.568  49.958 -23.978  1.00  0.00    -0.271 N 
ATOM     14  H1  UNL     1      -8.006  50.861 -24.162  1.00  0.00     0.194 HD
HETATM   15  C22 UNL     1      -5.637  48.452 -23.498  1.00  0.00     0.060 C 
HETATM   16  C23 UNL     1      -4.372  48.629 -22.664  1.00  0.00     0.020 C 
HETATM   17  C24 UNL     1      -3.362  49.649 -23.268  1.00  0.00    -0.016 C 
HETATM   18  C25 UNL     1      -2.703  48.977 -24.502  1.00  0.00     0.020 C 
HETATM   19  C26 UNL     1      -2.252  50.018 -22.205  1.00  0.00     0.002 C 
HETATM   20  C27 UNL     1      -2.825  50.340 -20.799  1.00  0.00     0.007 C 
HETATM   21  C28 UNL     1      -2.013  51.310 -19.937  1.00  0.00     0.014 C 
HETATM   22  C29 UNL     1      -0.495  51.276 -20.179  1.00  0.00     0.003 C 
HETATM   23  C30 UNL     1       0.066  49.944 -19.609  1.00  0.00     0.020 C 
ENDROOT
BRANCH   3  24
HETATM   24  O1  UNL     1      -0.592  53.687 -19.631  1.00  0.00    -0.377 OA
HETATM   25  H2  UNL     1      -0.211  54.342 -19.023  1.00  0.00     0.211 HD
ENDBRANCH   3  24
BRANCH  13  26
HETATM   26  O2  UNL     1      -8.264  48.744 -23.915  1.00  0.00    -0.271 OA
BRANCH  26  27
HETATM   27  C13 UNL     1      -8.515  48.291 -25.243  1.00  0.00     0.303 C 
BRANCH  27  28
HETATM   28  C14 UNL     1     -10.008  48.053 -25.445  1.00  0.00     0.244 C 
HETATM   29  O3  UNL     1     -10.707  48.778 -26.149  1.00  0.00    -0.271 OA
HETATM   30  N2  UNL     1     -10.490  46.912 -24.838  1.00  0.00    -0.350 N 
HETATM   31  H16 UNL     1      -9.930  46.554 -24.067  1.00  0.00     0.163 HD
BRANCH  30  32
HETATM   32  C15 UNL     1     -11.912  46.642 -24.778  1.00  0.00     0.225 C 
BRANCH  32  33
HETATM   33  C16 UNL     1     -12.300  45.664 -25.891  1.00  0.00     0.236 C 
HETATM   34  O4  UNL     1     -12.378  46.003 -27.072  1.00  0.00    -0.272 OA
HETATM   35  N3  UNL     1     -12.630  44.400 -25.443  1.00  0.00    -0.345 N 
HETATM   36  H19 UNL     1     -12.186  44.122 -24.573  1.00  0.00     0.163 HD
BRANCH  35  37
HETATM   37  C17 UNL     1     -12.830  43.301 -26.395  1.00  0.00     0.185 C 
BRANCH  37  38
HETATM   38  C18 UNL     1     -14.201  43.422 -27.078  1.00  0.00     0.163 C 
HETATM   39  O5  UNL     1     -14.700  42.616 -27.849  1.00  0.00    -0.648 OA
BRANCH  38  40
HETATM   40  O6  UNL     1     -14.835  44.586 -26.812  1.00  0.00    -0.775 OA
HETATM   41  H21 UNL     1     -15.690  44.510 -27.289  1.00  0.00     0.167 HD
ENDBRANCH  38  40
ENDBRANCH  37  38
BRANCH  37  42
HETATM   42  C19 UNL     1     -11.705  43.242 -27.452  1.00  0.00     0.010 C 
HETATM   43  C20 UNL     1     -10.915  41.929 -27.428  1.00  0.00     0.012 C 
HETATM   44  C21 UNL     1     -12.259  43.490 -28.858  1.00  0.00     0.012 C 
ENDBRANCH  37  42
ENDBRANCH  35  37
ENDBRANCH  32  33
ENDBRANCH  30  32
ENDBRANCH  27  28
ENDBRANCH  26  27
ENDBRANCH  13  26
TORSDOF 10
ENDMDL
MODEL 7
REMARK minimizedAffinity -8.19266224
REMARK CNNscore 0.256228924
REMARK CNNaffinity 6.34462118
REMARK  10 active torsions:
REMARK  status: ('A' for Active; 'I' for Inactive)
REMARK    1  A    between atoms: C3_3  and  O1_4 
REMARK    2  A    between atoms: N1_14  and  O2_16 
REMARK    3  A    between atoms: O2_16  and  C13_17 
REMARK    4  A    between atoms: C13_17  and  C14_18 
REMARK       I    between atoms: C14_18  and  N2_20 
REMARK    5  A    between atoms: N2_20  and  C15_21 
REMARK    6  A    between atoms: C15_21  and  C16_22 
REMARK       I    between atoms: C16_22  and  N3_24 
REMARK    7  A    between atoms: N3_24  and  C17_25 
REMARK    8  A    between atoms: C17_25  and  C18_26 
REMARK    9  A    between atoms: C17_25  and  C19_29 
REMARK   10  A    between atoms: C18_26  and  O6_28 
ROOT
HETATM    1  C1  UNL     1       0.553  55.709 -24.885  1.00  0.00     0.015 C 
HETATM    2  C2  UNL     1       0.166  54.609 -25.170  1.00  0.00    -0.078 C 
HETATM    3  C3  UNL     1      -0.314  53.267 -25.542  1.00  0.00     0.128 C 
HETATM    4  C4  UNL     1       0.821  52.372 -26.051  1.00  0.00     0.052 C 
HETATM    5  C5  UNL     1       0.170  50.992 -26.059  1.00  0.00     0.010 C 
HETATM    6  C6  UNL     1      -0.606  50.949 -24.736  1.00  0.00     0.002 C 
HETATM    7  C7  UNL     1      -1.760  49.924 -24.644  1.00  0.00    -0.004 C 
HETATM    8  C8  UNL     1      -2.674  49.793 -25.875  1.00  0.00     0.010 C 
HETATM    9  C9  UNL     1      -3.732  48.708 -25.678  1.00  0.00     0.035 C 
HETATM   10  C10 UNL     1      -4.499  48.820 -24.380  1.00  0.00    -0.069 C 
HETATM   11  C11 UNL     1      -5.833  48.649 -24.376  1.00  0.00     0.030 C 
HETATM   12  C12 UNL     1      -6.612  48.549 -23.115  1.00  0.00     0.032 C 
HETATM   13  N1  UNL     1      -7.897  48.359 -23.214  1.00  0.00    -0.271 N 
ATOM     14  H1  UNL     1      -8.407  48.336 -24.098  1.00  0.00     0.194 HD
HETATM   15  C22 UNL     1      -5.851  48.583 -21.803  1.00  0.00     0.060 C 
HETATM   16  C23 UNL     1      -4.604  49.453 -21.924  1.00  0.00     0.020 C 
HETATM   17  C24 UNL     1      -3.680  49.059 -23.114  1.00  0.00    -0.016 C 
HETATM   18  C25 UNL     1      -2.970  47.732 -22.734  1.00  0.00     0.020 C 
HETATM   19  C26 UNL     1      -2.603  50.186 -23.369  1.00  0.00     0.002 C 
HETATM   20  C27 UNL     1      -3.198  51.619 -23.383  1.00  0.00     0.007 C 
HETATM   21  C28 UNL     1      -2.465  52.655 -24.240  1.00  0.00     0.014 C 
HETATM   22  C29 UNL     1      -0.950  52.433 -24.371  1.00  0.00     0.003 C 
HETATM   23  C30 UNL     1      -0.284  52.757 -23.005  1.00  0.00     0.020 C 
ENDROOT
BRANCH   3  24
HETATM   24  O1  UNL     1      -1.240  53.409 -26.625  1.00  0.00    -0.377 OA
HETATM   25  H2  UNL     1      -0.913  54.131 -27.186  1.00  0.00     0.211 HD
ENDBRANCH   3  24
BRANCH  13  26
HETATM   26  O2  UNL     1      -8.494  48.190 -21.958  1.00  0.00    -0.271 OA
BRANCH  26  27
HETATM   27  C13 UNL     1      -8.997  46.859 -21.865  1.00  0.00     0.303 C 
BRANCH  27  28
HETATM   28  C14 UNL     1     -10.331  46.748 -22.594  1.00  0.00     0.244 C 
HETATM   29  O3  UNL     1     -10.509  47.189 -23.727  1.00  0.00    -0.271 OA
HETATM   30  N2  UNL     1     -11.298  46.040 -21.909  1.00  0.00    -0.350 N 
HETATM   31  H16 UNL     1     -11.163  45.974 -20.902  1.00  0.00     0.163 HD
BRANCH  30  32
HETATM   32  C15 UNL     1     -12.668  46.001 -22.378  1.00  0.00     0.225 C 
BRANCH  32  33
HETATM   33  C16 UNL     1     -13.573  46.740 -21.388  1.00  0.00     0.236 C 
HETATM   34  O4  UNL     1     -13.727  47.961 -21.416  1.00  0.00    -0.272 OA
HETATM   35  N3  UNL     1     -14.131  45.929 -20.420  1.00  0.00    -0.345 N 
HETATM   36  H19 UNL     1     -14.262  44.960 -20.693  1.00  0.00     0.163 HD
BRANCH  35  37
HETATM   37  C17 UNL     1     -15.173  46.447 -19.525  1.00  0.00     0.185 C 
BRANCH  37  38
HETATM   38  C18 UNL     1     -14.621  47.591 -18.660  1.00  0.00     0.163 C 
HETATM   39  O5  UNL     1     -13.581  47.577 -18.019  1.00  0.00    -0.648 OA
BRANCH  38  40
HETATM   40  O6  UNL     1     -15.446  48.660 -18.590  1.00  0.00    -0.775 OA
HETATM   41  H21 UNL     1     -14.957  49.305 -18.033  1.00  0.00     0.167 HD
ENDBRANCH  38  40
ENDBRANCH  37  38
BRANCH  37  42
HETATM   42  C19 UNL     1     -16.422  46.915 -20.303  1.00  0.00     0.010 C 
HETATM   43  C20 UNL     1     -16.684  46.105 -21.577  1.00  0.00     0.012 C 
HETATM   44  C21 UNL     1     -17.666  46.896 -19.409  1.00  0.00     0.012 C 
ENDBRANCH  37  42
ENDBRANCH  35  37
ENDBRANCH  32  33
ENDBRANCH  30  32
ENDBRANCH  27  28
ENDBRANCH  26  27
ENDBRANCH  13  26
TORSDOF 10
ENDMDL
MODEL 8
REMARK minimizedAffinity -7.5959425
REMARK CNNscore 0.237831771
REMARK CNNaffinity 5.50366545
REMARK  10 active torsions:
REMARK  status: ('A' for Active; 'I' for Inactive)
REMARK    1  A    between atoms: C3_3  and  O1_4 
REMARK    2  A    between atoms: N1_14  and  O2_16 
REMARK    3  A    between atoms: O2_16  and  C13_17 
REMARK    4  A    between atoms: C13_17  and  C14_18 
REMARK       I    between atoms: C14_18  and  N2_20 
REMARK    5  A    between atoms: N2_20  and  C15_21 
REMARK    6  A    between atoms: C15_21  and  C16_22 
REMARK       I    between atoms: C16_22  and  N3_24 
REMARK    7  A    between atoms: N3_24  and  C17_25 
REMARK    8  A    between atoms: C17_25  and  C18_26 
REMARK    9  A    between atoms: C17_25  and  C19_29 
REMARK   10  A    between atoms: C18_26  and  O6_28 
ROOT
HETATM    1  C1  UNL     1       0.567  52.560 -23.569  1.00  0.00     0.015 C 
HETATM    2  C2  UNL     1      -0.227  51.927 -22.928  1.00  0.00    -0.078 C 
HETATM    3  C3  UNL     1      -1.182  51.134 -22.136  1.00  0.00     0.128 C 
HETATM    4  C4  UNL     1      -1.304  51.650 -20.699  1.00  0.00     0.052 C 
HETATM    5  C5  UNL     1      -2.541  50.915 -20.191  1.00  0.00     0.010 C 
HETATM    6  C6  UNL     1      -3.527  51.010 -21.363  1.00  0.00     0.002 C 
HETATM    7  C7  UNL     1      -4.670  49.970 -21.392  1.00  0.00    -0.004 C 
HETATM    8  C8  UNL     1      -4.299  48.518 -21.044  1.00  0.00     0.010 C 
HETATM    9  C9  UNL     1      -5.525  47.607 -21.050  1.00  0.00     0.035 C 
HETATM   10  C10 UNL     1      -6.374  47.718 -22.297  1.00  0.00    -0.069 C 
HETATM   11  C11 UNL     1      -6.845  46.604 -22.885  1.00  0.00     0.030 C 
HETATM   12  C12 UNL     1      -7.840  46.656 -23.987  1.00  0.00     0.032 C 
HETATM   13  N1  UNL     1      -8.256  45.521 -24.476  1.00  0.00    -0.271 N 
ATOM     14  H1  UNL     1      -7.897  44.609 -24.193  1.00  0.00     0.194 HD
HETATM   15  C22 UNL     1      -8.373  48.013 -24.403  1.00  0.00     0.060 C 
HETATM   16  C23 UNL     1      -7.310  49.091 -24.215  1.00  0.00     0.020 C 
HETATM   17  C24 UNL     1      -6.705  49.127 -22.781  1.00  0.00    -0.016 C 
HETATM   18  C25 UNL     1      -7.779  49.729 -21.836  1.00  0.00     0.020 C 
HETATM   19  C26 UNL     1      -5.407  50.029 -22.756  1.00  0.00     0.002 C 
HETATM   20  C27 UNL     1      -4.430  49.740 -23.927  1.00  0.00     0.007 C 
HETATM   21  C28 UNL     1      -2.947  50.011 -23.661  1.00  0.00     0.014 C 
HETATM   22  C29 UNL     1      -2.664  51.146 -22.663  1.00  0.00     0.003 C 
HETATM   23  C30 UNL     1      -3.023  52.499 -23.339  1.00  0.00     0.020 C 
ENDROOT
BRANCH   3  24
HETATM   24  O1  UNL     1      -0.685  49.793 -22.049  1.00  0.00    -0.377 OA
HETATM   25  H2  UNL     1       0.282  49.853 -21.981  1.00  0.00     0.211 HD
ENDBRANCH   3  24
BRANCH  13  26
HETATM   26  O2  UNL     1      -9.257  45.709 -25.438  1.00  0.00    -0.271 OA
BRANCH  26  27
HETATM   27  C13 UNL     1     -10.528  45.665 -24.792  1.00  0.00     0.303 C 
BRANCH  27  28
HETATM   28  C14 UNL     1     -11.570  46.396 -25.631  1.00  0.00     0.244 C 
HETATM   29  O3  UNL     1     -11.282  47.302 -26.409  1.00  0.00    -0.271 OA
HETATM   30  N2  UNL     1     -12.852  45.901 -25.504  1.00  0.00    -0.350 N 
HETATM   31  H16 UNL     1     -13.036  45.372 -24.654  1.00  0.00     0.163 HD
BRANCH  30  32
HETATM   32  C15 UNL     1     -13.982  46.595 -26.087  1.00  0.00     0.225 C 
BRANCH  32  33
HETATM   33  C16 UNL     1     -15.008  46.918 -24.997  1.00  0.00     0.236 C 
HETATM   34  O4  UNL     1     -14.762  47.678 -24.061  1.00  0.00    -0.272 OA
HETATM   35  N3  UNL     1     -16.194  46.221 -25.115  1.00  0.00    -0.345 N 
HETATM   36  H19 UNL     1     -16.440  45.945 -26.061  1.00  0.00     0.163 HD
BRANCH  35  37
HETATM   37  C17 UNL     1     -17.346  46.563 -24.270  1.00  0.00     0.185 C 
BRANCH  37  38
HETATM   38  C18 UNL     1     -18.650  46.485 -25.080  1.00  0.00     0.163 C 
HETATM   39  O5  UNL     1     -19.735  46.936 -24.749  1.00  0.00    -0.648 OA
BRANCH  38  40
HETATM   40  O6  UNL     1     -18.531  45.777 -26.226  1.00  0.00    -0.775 OA
HETATM   41  H21 UNL     1     -19.421  45.833 -26.637  1.00  0.00     0.167 HD
ENDBRANCH  38  40
ENDBRANCH  37  38
BRANCH  37  42
HETATM   42  C19 UNL     1     -17.432  45.659 -23.021  1.00  0.00     0.010 C 
HETATM   43  C20 UNL     1     -18.305  46.244 -21.905  1.00  0.00     0.012 C 
HETATM   44  C21 UNL     1     -17.930  44.259 -23.390  1.00  0.00     0.012 C 
ENDBRANCH  37  42
ENDBRANCH  35  37
ENDBRANCH  32  33
ENDBRANCH  30  32
ENDBRANCH  27  28
ENDBRANCH  26  27
ENDBRANCH  13  26
TORSDOF 10
ENDMDL
MODEL 9
REMARK minimizedAffinity -9.63413715
REMARK CNNscore 0.233982012
REMARK CNNaffinity 6.79722023
REMARK  10 active torsions:
REMARK  status: ('A' for Active; 'I' for Inactive)
REMARK    1  A    between atoms: C3_3  and  O1_4 
REMARK    2  A    between atoms: N1_14  and  O2_16 
REMARK    3  A    between atoms: O2_16  and  C13_17 
REMARK    4  A    between atoms: C13_17  and  C14_18 
REMARK       I    between atoms: C14_18  and  N2_20 
REMARK    5  A    between atoms: N2_20  and  C15_21 
REMARK    6  A    between atoms: C15_21  and  C16_22 
REMARK       I    between atoms: C16_22  and  N3_24 
REMARK    7  A    between atoms: N3_24  and  C17_25 
REMARK    8  A    between atoms: C17_25  and  C18_26 
REMARK    9  A    between atoms: C17_25  and  C19_29 
REMARK   10  A    between atoms: C18_26  and  O6_28 
ROOT
HETATM    1  C1  UNL     1      -0.323  53.921 -28.017  1.00  0.00     0.015 C 
HETATM    2  C2  UNL     1      -0.986  53.169 -27.357  1.00  0.00    -0.078 C 
HETATM    3  C3  UNL     1      -1.821  52.260 -26.553  1.00  0.00     0.128 C 
HETATM    4  C4  UNL     1      -2.284  51.042 -27.359  1.00  0.00     0.052 C 
HETATM    5  C5  UNL     1      -2.829  50.120 -26.273  1.00  0.00     0.010 C 
HETATM    6  C6  UNL     1      -1.789  50.225 -25.150  1.00  0.00     0.002 C 
HETATM    7  C7  UNL     1      -2.258  49.826 -23.732  1.00  0.00    -0.004 C 
HETATM    8  C8  UNL     1      -3.652  50.310 -23.298  1.00  0.00     0.010 C 
HETATM    9  C9  UNL     1      -4.018  49.798 -21.906  1.00  0.00     0.035 C 
HETATM   10  C10 UNL     1      -2.955  50.041 -20.858  1.00  0.00    -0.069 C 
HETATM   11  C11 UNL     1      -3.308  50.488 -19.640  1.00  0.00     0.030 C 
HETATM   12  C12 UNL     1      -2.341  50.554 -18.514  1.00  0.00     0.032 C 
HETATM   13  N1  UNL     1      -2.785  50.978 -17.364  1.00  0.00    -0.271 N 
ATOM     14  H1  UNL     1      -3.732  51.322 -17.206  1.00  0.00     0.194 HD
HETATM   15  C22 UNL     1      -0.935  50.041 -18.751  1.00  0.00     0.060 C 
HETATM   16  C23 UNL     1      -0.514  50.266 -20.200  1.00  0.00     0.020 C 
HETATM   17  C24 UNL     1      -1.519  49.689 -21.239  1.00  0.00    -0.016 C 
HETATM   18  C25 UNL     1      -1.374  48.144 -21.221  1.00  0.00     0.020 C 
HETATM   19  C26 UNL     1      -1.191  50.238 -22.684  1.00  0.00     0.002 C 
HETATM   20  C27 UNL     1      -0.939  51.769 -22.722  1.00  0.00     0.007 C 
HETATM   21  C28 UNL     1      -1.278  52.485 -24.032  1.00  0.00     0.014 C 
HETATM   22  C29 UNL     1      -1.111  51.630 -25.299  1.00  0.00     0.003 C 
HETATM   23  C30 UNL     1       0.406  51.407 -25.549  1.00  0.00     0.020 C 
ENDROOT
BRANCH   3  24
HETATM   24  O1  UNL     1      -3.004  52.968 -26.164  1.00  0.00    -0.377 OA
HETATM   25  H2  UNL     1      -3.248  53.543 -26.908  1.00  0.00     0.211 HD
ENDBRANCH   3  24
BRANCH  13  26
HETATM   26  O2  UNL     1      -1.800  50.902 -16.370  1.00  0.00    -0.271 OA
BRANCH  26  27
HETATM   27  C13 UNL     1      -2.419  51.073 -15.097  1.00  0.00     0.303 C 
BRANCH  27  28
HETATM   28  C14 UNL     1      -1.400  50.863 -13.983  1.00  0.00     0.244 C 
HETATM   29  O3  UNL     1      -0.935  49.760 -13.706  1.00  0.00    -0.271 OA
HETATM   30  N2  UNL     1      -0.982  52.025 -13.367  1.00  0.00    -0.350 N 
HETATM   31  H16 UNL     1      -1.613  52.819 -13.454  1.00  0.00     0.163 HD
BRANCH  30  32
HETATM   32  C15 UNL     1      -0.162  51.984 -12.174  1.00  0.00     0.225 C 
BRANCH  32  33
HETATM   33  C16 UNL     1       1.314  52.137 -12.555  1.00  0.00     0.236 C 
HETATM   34  O4  UNL     1       2.146  52.630 -11.794  1.00  0.00    -0.272 OA
HETATM   35  N3  UNL     1       1.605  51.750 -13.848  1.00  0.00    -0.345 N 
HETATM   36  H19 UNL     1       0.990  51.041 -14.235  1.00  0.00     0.163 HD
BRANCH  35  37
HETATM   37  C17 UNL     1       2.999  51.649 -14.299  1.00  0.00     0.185 C 
BRANCH  37  38
HETATM   38  C18 UNL     1       3.601  50.295 -13.889  1.00  0.00     0.163 C 
HETATM   39  O5  UNL     1       4.786  50.001 -13.887  1.00  0.00    -0.648 OA
BRANCH  38  40
HETATM   40  O6  UNL     1       2.670  49.365 -13.577  1.00  0.00    -0.775 OA
HETATM   41  H21 UNL     1       3.196  48.577 -13.319  1.00  0.00     0.167 HD
ENDBRANCH  38  40
ENDBRANCH  37  38
BRANCH  37  42
HETATM   42  C19 UNL     1       3.128  51.857 -15.824  1.00  0.00     0.010 C 
HETATM   43  C20 UNL     1       1.795  52.172 -16.511  1.00  0.00     0.012 C 
HETATM   44  C21 UNL     1       4.149  52.952 -16.144  1.00  0.00     0.012 C 
ENDBRANCH  37  42
ENDBRANCH  35  37
ENDBRANCH  32  33
ENDBRANCH  30  32
ENDBRANCH  27  28
ENDBRANCH  26  27
ENDBRANCH  13  26
TORSDOF 10
ENDMDL
