MODEL 1
REMARK minimizedAffinity -9.18241978
REMARK CNNscore 0.447818071
REMARK CNNaffinity 8.26943874
REMARK  15 active torsions:
REMARK  status: ('A' for Active; 'I' for Inactive)
REMARK    1  A    between atoms: C2_2  and  C3_3 
REMARK    2  A    between atoms: C2_2  and  C37_47 
REMARK    3  A    between atoms: C3_3  and  C4_4 
REMARK    4  A    between atoms: C4_4  and  C5_5 
REMARK    5  A    between atoms: C5_5  and  C6_6 
REMARK    6  A    between atoms: C5_5  and  C13_20 
REMARK    7  A    between atoms: C6_6  and  O2_8 
REMARK    8  A    between atoms: O2_8  and  C7_9 
REMARK    9  A    between atoms: C8_11  and  C9_12 
REMARK   10  A    between atoms: C9_12  and  O4_13 
REMARK   11  A    between atoms: C10_14  and  O5_15 
REMARK   12  A    between atoms: C11_16  and  O6_17 
REMARK   13  A    between atoms: C12_18  and  O7_19 
REMARK   14  A    between atoms: C14_21  and  O8_22 
REMARK   15  A    between atoms: O8_22  and  C15_23 
ROOT
HETATM    1  C13 UNL     1      -1.926  50.399 -22.040  1.00  0.00     0.038 C 
HETATM    2  C14 UNL     1      -1.315  51.403 -21.015  1.00  0.00     0.138 C 
HETATM    3  C17 UNL     1      -1.424  50.747 -19.625  1.00  0.00     0.047 C 
HETATM    4  C18 UNL     1      -1.661  49.249 -19.912  1.00  0.00    -0.010 C 
HETATM    5  C19 UNL     1      -0.268  48.599 -20.189  1.00  0.00     0.021 C 
HETATM    6  C20 UNL     1      -2.285  48.372 -18.830  1.00  0.00    -0.068 C 
HETATM    7  C21 UNL     1      -2.981  47.259 -19.178  1.00  0.00    -0.068 C 
HETATM    8  C22 UNL     1      -3.204  46.892 -20.654  1.00  0.00     0.036 C 
HETATM    9  C23 UNL     1      -2.728  47.904 -21.724  1.00  0.00     0.015 C 
HETATM   10  C24 UNL     1      -2.637  49.329 -21.157  1.00  0.00    -0.026 C 
HETATM   11  C25 UNL     1      -4.069  49.794 -20.787  1.00  0.00     0.016 C 
HETATM   12  C26 UNL     1      -3.615  46.315 -18.121  1.00  0.00    -0.015 C 
HETATM   13  C27 UNL     1      -5.139  46.605 -18.114  1.00  0.00     0.020 C 
HETATM   14  C28 UNL     1      -3.382  44.827 -18.514  1.00  0.00     0.021 C 
HETATM   15  C29 UNL     1      -3.472  43.813 -17.374  1.00  0.00     0.080 C 
HETATM   16  C30 UNL     1      -4.120  44.358 -16.124  1.00  0.00     0.135 C 
HETATM   17  O10 UNL     1      -5.001  43.714 -15.553  1.00  0.00    -0.297 OA
HETATM   18  C31 UNL     1      -3.565  45.669 -15.555  1.00  0.00     0.018 C 
HETATM   19  C32 UNL     1      -4.670  46.385 -14.751  1.00  0.00     0.023 C 
HETATM   20  C33 UNL     1      -2.452  45.279 -14.556  1.00  0.00     0.023 C 
HETATM   21  C34 UNL     1      -2.952  46.530 -16.713  1.00  0.00     0.013 C 
HETATM   22  C35 UNL     1      -2.862  48.024 -16.369  1.00  0.00     0.011 C 
HETATM   23  C36 UNL     1      -2.027  48.776 -17.397  1.00  0.00     0.036 C 
ENDROOT
BRANCH   1  24
HETATM   24  C5  UNL     1      -2.562  51.112 -23.274  1.00  0.00     0.093 C 
BRANCH  24  25
HETATM   25  C4  UNL     1      -4.040  51.536 -23.056  1.00  0.00     0.019 C 
BRANCH  25  26
HETATM   26  C3  UNL     1      -5.065  51.128 -24.128  1.00  0.00     0.034 C 
BRANCH  26  27
HETATM   27  C2  UNL     1      -5.911  49.935 -23.691  1.00  0.00    -0.086 C 
HETATM   28  C1  UNL     1      -6.949  50.135 -22.857  1.00  0.00     0.014 C 
BRANCH  27  29
HETATM   29  C37 UNL     1      -5.524  48.561 -24.240  1.00  0.00     0.005 C 
HETATM   30  C38 UNL     1      -4.228  48.537 -25.059  1.00  0.00     0.014 C 
HETATM   31  C39 UNL     1      -6.659  47.958 -25.069  1.00  0.00     0.014 C 
ENDBRANCH  27  29
ENDBRANCH  26  27
ENDBRANCH  25  26
ENDBRANCH  24  25
BRANCH  24  32
HETATM   32  C6  UNL     1      -1.821  52.137 -24.146  1.00  0.00     0.266 C 
HETATM   33  O1  UNL     1      -2.204  53.301 -24.226  1.00  0.00    -0.265 OA
BRANCH  32  34
HETATM   34  O2  UNL     1      -0.749  51.654 -24.816  1.00  0.00    -0.287 OA
BRANCH  34  35
HETATM   35  C7  UNL     1      -1.059  50.777 -25.921  1.00  0.00     0.301 C 
HETATM   36  O3  UNL     1       0.105  50.375 -26.652  1.00  0.00    -0.348 OA
HETATM   37  C8  UNL     1       0.831  51.439 -27.276  1.00  0.00     0.179 C 
HETATM   38  C10 UNL     1       0.019  52.726 -27.493  1.00  0.00     0.180 C 
HETATM   39  C11 UNL     1      -1.399  52.354 -27.911  1.00  0.00     0.183 C 
HETATM   40  C12 UNL     1      -2.081  51.446 -26.874  1.00  0.00     0.205 C 
BRANCH  37  41
HETATM   41  C9  UNL     1       2.118  51.700 -26.500  1.00  0.00     0.198 C 
BRANCH  41  42
HETATM   42  O4  UNL     1       3.258  51.504 -27.336  1.00  0.00    -0.398 OA
HETATM   43  H12 UNL     1       3.980  52.029 -26.917  1.00  0.00     0.209 HD
ENDBRANCH  41  42
ENDBRANCH  37  41
BRANCH  38  44
HETATM   44  O5  UNL     1       0.604  53.554 -28.506  1.00  0.00    -0.390 OA
HETATM   45  H14 UNL     1       1.549  53.649 -28.248  1.00  0.00     0.210 HD
ENDBRANCH  38  44
BRANCH  39  46
HETATM   46  O6  UNL     1      -2.155  53.557 -28.104  1.00  0.00    -0.390 OA
HETATM   47  H16 UNL     1      -1.611  54.092 -28.717  1.00  0.00     0.210 HD
ENDBRANCH  39  46
BRANCH  40  48
HETATM   48  O7  UNL     1      -2.823  50.427 -27.577  1.00  0.00    -0.388 OA
HETATM   49  H18 UNL     1      -2.176  49.861 -28.037  1.00  0.00     0.210 HD
ENDBRANCH  40  48
ENDBRANCH  34  35
ENDBRANCH  32  34
ENDBRANCH  24  32
ENDBRANCH   1  24
BRANCH   2  50
HETATM   50  O8  UNL     1       0.071  51.581 -21.368  1.00  0.00    -0.316 OA
BRANCH  50  51
HETATM   51  C15 UNL     1       0.556  52.843 -21.462  1.00  0.00     0.255 C 
HETATM   52  C16 UNL     1       0.691  53.449 -20.098  1.00  0.00     0.126 C 
HETATM   53  O9  UNL     1       0.900  53.407 -22.488  1.00  0.00    -0.266 OA
ENDBRANCH  50  51
ENDBRANCH   2  50
TORSDOF 15
ENDMDL
MODEL 2
REMARK minimizedAffinity -7.92420197
REMARK CNNscore 0.297244966
REMARK CNNaffinity 7.19711161
REMARK  15 active torsions:
REMARK  status: ('A' for Active; 'I' for Inactive)
REMARK    1  A    between atoms: C2_2  and  C3_3 
REMARK    2  A    between atoms: C2_2  and  C37_47 
REMARK    3  A    between atoms: C3_3  and  C4_4 
REMARK    4  A    between atoms: C4_4  and  C5_5 
REMARK    5  A    between atoms: C5_5  and  C6_6 
REMARK    6  A    between atoms: C5_5  and  C13_20 
REMARK    7  A    between atoms: C6_6  and  O2_8 
REMARK    8  A    between atoms: O2_8  and  C7_9 
REMARK    9  A    between atoms: C8_11  and  C9_12 
REMARK   10  A    between atoms: C9_12  and  O4_13 
REMARK   11  A    between atoms: C10_14  and  O5_15 
REMARK   12  A    between atoms: C11_16  and  O6_17 
REMARK   13  A    between atoms: C12_18  and  O7_19 
REMARK   14  A    between atoms: C14_21  and  O8_22 
REMARK   15  A    between atoms: O8_22  and  C15_23 
ROOT
HETATM    1  C13 UNL     1      -0.751  53.277 -11.224  1.00  0.00     0.038 C 
HETATM    2  C14 UNL     1      -1.965  53.019 -10.279  1.00  0.00     0.138 C 
HETATM    3  C17 UNL     1      -1.627  53.673  -8.926  1.00  0.00     0.047 C 
HETATM    4  C18 UNL     1      -0.477  54.655  -9.237  1.00  0.00    -0.010 C 
HETATM    5  C19 UNL     1      -1.117  55.966  -9.793  1.00  0.00     0.021 C 
HETATM    6  C20 UNL     1       0.432  55.122  -8.104  1.00  0.00    -0.068 C 
HETATM    7  C21 UNL     1       1.704  55.515  -8.373  1.00  0.00    -0.068 C 
HETATM    8  C22 UNL     1       2.271  55.444  -9.801  1.00  0.00     0.036 C 
HETATM    9  C23 UNL     1       1.390  54.783 -10.889  1.00  0.00     0.015 C 
HETATM   10  C24 UNL     1       0.367  53.812 -10.279  1.00  0.00    -0.026 C 
HETATM   11  C25 UNL     1       1.143  52.635  -9.635  1.00  0.00     0.016 C 
HETATM   12  C26 UNL     1       2.666  56.025  -7.266  1.00  0.00    -0.015 C 
HETATM   13  C27 UNL     1       3.662  54.873  -6.969  1.00  0.00     0.020 C 
HETATM   14  C28 UNL     1       3.458  57.268  -7.767  1.00  0.00     0.021 C 
HETATM   15  C29 UNL     1       4.032  58.175  -6.679  1.00  0.00     0.080 C 
HETATM   16  C30 UNL     1       4.054  57.544  -5.308  1.00  0.00     0.135 C 
HETATM   17  O10 UNL     1       5.074  57.597  -4.619  1.00  0.00    -0.297 OA
HETATM   18  C31 UNL     1       2.744  56.945  -4.786  1.00  0.00     0.018 C 
HETATM   19  C32 UNL     1       3.061  55.836  -3.762  1.00  0.00     0.023 C 
HETATM   20  C33 UNL     1       2.015  58.075  -4.025  1.00  0.00     0.023 C 
HETATM   21  C34 UNL     1       1.861  56.471  -5.993  1.00  0.00     0.013 C 
HETATM   22  C35 UNL     1       0.821  55.413  -5.599  1.00  0.00     0.011 C 
HETATM   23  C36 UNL     1      -0.179  55.179  -6.723  1.00  0.00     0.036 C 
ENDROOT
BRANCH   1  24
HETATM   24  C5  UNL     1      -0.567  52.149 -12.287  1.00  0.00     0.093 C 
BRANCH  24  25
HETATM   25  C4  UNL     1       0.614  52.400 -13.263  1.00  0.00     0.019 C 
BRANCH  25  26
HETATM   26  C3  UNL     1       0.647  51.587 -14.569  1.00  0.00     0.034 C 
BRANCH  26  27
HETATM   27  C2  UNL     1       1.751  52.058 -15.512  1.00  0.00    -0.086 C 
HETATM   28  C1  UNL     1       1.426  52.464 -16.754  1.00  0.00     0.014 C 
BRANCH  27  29
HETATM   29  C37 UNL     1       3.183  52.046 -14.976  1.00  0.00     0.005 C 
HETATM   30  C38 UNL     1       4.265  52.349 -16.019  1.00  0.00     0.014 C 
HETATM   31  C39 UNL     1       3.503  50.721 -14.283  1.00  0.00     0.014 C 
ENDBRANCH  27  29
ENDBRANCH  26  27
ENDBRANCH  25  26
ENDBRANCH  24  25
BRANCH  24  32
HETATM   32  C6  UNL     1      -0.715  50.651 -11.981  1.00  0.00     0.266 C 
HETATM   33  O1  UNL     1      -0.807  50.243 -10.826  1.00  0.00    -0.265 OA
BRANCH  32  34
HETATM   34  O2  UNL     1      -0.719  49.840 -13.064  1.00  0.00    -0.287 OA
BRANCH  34  35
HETATM   35  C7  UNL     1      -1.614  48.710 -12.982  1.00  0.00     0.301 C 
HETATM   36  O3  UNL     1      -1.008  47.490 -13.424  1.00  0.00    -0.348 OA
HETATM   37  C8  UNL     1      -0.593  47.477 -14.794  1.00  0.00     0.179 C 
HETATM   38  C10 UNL     1      -1.284  48.525 -15.682  1.00  0.00     0.180 C 
HETATM   39  C11 UNL     1      -2.750  48.629 -15.278  1.00  0.00     0.183 C 
HETATM   40  C12 UNL     1      -2.908  48.984 -13.789  1.00  0.00     0.205 C 
BRANCH  37  41
HETATM   41  C9  UNL     1       0.927  47.581 -14.866  1.00  0.00     0.198 C 
BRANCH  41  42
HETATM   42  O4  UNL     1       1.475  47.831 -13.571  1.00  0.00    -0.398 OA
HETATM   43  H12 UNL     1       2.410  47.521 -13.622  1.00  0.00     0.209 HD
ENDBRANCH  41  42
ENDBRANCH  37  41
BRANCH  38  44
HETATM   44  O5  UNL     1      -1.205  48.174 -17.069  1.00  0.00    -0.390 OA
HETATM   45  H14 UNL     1      -0.252  47.992 -17.235  1.00  0.00     0.210 HD
ENDBRANCH  38  44
BRANCH  39  46
HETATM   46  O6  UNL     1      -3.388  49.613 -16.102  1.00  0.00    -0.390 OA
HETATM   47  H16 UNL     1      -3.173  49.341 -17.018  1.00  0.00     0.210 HD
ENDBRANCH  39  46
BRANCH  40  48
HETATM   48  O7  UNL     1      -3.991  48.200 -13.245  1.00  0.00    -0.388 OA
HETATM   49  H18 UNL     1      -3.712  47.266 -13.264  1.00  0.00     0.210 HD
ENDBRANCH  40  48
ENDBRANCH  34  35
ENDBRANCH  32  34
ENDBRANCH  24  32
ENDBRANCH   1  24
BRANCH   2  50
HETATM   50  O8  UNL     1      -3.109  53.669 -10.868  1.00  0.00    -0.316 OA
BRANCH  50  51
HETATM   51  C15 UNL     1      -3.907  52.949 -11.694  1.00  0.00     0.255 C 
HETATM   52  C16 UNL     1      -4.286  51.653 -11.047  1.00  0.00     0.126 C 
HETATM   53  O9  UNL     1      -4.321  53.307 -12.785  1.00  0.00    -0.266 OA
ENDBRANCH  50  51
ENDBRANCH   2  50
TORSDOF 15
ENDMDL
MODEL 3
REMARK minimizedAffinity -9.87832069
REMARK CNNscore 0.280718297
REMARK CNNaffinity 7.43948126
REMARK  15 active torsions:
REMARK  status: ('A' for Active; 'I' for Inactive)
REMARK    1  A    between atoms: C2_2  and  C3_3 
REMARK    2  A    between atoms: C2_2  and  C37_47 
REMARK    3  A    between atoms: C3_3  and  C4_4 
REMARK    4  A    between atoms: C4_4  and  C5_5 
REMARK    5  A    between atoms: C5_5  and  C6_6 
REMARK    6  A    between atoms: C5_5  and  C13_20 
REMARK    7  A    between atoms: C6_6  and  O2_8 
REMARK    8  A    between atoms: O2_8  and  C7_9 
REMARK    9  A    between atoms: C8_11  and  C9_12 
REMARK   10  A    between atoms: C9_12  and  O4_13 
REMARK   11  A    between atoms: C10_14  and  O5_15 
REMARK   12  A    between atoms: C11_16  and  O6_17 
REMARK   13  A    between atoms: C12_18  and  O7_19 
REMARK   14  A    between atoms: C14_21  and  O8_22 
REMARK   15  A    between atoms: O8_22  and  C15_23 
ROOT
HETATM    1  C13 UNL     1      -3.321  49.778 -23.047  1.00  0.00     0.038 C 
HETATM    2  C14 UNL     1      -3.800  49.090 -24.362  1.00  0.00     0.138 C 
HETATM    3  C17 UNL     1      -5.162  48.437 -24.056  1.00  0.00     0.047 C 
HETATM    4  C18 UNL     1      -5.647  49.122 -22.761  1.00  0.00    -0.010 C 
HETATM    5  C19 UNL     1      -6.306  50.478 -23.166  1.00  0.00     0.021 C 
HETATM    6  C20 UNL     1      -6.697  48.427 -21.899  1.00  0.00    -0.068 C 
HETATM    7  C21 UNL     1      -6.759  48.685 -20.566  1.00  0.00    -0.068 C 
HETATM    8  C22 UNL     1      -5.746  49.627 -19.893  1.00  0.00     0.036 C 
HETATM    9  C23 UNL     1      -4.578  50.159 -20.757  1.00  0.00     0.015 C 
HETATM   10  C24 UNL     1      -4.290  49.237 -21.952  1.00  0.00    -0.026 C 
HETATM   11  C25 UNL     1      -3.783  47.879 -21.403  1.00  0.00     0.016 C 
HETATM   12  C26 UNL     1      -7.821  48.029 -19.643  1.00  0.00    -0.015 C 
HETATM   13  C27 UNL     1      -7.097  46.915 -18.843  1.00  0.00     0.020 C 
HETATM   14  C28 UNL     1      -8.397  49.079 -18.649  1.00  0.00     0.021 C 
HETATM   15  C29 UNL     1      -9.766  48.752 -18.053  1.00  0.00     0.080 C 
HETATM   16  C30 UNL     1     -10.183  47.312 -18.236  1.00  0.00     0.135 C 
HETATM   17  O10 UNL     1     -10.624  46.670 -17.282  1.00  0.00    -0.297 OA
HETATM   18  C31 UNL     1     -10.132  46.739 -19.657  1.00  0.00     0.018 C 
HETATM   19  C32 UNL     1      -9.946  45.209 -19.583  1.00  0.00     0.023 C 
HETATM   20  C33 UNL     1     -11.518  47.001 -20.288  1.00  0.00     0.023 C 
HETATM   21  C34 UNL     1      -9.028  47.480 -20.487  1.00  0.00     0.013 C 
HETATM   22  C35 UNL     1      -8.534  46.668 -21.692  1.00  0.00     0.011 C 
HETATM   23  C36 UNL     1      -7.670  47.519 -22.614  1.00  0.00     0.036 C 
ENDROOT
BRANCH   1  24
HETATM   24  C5  UNL     1      -1.766  49.828 -22.927  1.00  0.00     0.093 C 
BRANCH  24  25
HETATM   25  C4  UNL     1      -1.120  51.012 -23.697  1.00  0.00     0.019 C 
BRANCH  25  26
HETATM   26  C3  UNL     1      -0.729  50.778 -25.167  1.00  0.00     0.034 C 
BRANCH  26  27
HETATM   27  C2  UNL     1       0.426  51.676 -25.604  1.00  0.00    -0.086 C 
HETATM   28  C1  UNL     1       0.716  52.773 -24.880  1.00  0.00     0.014 C 
BRANCH  27  29
HETATM   29  C37 UNL     1       1.201  51.262 -26.856  1.00  0.00     0.005 C 
HETATM   30  C38 UNL     1       2.702  51.571 -26.817  1.00  0.00     0.014 C 
HETATM   31  C39 UNL     1       0.589  51.879 -28.114  1.00  0.00     0.014 C 
ENDBRANCH  27  29
ENDBRANCH  26  27
ENDBRANCH  25  26
ENDBRANCH  24  25
BRANCH  24  32
HETATM   32  C6  UNL     1      -0.998  49.534 -21.630  1.00  0.00     0.266 C 
HETATM   33  O1  UNL     1      -0.949  48.400 -21.162  1.00  0.00    -0.265 OA
BRANCH  32  34
HETATM   34  O2  UNL     1      -0.410  50.607 -21.053  1.00  0.00    -0.287 OA
BRANCH  34  35
HETATM   35  C7  UNL     1      -1.319  51.564 -20.466  1.00  0.00     0.301 C 
HETATM   36  O3  UNL     1      -0.926  52.921 -20.704  1.00  0.00    -0.348 OA
HETATM   37  C8  UNL     1       0.340  53.295 -20.152  1.00  0.00     0.179 C 
HETATM   38  C10 UNL     1       0.831  52.392 -19.008  1.00  0.00     0.180 C 
HETATM   39  C11 UNL     1      -0.357  52.009 -18.133  1.00  0.00     0.183 C 
HETATM   40  C12 UNL     1      -1.462  51.312 -18.944  1.00  0.00     0.205 C 
BRANCH  37  41
HETATM   41  C9  UNL     1       1.370  53.408 -21.272  1.00  0.00     0.198 C 
BRANCH  41  42
HETATM   42  O4  UNL     1       1.875  54.740 -21.357  1.00  0.00    -0.398 OA
HETATM   43  H12 UNL     1       2.750  54.657 -21.804  1.00  0.00     0.209 HD
ENDBRANCH  41  42
ENDBRANCH  37  41
BRANCH  38  44
HETATM   44  O5  UNL     1       1.814  53.052 -18.201  1.00  0.00    -0.390 OA
HETATM   45  H14 UNL     1       2.486  53.389 -18.836  1.00  0.00     0.210 HD
ENDBRANCH  38  44
BRANCH  39  46
HETATM   46  O6  UNL     1       0.104  51.161 -17.074  1.00  0.00    -0.390 OA
HETATM   47  H16 UNL     1       0.844  51.657 -16.667  1.00  0.00     0.210 HD
ENDBRANCH  39  46
BRANCH  40  48
HETATM   48  O7  UNL     1      -2.741  51.806 -18.492  1.00  0.00    -0.388 OA
HETATM   49  H18 UNL     1      -2.792  52.748 -18.736  1.00  0.00     0.210 HD
ENDBRANCH  40  48
ENDBRANCH  34  35
ENDBRANCH  32  34
ENDBRANCH  24  32
ENDBRANCH   1  24
BRANCH   2  50
HETATM   50  O8  UNL     1      -3.962  50.126 -25.351  1.00  0.00    -0.316 OA
BRANCH  50  51
HETATM   51  C15 UNL     1      -3.488  49.904 -26.601  1.00  0.00     0.255 C 
HETATM   52  C16 UNL     1      -3.129  48.460 -26.770  1.00  0.00     0.126 C 
HETATM   53  O9  UNL     1      -3.413  50.729 -27.498  1.00  0.00    -0.266 OA
ENDBRANCH  50  51
ENDBRANCH   2  50
TORSDOF 15
ENDMDL
MODEL 4
REMARK minimizedAffinity -9.76791763
REMARK CNNscore 0.267757297
REMARK CNNaffinity 6.88595772
REMARK  15 active torsions:
REMARK  status: ('A' for Active; 'I' for Inactive)
REMARK    1  A    between atoms: C2_2  and  C3_3 
REMARK    2  A    between atoms: C2_2  and  C37_47 
REMARK    3  A    between atoms: C3_3  and  C4_4 
REMARK    4  A    between atoms: C4_4  and  C5_5 
REMARK    5  A    between atoms: C5_5  and  C6_6 
REMARK    6  A    between atoms: C5_5  and  C13_20 
REMARK    7  A    between atoms: C6_6  and  O2_8 
REMARK    8  A    between atoms: O2_8  and  C7_9 
REMARK    9  A    between atoms: C8_11  and  C9_12 
REMARK   10  A    between atoms: C9_12  and  O4_13 
REMARK   11  A    between atoms: C10_14  and  O5_15 
REMARK   12  A    between atoms: C11_16  and  O6_17 
REMARK   13  A    between atoms: C12_18  and  O7_19 
REMARK   14  A    between atoms: C14_21  and  O8_22 
REMARK   15  A    between atoms: O8_22  and  C15_23 
ROOT
HETATM    1  C13 UNL     1      -3.813  50.481 -22.636  1.00  0.00     0.038 C 
HETATM    2  C14 UNL     1      -4.266  50.605 -21.149  1.00  0.00     0.138 C 
HETATM    3  C17 UNL     1      -5.516  49.719 -20.985  1.00  0.00     0.047 C 
HETATM    4  C18 UNL     1      -5.494  48.775 -22.206  1.00  0.00    -0.010 C 
HETATM    5  C19 UNL     1      -4.526  47.597 -21.870  1.00  0.00     0.021 C 
HETATM    6  C20 UNL     1      -6.787  48.094 -22.647  1.00  0.00    -0.068 C 
HETATM    7  C21 UNL     1      -6.948  47.719 -23.942  1.00  0.00    -0.068 C 
HETATM    8  C22 UNL     1      -5.869  48.019 -24.995  1.00  0.00     0.036 C 
HETATM    9  C23 UNL     1      -4.661  48.882 -24.557  1.00  0.00     0.015 C 
HETATM   10  C24 UNL     1      -5.000  49.760 -23.343  1.00  0.00    -0.026 C 
HETATM   11  C25 UNL     1      -6.078  50.787 -23.778  1.00  0.00     0.016 C 
HETATM   12  C26 UNL     1      -8.230  47.000 -24.443  1.00  0.00    -0.015 C 
HETATM   13  C27 UNL     1      -9.068  48.055 -25.212  1.00  0.00     0.020 C 
HETATM   14  C28 UNL     1      -7.857  45.840 -25.412  1.00  0.00     0.021 C 
HETATM   15  C29 UNL     1      -8.909  44.744 -25.576  1.00  0.00     0.080 C 
HETATM   16  C30 UNL     1     -10.276  45.129 -25.063  1.00  0.00     0.135 C 
HETATM   17  O10 UNL     1     -11.275  44.930 -25.755  1.00  0.00    -0.297 OA
HETATM   18  C31 UNL     1     -10.365  45.665 -23.630  1.00  0.00     0.018 C 
HETATM   19  C32 UNL     1     -11.606  46.572 -23.500  1.00  0.00     0.023 C 
HETATM   20  C33 UNL     1     -10.596  44.441 -22.715  1.00  0.00     0.023 C 
HETATM   21  C34 UNL     1      -9.016  46.363 -23.241  1.00  0.00     0.013 C 
HETATM   22  C35 UNL     1      -9.168  47.366 -22.088  1.00  0.00     0.011 C 
HETATM   23  C36 UNL     1      -7.809  47.817 -21.569  1.00  0.00     0.036 C 
ENDROOT
BRANCH   1  24
HETATM   24  C5  UNL     1      -3.104  51.769 -23.158  1.00  0.00     0.093 C 
BRANCH  24  25
HETATM   25  C4  UNL     1      -2.041  52.336 -22.177  1.00  0.00     0.019 C 
BRANCH  25  26
HETATM   26  C3  UNL     1      -0.571  51.947 -22.415  1.00  0.00     0.034 C 
BRANCH  26  27
HETATM   27  C2  UNL     1       0.138  51.561 -21.119  1.00  0.00    -0.086 C 
HETATM   28  C1  UNL     1       0.087  50.284 -20.697  1.00  0.00     0.014 C 
BRANCH  27  29
HETATM   29  C37 UNL     1       0.882  52.668 -20.370  1.00  0.00     0.005 C 
HETATM   30  C38 UNL     1       0.186  53.166 -19.099  1.00  0.00     0.014 C 
HETATM   31  C39 UNL     1       1.174  53.856 -21.288  1.00  0.00     0.014 C 
ENDBRANCH  27  29
ENDBRANCH  26  27
ENDBRANCH  25  26
ENDBRANCH  24  25
BRANCH  24  32
HETATM   32  C6  UNL     1      -2.669  51.977 -24.616  1.00  0.00     0.266 C 
HETATM   33  O1  UNL     1      -3.345  52.645 -25.393  1.00  0.00    -0.265 OA
BRANCH  32  34
HETATM   34  O2  UNL     1      -1.516  51.361 -24.966  1.00  0.00    -0.287 OA
BRANCH  34  35
HETATM   35  C7  UNL     1      -1.544  50.683 -26.241  1.00  0.00     0.301 C 
HETATM   36  O3  UNL     1      -0.236  50.347 -26.718  1.00  0.00    -0.348 OA
HETATM   37  C8  UNL     1       0.629  51.460 -26.962  1.00  0.00     0.179 C 
HETATM   38  C10 UNL     1      -0.094  52.802 -27.158  1.00  0.00     0.180 C 
HETATM   39  C11 UNL     1      -1.364  52.567 -27.969  1.00  0.00     0.183 C 
HETATM   40  C12 UNL     1      -2.290  51.541 -27.294  1.00  0.00     0.205 C 
BRANCH  37  41
HETATM   41  C9  UNL     1       1.682  51.536 -25.860  1.00  0.00     0.198 C 
BRANCH  41  42
HETATM   42  O4  UNL     1       2.948  51.086 -26.342  1.00  0.00    -0.398 OA
HETATM   43  H12 UNL     1       3.614  51.499 -25.744  1.00  0.00     0.209 HD
ENDBRANCH  41  42
ENDBRANCH  37  41
BRANCH  38  44
HETATM   44  O5  UNL     1       0.731  53.750 -27.847  1.00  0.00    -0.390 OA
HETATM   45  H14 UNL     1       1.581  53.759 -27.352  1.00  0.00     0.210 HD
ENDBRANCH  38  44
BRANCH  39  46
HETATM   46  O6  UNL     1      -2.040  53.819 -28.142  1.00  0.00    -0.390 OA
HETATM   47  H16 UNL     1      -1.357  54.418 -28.507  1.00  0.00     0.210 HD
ENDBRANCH  39  46
BRANCH  40  48
HETATM   48  O7  UNL     1      -2.838  50.680 -28.315  1.00  0.00    -0.388 OA
HETATM   49  H18 UNL     1      -2.100  50.163 -28.687  1.00  0.00     0.210 HD
ENDBRANCH  40  48
ENDBRANCH  34  35
ENDBRANCH  32  34
ENDBRANCH  24  32
ENDBRANCH   1  24
BRANCH   2  50
HETATM   50  O8  UNL     1      -3.193  50.098 -20.332  1.00  0.00    -0.316 OA
BRANCH  50  51
HETATM   51  C15 UNL     1      -3.112  50.510 -19.043  1.00  0.00     0.255 C 
HETATM   52  C16 UNL     1      -3.089  49.329 -18.123  1.00  0.00     0.126 C 
HETATM   53  O9  UNL     1      -3.010  51.665 -18.663  1.00  0.00    -0.266 OA
ENDBRANCH  50  51
ENDBRANCH   2  50
TORSDOF 15
ENDMDL
MODEL 5
REMARK minimizedAffinity -9.67132854
REMARK CNNscore 0.243545264
REMARK CNNaffinity 6.77030134
REMARK  15 active torsions:
REMARK  status: ('A' for Active; 'I' for Inactive)
REMARK    1  A    between atoms: C2_2  and  C3_3 
REMARK    2  A    between atoms: C2_2  and  C37_47 
REMARK    3  A    between atoms: C3_3  and  C4_4 
REMARK    4  A    between atoms: C4_4  and  C5_5 
REMARK    5  A    between atoms: C5_5  and  C6_6 
REMARK    6  A    between atoms: C5_5  and  C13_20 
REMARK    7  A    between atoms: C6_6  and  O2_8 
REMARK    8  A    between atoms: O2_8  and  C7_9 
REMARK    9  A    between atoms: C8_11  and  C9_12 
REMARK   10  A    between atoms: C9_12  and  O4_13 
REMARK   11  A    between atoms: C10_14  and  O5_15 
REMARK   12  A    between atoms: C11_16  and  O6_17 
REMARK   13  A    between atoms: C12_18  and  O7_19 
REMARK   14  A    between atoms: C14_21  and  O8_22 
REMARK   15  A    between atoms: O8_22  and  C15_23 
ROOT
HETATM    1  C13 UNL     1      -3.679  50.552 -23.254  1.00  0.00     0.038 C 
HETATM    2  C14 UNL     1      -3.441  49.294 -24.145  1.00  0.00     0.138 C 
HETATM    3  C17 UNL     1      -4.107  48.104 -23.428  1.00  0.00     0.047 C 
HETATM    4  C18 UNL     1      -5.076  48.746 -22.413  1.00  0.00    -0.010 C 
HETATM    5  C19 UNL     1      -6.386  49.109 -23.180  1.00  0.00     0.021 C 
HETATM    6  C20 UNL     1      -5.548  47.928 -21.214  1.00  0.00    -0.068 C 
HETATM    7  C21 UNL     1      -5.929  48.558 -20.072  1.00  0.00    -0.068 C 
HETATM    8  C22 UNL     1      -5.838  50.087 -19.941  1.00  0.00     0.036 C 
HETATM    9  C23 UNL     1      -5.172  50.867 -21.100  1.00  0.00     0.015 C 
HETATM   10  C24 UNL     1      -4.216  49.976 -21.909  1.00  0.00    -0.026 C 
HETATM   11  C25 UNL     1      -3.040  49.568 -20.985  1.00  0.00     0.016 C 
HETATM   12  C26 UNL     1      -6.443  47.781 -18.829  1.00  0.00    -0.015 C 
HETATM   13  C27 UNL     1      -5.287  47.770 -17.794  1.00  0.00     0.020 C 
HETATM   14  C28 UNL     1      -7.674  48.504 -18.209  1.00  0.00     0.021 C 
HETATM   15  C29 UNL     1      -8.588  47.640 -17.342  1.00  0.00     0.080 C 
HETATM   16  C30 UNL     1      -7.972  46.325 -16.928  1.00  0.00     0.135 C 
HETATM   17  O10 UNL     1      -8.025  45.960 -15.753  1.00  0.00    -0.297 OA
HETATM   18  C31 UNL     1      -7.388  45.440 -18.036  1.00  0.00     0.018 C 
HETATM   19  C32 UNL     1      -6.288  44.537 -17.441  1.00  0.00     0.023 C 
HETATM   20  C33 UNL     1      -8.533  44.516 -18.509  1.00  0.00     0.023 C 
HETATM   21  C34 UNL     1      -6.909  46.336 -19.230  1.00  0.00     0.013 C 
HETATM   22  C35 UNL     1      -5.863  45.645 -20.118  1.00  0.00     0.011 C 
HETATM   23  C36 UNL     1      -5.625  46.431 -21.400  1.00  0.00     0.036 C 
ENDROOT
BRANCH   1  24
HETATM   24  C5  UNL     1      -2.539  51.608 -23.389  1.00  0.00     0.093 C 
BRANCH  24  25
HETATM   25  C4  UNL     1      -1.143  51.076 -22.965  1.00  0.00     0.019 C 
BRANCH  25  26
HETATM   26  C3  UNL     1      -0.220  52.032 -22.189  1.00  0.00     0.034 C 
BRANCH  26  27
HETATM   27  C2  UNL     1      -0.102  51.647 -20.716  1.00  0.00    -0.086 C 
HETATM   28  C1  UNL     1      -0.055  50.344 -20.379  1.00  0.00     0.014 C 
BRANCH  27  29
HETATM   29  C37 UNL     1      -0.037  52.785 -19.697  1.00  0.00     0.005 C 
HETATM   30  C38 UNL     1       0.690  54.044 -20.181  1.00  0.00     0.014 C 
HETATM   31  C39 UNL     1       0.585  52.314 -18.381  1.00  0.00     0.014 C 
ENDBRANCH  27  29
ENDBRANCH  26  27
ENDBRANCH  25  26
ENDBRANCH  24  25
BRANCH  24  32
HETATM   32  C6  UNL     1      -2.417  52.592 -24.562  1.00  0.00     0.266 C 
HETATM   33  O1  UNL     1      -3.362  52.802 -25.318  1.00  0.00    -0.265 OA
BRANCH  32  34
HETATM   34  O2  UNL     1      -1.205  53.179 -24.697  1.00  0.00    -0.287 OA
BRANCH  34  35
HETATM   35  C7  UNL     1      -0.248  52.437 -25.484  1.00  0.00     0.301 C 
HETATM   36  O3  UNL     1       0.611  53.285 -26.256  1.00  0.00    -0.348 OA
HETATM   37  C8  UNL     1      -0.051  54.097 -27.231  1.00  0.00     0.179 C 
HETATM   38  C10 UNL     1      -1.445  53.596 -27.642  1.00  0.00     0.180 C 
HETATM   39  C11 UNL     1      -1.418  52.075 -27.736  1.00  0.00     0.183 C 
HETATM   40  C12 UNL     1      -0.974  51.430 -26.412  1.00  0.00     0.205 C 
BRANCH  37  41
HETATM   41  C9  UNL     1      -0.085  55.544 -26.748  1.00  0.00     0.198 C 
BRANCH  41  42
HETATM   42  O4  UNL     1       0.515  55.658 -25.458  1.00  0.00    -0.398 OA
HETATM   43  H12 UNL     1       0.791  56.601 -25.384  1.00  0.00     0.209 HD
ENDBRANCH  41  42
ENDBRANCH  37  41
BRANCH  38  44
HETATM   44  O5  UNL     1      -1.846  54.135 -28.908  1.00  0.00    -0.390 OA
HETATM   45  H14 UNL     1      -1.717  55.107 -28.827  1.00  0.00     0.210 HD
ENDBRANCH  38  44
BRANCH  39  46
HETATM   46  O6  UNL     1      -2.721  51.611 -28.111  1.00  0.00    -0.390 OA
HETATM   47  H16 UNL     1      -2.942  52.125 -28.914  1.00  0.00     0.210 HD
ENDBRANCH  39  46
BRANCH  40  48
HETATM   48  O7  UNL     1      -0.090  50.330 -26.714  1.00  0.00    -0.388 OA
HETATM   49  H18 UNL     1       0.719  50.706 -27.107  1.00  0.00     0.210 HD
ENDBRANCH  40  48
ENDBRANCH  34  35
ENDBRANCH  32  34
ENDBRANCH  24  32
ENDBRANCH   1  24
BRANCH   2  50
HETATM   50  O8  UNL     1      -4.094  49.536 -25.407  1.00  0.00    -0.316 OA
BRANCH  50  51
HETATM   51  C15 UNL     1      -3.754  48.765 -26.468  1.00  0.00     0.255 C 
HETATM   52  C16 UNL     1      -4.978  48.160 -27.083  1.00  0.00     0.126 C 
HETATM   53  O9  UNL     1      -2.628  48.616 -26.917  1.00  0.00    -0.266 OA
ENDBRANCH  50  51
ENDBRANCH   2  50
TORSDOF 15
ENDMDL
MODEL 6
REMARK minimizedAffinity -9.18910789
REMARK CNNscore 0.241387099
REMARK CNNaffinity 7.03686285
REMARK  15 active torsions:
REMARK  status: ('A' for Active; 'I' for Inactive)
REMARK    1  A    between atoms: C2_2  and  C3_3 
REMARK    2  A    between atoms: C2_2  and  C37_47 
REMARK    3  A    between atoms: C3_3  and  C4_4 
REMARK    4  A    between atoms: C4_4  and  C5_5 
REMARK    5  A    between atoms: C5_5  and  C6_6 
REMARK    6  A    between atoms: C5_5  and  C13_20 
REMARK    7  A    between atoms: C6_6  and  O2_8 
REMARK    8  A    between atoms: O2_8  and  C7_9 
REMARK    9  A    between atoms: C8_11  and  C9_12 
REMARK   10  A    between atoms: C9_12  and  O4_13 
REMARK   11  A    between atoms: C10_14  and  O5_15 
REMARK   12  A    between atoms: C11_16  and  O6_17 
REMARK   13  A    between atoms: C12_18  and  O7_19 
REMARK   14  A    between atoms: C14_21  and  O8_22 
REMARK   15  A    between atoms: O8_22  and  C15_23 
ROOT
HETATM    1  C13 UNL     1      -3.925  49.231 -22.423  1.00  0.00     0.038 C 
HETATM    2  C14 UNL     1      -3.811  50.404 -21.401  1.00  0.00     0.138 C 
HETATM    3  C17 UNL     1      -4.920  50.194 -20.352  1.00  0.00     0.047 C 
HETATM    4  C18 UNL     1      -5.341  48.717 -20.512  1.00  0.00    -0.010 C 
HETATM    5  C19 UNL     1      -4.320  47.849 -19.712  1.00  0.00     0.021 C 
HETATM    6  C20 UNL     1      -6.708  48.272 -19.999  1.00  0.00    -0.068 C 
HETATM    7  C21 UNL     1      -7.326  47.200 -20.559  1.00  0.00    -0.068 C 
HETATM    8  C22 UNL     1      -6.699  46.455 -21.749  1.00  0.00     0.036 C 
HETATM    9  C23 UNL     1      -5.412  47.051 -22.369  1.00  0.00     0.015 C 
HETATM   10  C24 UNL     1      -5.289  48.556 -22.086  1.00  0.00    -0.026 C 
HETATM   11  C25 UNL     1      -6.448  49.280 -22.819  1.00  0.00     0.016 C 
HETATM   12  C26 UNL     1      -8.704  46.685 -20.062  1.00  0.00    -0.015 C 
HETATM   13  C27 UNL     1      -9.760  47.151 -21.099  1.00  0.00     0.020 C 
HETATM   14  C28 UNL     1      -8.709  45.130 -19.994  1.00  0.00     0.021 C 
HETATM   15  C29 UNL     1      -9.752  44.507 -19.067  1.00  0.00     0.080 C 
HETATM   16  C30 UNL     1     -10.840  45.463 -18.643  1.00  0.00     0.135 C 
HETATM   17  O10 UNL     1     -12.022  45.123 -18.710  1.00  0.00    -0.297 OA
HETATM   18  C31 UNL     1     -10.406  46.803 -18.039  1.00  0.00     0.018 C 
HETATM   19  C32 UNL     1     -11.515  47.851 -18.269  1.00  0.00     0.023 C 
HETATM   20  C33 UNL     1     -10.294  46.583 -16.513  1.00  0.00     0.023 C 
HETATM   21  C34 UNL     1      -9.006  47.213 -18.613  1.00  0.00     0.013 C 
HETATM   22  C35 UNL     1      -8.729  48.719 -18.506  1.00  0.00     0.011 C 
HETATM   23  C36 UNL     1      -7.273  49.036 -18.824  1.00  0.00     0.036 C 
ENDROOT
BRANCH   1  24
HETATM   24  C5  UNL     1      -3.448  49.632 -23.853  1.00  0.00     0.093 C 
BRANCH  24  25
HETATM   25  C4  UNL     1      -3.688  48.530 -24.921  1.00  0.00     0.019 C 
BRANCH  25  26
HETATM   26  C3  UNL     1      -5.061  48.496 -25.616  1.00  0.00     0.034 C 
BRANCH  26  27
HETATM   27  C2  UNL     1      -4.943  48.187 -27.107  1.00  0.00    -0.086 C 
HETATM   28  C1  UNL     1      -3.728  48.209 -27.688  1.00  0.00     0.014 C 
BRANCH  27  29
HETATM   29  C37 UNL     1      -6.233  47.861 -27.860  1.00  0.00     0.005 C 
HETATM   30  C38 UNL     1      -7.261  47.055 -27.058  1.00  0.00     0.014 C 
HETATM   31  C39 UNL     1      -5.937  47.140 -29.176  1.00  0.00     0.014 C 
ENDBRANCH  27  29
ENDBRANCH  26  27
ENDBRANCH  25  26
ENDBRANCH  24  25
BRANCH  24  32
HETATM   32  C6  UNL     1      -3.637  51.031 -24.458  1.00  0.00     0.266 C 
HETATM   33  O1  UNL     1      -4.749  51.545 -24.541  1.00  0.00    -0.265 OA
BRANCH  32  34
HETATM   34  O2  UNL     1      -2.503  51.626 -24.896  1.00  0.00    -0.287 OA
BRANCH  34  35
HETATM   35  C7  UNL     1      -1.872  50.987 -26.028  1.00  0.00     0.301 C 
HETATM   36  O3  UNL     1      -0.450  50.889 -25.887  1.00  0.00    -0.348 OA
HETATM   37  C8  UNL     1       0.241  52.139 -25.793  1.00  0.00     0.179 C 
HETATM   38  C10 UNL     1      -0.539  53.344 -26.343  1.00  0.00     0.180 C 
HETATM   39  C11 UNL     1      -1.283  52.919 -27.604  1.00  0.00     0.183 C 
HETATM   40  C12 UNL     1      -2.226  51.734 -27.338  1.00  0.00     0.205 C 
BRANCH  37  41
HETATM   41  C9  UNL     1       0.694  52.362 -24.353  1.00  0.00     0.198 C 
BRANCH  41  42
HETATM   42  O4  UNL     1       1.047  53.730 -24.144  1.00  0.00    -0.398 OA
HETATM   43  H12 UNL     1       0.961  53.873 -23.172  1.00  0.00     0.209 HD
ENDBRANCH  41  42
ENDBRANCH  37  41
BRANCH  38  44
HETATM   44  O5  UNL     1       0.334  54.436 -26.661  1.00  0.00    -0.390 OA
HETATM   45  H14 UNL     1       0.877  54.575 -25.852  1.00  0.00     0.210 HD
ENDBRANCH  38  44
BRANCH  39  46
HETATM   46  O6  UNL     1      -2.016  54.043 -28.109  1.00  0.00    -0.390 OA
HETATM   47  H16 UNL     1      -1.350  54.758 -28.177  1.00  0.00     0.210 HD
ENDBRANCH  39  46
BRANCH  40  48
HETATM   48  O7  UNL     1      -2.137  50.820 -28.452  1.00  0.00    -0.388 OA
HETATM   49  H18 UNL     1      -1.237  50.446 -28.450  1.00  0.00     0.210 HD
ENDBRANCH  40  48
ENDBRANCH  34  35
ENDBRANCH  32  34
ENDBRANCH  24  32
ENDBRANCH   1  24
BRANCH   2  50
HETATM   50  O8  UNL     1      -2.516  50.301 -20.776  1.00  0.00    -0.316 OA
BRANCH  50  51
HETATM   51  C15 UNL     1      -1.526  51.120 -21.206  1.00  0.00     0.255 C 
HETATM   52  C16 UNL     1      -0.189  50.506 -20.926  1.00  0.00     0.126 C 
HETATM   53  O9  UNL     1      -1.673  52.179 -21.794  1.00  0.00    -0.266 OA
ENDBRANCH  50  51
ENDBRANCH   2  50
TORSDOF 15
ENDMDL
MODEL 7
REMARK minimizedAffinity -8.03398323
REMARK CNNscore 0.231606245
REMARK CNNaffinity 6.51071548
REMARK  15 active torsions:
REMARK  status: ('A' for Active; 'I' for Inactive)
REMARK    1  A    between atoms: C2_2  and  C3_3 
REMARK    2  A    between atoms: C2_2  and  C37_47 
REMARK    3  A    between atoms: C3_3  and  C4_4 
REMARK    4  A    between atoms: C4_4  and  C5_5 
REMARK    5  A    between atoms: C5_5  and  C6_6 
REMARK    6  A    between atoms: C5_5  and  C13_20 
REMARK    7  A    between atoms: C6_6  and  O2_8 
REMARK    8  A    between atoms: O2_8  and  C7_9 
REMARK    9  A    between atoms: C8_11  and  C9_12 
REMARK   10  A    between atoms: C9_12  and  O4_13 
REMARK   11  A    between atoms: C10_14  and  O5_15 
REMARK   12  A    between atoms: C11_16  and  O6_17 
REMARK   13  A    between atoms: C12_18  and  O7_19 
REMARK   14  A    between atoms: C14_21  and  O8_22 
REMARK   15  A    between atoms: O8_22  and  C15_23 
ROOT
HETATM    1  C13 UNL     1     -10.237  46.163 -28.210  1.00  0.00     0.038 C 
HETATM    2  C14 UNL     1     -10.545  45.157 -29.361  1.00  0.00     0.138 C 
HETATM    3  C17 UNL     1     -11.992  44.669 -29.155  1.00  0.00     0.047 C 
HETATM    4  C18 UNL     1     -12.627  45.705 -28.203  1.00  0.00    -0.010 C 
HETATM    5  C19 UNL     1     -13.084  46.920 -29.070  1.00  0.00     0.021 C 
HETATM    6  C20 UNL     1     -13.867  45.319 -27.402  1.00  0.00    -0.068 C 
HETATM    7  C21 UNL     1     -14.131  45.938 -26.222  1.00  0.00    -0.068 C 
HETATM    8  C22 UNL     1     -13.168  46.988 -25.644  1.00  0.00     0.036 C 
HETATM    9  C23 UNL     1     -11.827  47.213 -26.383  1.00  0.00     0.015 C 
HETATM   10  C24 UNL     1     -11.423  45.985 -27.214  1.00  0.00    -0.026 C 
HETATM   11  C25 UNL     1     -11.142  44.814 -26.238  1.00  0.00     0.016 C 
HETATM   12  C26 UNL     1     -15.390  45.606 -25.376  1.00  0.00    -0.015 C 
HETATM   13  C27 UNL     1     -14.916  44.730 -24.187  1.00  0.00     0.020 C 
HETATM   14  C28 UNL     1     -16.031  46.912 -24.822  1.00  0.00     0.021 C 
HETATM   15  C29 UNL     1     -17.505  46.818 -24.430  1.00  0.00     0.080 C 
HETATM   16  C30 UNL     1     -18.012  45.402 -24.300  1.00  0.00     0.135 C 
HETATM   17  O10 UNL     1     -18.665  45.067 -23.311  1.00  0.00    -0.297 OA
HETATM   18  C31 UNL     1     -17.771  44.455 -25.481  1.00  0.00     0.018 C 
HETATM   19  C32 UNL     1     -17.739  43.000 -24.971  1.00  0.00     0.023 C 
HETATM   20  C33 UNL     1     -19.000  44.587 -26.409  1.00  0.00     0.023 C 
HETATM   21  C34 UNL     1     -16.479  44.893 -26.255  1.00  0.00     0.013 C 
HETATM   22  C35 UNL     1     -15.862  43.759 -27.086  1.00  0.00     0.011 C 
HETATM   23  C36 UNL     1     -14.781  44.287 -28.020  1.00  0.00     0.036 C 
ENDROOT
BRANCH   1  24
HETATM   24  C5  UNL     1      -8.727  46.183 -27.816  1.00  0.00     0.093 C 
BRANCH  24  25
HETATM   25  C4  UNL     1      -8.482  46.101 -26.285  1.00  0.00     0.019 C 
BRANCH  25  26
HETATM   26  C3  UNL     1      -8.350  47.424 -25.511  1.00  0.00     0.034 C 
BRANCH  26  27
HETATM   27  C2  UNL     1      -7.184  47.399 -24.525  1.00  0.00    -0.086 C 
HETATM   28  C1  UNL     1      -7.241  46.576 -23.461  1.00  0.00     0.014 C 
BRANCH  27  29
HETATM   29  C37 UNL     1      -5.999  48.321 -24.816  1.00  0.00     0.005 C 
HETATM   30  C38 UNL     1      -5.340  48.111 -26.184  1.00  0.00     0.014 C 
HETATM   31  C39 UNL     1      -4.938  48.220 -23.720  1.00  0.00     0.014 C 
ENDBRANCH  27  29
ENDBRANCH  26  27
ENDBRANCH  25  26
ENDBRANCH  24  25
BRANCH  24  32
HETATM   32  C6  UNL     1      -7.631  45.433 -28.588  1.00  0.00     0.266 C 
HETATM   33  O1  UNL     1      -7.539  44.210 -28.537  1.00  0.00    -0.265 OA
BRANCH  32  34
HETATM   34  O2  UNL     1      -6.787  46.218 -29.296  1.00  0.00    -0.287 OA
BRANCH  34  35
HETATM   35  C7  UNL     1      -7.417  47.063 -30.283  1.00  0.00     0.301 C 
HETATM   36  O3  UNL     1      -7.354  46.514 -31.605  1.00  0.00    -0.348 OA
HETATM   37  C8  UNL     1      -6.034  46.333 -32.127  1.00  0.00     0.179 C 
HETATM   38  C10 UNL     1      -4.952  47.184 -31.442  1.00  0.00     0.180 C 
HETATM   39  C11 UNL     1      -5.525  48.564 -31.139  1.00  0.00     0.183 C 
HETATM   40  C12 UNL     1      -6.788  48.479 -30.265  1.00  0.00     0.205 C 
BRANCH  37  41
HETATM   41  C9  UNL     1      -5.682  44.848 -32.118  1.00  0.00     0.198 C 
BRANCH  41  42
HETATM   42  O4  UNL     1      -6.803  44.064 -32.524  1.00  0.00    -0.398 OA
HETATM   43  H12 UNL     1      -6.420  43.215 -32.849  1.00  0.00     0.209 HD
ENDBRANCH  41  42
ENDBRANCH  37  41
BRANCH  38  44
HETATM   44  O5  UNL     1      -3.793  47.330 -32.272  1.00  0.00    -0.390 OA
HETATM   45  H14 UNL     1      -3.550  46.415 -32.540  1.00  0.00     0.210 HD
ENDBRANCH  38  44
BRANCH  39  46
HETATM   46  O6  UNL     1      -4.516  49.351 -30.493  1.00  0.00    -0.390 OA
HETATM   47  H16 UNL     1      -3.739  49.287 -31.084  1.00  0.00     0.210 HD
ENDBRANCH  39  46
BRANCH  40  48
HETATM   48  O7  UNL     1      -7.748  49.439 -30.756  1.00  0.00    -0.388 OA
HETATM   49  H18 UNL     1      -8.023  49.148 -31.645  1.00  0.00     0.210 HD
ENDBRANCH  40  48
ENDBRANCH  34  35
ENDBRANCH  32  34
ENDBRANCH  24  32
ENDBRANCH   1  24
BRANCH   2  50
HETATM   50  O8  UNL     1     -10.442  45.883 -30.601  1.00  0.00    -0.316 OA
BRANCH  50  51
HETATM   51  C15 UNL     1     -10.319  45.180 -31.753  1.00  0.00     0.255 C 
HETATM   52  C16 UNL     1     -10.951  45.928 -32.886  1.00  0.00     0.126 C 
HETATM   53  O9  UNL     1      -9.731  44.119 -31.888  1.00  0.00    -0.266 OA
ENDBRANCH  50  51
ENDBRANCH   2  50
TORSDOF 15
ENDMDL
MODEL 8
REMARK minimizedAffinity -9.37949371
REMARK CNNscore 0.216972172
REMARK CNNaffinity 6.77446413
REMARK  15 active torsions:
REMARK  status: ('A' for Active; 'I' for Inactive)
REMARK    1  A    between atoms: C2_2  and  C3_3 
REMARK    2  A    between atoms: C2_2  and  C37_47 
REMARK    3  A    between atoms: C3_3  and  C4_4 
REMARK    4  A    between atoms: C4_4  and  C5_5 
REMARK    5  A    between atoms: C5_5  and  C6_6 
REMARK    6  A    between atoms: C5_5  and  C13_20 
REMARK    7  A    between atoms: C6_6  and  O2_8 
REMARK    8  A    between atoms: O2_8  and  C7_9 
REMARK    9  A    between atoms: C8_11  and  C9_12 
REMARK   10  A    between atoms: C9_12  and  O4_13 
REMARK   11  A    between atoms: C10_14  and  O5_15 
REMARK   12  A    between atoms: C11_16  and  O6_17 
REMARK   13  A    between atoms: C12_18  and  O7_19 
REMARK   14  A    between atoms: C14_21  and  O8_22 
REMARK   15  A    between atoms: O8_22  and  C15_23 
ROOT
HETATM    1  C13 UNL     1      -3.505  49.940 -22.487  1.00  0.00     0.038 C 
HETATM    2  C14 UNL     1      -2.888  48.569 -22.904  1.00  0.00     0.138 C 
HETATM    3  C17 UNL     1      -3.778  47.472 -22.290  1.00  0.00     0.047 C 
HETATM    4  C18 UNL     1      -5.100  48.186 -21.934  1.00  0.00    -0.010 C 
HETATM    5  C19 UNL     1      -5.960  48.257 -23.235  1.00  0.00     0.021 C 
HETATM    6  C20 UNL     1      -6.027  47.564 -20.894  1.00  0.00    -0.068 C 
HETATM    7  C21 UNL     1      -6.870  48.354 -20.179  1.00  0.00    -0.068 C 
HETATM    8  C22 UNL     1      -6.868  49.881 -20.356  1.00  0.00     0.036 C 
HETATM    9  C23 UNL     1      -5.782  50.494 -21.272  1.00  0.00     0.015 C 
HETATM   10  C24 UNL     1      -4.558  49.574 -21.397  1.00  0.00    -0.026 C 
HETATM   11  C25 UNL     1      -3.885  49.475 -20.004  1.00  0.00     0.016 C 
HETATM   12  C26 UNL     1      -7.855  47.775 -19.127  1.00  0.00    -0.015 C 
HETATM   13  C27 UNL     1      -7.254  48.082 -17.730  1.00  0.00     0.020 C 
HETATM   14  C28 UNL     1      -9.244  48.467 -19.247  1.00  0.00     0.021 C 
HETATM   15  C29 UNL     1     -10.428  47.689 -18.674  1.00  0.00     0.080 C 
HETATM   16  C30 UNL     1     -10.028  46.549 -17.769  1.00  0.00     0.135 C 
HETATM   17  O10 UNL     1     -10.574  46.409 -16.674  1.00  0.00    -0.297 OA
HETATM   18  C31 UNL     1      -9.013  45.539 -18.314  1.00  0.00     0.018 C 
HETATM   19  C32 UNL     1      -8.259  44.886 -17.136  1.00  0.00     0.023 C 
HETATM   20  C33 UNL     1      -9.829  44.425 -19.008  1.00  0.00     0.023 C 
HETATM   21  C34 UNL     1      -8.081  46.238 -19.363  1.00  0.00     0.013 C 
HETATM   22  C35 UNL     1      -6.746  45.508 -19.564  1.00  0.00     0.011 C 
HETATM   23  C36 UNL     1      -5.993  46.059 -20.768  1.00  0.00     0.036 C 
ENDROOT
BRANCH   1  24
HETATM   24  C5  UNL     1      -2.434  51.067 -22.360  1.00  0.00     0.093 C 
BRANCH  24  25
HETATM   25  C4  UNL     1      -2.118  51.464 -20.892  1.00  0.00     0.019 C 
BRANCH  25  26
HETATM   26  C3  UNL     1      -0.750  51.052 -20.320  1.00  0.00     0.034 C 
BRANCH  26  27
HETATM   27  C2  UNL     1      -0.571  51.512 -18.875  1.00  0.00    -0.086 C 
HETATM   28  C1  UNL     1      -1.188  50.834 -17.888  1.00  0.00     0.014 C 
BRANCH  27  29
HETATM   29  C37 UNL     1       0.321  52.730 -18.632  1.00  0.00     0.005 C 
HETATM   30  C38 UNL     1       1.097  53.217 -19.861  1.00  0.00     0.014 C 
HETATM   31  C39 UNL     1       1.297  52.480 -17.481  1.00  0.00     0.014 C 
ENDBRANCH  27  29
ENDBRANCH  26  27
ENDBRANCH  25  26
ENDBRANCH  24  25
BRANCH  24  32
HETATM   32  C6  UNL     1      -1.174  51.153 -23.234  1.00  0.00     0.266 C 
HETATM   33  O1  UNL     1      -0.051  51.124 -22.738  1.00  0.00    -0.265 OA
BRANCH  32  34
HETATM   34  O2  UNL     1      -1.402  51.278 -24.562  1.00  0.00    -0.287 OA
BRANCH  34  35
HETATM   35  C7  UNL     1      -1.470  52.637 -25.048  1.00  0.00     0.301 C 
HETATM   36  O3  UNL     1      -2.167  52.745 -26.296  1.00  0.00    -0.348 OA
HETATM   37  C8  UNL     1      -1.572  52.038 -27.389  1.00  0.00     0.179 C 
HETATM   38  C10 UNL     1      -0.083  51.708 -27.204  1.00  0.00     0.180 C 
HETATM   39  C11 UNL     1       0.607  52.888 -26.528  1.00  0.00     0.183 C 
HETATM   40  C12 UNL     1      -0.047  53.236 -25.180  1.00  0.00     0.205 C 
BRANCH  37  41
HETATM   41  C9  UNL     1      -2.398  50.792 -27.697  1.00  0.00     0.198 C 
BRANCH  41  42
HETATM   42  O4  UNL     1      -3.399  51.082 -28.673  1.00  0.00    -0.398 OA
HETATM   43  H12 UNL     1      -3.621  50.212 -29.082  1.00  0.00     0.209 HD
ENDBRANCH  41  42
ENDBRANCH  37  41
BRANCH  38  44
HETATM   44  O5  UNL     1       0.559  51.447 -28.458  1.00  0.00    -0.390 OA
HETATM   45  H14 UNL     1      -0.005  50.773 -28.901  1.00  0.00     0.210 HD
ENDBRANCH  38  44
BRANCH  39  46
HETATM   46  O6  UNL     1       1.994  52.573 -26.350  1.00  0.00    -0.390 OA
HETATM   47  H16 UNL     1       2.299  52.300 -27.239  1.00  0.00     0.210 HD
ENDBRANCH  39  46
BRANCH  40  48
HETATM   48  O7  UNL     1      -0.118  54.673 -25.065  1.00  0.00    -0.388 OA
HETATM   49  H18 UNL     1      -0.738  54.991 -25.747  1.00  0.00     0.210 HD
ENDBRANCH  40  48
ENDBRANCH  34  35
ENDBRANCH  32  34
ENDBRANCH  24  32
ENDBRANCH   1  24
BRANCH   2  50
HETATM   50  O8  UNL     1      -2.941  48.498 -24.343  1.00  0.00    -0.316 OA
BRANCH  50  51
HETATM   51  C15 UNL     1      -3.927  49.169 -24.986  1.00  0.00     0.255 C 
HETATM   52  C16 UNL     1      -4.547  48.299 -26.035  1.00  0.00     0.126 C 
HETATM   53  O9  UNL     1      -4.316  50.297 -24.728  1.00  0.00    -0.266 OA
ENDBRANCH  50  51
ENDBRANCH   2  50
TORSDOF 15
ENDMDL
MODEL 9
REMARK minimizedAffinity -7.90280676
REMARK CNNscore 0.205347955
REMARK CNNaffinity 6.90983534
REMARK  15 active torsions:
REMARK  status: ('A' for Active; 'I' for Inactive)
REMARK    1  A    between atoms: C2_2  and  C3_3 
REMARK    2  A    between atoms: C2_2  and  C37_47 
REMARK    3  A    between atoms: C3_3  and  C4_4 
REMARK    4  A    between atoms: C4_4  and  C5_5 
REMARK    5  A    between atoms: C5_5  and  C6_6 
REMARK    6  A    between atoms: C5_5  and  C13_20 
REMARK    7  A    between atoms: C6_6  and  O2_8 
REMARK    8  A    between atoms: O2_8  and  C7_9 
REMARK    9  A    between atoms: C8_11  and  C9_12 
REMARK   10  A    between atoms: C9_12  and  O4_13 
REMARK   11  A    between atoms: C10_14  and  O5_15 
REMARK   12  A    between atoms: C11_16  and  O6_17 
REMARK   13  A    between atoms: C12_18  and  O7_19 
REMARK   14  A    between atoms: C14_21  and  O8_22 
REMARK   15  A    between atoms: O8_22  and  C15_23 
ROOT
HETATM    1  C13 UNL     1      -3.801  49.298 -22.129  1.00  0.00     0.038 C 
HETATM    2  C14 UNL     1      -4.710  48.448 -23.069  1.00  0.00     0.138 C 
HETATM    3  C17 UNL     1      -5.277  47.293 -22.222  1.00  0.00     0.047 C 
HETATM    4  C18 UNL     1      -5.070  47.738 -20.758  1.00  0.00    -0.010 C 
HETATM    5  C19 UNL     1      -6.251  48.688 -20.385  1.00  0.00     0.021 C 
HETATM    6  C20 UNL     1      -5.061  46.685 -19.653  1.00  0.00    -0.068 C 
HETATM    7  C21 UNL     1      -4.382  46.919 -18.500  1.00  0.00    -0.068 C 
HETATM    8  C22 UNL     1      -3.568  48.209 -18.306  1.00  0.00     0.036 C 
HETATM    9  C23 UNL     1      -3.438  49.163 -19.518  1.00  0.00     0.015 C 
HETATM   10  C24 UNL     1      -3.645  48.423 -20.848  1.00  0.00    -0.026 C 
HETATM   11  C25 UNL     1      -2.484  47.409 -21.021  1.00  0.00     0.016 C 
HETATM   12  C26 UNL     1      -4.359  45.898 -17.331  1.00  0.00    -0.015 C 
HETATM   13  C27 UNL     1      -2.973  45.201 -17.368  1.00  0.00     0.020 C 
HETATM   14  C28 UNL     1      -4.524  46.630 -15.967  1.00  0.00     0.021 C 
HETATM   15  C29 UNL     1      -5.031  45.774 -14.807  1.00  0.00     0.080 C 
HETATM   16  C30 UNL     1      -4.950  44.289 -15.065  1.00  0.00     0.135 C 
HETATM   17  O10 UNL     1      -4.468  43.539 -14.216  1.00  0.00    -0.297 OA
HETATM   18  C31 UNL     1      -5.582  43.762 -16.358  1.00  0.00     0.018 C 
HETATM   19  C32 UNL     1      -4.884  42.450 -16.771  1.00  0.00     0.023 C 
HETATM   20  C33 UNL     1      -7.049  43.412 -16.021  1.00  0.00     0.023 C 
HETATM   21  C34 UNL     1      -5.549  44.880 -17.457  1.00  0.00     0.013 C 
HETATM   22  C35 UNL     1      -5.652  44.325 -18.884  1.00  0.00     0.011 C 
HETATM   23  C36 UNL     1      -5.883  45.441 -19.894  1.00  0.00     0.036 C 
ENDROOT
BRANCH   1  24
HETATM   24  C5  UNL     1      -2.630  49.993 -22.891  1.00  0.00     0.093 C 
BRANCH  24  25
HETATM   25  C4  UNL     1      -1.305  50.044 -22.084  1.00  0.00     0.019 C 
BRANCH  25  26
HETATM   26  C3  UNL     1      -0.820  51.420 -21.594  1.00  0.00     0.034 C 
BRANCH  26  27
HETATM   27  C2  UNL     1      -0.156  51.340 -20.221  1.00  0.00    -0.086 C 
HETATM   28  C1  UNL     1      -0.417  50.286 -19.425  1.00  0.00     0.014 C 
BRANCH  27  29
HETATM   29  C37 UNL     1       0.787  52.479 -19.830  1.00  0.00     0.005 C 
HETATM   30  C38 UNL     1       0.995  52.654 -18.322  1.00  0.00     0.014 C 
HETATM   31  C39 UNL     1       0.331  53.806 -20.438  1.00  0.00     0.014 C 
ENDBRANCH  27  29
ENDBRANCH  26  27
ENDBRANCH  25  26
ENDBRANCH  24  25
BRANCH  24  32
HETATM   32  C6  UNL     1      -2.352  49.804 -24.390  1.00  0.00     0.266 C 
HETATM   33  O1  UNL     1      -2.749  48.809 -24.991  1.00  0.00    -0.265 OA
BRANCH  32  34
HETATM   34  O2  UNL     1      -1.635  50.793 -24.971  1.00  0.00    -0.287 OA
BRANCH  34  35
HETATM   35  C7  UNL     1      -1.191  50.520 -26.318  1.00  0.00     0.301 C 
HETATM   36  O3  UNL     1       0.220  50.701 -26.484  1.00  0.00    -0.348 OA
HETATM   37  C8  UNL     1       0.695  52.031 -26.249  1.00  0.00     0.179 C 
HETATM   38  C10 UNL     1      -0.382  53.123 -26.352  1.00  0.00     0.180 C 
HETATM   39  C11 UNL     1      -1.321  52.787 -27.505  1.00  0.00     0.183 C 
HETATM   40  C12 UNL     1      -1.963  51.400 -27.333  1.00  0.00     0.205 C 
BRANCH  37  41
HETATM   41  C9  UNL     1       1.431  52.079 -24.913  1.00  0.00     0.198 C 
BRANCH  41  42
HETATM   42  O4  UNL     1       0.743  52.926 -23.991  1.00  0.00    -0.398 OA
HETATM   43  H12 UNL     1       1.034  52.625 -23.099  1.00  0.00     0.209 HD
ENDBRANCH  41  42
ENDBRANCH  37  41
BRANCH  38  44
HETATM   44  O5  UNL     1       0.197  54.414 -26.581  1.00  0.00    -0.390 OA
HETATM   45  H14 UNL     1       0.884  54.515 -25.884  1.00  0.00     0.210 HD
ENDBRANCH  38  44
BRANCH  39  46
HETATM   46  O6  UNL     1      -2.328  53.803 -27.592  1.00  0.00    -0.390 OA
HETATM   47  H16 UNL     1      -1.826  54.643 -27.627  1.00  0.00     0.210 HD
ENDBRANCH  39  46
BRANCH  40  48
HETATM   48  O7  UNL     1      -1.988  50.745 -28.618  1.00  0.00    -0.388 OA
HETATM   49  H18 UNL     1      -1.063  50.575 -28.876  1.00  0.00     0.210 HD
ENDBRANCH  40  48
ENDBRANCH  34  35
ENDBRANCH  32  34
ENDBRANCH  24  32
ENDBRANCH   1  24
BRANCH   2  50
HETATM   50  O8  UNL     1      -5.780  49.304 -23.515  1.00  0.00    -0.316 OA
BRANCH  50  51
HETATM   51  C15 UNL     1      -6.762  48.765 -24.278  1.00  0.00     0.255 C 
HETATM   52  C16 UNL     1      -8.106  49.142 -23.734  1.00  0.00     0.126 C 
HETATM   53  O9  UNL     1      -6.604  48.116 -25.299  1.00  0.00    -0.266 OA
ENDBRANCH  50  51
ENDBRANCH   2  50
TORSDOF 15
ENDMDL
