MODEL 1
REMARK minimizedAffinity -10.5882521
REMARK CNNscore 0.445348144
REMARK CNNaffinity 7.80801964
REMARK  13 active torsions:
REMARK  status: ('A' for Active; 'I' for Inactive)
REMARK    1  A    between atoms: C5_6  and  C6_7 
REMARK    2  A    between atoms: C5_6  and  C31_35 
REMARK    3  A    between atoms: C23_24  and  O2_25 
REMARK    4  A    between atoms: C30_33  and  O4_34 
REMARK    5  A    between atoms: C32_37  and  C33_38 
REMARK    6  A    between atoms: C33_38  and  O6_40 
REMARK    7  A    between atoms: C33_38  and  C35_41 
REMARK    8  A    between atoms: C35_41  and  C37_43 
REMARK    9  A    between atoms: C35_41  and  C38_45 
REMARK   10  A    between atoms: C37_43  and  O7_44 
REMARK   11  A    between atoms: C38_45  and  C39_46 
REMARK   12  A    between atoms: C39_46  and  C40_47 
REMARK   13  A    between atoms: C43_51  and  N2_52 
ROOT
HETATM    1  C1  UNL     1       4.303  50.010 -13.847  1.00  0.00     0.010 C 
HETATM    2  C2  UNL     1       3.028  49.831 -13.021  1.00  0.00    -0.014 C 
HETATM    3  C3  UNL     1       2.590  48.374 -13.010  1.00  0.00     0.030 C 
HETATM    4  C4  UNL     1       1.250  48.191 -12.311  1.00  0.00     0.169 C 
HETATM    5  O1  UNL     1       0.677  49.411 -11.867  1.00  0.00    -0.377 OA
HETATM    6  C5  UNL     1       0.526  50.468 -12.856  1.00  0.00     0.094 C 
HETATM    7  C45 UNL     1       1.892  50.711 -13.561  1.00  0.00     0.045 C 
ENDROOT
BRANCH   6   8
HETATM    8  C6  UNL     1       0.031  51.679 -11.970  1.00  0.00     0.035 C 
HETATM    9  C7  UNL     1      -1.276  51.371 -11.152  1.00  0.00     0.016 C 
HETATM   10  C8  UNL     1      -1.405  52.469 -10.068  1.00  0.00     0.026 C 
HETATM   11  C9  UNL     1      -1.582  51.967  -8.634  1.00  0.00     0.013 C 
HETATM   12  C30 UNL     1      -0.130  53.307 -10.232  1.00  0.00     0.094 C 
HETATM   13  C10 UNL     1      -1.461  53.123  -7.622  1.00  0.00     0.043 C 
HETATM   14  C11 UNL     1      -0.245  53.986  -7.854  1.00  0.00    -0.006 C 
HETATM   15  C12 UNL     1       0.418  53.998  -9.020  1.00  0.00    -0.030 C 
HETATM   16  C26 UNL     1       0.138  54.958  -6.783  1.00  0.00     0.161 C 
HETATM   17  C13 UNL     1       1.648  54.815  -9.298  1.00  0.00     0.032 C 
HETATM   18  C14 UNL     1       2.682  54.146 -10.267  1.00  0.00    -0.004 C 
HETATM   19  C20 UNL     1       2.386  55.344  -8.026  1.00  0.00    -0.018 C 
HETATM   20  C15 UNL     1       3.699  55.216 -10.715  1.00  0.00     0.010 C 
HETATM   21  C27 UNL     1       2.050  53.344 -11.438  1.00  0.00     0.018 C 
HETATM   22  C16 UNL     1       4.341  55.970  -9.503  1.00  0.00    -0.009 C 
HETATM   23  C17 UNL     1       5.319  55.060  -8.755  1.00  0.00     0.005 C 
HETATM   24  C25 UNL     1       3.227  56.528  -8.597  1.00  0.00     0.002 C 
HETATM   25  C18 UNL     1       4.794  54.442  -7.466  1.00  0.00     0.001 C 
HETATM   26  C19 UNL     1       3.286  54.241  -7.363  1.00  0.00     0.011 C 
HETATM   27  C24 UNL     1       3.613  57.518  -7.503  1.00  0.00     0.037 C 
HETATM   28  C23 UNL     1       2.344  58.159  -6.895  1.00  0.00     0.119 C 
HETATM   29  C22 UNL     1       1.064  57.317  -7.071  1.00  0.00     0.045 C 
HETATM   30  C21 UNL     1       1.390  55.827  -6.933  1.00  0.00     0.072 C 
HETATM   31  C28 UNL     1       0.933  52.388 -10.907  1.00  0.00    -0.002 C 
HETATM   32  C29 UNL     1       1.562  51.358  -9.938  1.00  0.00     0.019 C 
HETATM   33  O3  UNL     1      -0.591  55.078  -5.798  1.00  0.00    -0.292 OA
BRANCH  28  34
HETATM   34  O2  UNL     1       2.599  58.374  -5.507  1.00  0.00    -0.396 OA
HETATM   35  H32 UNL     1       1.801  58.765  -5.116  1.00  0.00     0.210 HD
ENDBRANCH  28  34
BRANCH  12  36
HETATM   36  O4  UNL     1      -0.472  54.393 -11.124  1.00  0.00    -0.384 OA
HETATM   37  H41 UNL     1      -1.170  54.104 -11.735  1.00  0.00     0.211 HD
ENDBRANCH  12  36
ENDBRANCH   6   8
BRANCH   6  38
HETATM   38  C31 UNL     1      -0.608  50.029 -13.787  1.00  0.00     0.189 A 
HETATM   39  O5  UNL     1      -1.068  51.012 -14.710  1.00  0.00    -0.369 OA
HETATM   40  C32 UNL     1      -0.432  49.857 -15.301  1.00  0.00     0.189 A 
BRANCH  40  41
HETATM   41  C33 UNL     1      -1.323  49.209 -16.366  1.00  0.00     0.092 C 
HETATM   42  C34 UNL     1      -2.733  49.097 -15.742  1.00  0.00     0.049 C 
BRANCH  41  43
HETATM   43  O6  UNL     1      -0.907  47.834 -16.487  1.00  0.00    -0.387 OA
HETATM   44  H47 UNL     1       0.066  47.855 -16.537  1.00  0.00     0.210 HD
ENDBRANCH  41  43
BRANCH  41  45
HETATM   45  C35 UNL     1      -1.345  49.859 -17.817  1.00  0.00     0.011 C 
HETATM   46  C36 UNL     1      -2.444  50.962 -17.907  1.00  0.00     0.020 C 
BRANCH  45  47
HETATM   47  C37 UNL     1      -1.609  48.800 -18.912  1.00  0.00     0.176 C 
BRANCH  47  48
HETATM   48  O7  UNL     1      -2.116  47.596 -18.339  1.00  0.00    -0.400 OA
HETATM   49  H53 UNL     1      -1.558  46.860 -18.653  1.00  0.00     0.209 HD
ENDBRANCH  47  48
ENDBRANCH  45  47
BRANCH  45  50
HETATM   50  C38 UNL     1      -0.008  50.653 -18.113  1.00  0.00     0.019 C 
BRANCH  50  51
HETATM   51  C39 UNL     1      -0.113  52.151 -18.457  1.00  0.00     0.039 C 
BRANCH  51  52
HETATM   52  C40 UNL     1       0.184  52.403 -19.922  1.00  0.00    -0.053 A 
HETATM   53  C41 UNL     1      -0.306  51.552 -20.910  1.00  0.00     0.024 A 
HETATM   54  C42 UNL     1      -0.014  51.821 -22.239  1.00  0.00     0.090 A 
HETATM   55  N1  UNL     1       0.713  52.899 -22.561  1.00  0.00    -0.353 N 
HETATM   56  C43 UNL     1       1.175  53.771 -21.656  1.00  0.00     0.098 A 
HETATM   57  H60 UNL     1       0.937  53.068 -23.537  1.00  0.00     0.166 HD
HETATM   58  C44 UNL     1       0.946  53.511 -20.308  1.00  0.00     0.055 A 
BRANCH  56  59
HETATM   59  N2  UNL     1       1.950  54.839 -22.069  1.00  0.00    -0.385 N 
HETATM   60  H61 UNL     1       1.871  55.678 -21.493  1.00  0.00     0.157 HD
HETATM   61  H62 UNL     1       2.052  55.062 -23.051  1.00  0.00     0.157 HD
ENDBRANCH  56  59
ENDBRANCH  51  52
ENDBRANCH  50  51
ENDBRANCH  45  50
ENDBRANCH  41  45
ENDBRANCH  40  41
ENDBRANCH   6  38
TORSDOF 13
ENDMDL
MODEL 2
REMARK minimizedAffinity -10.4975767
REMARK CNNscore 0.355173111
REMARK CNNaffinity 7.72085905
REMARK  13 active torsions:
REMARK  status: ('A' for Active; 'I' for Inactive)
REMARK    1  A    between atoms: C5_6  and  C6_7 
REMARK    2  A    between atoms: C5_6  and  C31_35 
REMARK    3  A    between atoms: C23_24  and  O2_25 
REMARK    4  A    between atoms: C30_33  and  O4_34 
REMARK    5  A    between atoms: C32_37  and  C33_38 
REMARK    6  A    between atoms: C33_38  and  O6_40 
REMARK    7  A    between atoms: C33_38  and  C35_41 
REMARK    8  A    between atoms: C35_41  and  C37_43 
REMARK    9  A    between atoms: C35_41  and  C38_45 
REMARK   10  A    between atoms: C37_43  and  O7_44 
REMARK   11  A    between atoms: C38_45  and  C39_46 
REMARK   12  A    between atoms: C39_46  and  C40_47 
REMARK   13  A    between atoms: C43_51  and  N2_52 
ROOT
HETATM    1  C1  UNL     1      -3.361  50.248  -9.014  1.00  0.00     0.010 C 
HETATM    2  C2  UNL     1      -2.975  51.300 -10.056  1.00  0.00    -0.014 C 
HETATM    3  C3  UNL     1      -3.737  51.081 -11.355  1.00  0.00     0.030 C 
HETATM    4  C4  UNL     1      -3.270  52.028 -12.451  1.00  0.00     0.169 C 
HETATM    5  O1  UNL     1      -2.201  52.871 -12.048  1.00  0.00    -0.377 OA
HETATM    6  C5  UNL     1      -1.026  52.223 -11.484  1.00  0.00     0.094 C 
HETATM    7  C45 UNL     1      -1.465  51.277 -10.329  1.00  0.00     0.045 C 
ENDROOT
BRANCH   6   8
HETATM    8  C6  UNL     1      -0.162  53.461 -11.015  1.00  0.00     0.035 C 
HETATM    9  C7  UNL     1      -1.020  54.662 -10.474  1.00  0.00     0.016 C 
HETATM   10  C8  UNL     1      -0.058  55.602  -9.708  1.00  0.00     0.026 C 
HETATM   11  C9  UNL     1      -0.477  55.958  -8.280  1.00  0.00     0.013 C 
HETATM   12  C30 UNL     1       1.290  54.869  -9.748  1.00  0.00     0.094 C 
HETATM   13  C10 UNL     1       0.656  56.694  -7.538  1.00  0.00     0.043 C 
HETATM   14  C11 UNL     1       1.991  56.001  -7.661  1.00  0.00    -0.006 C 
HETATM   15  C12 UNL     1       2.247  55.097  -8.618  1.00  0.00    -0.030 C 
HETATM   16  C26 UNL     1       3.099  56.452  -6.763  1.00  0.00     0.161 C 
HETATM   17  C13 UNL     1       3.546  54.357  -8.772  1.00  0.00     0.032 C 
HETATM   18  C14 UNL     1       3.414  52.892  -9.311  1.00  0.00    -0.004 C 
HETATM   19  C20 UNL     1       4.463  54.371  -7.506  1.00  0.00    -0.018 C 
HETATM   20  C15 UNL     1       4.813  52.394  -9.729  1.00  0.00     0.010 C 
HETATM   21  C27 UNL     1       2.321  52.696 -10.398  1.00  0.00     0.018 C 
HETATM   22  C16 UNL     1       5.872  52.572  -8.591  1.00  0.00    -0.009 C 
HETATM   23  C17 UNL     1       5.627  51.567  -7.461  1.00  0.00     0.005 C 
HETATM   24  C25 UNL     1       5.864  54.034  -8.106  1.00  0.00     0.002 C 
HETATM   25  C18 UNL     1       4.925  52.117  -6.227  1.00  0.00     0.001 C 
HETATM   26  C19 UNL     1       4.007  53.317  -6.435  1.00  0.00     0.011 C 
HETATM   27  C24 UNL     1       6.990  54.498  -7.189  1.00  0.00     0.037 C 
HETATM   28  C23 UNL     1       6.956  56.037  -7.041  1.00  0.00     0.119 C 
HETATM   29  C22 UNL     1       5.578  56.668  -7.324  1.00  0.00     0.045 C 
HETATM   30  C21 UNL     1       4.463  55.758  -6.801  1.00  0.00     0.072 C 
HETATM   31  C28 UNL     1       0.977  53.355  -9.949  1.00  0.00    -0.002 C 
HETATM   32  C29 UNL     1       0.470  52.655  -8.664  1.00  0.00     0.019 C 
HETATM   33  O3  UNL     1       2.911  57.417  -6.021  1.00  0.00    -0.292 OA
BRANCH  28  34
HETATM   34  O2  UNL     1       7.369  56.345  -5.710  1.00  0.00    -0.396 OA
HETATM   35  H32 UNL     1       7.337  57.310  -5.605  1.00  0.00     0.210 HD
ENDBRANCH  28  34
BRANCH  12  36
HETATM   36  O4  UNL     1       1.993  55.378 -10.905  1.00  0.00    -0.384 OA
HETATM   37  H41 UNL     1       1.351  55.643 -11.585  1.00  0.00     0.211 HD
ENDBRANCH  12  36
ENDBRANCH   6   8
BRANCH   6  38
HETATM   38  C31 UNL     1      -0.317  51.527 -12.649  1.00  0.00     0.189 A 
HETATM   39  O5  UNL     1      -1.118  51.270 -13.798  1.00  0.00    -0.369 OA
HETATM   40  C32 UNL     1      -0.040  52.212 -13.994  1.00  0.00     0.189 A 
BRANCH  40  41
HETATM   41  C33 UNL     1       0.845  51.814 -15.179  1.00  0.00     0.092 C 
HETATM   42  C34 UNL     1       2.189  51.342 -14.578  1.00  0.00     0.049 C 
BRANCH  41  43
HETATM   43  O6  UNL     1       1.202  53.029 -15.869  1.00  0.00    -0.387 OA
HETATM   44  H47 UNL     1       0.374  53.535 -15.959  1.00  0.00     0.210 HD
ENDBRANCH  41  43
BRANCH  41  45
HETATM   45  C35 UNL     1       0.254  50.787 -16.240  1.00  0.00     0.011 C 
HETATM   46  C36 UNL     1      -1.299  50.912 -16.318  1.00  0.00     0.020 C 
BRANCH  45  47
HETATM   47  C37 UNL     1       0.620  49.327 -15.884  1.00  0.00     0.176 C 
BRANCH  47  48
HETATM   48  O7  UNL     1      -0.259  48.413 -16.535  1.00  0.00    -0.400 OA
HETATM   49  H53 UNL     1      -0.627  47.818 -15.854  1.00  0.00     0.209 HD
ENDBRANCH  47  48
ENDBRANCH  45  47
BRANCH  45  50
HETATM   50  C38 UNL     1       0.722  51.142 -17.710  1.00  0.00     0.019 C 
BRANCH  50  51
HETATM   51  C39 UNL     1      -0.360  51.342 -18.788  1.00  0.00     0.039 C 
BRANCH  51  52
HETATM   52  C40 UNL     1       0.161  52.175 -19.943  1.00  0.00    -0.053 A 
HETATM   53  C41 UNL     1       0.888  53.342 -19.715  1.00  0.00     0.024 A 
HETATM   54  C42 UNL     1       1.350  54.073 -20.800  1.00  0.00     0.090 A 
HETATM   55  N1  UNL     1       1.112  53.645 -22.047  1.00  0.00    -0.353 N 
HETATM   56  C43 UNL     1       0.454  52.512 -22.322  1.00  0.00     0.098 A 
HETATM   57  H60 UNL     1       1.437  54.205 -22.830  1.00  0.00     0.166 HD
HETATM   58  C44 UNL     1      -0.069  51.775 -21.263  1.00  0.00     0.055 A 
BRANCH  56  59
HETATM   59  N2  UNL     1       0.218  52.161 -23.639  1.00  0.00    -0.385 N 
HETATM   60  H61 UNL     1       0.172  51.157 -23.815  1.00  0.00     0.157 HD
HETATM   61  H62 UNL     1       0.660  52.660 -24.400  1.00  0.00     0.157 HD
ENDBRANCH  56  59
ENDBRANCH  51  52
ENDBRANCH  50  51
ENDBRANCH  45  50
ENDBRANCH  41  45
ENDBRANCH  40  41
ENDBRANCH   6  38
TORSDOF 13
ENDMDL
MODEL 3
REMARK minimizedAffinity -10.6438818
REMARK CNNscore 0.319993645
REMARK CNNaffinity 7.67104101
REMARK  13 active torsions:
REMARK  status: ('A' for Active; 'I' for Inactive)
REMARK    1  A    between atoms: C5_6  and  C6_7 
REMARK    2  A    between atoms: C5_6  and  C31_35 
REMARK    3  A    between atoms: C23_24  and  O2_25 
REMARK    4  A    between atoms: C30_33  and  O4_34 
REMARK    5  A    between atoms: C32_37  and  C33_38 
REMARK    6  A    between atoms: C33_38  and  O6_40 
REMARK    7  A    between atoms: C33_38  and  C35_41 
REMARK    8  A    between atoms: C35_41  and  C37_43 
REMARK    9  A    between atoms: C35_41  and  C38_45 
REMARK   10  A    between atoms: C37_43  and  O7_44 
REMARK   11  A    between atoms: C38_45  and  C39_46 
REMARK   12  A    between atoms: C39_46  and  C40_47 
REMARK   13  A    between atoms: C43_51  and  N2_52 
ROOT
HETATM    1  C1  UNL     1      -2.173  47.926 -11.201  1.00  0.00     0.010 C 
HETATM    2  C2  UNL     1      -2.508  49.371 -11.576  1.00  0.00    -0.014 C 
HETATM    3  C3  UNL     1      -3.084  49.446 -12.982  1.00  0.00     0.030 C 
HETATM    4  C4  UNL     1      -3.297  50.885 -13.430  1.00  0.00     0.169 C 
HETATM    5  O1  UNL     1      -2.871  51.841 -12.471  1.00  0.00    -0.377 OA
HETATM    6  C5  UNL     1      -1.506  51.722 -11.980  1.00  0.00     0.094 C 
HETATM    7  C45 UNL     1      -1.268  50.270 -11.473  1.00  0.00     0.045 C 
ENDROOT
BRANCH   6   8
HETATM    8  C6  UNL     1      -1.469  52.818 -10.842  1.00  0.00     0.035 C 
HETATM    9  C7  UNL     1      -2.387  52.482  -9.611  1.00  0.00     0.016 C 
HETATM   10  C8  UNL     1      -1.952  53.412  -8.451  1.00  0.00     0.026 C 
HETATM   11  C9  UNL     1      -1.622  52.714  -7.130  1.00  0.00     0.013 C 
HETATM   12  C30 UNL     1      -0.747  54.175  -9.017  1.00  0.00     0.094 C 
HETATM   13  C10 UNL     1      -0.980  53.695  -6.130  1.00  0.00     0.043 C 
HETATM   14  C11 UNL     1       0.149  54.498  -6.731  1.00  0.00    -0.006 C 
HETATM   15  C12 UNL     1       0.306  54.638  -8.055  1.00  0.00    -0.030 C 
HETATM   16  C26 UNL     1       1.030  55.270  -5.802  1.00  0.00     0.161 C 
HETATM   17  C13 UNL     1       1.424  55.401  -8.709  1.00  0.00     0.032 C 
HETATM   18  C14 UNL     1       1.914  54.815 -10.077  1.00  0.00    -0.004 C 
HETATM   19  C20 UNL     1       2.654  55.682  -7.787  1.00  0.00    -0.018 C 
HETATM   20  C15 UNL     1       2.802  55.867 -10.772  1.00  0.00     0.010 C 
HETATM   21  C27 UNL     1       0.786  54.242 -10.980  1.00  0.00     0.018 C 
HETATM   22  C16 UNL     1       3.949  56.385  -9.842  1.00  0.00    -0.009 C 
HETATM   23  C17 UNL     1       5.020  55.308  -9.651  1.00  0.00     0.005 C 
HETATM   24  C25 UNL     1       3.348  56.877  -8.512  1.00  0.00     0.002 C 
HETATM   25  C18 UNL     1       4.962  54.541  -8.337  1.00  0.00     0.001 C 
HETATM   26  C19 UNL     1       3.598  54.432  -7.664  1.00  0.00     0.011 C 
HETATM   27  C24 UNL     1       4.243  57.663  -7.560  1.00  0.00     0.037 C 
HETATM   28  C23 UNL     1       3.396  58.292  -6.431  1.00  0.00     0.119 C 
HETATM   29  C22 UNL     1       2.055  57.576  -6.173  1.00  0.00     0.045 C 
HETATM   30  C21 UNL     1       2.223  56.063  -6.341  1.00  0.00     0.072 C 
HETATM   31  C28 UNL     1      -0.148  53.297 -10.156  1.00  0.00    -0.002 C 
HETATM   32  C29 UNL     1       0.675  52.092  -9.638  1.00  0.00     0.019 C 
HETATM   33  O3  UNL     1       0.759  55.291  -4.601  1.00  0.00    -0.292 OA
BRANCH  28  34
HETATM   34  O2  UNL     1       4.191  58.279  -5.245  1.00  0.00    -0.396 OA
HETATM   35  H32 UNL     1       3.660  58.660  -4.527  1.00  0.00     0.210 HD
ENDBRANCH  28  34
BRANCH  12  36
HETATM   36  O4  UNL     1      -1.271  55.403  -9.573  1.00  0.00    -0.384 OA
HETATM   37  H41 UNL     1      -2.180  55.258  -9.883  1.00  0.00     0.211 HD
ENDBRANCH  12  36
ENDBRANCH   6   8
BRANCH   6  38
HETATM   38  C31 UNL     1      -0.595  52.158 -13.130  1.00  0.00     0.189 A 
HETATM   39  O5  UNL     1       0.747  51.684 -13.072  1.00  0.00    -0.369 OA
HETATM   40  C32 UNL     1      -0.038  51.184 -14.177  1.00  0.00     0.189 A 
BRANCH  40  41
HETATM   41  C33 UNL     1       0.665  51.418 -15.517  1.00  0.00     0.092 C 
HETATM   42  C34 UNL     1       2.101  50.870 -15.354  1.00  0.00     0.049 C 
BRANCH  41  43
HETATM   43  O6  UNL     1       0.869  52.839 -15.647  1.00  0.00    -0.387 OA
HETATM   44  H47 UNL     1       0.020  53.252 -15.404  1.00  0.00     0.210 HD
ENDBRANCH  41  43
BRANCH  41  45
HETATM   45  C35 UNL     1      -0.047  50.887 -16.836  1.00  0.00     0.011 C 
HETATM   46  C36 UNL     1      -1.595  51.049 -16.726  1.00  0.00     0.020 C 
BRANCH  45  47
HETATM   47  C37 UNL     1       0.281  49.399 -17.101  1.00  0.00     0.176 C 
BRANCH  47  48
HETATM   48  O7  UNL     1      -0.884  48.591 -16.957  1.00  0.00    -0.400 OA
HETATM   49  H53 UNL     1      -0.671  47.870 -16.334  1.00  0.00     0.209 HD
ENDBRANCH  47  48
ENDBRANCH  45  47
BRANCH  45  50
HETATM   50  C38 UNL     1       0.324  51.778 -18.091  1.00  0.00     0.019 C 
BRANCH  50  51
HETATM   51  C39 UNL     1      -0.188  51.333 -19.474  1.00  0.00     0.039 C 
BRANCH  51  52
HETATM   52  C40 UNL     1       0.307  52.258 -20.569  1.00  0.00    -0.053 A 
HETATM   53  C41 UNL     1       1.002  53.426 -20.261  1.00  0.00     0.024 A 
HETATM   54  C42 UNL     1       1.440  54.243 -21.293  1.00  0.00     0.090 A 
HETATM   55  N1  UNL     1       1.213  53.896 -22.566  1.00  0.00    -0.353 N 
HETATM   56  C43 UNL     1       0.586  52.766 -22.919  1.00  0.00     0.098 A 
HETATM   57  H60 UNL     1       1.520  54.517 -23.309  1.00  0.00     0.166 HD
HETATM   58  C44 UNL     1       0.086  51.943 -21.913  1.00  0.00     0.055 A 
BRANCH  56  59
HETATM   59  N2  UNL     1       0.358  52.500 -24.256  1.00  0.00    -0.385 N 
HETATM   60  H61 UNL     1       0.340  51.509 -24.502  1.00  0.00     0.157 HD
HETATM   61  H62 UNL     1       0.784  53.062 -24.982  1.00  0.00     0.157 HD
ENDBRANCH  56  59
ENDBRANCH  51  52
ENDBRANCH  50  51
ENDBRANCH  45  50
ENDBRANCH  41  45
ENDBRANCH  40  41
ENDBRANCH   6  38
TORSDOF 13
ENDMDL
MODEL 4
REMARK minimizedAffinity -10.9693613
REMARK CNNscore 0.265295297
REMARK CNNaffinity 7.64488077
REMARK  13 active torsions:
REMARK  status: ('A' for Active; 'I' for Inactive)
REMARK    1  A    between atoms: C5_6  and  C6_7 
REMARK    2  A    between atoms: C5_6  and  C31_35 
REMARK    3  A    between atoms: C23_24  and  O2_25 
REMARK    4  A    between atoms: C30_33  and  O4_34 
REMARK    5  A    between atoms: C32_37  and  C33_38 
REMARK    6  A    between atoms: C33_38  and  O6_40 
REMARK    7  A    between atoms: C33_38  and  C35_41 
REMARK    8  A    between atoms: C35_41  and  C37_43 
REMARK    9  A    between atoms: C35_41  and  C38_45 
REMARK   10  A    between atoms: C37_43  and  O7_44 
REMARK   11  A    between atoms: C38_45  and  C39_46 
REMARK   12  A    between atoms: C39_46  and  C40_47 
REMARK   13  A    between atoms: C43_51  and  N2_52 
ROOT
HETATM    1  C1  UNL     1      -5.081  47.447 -17.580  1.00  0.00     0.010 C 
HETATM    2  C2  UNL     1      -4.239  47.807 -18.805  1.00  0.00    -0.014 C 
HETATM    3  C3  UNL     1      -2.754  47.730 -18.483  1.00  0.00     0.030 C 
HETATM    4  C4  UNL     1      -1.897  48.216 -19.643  1.00  0.00     0.169 C 
HETATM    5  O1  UNL     1      -2.658  48.679 -20.749  1.00  0.00    -0.377 OA
HETATM    6  C5  UNL     1      -3.665  49.695 -20.479  1.00  0.00     0.094 C 
HETATM    7  C45 UNL     1      -4.587  49.210 -19.322  1.00  0.00     0.045 C 
ENDROOT
BRANCH   6   8
HETATM    8  C6  UNL     1      -4.391  49.818 -21.877  1.00  0.00     0.035 C 
HETATM    9  C7  UNL     1      -3.406  50.024 -23.084  1.00  0.00     0.016 C 
HETATM   10  C8  UNL     1      -4.205  49.735 -24.379  1.00  0.00     0.026 C 
HETATM   11  C9  UNL     1      -3.577  48.716 -25.331  1.00  0.00     0.013 C 
HETATM   12  C30 UNL     1      -5.581  49.282 -23.875  1.00  0.00     0.094 C 
HETATM   13  C10 UNL     1      -4.558  48.331 -26.456  1.00  0.00     0.043 C 
HETATM   14  C11 UNL     1      -5.932  47.970 -25.945  1.00  0.00    -0.006 C 
HETATM   15  C12 UNL     1      -6.362  48.327 -24.726  1.00  0.00    -0.030 C 
HETATM   16  C26 UNL     1      -6.882  47.312 -26.895  1.00  0.00     0.161 C 
HETATM   17  C13 UNL     1      -7.707  47.974 -24.155  1.00  0.00     0.032 C 
HETATM   18  C14 UNL     1      -7.726  47.729 -22.607  1.00  0.00    -0.004 C 
HETATM   19  C20 UNL     1      -8.440  46.800 -24.882  1.00  0.00    -0.018 C 
HETATM   20  C15 UNL     1      -9.192  47.715 -22.130  1.00  0.00     0.010 C 
HETATM   21  C27 UNL     1      -6.803  48.675 -21.789  1.00  0.00     0.018 C 
HETATM   22  C16 UNL     1     -10.075  46.719 -22.953  1.00  0.00    -0.009 C 
HETATM   23  C17 UNL     1      -9.731  45.269 -22.600  1.00  0.00     0.005 C 
HETATM   24  C25 UNL     1      -9.926  47.022 -24.456  1.00  0.00     0.002 C 
HETATM   25  C18 UNL     1      -8.839  44.539 -23.595  1.00  0.00     0.001 C 
HETATM   26  C19 UNL     1      -7.897  45.397 -24.433  1.00  0.00     0.011 C 
HETATM   27  C24 UNL     1     -10.890  46.352 -25.429  1.00  0.00     0.037 C 
HETATM   28  C23 UNL     1     -10.756  46.987 -26.832  1.00  0.00     0.119 C 
HETATM   29  C22 UNL     1      -9.399  47.672 -27.089  1.00  0.00     0.045 C 
HETATM   30  C21 UNL     1      -8.272  46.875 -26.426  1.00  0.00     0.072 C 
HETATM   31  C28 UNL     1      -5.377  48.738 -22.428  1.00  0.00    -0.002 C 
HETATM   32  C29 UNL     1      -4.737  47.328 -22.385  1.00  0.00     0.019 C 
HETATM   33  O3  UNL     1      -6.544  47.164 -28.070  1.00  0.00    -0.292 OA
BRANCH  28  34
HETATM   34  O2  UNL     1     -10.967  45.949 -27.790  1.00  0.00    -0.396 OA
HETATM   35  H32 UNL     1     -10.872  46.338 -28.674  1.00  0.00     0.210 HD
ENDBRANCH  28  34
BRANCH  12  36
HETATM   36  O4  UNL     1      -6.408  50.468 -23.836  1.00  0.00    -0.384 OA
HETATM   37  H41 UNL     1      -5.853  51.247 -23.666  1.00  0.00     0.211 HD
ENDBRANCH  12  36
ENDBRANCH   6   8
BRANCH   6  38
HETATM   38  C31 UNL     1      -2.903  50.991 -20.191  1.00  0.00     0.189 A 
HETATM   39  O5  UNL     1      -2.525  51.200 -18.834  1.00  0.00    -0.369 OA
HETATM   40  C32 UNL     1      -1.431  51.023 -19.760  1.00  0.00     0.189 A 
BRANCH  40  41
HETATM   41  C33 UNL     1      -0.420  52.170 -19.662  1.00  0.00     0.092 C 
HETATM   42  C34 UNL     1       0.586  51.767 -18.559  1.00  0.00     0.049 C 
BRANCH  41  43
HETATM   43  O6  UNL     1      -1.110  53.295 -19.082  1.00  0.00    -0.387 OA
HETATM   44  H47 UNL     1      -1.957  53.361 -19.560  1.00  0.00     0.210 HD
ENDBRANCH  41  43
BRANCH  41  45
HETATM   45  C35 UNL     1       0.295  52.649 -20.998  1.00  0.00     0.011 C 
HETATM   46  C36 UNL     1       1.533  51.753 -21.312  1.00  0.00     0.020 C 
BRANCH  45  47
HETATM   47  C37 UNL     1       0.758  54.122 -20.900  1.00  0.00     0.176 C 
BRANCH  47  48
HETATM   48  O7  UNL     1       1.699  54.286 -19.841  1.00  0.00    -0.400 OA
HETATM   49  H53 UNL     1       1.381  55.010 -19.270  1.00  0.00     0.209 HD
ENDBRANCH  47  48
ENDBRANCH  45  47
BRANCH  45  50
HETATM   50  C38 UNL     1      -0.637  52.437 -22.260  1.00  0.00     0.019 C 
BRANCH  50  51
HETATM   51  C39 UNL     1      -0.254  51.338 -23.270  1.00  0.00     0.039 C 
BRANCH  51  52
HETATM   52  C40 UNL     1      -0.222  51.877 -24.686  1.00  0.00    -0.053 A 
HETATM   53  C41 UNL     1      -0.393  51.031 -25.780  1.00  0.00     0.024 A 
HETATM   54  C42 UNL     1      -0.362  51.566 -27.059  1.00  0.00     0.090 A 
HETATM   55  N1  UNL     1      -0.189  52.883 -27.232  1.00  0.00    -0.353 N 
HETATM   56  C43 UNL     1      -0.060  53.745 -26.216  1.00  0.00     0.098 A 
HETATM   57  H60 UNL     1      -0.145  53.254 -28.176  1.00  0.00     0.166 HD
HETATM   58  C44 UNL     1      -0.036  53.244 -24.918  1.00  0.00     0.055 A 
BRANCH  56  59
HETATM   59  N2  UNL     1       0.153  55.086 -26.481  1.00  0.00    -0.385 N 
HETATM   60  H61 UNL     1      -0.221  55.728 -25.781  1.00  0.00     0.157 HD
HETATM   61  H62 UNL     1       0.064  55.454 -27.420  1.00  0.00     0.157 HD
ENDBRANCH  56  59
ENDBRANCH  51  52
ENDBRANCH  50  51
ENDBRANCH  45  50
ENDBRANCH  41  45
ENDBRANCH  40  41
ENDBRANCH   6  38
TORSDOF 13
ENDMDL
MODEL 5
REMARK minimizedAffinity -8.96120739
REMARK CNNscore 0.254180998
REMARK CNNaffinity 7.2831955
REMARK  13 active torsions:
REMARK  status: ('A' for Active; 'I' for Inactive)
REMARK    1  A    between atoms: C5_6  and  C6_7 
REMARK    2  A    between atoms: C5_6  and  C31_35 
REMARK    3  A    between atoms: C23_24  and  O2_25 
REMARK    4  A    between atoms: C30_33  and  O4_34 
REMARK    5  A    between atoms: C32_37  and  C33_38 
REMARK    6  A    between atoms: C33_38  and  O6_40 
REMARK    7  A    between atoms: C33_38  and  C35_41 
REMARK    8  A    between atoms: C35_41  and  C37_43 
REMARK    9  A    between atoms: C35_41  and  C38_45 
REMARK   10  A    between atoms: C37_43  and  O7_44 
REMARK   11  A    between atoms: C38_45  and  C39_46 
REMARK   12  A    between atoms: C39_46  and  C40_47 
REMARK   13  A    between atoms: C43_51  and  N2_52 
ROOT
HETATM    1  C1  UNL     1      -1.091  52.303  -8.326  1.00  0.00     0.010 C 
HETATM    2  C2  UNL     1      -0.207  52.884  -9.432  1.00  0.00    -0.014 C 
HETATM    3  C3  UNL     1      -0.785  52.576 -10.805  1.00  0.00     0.030 C 
HETATM    4  C4  UNL     1       0.145  53.022 -11.924  1.00  0.00     0.169 C 
HETATM    5  O1  UNL     1       1.363  53.579 -11.454  1.00  0.00    -0.377 OA
HETATM    6  C5  UNL     1       2.139  52.777 -10.519  1.00  0.00     0.094 C 
HETATM    7  C45 UNL     1       1.225  52.339  -9.337  1.00  0.00     0.045 C 
ENDROOT
BRANCH   6   8
HETATM    8  C6  UNL     1       3.294  53.774 -10.108  1.00  0.00     0.035 C 
HETATM    9  C7  UNL     1       2.918  55.289 -10.301  1.00  0.00     0.016 C 
HETATM   10  C8  UNL     1       3.957  56.121  -9.509  1.00  0.00     0.026 C 
HETATM   11  C9  UNL     1       3.380  57.133  -8.518  1.00  0.00     0.013 C 
HETATM   12  C30 UNL     1       4.828  55.066  -8.815  1.00  0.00     0.094 C 
HETATM   13  C10 UNL     1       4.486  57.727  -7.625  1.00  0.00     0.043 C 
HETATM   14  C11 UNL     1       5.385  56.677  -7.019  1.00  0.00    -0.006 C 
HETATM   15  C12 UNL     1       5.468  55.432  -7.509  1.00  0.00    -0.030 C 
HETATM   16  C26 UNL     1       6.309  57.096  -5.920  1.00  0.00     0.161 C 
HETATM   17  C13 UNL     1       6.323  54.339  -6.932  1.00  0.00     0.032 C 
HETATM   18  C14 UNL     1       5.725  52.895  -7.054  1.00  0.00    -0.004 C 
HETATM   19  C20 UNL     1       6.803  54.587  -5.465  1.00  0.00    -0.018 C 
HETATM   20  C15 UNL     1       6.837  51.875  -6.736  1.00  0.00     0.010 C 
HETATM   21  C27 UNL     1       4.970  52.616  -8.383  1.00  0.00     0.018 C 
HETATM   22  C16 UNL     1       7.542  52.170  -5.370  1.00  0.00    -0.009 C 
HETATM   23  C17 UNL     1       6.615  51.834  -4.198  1.00  0.00     0.005 C 
HETATM   24  C25 UNL     1       8.031  53.631  -5.350  1.00  0.00     0.002 C 
HETATM   25  C18 UNL     1       5.922  53.021  -3.541  1.00  0.00     0.001 C 
HETATM   26  C19 UNL     1       5.686  54.249  -4.414  1.00  0.00     0.011 C 
HETATM   27  C24 UNL     1       8.972  54.064  -4.231  1.00  0.00     0.037 C 
HETATM   28  C23 UNL     1       9.556  55.461  -4.538  1.00  0.00     0.119 C 
HETATM   29  C22 UNL     1       8.698  56.308  -5.500  1.00  0.00     0.045 C 
HETATM   30  C21 UNL     1       7.210  56.070  -5.228  1.00  0.00     0.072 C 
HETATM   31  C28 UNL     1       3.966  53.772  -8.697  1.00  0.00    -0.002 C 
HETATM   32  C29 UNL     1       2.901  53.841  -7.575  1.00  0.00     0.019 C 
HETATM   33  O3  UNL     1       6.364  58.286  -5.608  1.00  0.00    -0.292 OA
BRANCH  28  34
HETATM   34  O2  UNL     1       9.706  56.142  -3.292  1.00  0.00    -0.396 OA
HETATM   35  H32 UNL     1      10.060  57.027  -3.478  1.00  0.00     0.210 HD
ENDBRANCH  28  34
BRANCH  12  36
HETATM   36  O4  UNL     1       5.950  54.825  -9.694  1.00  0.00    -0.384 OA
HETATM   37  H41 UNL     1       5.678  54.971 -10.616  1.00  0.00     0.211 HD
ENDBRANCH  12  36
ENDBRANCH   6   8
BRANCH   6  38
HETATM   38  C31 UNL     1       2.735  51.624 -11.331  1.00  0.00     0.189 A 
HETATM   39  O5  UNL     1       3.491  50.670 -10.592  1.00  0.00    -0.369 OA
HETATM   40  C32 UNL     1       2.274  50.168 -11.186  1.00  0.00     0.189 A 
BRANCH  40  41
HETATM   41  C33 UNL     1       2.537  48.923 -12.039  1.00  0.00     0.092 C 
HETATM   42  C34 UNL     1       1.370  47.950 -11.758  1.00  0.00     0.049 C 
BRANCH  41  43
HETATM   43  O6  UNL     1       3.674  48.248 -11.464  1.00  0.00    -0.387 OA
HETATM   44  H47 UNL     1       4.339  48.941 -11.300  1.00  0.00     0.210 HD
ENDBRANCH  41  43
BRANCH  41  45
HETATM   45  C35 UNL     1       2.804  49.128 -13.593  1.00  0.00     0.011 C 
HETATM   46  C36 UNL     1       2.983  47.751 -14.305  1.00  0.00     0.020 C 
BRANCH  45  47
HETATM   47  C37 UNL     1       4.065  49.988 -13.846  1.00  0.00     0.176 C 
BRANCH  47  48
HETATM   48  O7  UNL     1       5.149  49.547 -13.032  1.00  0.00    -0.400 OA
HETATM   49  H53 UNL     1       5.492  50.322 -12.548  1.00  0.00     0.209 HD
ENDBRANCH  47  48
ENDBRANCH  45  47
BRANCH  45  50
HETATM   50  C38 UNL     1       1.543  49.751 -14.318  1.00  0.00     0.019 C 
BRANCH  50  51
HETATM   51  C39 UNL     1       1.675  51.165 -14.917  1.00  0.00     0.039 C 
BRANCH  51  52
HETATM   52  C40 UNL     1       1.061  51.236 -16.302  1.00  0.00    -0.053 A 
HETATM   53  C41 UNL     1       0.316  50.174 -16.812  1.00  0.00     0.024 A 
HETATM   54  C42 UNL     1      -0.232  50.282 -18.082  1.00  0.00     0.090 A 
HETATM   55  N1  UNL     1      -0.059  51.403 -18.794  1.00  0.00    -0.353 N 
HETATM   56  C43 UNL     1       0.613  52.467 -18.337  1.00  0.00     0.098 A 
HETATM   57  H60 UNL     1      -0.447  51.456 -19.731  1.00  0.00     0.166 HD
HETATM   58  C44 UNL     1       1.221  52.382 -17.087  1.00  0.00     0.055 A 
BRANCH  56  59
HETATM   59  N2  UNL     1       0.778  53.573 -19.151  1.00  0.00    -0.385 N 
HETATM   60  H61 UNL     1       0.842  54.465 -18.659  1.00  0.00     0.157 HD
HETATM   61  H62 UNL     1       0.276  53.658 -20.026  1.00  0.00     0.157 HD
ENDBRANCH  56  59
ENDBRANCH  51  52
ENDBRANCH  50  51
ENDBRANCH  45  50
ENDBRANCH  41  45
ENDBRANCH  40  41
ENDBRANCH   6  38
TORSDOF 13
ENDMDL
MODEL 6
REMARK minimizedAffinity -9.76443195
REMARK CNNscore 0.238288626
REMARK CNNaffinity 6.53475809
REMARK  13 active torsions:
REMARK  status: ('A' for Active; 'I' for Inactive)
REMARK    1  A    between atoms: C5_6  and  C6_7 
REMARK    2  A    between atoms: C5_6  and  C31_35 
REMARK    3  A    between atoms: C23_24  and  O2_25 
REMARK    4  A    between atoms: C30_33  and  O4_34 
REMARK    5  A    between atoms: C32_37  and  C33_38 
REMARK    6  A    between atoms: C33_38  and  O6_40 
REMARK    7  A    between atoms: C33_38  and  C35_41 
REMARK    8  A    between atoms: C35_41  and  C37_43 
REMARK    9  A    between atoms: C35_41  and  C38_45 
REMARK   10  A    between atoms: C37_43  and  O7_44 
REMARK   11  A    between atoms: C38_45  and  C39_46 
REMARK   12  A    between atoms: C39_46  and  C40_47 
REMARK   13  A    between atoms: C43_51  and  N2_52 
ROOT
HETATM    1  C1  UNL     1     -13.355  42.774 -28.148  1.00  0.00     0.010 C 
HETATM    2  C2  UNL     1     -12.544  43.521 -27.087  1.00  0.00    -0.014 C 
HETATM    3  C3  UNL     1     -12.852  42.989 -25.695  1.00  0.00     0.030 C 
HETATM    4  C4  UNL     1     -12.163  43.806 -24.612  1.00  0.00     0.169 C 
HETATM    5  O1  UNL     1     -11.428  44.909 -25.121  1.00  0.00    -0.377 OA
HETATM    6  C5  UNL     1     -12.140  45.831 -25.994  1.00  0.00     0.094 C 
HETATM    7  C45 UNL     1     -12.823  45.030 -27.140  1.00  0.00     0.045 C 
ENDROOT
BRANCH   6   8
HETATM    8  C6  UNL     1     -10.980  46.790 -26.476  1.00  0.00     0.035 C 
HETATM    9  C7  UNL     1     -10.066  47.312 -25.309  1.00  0.00     0.016 C 
HETATM   10  C8  UNL     1      -8.785  47.892 -25.958  1.00  0.00     0.026 C 
HETATM   11  C9  UNL     1      -7.462  47.347 -25.415  1.00  0.00     0.013 C 
HETATM   12  C30 UNL     1      -8.959  47.599 -27.453  1.00  0.00     0.094 C 
HETATM   13  C10 UNL     1      -6.275  47.808 -26.283  1.00  0.00     0.043 C 
HETATM   14  C11 UNL     1      -6.502  47.589 -27.759  1.00  0.00    -0.006 C 
HETATM   15  C12 UNL     1      -7.724  47.400 -28.279  1.00  0.00    -0.030 C 
HETATM   16  C26 UNL     1      -5.329  47.728 -28.676  1.00  0.00     0.161 C 
HETATM   17  C13 UNL     1      -8.007  47.150 -29.734  1.00  0.00     0.032 C 
HETATM   18  C14 UNL     1      -9.217  46.197 -30.019  1.00  0.00    -0.004 C 
HETATM   19  C20 UNL     1      -6.770  46.696 -30.574  1.00  0.00    -0.018 C 
HETATM   20  C15 UNL     1      -9.587  46.307 -31.512  1.00  0.00     0.010 C 
HETATM   21  C27 UNL     1     -10.422  46.371 -29.053  1.00  0.00     0.018 C 
HETATM   22  C16 UNL     1      -8.354  46.084 -32.449  1.00  0.00    -0.009 C 
HETATM   23  C17 UNL     1      -7.933  44.612 -32.451  1.00  0.00     0.005 C 
HETATM   24  C25 UNL     1      -7.214  47.034 -32.031  1.00  0.00     0.002 C 
HETATM   25  C18 UNL     1      -6.726  44.267 -31.589  1.00  0.00     0.001 C 
HETATM   26  C19 UNL     1      -6.459  45.167 -30.387  1.00  0.00     0.011 C 
HETATM   27  C24 UNL     1      -6.015  47.177 -32.962  1.00  0.00     0.037 C 
HETATM   28  C23 UNL     1      -5.129  48.360 -32.508  1.00  0.00     0.119 C 
HETATM   29  C22 UNL     1      -5.285  48.732 -31.020  1.00  0.00     0.045 C 
HETATM   30  C21 UNL     1      -5.479  47.469 -30.177  1.00  0.00     0.072 C 
HETATM   31  C28 UNL     1      -9.936  46.389 -27.568  1.00  0.00    -0.002 C 
HETATM   32  C29 UNL     1      -9.275  45.030 -27.231  1.00  0.00     0.019 C 
HETATM   33  O3  UNL     1      -4.248  48.093 -28.211  1.00  0.00    -0.292 OA
BRANCH  28  34
HETATM   34  O2  UNL     1      -3.774  48.005 -32.782  1.00  0.00    -0.396 OA
HETATM   35  H32 UNL     1      -3.210  48.739 -32.487  1.00  0.00     0.210 HD
ENDBRANCH  28  34
BRANCH  12  36
HETATM   36  O4  UNL     1      -9.573  48.776 -28.027  1.00  0.00    -0.384 OA
HETATM   37  H41 UNL     1     -10.127  49.213 -27.359  1.00  0.00     0.211 HD
ENDBRANCH  12  36
ENDBRANCH   6   8
BRANCH   6  38
HETATM   38  C31 UNL     1     -13.103  46.616 -25.098  1.00  0.00     0.189 A 
HETATM   39  O5  UNL     1     -14.072  47.409 -25.775  1.00  0.00    -0.369 OA
HETATM   40  C32 UNL     1     -14.603  46.308 -25.005  1.00  0.00     0.189 A 
BRANCH  40  41
HETATM   41  C33 UNL     1     -15.682  46.777 -24.024  1.00  0.00     0.092 C 
HETATM   42  C34 UNL     1     -16.994  46.873 -24.837  1.00  0.00     0.049 C 
BRANCH  41  43
HETATM   43  O6  UNL     1     -15.394  48.153 -23.703  1.00  0.00    -0.387 OA
HETATM   44  H47 UNL     1     -14.439  48.186 -23.510  1.00  0.00     0.210 HD
ENDBRANCH  41  43
BRANCH  41  45
HETATM   45  C35 UNL     1     -15.860  45.968 -22.667  1.00  0.00     0.011 C 
HETATM   46  C36 UNL     1     -15.637  46.902 -21.438  1.00  0.00     0.020 C 
BRANCH  45  47
HETATM   47  C37 UNL     1     -14.871  44.782 -22.578  1.00  0.00     0.176 C 
BRANCH  47  48
HETATM   48  O7  UNL     1     -13.747  45.121 -21.769  1.00  0.00    -0.400 OA
HETATM   49  H53 UNL     1     -12.941  44.930 -22.285  1.00  0.00     0.209 HD
ENDBRANCH  47  48
ENDBRANCH  45  47
BRANCH  45  50
HETATM   50  C38 UNL     1     -17.351  45.472 -22.482  1.00  0.00     0.019 C 
BRANCH  50  51
HETATM   51  C39 UNL     1     -18.268  46.264 -21.530  1.00  0.00     0.039 C 
BRANCH  51  52
HETATM   52  C40 UNL     1     -18.962  45.347 -20.542  1.00  0.00    -0.053 A 
HETATM   53  C41 UNL     1     -19.110  45.713 -19.206  1.00  0.00     0.024 A 
HETATM   54  C42 UNL     1     -19.755  44.846 -18.336  1.00  0.00     0.090 A 
HETATM   55  N1  UNL     1     -20.243  43.683 -18.787  1.00  0.00    -0.353 N 
HETATM   56  C43 UNL     1     -20.164  43.300 -20.067  1.00  0.00     0.098 A 
HETATM   57  H60 UNL     1     -20.692  43.050 -18.132  1.00  0.00     0.166 HD
HETATM   58  C44 UNL     1     -19.481  44.118 -20.963  1.00  0.00     0.055 A 
BRANCH  56  59
HETATM   59  N2  UNL     1     -20.661  42.066 -20.444  1.00  0.00    -0.385 N 
HETATM   60  H61 UNL     1     -21.012  42.017 -21.402  1.00  0.00     0.157 HD
HETATM   61  H62 UNL     1     -21.217  41.510 -19.807  1.00  0.00     0.157 HD
ENDBRANCH  56  59
ENDBRANCH  51  52
ENDBRANCH  50  51
ENDBRANCH  45  50
ENDBRANCH  41  45
ENDBRANCH  40  41
ENDBRANCH   6  38
TORSDOF 13
ENDMDL
MODEL 7
REMARK minimizedAffinity -9.00540257
REMARK CNNscore 0.210564703
REMARK CNNaffinity 7.65974665
REMARK  13 active torsions:
REMARK  status: ('A' for Active; 'I' for Inactive)
REMARK    1  A    between atoms: C5_6  and  C6_7 
REMARK    2  A    between atoms: C5_6  and  C31_35 
REMARK    3  A    between atoms: C23_24  and  O2_25 
REMARK    4  A    between atoms: C30_33  and  O4_34 
REMARK    5  A    between atoms: C32_37  and  C33_38 
REMARK    6  A    between atoms: C33_38  and  O6_40 
REMARK    7  A    between atoms: C33_38  and  C35_41 
REMARK    8  A    between atoms: C35_41  and  C37_43 
REMARK    9  A    between atoms: C35_41  and  C38_45 
REMARK   10  A    between atoms: C37_43  and  O7_44 
REMARK   11  A    between atoms: C38_45  and  C39_46 
REMARK   12  A    between atoms: C39_46  and  C40_47 
REMARK   13  A    between atoms: C43_51  and  N2_52 
ROOT
HETATM    1  C1  UNL     1      -6.654  43.214 -22.919  1.00  0.00     0.010 C 
HETATM    2  C2  UNL     1      -7.218  44.539 -22.402  1.00  0.00    -0.014 C 
HETATM    3  C3  UNL     1      -8.012  45.250 -23.487  1.00  0.00     0.030 C 
HETATM    4  C4  UNL     1      -8.468  46.632 -23.041  1.00  0.00     0.169 C 
HETATM    5  O1  UNL     1      -8.017  46.980 -21.741  1.00  0.00    -0.377 OA
HETATM    6  C5  UNL     1      -6.588  46.875 -21.487  1.00  0.00     0.094 C 
HETATM    7  C45 UNL     1      -6.097  45.455 -21.893  1.00  0.00     0.045 C 
ENDROOT
BRANCH   6   8
HETATM    8  C6  UNL     1      -6.507  47.169 -19.936  1.00  0.00     0.035 C 
HETATM    9  C7  UNL     1      -7.051  45.996 -19.042  1.00  0.00     0.016 C 
HETATM   10  C8  UNL     1      -6.554  46.254 -17.599  1.00  0.00     0.026 C 
HETATM   11  C9  UNL     1      -5.816  45.091 -16.933  1.00  0.00     0.013 C 
HETATM   12  C30 UNL     1      -5.668  47.501 -17.727  1.00  0.00     0.094 C 
HETATM   13  C10 UNL     1      -5.165  45.532 -15.608  1.00  0.00     0.043 C 
HETATM   14  C11 UNL     1      -4.368  46.808 -15.737  1.00  0.00    -0.006 C 
HETATM   15  C12 UNL     1      -4.535  47.660 -16.758  1.00  0.00    -0.030 C 
HETATM   16  C26 UNL     1      -3.464  47.186 -14.607  1.00  0.00     0.161 C 
HETATM   17  C13 UNL     1      -3.753  48.929 -16.953  1.00  0.00     0.032 C 
HETATM   18  C14 UNL     1      -3.475  49.314 -18.446  1.00  0.00    -0.004 C 
HETATM   19  C20 UNL     1      -2.425  49.012 -16.133  1.00  0.00    -0.018 C 
HETATM   20  C15 UNL     1      -2.976  50.772 -18.493  1.00  0.00     0.010 C 
HETATM   21  C27 UNL     1      -4.646  49.013 -19.422  1.00  0.00     0.018 C 
HETATM   22  C16 UNL     1      -1.770  51.020 -17.526  1.00  0.00    -0.009 C 
HETATM   23  C17 UNL     1      -0.501  50.352 -18.061  1.00  0.00     0.005 C 
HETATM   24  C25 UNL     1      -2.144  50.548 -16.108  1.00  0.00     0.002 C 
HETATM   25  C18 UNL     1      -0.123  49.029 -17.409  1.00  0.00     0.001 C 
HETATM   26  C19 UNL     1      -1.260  48.207 -16.811  1.00  0.00     0.011 C 
HETATM   27  C24 UNL     1      -1.225  50.929 -14.952  1.00  0.00     0.037 C 
HETATM   28  C23 UNL     1      -1.906  50.604 -13.603  1.00  0.00     0.119 C 
HETATM   29  C22 UNL     1      -2.998  49.519 -13.690  1.00  0.00     0.045 C 
HETATM   30  C21 UNL     1      -2.590  48.439 -14.696  1.00  0.00     0.072 C 
HETATM   31  C28 UNL     1      -5.181  47.561 -19.207  1.00  0.00    -0.002 C 
HETATM   32  C29 UNL     1      -4.053  46.549 -19.525  1.00  0.00     0.019 C 
HETATM   33  O3  UNL     1      -3.463  46.496 -13.587  1.00  0.00    -0.292 OA
BRANCH  28  34
HETATM   34  O2  UNL     1      -0.881  50.192 -12.699  1.00  0.00    -0.396 OA
HETATM   35  H32 UNL     1      -1.302  49.974 -11.852  1.00  0.00     0.210 HD
ENDBRANCH  28  34
BRANCH  12  36
HETATM   36  O4  UNL     1      -6.523  48.634 -17.449  1.00  0.00    -0.384 OA
HETATM   37  H41 UNL     1      -7.435  48.427 -17.715  1.00  0.00     0.211 HD
ENDBRANCH  12  36
ENDBRANCH   6   8
BRANCH   6  38
HETATM   38  C31 UNL     1      -5.928  48.026 -22.253  1.00  0.00     0.189 A 
HETATM   39  O5  UNL     1      -5.631  49.189 -21.488  1.00  0.00    -0.369 OA
HETATM   40  C32 UNL     1      -4.484  48.480 -22.006  1.00  0.00     0.189 A 
BRANCH  40  41
HETATM   41  C33 UNL     1      -3.557  49.410 -22.795  1.00  0.00     0.092 C 
HETATM   42  C34 UNL     1      -3.222  48.673 -24.112  1.00  0.00     0.049 C 
BRANCH  41  43
HETATM   43  O6  UNL     1      -2.293  49.436 -22.102  1.00  0.00    -0.387 OA
HETATM   44  H47 UNL     1      -2.509  49.561 -21.160  1.00  0.00     0.210 HD
ENDBRANCH  41  43
BRANCH  41  45
HETATM   45  C35 UNL     1      -4.032  50.908 -23.034  1.00  0.00     0.011 C 
HETATM   46  C36 UNL     1      -4.393  51.593 -21.680  1.00  0.00     0.020 C 
BRANCH  45  47
HETATM   47  C37 UNL     1      -5.262  50.973 -23.970  1.00  0.00     0.176 C 
BRANCH  47  48
HETATM   48  O7  UNL     1      -6.440  51.299 -23.234  1.00  0.00    -0.400 OA
HETATM   49  H53 UNL     1      -7.114  50.624 -23.438  1.00  0.00     0.209 HD
ENDBRANCH  47  48
ENDBRANCH  45  47
BRANCH  45  50
HETATM   50  C38 UNL     1      -2.853  51.805 -23.592  1.00  0.00     0.019 C 
BRANCH  50  51
HETATM   51  C39 UNL     1      -1.427  51.223 -23.575  1.00  0.00     0.039 C 
BRANCH  51  52
HETATM   52  C40 UNL     1      -0.432  52.218 -23.009  1.00  0.00    -0.053 A 
HETATM   53  C41 UNL     1       0.001  52.126 -21.687  1.00  0.00     0.024 A 
HETATM   54  C42 UNL     1       0.915  53.054 -21.210  1.00  0.00     0.090 A 
HETATM   55  N1  UNL     1       1.385  54.011 -22.020  1.00  0.00    -0.353 N 
HETATM   56  C43 UNL     1       1.034  54.121 -23.308  1.00  0.00     0.098 A 
HETATM   57  H60 UNL     1       2.036  54.696 -21.648  1.00  0.00     0.166 HD
HETATM   58  C44 UNL     1       0.081  53.240 -23.813  1.00  0.00     0.055 A 
BRANCH  56  59
HETATM   59  N2  UNL     1       1.537  55.161 -24.067  1.00  0.00    -0.385 N 
HETATM   60  H61 UNL     1       1.649  54.954 -25.061  1.00  0.00     0.157 HD
HETATM   61  H62 UNL     1       2.280  55.752 -23.717  1.00  0.00     0.157 HD
ENDBRANCH  56  59
ENDBRANCH  51  52
ENDBRANCH  50  51
ENDBRANCH  45  50
ENDBRANCH  41  45
ENDBRANCH  40  41
ENDBRANCH   6  38
TORSDOF 13
ENDMDL
MODEL 8
REMARK minimizedAffinity -8.98113441
REMARK CNNscore 0.20963344
REMARK CNNaffinity 7.11487532
REMARK  13 active torsions:
REMARK  status: ('A' for Active; 'I' for Inactive)
REMARK    1  A    between atoms: C5_6  and  C6_7 
REMARK    2  A    between atoms: C5_6  and  C31_35 
REMARK    3  A    between atoms: C23_24  and  O2_25 
REMARK    4  A    between atoms: C30_33  and  O4_34 
REMARK    5  A    between atoms: C32_37  and  C33_38 
REMARK    6  A    between atoms: C33_38  and  O6_40 
REMARK    7  A    between atoms: C33_38  and  C35_41 
REMARK    8  A    between atoms: C35_41  and  C37_43 
REMARK    9  A    between atoms: C35_41  and  C38_45 
REMARK   10  A    between atoms: C37_43  and  O7_44 
REMARK   11  A    between atoms: C38_45  and  C39_46 
REMARK   12  A    between atoms: C39_46  and  C40_47 
REMARK   13  A    between atoms: C43_51  and  N2_52 
ROOT
HETATM    1  C1  UNL     1      -6.930  43.378 -22.674  1.00  0.00     0.010 C 
HETATM    2  C2  UNL     1      -7.559  44.763 -22.503  1.00  0.00    -0.014 C 
HETATM    3  C3  UNL     1      -7.892  45.377 -23.854  1.00  0.00     0.030 C 
HETATM    4  C4  UNL     1      -8.391  46.808 -23.717  1.00  0.00     0.169 C 
HETATM    5  O1  UNL     1      -8.391  47.278 -22.378  1.00  0.00    -0.377 OA
HETATM    6  C5  UNL     1      -7.143  47.166 -21.638  1.00  0.00     0.094 C 
HETATM    7  C45 UNL     1      -6.627  45.700 -21.722  1.00  0.00     0.045 C 
ENDROOT
BRANCH   6   8
HETATM    8  C6  UNL     1      -7.579  47.616 -20.187  1.00  0.00     0.035 C 
HETATM    9  C7  UNL     1      -9.098  48.005 -20.076  1.00  0.00     0.016 C 
HETATM   10  C8  UNL     1      -9.451  48.036 -18.569  1.00  0.00     0.026 C 
HETATM   11  C9  UNL     1     -10.662  47.197 -18.155  1.00  0.00     0.013 C 
HETATM   12  C30 UNL     1      -8.164  47.573 -17.874  1.00  0.00     0.094 C 
HETATM   13  C10 UNL     1     -10.778  47.110 -16.621  1.00  0.00     0.043 C 
HETATM   14  C11 UNL     1      -9.478  46.736 -15.950  1.00  0.00    -0.006 C 
HETATM   15  C12 UNL     1      -8.291  46.862 -16.561  1.00  0.00    -0.030 C 
HETATM   16  C26 UNL     1      -9.522  46.346 -14.507  1.00  0.00     0.161 C 
HETATM   17  C13 UNL     1      -6.970  46.481 -15.953  1.00  0.00     0.032 C 
HETATM   18  C14 UNL     1      -5.911  45.926 -16.966  1.00  0.00    -0.004 C 
HETATM   19  C20 UNL     1      -7.067  45.528 -14.719  1.00  0.00    -0.018 C 
HETATM   20  C15 UNL     1      -4.534  45.903 -16.272  1.00  0.00     0.010 C 
HETATM   21  C27 UNL     1      -5.909  46.628 -18.353  1.00  0.00     0.018 C 
HETATM   22  C16 UNL     1      -4.572  45.152 -14.900  1.00  0.00    -0.009 C 
HETATM   23  C17 UNL     1      -4.720  43.642 -15.112  1.00  0.00     0.005 C 
HETATM   24  C25 UNL     1      -5.688  45.746 -14.020  1.00  0.00     0.002 C 
HETATM   25  C18 UNL     1      -6.119  43.079 -14.907  1.00  0.00     0.001 C 
HETATM   26  C19 UNL     1      -7.287  44.031 -15.143  1.00  0.00     0.011 C 
HETATM   27  C24 UNL     1      -5.739  45.349 -12.549  1.00  0.00     0.037 C 
HETATM   28  C23 UNL     1      -6.742  46.249 -11.790  1.00  0.00     0.119 C 
HETATM   29  C22 UNL     1      -7.821  46.889 -12.686  1.00  0.00     0.045 C 
HETATM   30  C21 UNL     1      -8.248  45.906 -13.780  1.00  0.00     0.072 C 
HETATM   31  C28 UNL     1      -7.364  46.733 -18.915  1.00  0.00    -0.002 C 
HETATM   32  C29 UNL     1      -7.934  45.309 -19.126  1.00  0.00     0.019 C 
HETATM   33  O3  UNL     1     -10.592  46.421 -13.901  1.00  0.00    -0.292 OA
BRANCH  28  34
HETATM   34  O2  UNL     1      -7.358  45.444 -10.785  1.00  0.00    -0.396 OA
HETATM   35  H32 UNL     1      -7.999  45.999 -10.312  1.00  0.00     0.210 HD
ENDBRANCH  28  34
BRANCH  12  36
HETATM   36  O4  UNL     1      -7.427  48.774 -17.548  1.00  0.00    -0.384 OA
HETATM   37  H41 UNL     1      -7.628  49.466 -18.199  1.00  0.00     0.211 HD
ENDBRANCH  12  36
ENDBRANCH   6   8
BRANCH   6  38
HETATM   38  C31 UNL     1      -6.196  48.214 -22.228  1.00  0.00     0.189 A 
HETATM   39  O5  UNL     1      -5.883  49.314 -21.380  1.00  0.00    -0.369 OA
HETATM   40  C32 UNL     1      -4.773  48.449 -21.706  1.00  0.00     0.189 A 
BRANCH  40  41
HETATM   41  C33 UNL     1      -3.593  49.241 -22.278  1.00  0.00     0.092 C 
HETATM   42  C34 UNL     1      -3.193  48.533 -23.593  1.00  0.00     0.049 C 
BRANCH  41  43
HETATM   43  O6  UNL     1      -2.462  48.999 -21.418  1.00  0.00    -0.387 OA
HETATM   44  H47 UNL     1      -2.794  49.106 -20.508  1.00  0.00     0.210 HD
ENDBRANCH  41  43
BRANCH  41  45
HETATM   45  C35 UNL     1      -3.765  50.812 -22.456  1.00  0.00     0.011 C 
HETATM   46  C36 UNL     1      -4.219  51.469 -21.116  1.00  0.00     0.020 C 
BRANCH  45  47
HETATM   47  C37 UNL     1      -4.800  51.151 -23.554  1.00  0.00     0.176 C 
BRANCH  47  48
HETATM   48  O7  UNL     1      -5.950  51.777 -22.988  1.00  0.00    -0.400 OA
HETATM   49  H53 UNL     1      -6.735  51.283 -23.290  1.00  0.00     0.209 HD
ENDBRANCH  47  48
ENDBRANCH  45  47
BRANCH  45  50
HETATM   50  C38 UNL     1      -2.378  51.514 -22.754  1.00  0.00     0.019 C 
BRANCH  50  51
HETATM   51  C39 UNL     1      -1.120  50.963 -22.055  1.00  0.00     0.039 C 
BRANCH  51  52
HETATM   52  C40 UNL     1      -0.344  52.069 -21.365  1.00  0.00    -0.053 A 
HETATM   53  C41 UNL     1      -0.371  52.207 -19.979  1.00  0.00     0.024 A 
HETATM   54  C42 UNL     1       0.357  53.229 -19.388  1.00  0.00     0.090 A 
HETATM   55  N1  UNL     1       1.089  54.056 -20.145  1.00  0.00    -0.353 N 
HETATM   56  C43 UNL     1       1.183  53.944 -21.476  1.00  0.00     0.098 A 
HETATM   57  H60 UNL     1       1.597  54.813 -19.698  1.00  0.00     0.166 HD
HETATM   58  C44 UNL     1       0.429  52.962 -22.114  1.00  0.00     0.055 A 
BRANCH  56  59
HETATM   59  N2  UNL     1       1.932  54.862 -22.188  1.00  0.00    -0.385 N 
HETATM   60  H61 UNL     1       2.359  54.500 -23.042  1.00  0.00     0.157 HD
HETATM   61  H62 UNL     1       2.532  55.526 -21.716  1.00  0.00     0.157 HD
ENDBRANCH  56  59
ENDBRANCH  51  52
ENDBRANCH  50  51
ENDBRANCH  45  50
ENDBRANCH  41  45
ENDBRANCH  40  41
ENDBRANCH   6  38
TORSDOF 13
ENDMDL
MODEL 9
REMARK minimizedAffinity -10.3790302
REMARK CNNscore 0.208411559
REMARK CNNaffinity 7.51692438
REMARK  13 active torsions:
REMARK  status: ('A' for Active; 'I' for Inactive)
REMARK    1  A    between atoms: C5_6  and  C6_7 
REMARK    2  A    between atoms: C5_6  and  C31_35 
REMARK    3  A    between atoms: C23_24  and  O2_25 
REMARK    4  A    between atoms: C30_33  and  O4_34 
REMARK    5  A    between atoms: C32_37  and  C33_38 
REMARK    6  A    between atoms: C33_38  and  O6_40 
REMARK    7  A    between atoms: C33_38  and  C35_41 
REMARK    8  A    between atoms: C35_41  and  C37_43 
REMARK    9  A    between atoms: C35_41  and  C38_45 
REMARK   10  A    between atoms: C37_43  and  O7_44 
REMARK   11  A    between atoms: C38_45  and  C39_46 
REMARK   12  A    between atoms: C39_46  and  C40_47 
REMARK   13  A    between atoms: C43_51  and  N2_52 
ROOT
HETATM    1  C1  UNL     1       0.727  54.028 -20.500  1.00  0.00     0.010 C 
HETATM    2  C2  UNL     1       0.352  52.620 -20.032  1.00  0.00    -0.014 C 
HETATM    3  C3  UNL     1       0.581  51.602 -21.140  1.00  0.00     0.030 C 
HETATM    4  C4  UNL     1       0.086  50.218 -20.747  1.00  0.00     0.169 C 
HETATM    5  O1  UNL     1      -0.522  50.181 -19.465  1.00  0.00    -0.377 OA
HETATM    6  C5  UNL     1      -1.599  51.128 -19.217  1.00  0.00     0.094 C 
HETATM    7  C45 UNL     1      -1.111  52.564 -19.569  1.00  0.00     0.045 C 
ENDROOT
BRANCH   6   8
HETATM    8  C6  UNL     1      -1.889  50.902 -17.680  1.00  0.00     0.035 C 
HETATM    9  C7  UNL     1      -3.096  49.935 -17.400  1.00  0.00     0.016 C 
HETATM   10  C8  UNL     1      -3.006  49.511 -15.914  1.00  0.00     0.026 C 
HETATM   11  C9  UNL     1      -3.029  48.004 -15.652  1.00  0.00     0.013 C 
HETATM   12  C30 UNL     1      -1.709  50.163 -15.418  1.00  0.00     0.094 C 
HETATM   13  C10 UNL     1      -2.697  47.692 -14.180  1.00  0.00     0.043 C 
HETATM   14  C11 UNL     1      -1.465  48.410 -13.686  1.00  0.00    -0.006 C 
HETATM   15  C12 UNL     1      -0.961  49.485 -14.309  1.00  0.00    -0.030 C 
HETATM   16  C26 UNL     1      -0.880  47.979 -12.379  1.00  0.00     0.161 C 
HETATM   17  C13 UNL     1       0.276  50.223 -13.880  1.00  0.00     0.032 C 
HETATM   18  C14 UNL     1       1.126  50.828 -15.049  1.00  0.00    -0.004 C 
HETATM   19  C20 UNL     1       1.208  49.431 -12.907  1.00  0.00    -0.018 C 
HETATM   20  C15 UNL     1       2.147  51.818 -14.453  1.00  0.00     0.010 C 
HETATM   21  C27 UNL     1       0.292  51.409 -16.225  1.00  0.00     0.018 C 
HETATM   22  C16 UNL     1       2.993  51.180 -13.301  1.00  0.00    -0.009 C 
HETATM   23  C17 UNL     1       3.994  50.167 -13.862  1.00  0.00     0.005 C 
HETATM   24  C25 UNL     1       2.048  50.570 -12.248  1.00  0.00     0.002 C 
HETATM   25  C18 UNL     1       3.601  48.702 -13.727  1.00  0.00     0.001 C 
HETATM   26  C19 UNL     1       2.109  48.393 -13.667  1.00  0.00     0.011 C 
HETATM   27  C24 UNL     1       2.640  50.127 -10.915  1.00  0.00     0.037 C 
HETATM   28  C23 UNL     1       1.509  49.805  -9.912  1.00  0.00     0.119 C 
HETATM   29  C22 UNL     1       0.161  49.446 -10.571  1.00  0.00     0.045 C 
HETATM   30  C21 UNL     1       0.399  48.632 -11.846  1.00  0.00     0.072 C 
HETATM   31  C28 UNL     1      -0.809  50.393 -16.670  1.00  0.00    -0.002 C 
HETATM   32  C29 UNL     1      -0.132  49.100 -17.188  1.00  0.00     0.019 C 
HETATM   33  O3  UNL     1      -1.463  47.119 -11.718  1.00  0.00    -0.292 OA
BRANCH  28  34
HETATM   34  O2  UNL     1       1.957  48.720  -9.099  1.00  0.00    -0.396 OA
HETATM   35  H32 UNL     1       1.246  48.504  -8.475  1.00  0.00     0.210 HD
ENDBRANCH  28  34
BRANCH  12  36
HETATM   36  O4  UNL     1      -2.088  51.438 -14.851  1.00  0.00    -0.384 OA
HETATM   37  H41 UNL     1      -2.879  51.774 -15.306  1.00  0.00     0.211 HD
ENDBRANCH  12  36
ENDBRANCH   6   8
BRANCH   6  38
HETATM   38  C31 UNL     1      -2.799  50.641 -20.033  1.00  0.00     0.189 A 
HETATM   39  O5  UNL     1      -3.838  51.592 -20.237  1.00  0.00    -0.369 OA
HETATM   40  C32 UNL     1      -3.138  51.176 -21.430  1.00  0.00     0.189 A 
BRANCH  40  41
HETATM   41  C33 UNL     1      -4.109  50.679 -22.506  1.00  0.00     0.092 C 
HETATM   42  C34 UNL     1      -4.635  51.940 -23.230  1.00  0.00     0.049 C 
BRANCH  41  43
HETATM   43  O6  UNL     1      -5.277  50.179 -21.825  1.00  0.00    -0.387 OA
HETATM   44  H47 UNL     1      -4.942  49.620 -21.101  1.00  0.00     0.210 HD
ENDBRANCH  41  43
BRANCH  41  45
HETATM   45  C35 UNL     1      -3.595  49.563 -23.515  1.00  0.00     0.011 C 
HETATM   46  C36 UNL     1      -4.775  49.019 -24.379  1.00  0.00     0.020 C 
BRANCH  45  47
HETATM   47  C37 UNL     1      -2.937  48.379 -22.768  1.00  0.00     0.176 C 
BRANCH  47  48
HETATM   48  O7  UNL     1      -3.907  47.656 -22.013  1.00  0.00    -0.400 OA
HETATM   49  H53 UNL     1      -3.582  47.591 -21.096  1.00  0.00     0.209 HD
ENDBRANCH  47  48
ENDBRANCH  45  47
BRANCH  45  50
HETATM   50  C38 UNL     1      -2.605  50.169 -24.591  1.00  0.00     0.019 C 
BRANCH  50  51
HETATM   51  C39 UNL     1      -1.202  50.601 -24.125  1.00  0.00     0.039 C 
BRANCH  51  52
HETATM   52  C40 UNL     1      -0.542  51.517 -25.138  1.00  0.00    -0.053 A 
HETATM   53  C41 UNL     1      -0.018  51.012 -26.327  1.00  0.00     0.024 A 
HETATM   54  C42 UNL     1       0.573  51.885 -27.228  1.00  0.00     0.090 A 
HETATM   55  N1  UNL     1       0.618  53.196 -26.961  1.00  0.00    -0.353 N 
HETATM   56  C43 UNL     1       0.096  53.739 -25.854  1.00  0.00     0.098 A 
HETATM   57  H60 UNL     1       1.076  53.818 -27.621  1.00  0.00     0.166 HD
HETATM   58  C44 UNL     1      -0.463  52.893 -24.900  1.00  0.00     0.055 A 
BRANCH  56  59
HETATM   59  N2  UNL     1       0.217  55.099 -25.637  1.00  0.00    -0.385 N 
HETATM   60  H61 UNL     1      -0.544  55.520 -25.103  1.00  0.00     0.157 HD
HETATM   61  H62 UNL     1       0.559  55.716 -26.362  1.00  0.00     0.157 HD
ENDBRANCH  56  59
ENDBRANCH  51  52
ENDBRANCH  50  51
ENDBRANCH  45  50
ENDBRANCH  41  45
ENDBRANCH  40  41
ENDBRANCH   6  38
TORSDOF 13
ENDMDL
