MODEL 1
REMARK minimizedAffinity -9.20385361
REMARK  11 active torsions:
REMARK  status: ('A' for Active; 'I' for Inactive)
REMARK    1  A    between atoms: C1_2  and  C2_3 
REMARK    2  A    between atoms: C1_2  and  O4_13 
REMARK    3  A    between atoms: C3_4  and  C4_5 
REMARK    4  A    between atoms: C7_8  and  O2_9 
REMARK    5  A    between atoms: C8_10  and  O3_11 
REMARK    6  A    between atoms: O4_13  and  C10_14 
REMARK    7  A    between atoms: C12_16  and  O5_17 
REMARK    8  A    between atoms: C12_16  and  C13_18 
REMARK    9  A    between atoms: C13_18  and  O7_20 
REMARK   10  A    between atoms: C15_22  and  O8_23 
REMARK   11  A    between atoms: C16_24  and  O9_25 
ROOT
HETATM    1  C10 UNL     1      -7.519   5.763  13.963  1.00  0.00     0.166 C 
HETATM    2  C11 UNL     1      -8.970   6.213  13.760  1.00  0.00     0.084 C 
HETATM    3  C12 UNL     1      -9.482   7.056  14.929  1.00  0.00     0.147 C 
HETATM    4  C14 UNL     1      -8.570   8.262  15.188  1.00  0.00     0.083 C 
HETATM    5  C15 UNL     1      -7.117   7.837  15.399  1.00  0.00     0.152 C 
HETATM    6  C16 UNL     1      -6.599   6.964  14.246  1.00  0.00     0.176 C 
ENDROOT
BRANCH   1   7
HETATM    7  O4  UNL     1      -7.053   5.127  12.748  1.00  0.00    -0.310 OA
BRANCH   7   8
HETATM    8  C1  UNL     1      -7.134   3.776  12.719  1.00  0.00     0.283 C 
HETATM    9  O1  UNL     1      -8.119   3.099  12.964  1.00  0.00    -0.260 OA
BRANCH   8  10
HETATM   10  C2  UNL     1      -5.815   3.249  12.317  1.00  0.00     0.083 C 
HETATM   11  C3  UNL     1      -4.708   3.968  12.553  1.00  0.00     0.017 C 
BRANCH  11  12
HETATM   12  C4  UNL     1      -3.355   3.539  12.177  1.00  0.00    -0.033 A 
HETATM   13  C5  UNL     1      -2.238   4.383  12.310  1.00  0.00     0.014 A 
HETATM   14  C6  UNL     1      -0.968   3.954  11.916  1.00  0.00     0.040 A 
HETATM   15  C7  UNL     1      -0.818   2.684  11.382  1.00  0.00     0.098 A 
HETATM   16  C8  UNL     1      -1.915   1.841  11.232  1.00  0.00     0.099 A 
HETATM   17  C9  UNL     1      -3.185   2.262  11.620  1.00  0.00     0.050 A 
BRANCH  15  18
HETATM   18  O2  UNL     1       0.423   2.265  10.997  1.00  0.00    -0.358 OA
HETATM   19  H5  UNL     1       0.280   1.358  10.659  1.00  0.00     0.217 HD
ENDBRANCH  15  18
BRANCH  16  20
HETATM   20  O3  UNL     1      -1.695   0.603  10.693  1.00  0.00    -0.358 OA
HETATM   21  H6  UNL     1      -2.545   0.130  10.663  1.00  0.00     0.217 HD
ENDBRANCH  16  20
ENDBRANCH  11  12
ENDBRANCH   8  10
ENDBRANCH   7   8
ENDBRANCH   1   7
BRANCH   6  22
HETATM   22  O9  UNL     1      -5.285   6.493  14.584  1.00  0.00    -0.390 OA
HETATM   23  H18 UNL     1      -5.304   6.339  15.551  1.00  0.00     0.210 HD
ENDBRANCH   6  22
BRANCH   3  24
HETATM   24  O5  UNL     1      -9.467   6.247  16.115  1.00  0.00    -0.379 OA
HETATM   25  H11 UNL     1     -10.313   5.750  16.107  1.00  0.00     0.211 HD
ENDBRANCH   3  24
BRANCH   3  26
HETATM   26  C13 UNL     1     -10.905   7.537  14.609  1.00  0.00     0.176 C 
HETATM   27  O6  UNL     1     -11.237   8.632  14.189  1.00  0.00    -0.648 OA
BRANCH  26  28
HETATM   28  O7  UNL     1     -11.822   6.562  14.808  1.00  0.00    -0.774 OA
HETATM   29  H12 UNL     1     -12.676   6.983  14.568  1.00  0.00     0.167 HD
ENDBRANCH  26  28
ENDBRANCH   3  26
BRANCH   5  30
HETATM   30  O8  UNL     1      -6.965   7.112  16.630  1.00  0.00    -0.393 OA
HETATM   31  H16 UNL     1      -7.804   6.628  16.797  1.00  0.00     0.210 HD
ENDBRANCH   5  30
TORSDOF 11
ENDMDL
MODEL 2
REMARK minimizedAffinity -8.87866688
REMARK  11 active torsions:
REMARK  status: ('A' for Active; 'I' for Inactive)
REMARK    1  A    between atoms: C1_2  and  C2_3 
REMARK    2  A    between atoms: C1_2  and  O4_13 
REMARK    3  A    between atoms: C3_4  and  C4_5 
REMARK    4  A    between atoms: C7_8  and  O2_9 
REMARK    5  A    between atoms: C8_10  and  O3_11 
REMARK    6  A    between atoms: O4_13  and  C10_14 
REMARK    7  A    between atoms: C12_16  and  O5_17 
REMARK    8  A    between atoms: C12_16  and  C13_18 
REMARK    9  A    between atoms: C13_18  and  O7_20 
REMARK   10  A    between atoms: C15_22  and  O8_23 
REMARK   11  A    between atoms: C16_24  and  O9_25 
ROOT
HETATM    1  C10 UNL     1       0.981   6.341  10.062  1.00  0.00     0.166 C 
HETATM    2  C11 UNL     1       2.295   6.057  10.798  1.00  0.00     0.084 C 
HETATM    3  C12 UNL     1       3.519   6.428   9.959  1.00  0.00     0.147 C 
HETATM    4  C14 UNL     1       3.459   7.890   9.501  1.00  0.00     0.083 C 
HETATM    5  C15 UNL     1       2.158   8.196   8.758  1.00  0.00     0.152 C 
HETATM    6  C16 UNL     1       0.920   7.801   9.578  1.00  0.00     0.176 C 
ENDROOT
BRANCH   1   7
HETATM    7  O4  UNL     1      -0.121   6.134  10.977  1.00  0.00    -0.310 OA
BRANCH   7   8
HETATM    8  C1  UNL     1      -0.418   4.844  11.263  1.00  0.00     0.283 C 
HETATM    9  O1  UNL     1       0.330   3.885  11.167  1.00  0.00    -0.260 OA
BRANCH   8  10
HETATM   10  C2  UNL     1      -1.815   4.792  11.737  1.00  0.00     0.083 C 
HETATM   11  C3  UNL     1      -2.586   3.740  11.429  1.00  0.00     0.017 C 
BRANCH  11  12
HETATM   12  C4  UNL     1      -3.990   3.604  11.838  1.00  0.00    -0.033 A 
HETATM   13  C5  UNL     1      -4.627   4.555  12.654  1.00  0.00     0.014 A 
HETATM   14  C6  UNL     1      -5.956   4.383  13.050  1.00  0.00     0.040 A 
HETATM   15  C7  UNL     1      -6.644   3.254  12.633  1.00  0.00     0.098 A 
HETATM   16  C8  UNL     1      -6.024   2.296  11.836  1.00  0.00     0.099 A 
HETATM   17  C9  UNL     1      -4.700   2.460  11.439  1.00  0.00     0.050 A 
BRANCH  15  18
HETATM   18  O2  UNL     1      -7.942   3.085  13.020  1.00  0.00    -0.358 OA
HETATM   19  H5  UNL     1      -8.209   2.235  12.613  1.00  0.00     0.217 HD
ENDBRANCH  15  18
BRANCH  16  20
HETATM   20  O3  UNL     1      -6.762   1.205  11.466  1.00  0.00    -0.358 OA
HETATM   21  H6  UNL     1      -6.204   0.638  10.906  1.00  0.00     0.217 HD
ENDBRANCH  16  20
ENDBRANCH  11  12
ENDBRANCH   8  10
ENDBRANCH   7   8
ENDBRANCH   1   7
BRANCH   6  22
HETATM   22  O9  UNL     1      -0.246   7.988   8.762  1.00  0.00    -0.390 OA
HETATM   23  H18 UNL     1       0.029   7.747   7.853  1.00  0.00     0.210 HD
ENDBRANCH   6  22
BRANCH   3  24
HETATM   24  O5  UNL     1       3.527   5.610   8.779  1.00  0.00    -0.379 OA
HETATM   25  H11 UNL     1       3.964   4.771   9.040  1.00  0.00     0.211 HD
ENDBRANCH   3  24
BRANCH   3  26
HETATM   26  C13 UNL     1       4.785   6.196  10.797  1.00  0.00     0.176 C 
HETATM   27  O6  UNL     1       5.160   6.839  11.762  1.00  0.00    -0.648 OA
BRANCH  26  28
HETATM   28  O7  UNL     1       5.480   5.115  10.371  1.00  0.00    -0.774 OA
HETATM   29  H12 UNL     1       6.250   5.069  10.978  1.00  0.00     0.167 HD
ENDBRANCH  26  28
ENDBRANCH   3  26
BRANCH   5  30
HETATM   30  O8  UNL     1       2.112   7.514   7.496  1.00  0.00    -0.393 OA
HETATM   31  H16 UNL     1       2.611   6.673   7.593  1.00  0.00     0.210 HD
ENDBRANCH   5  30
TORSDOF 11
ENDMDL
MODEL 3
REMARK minimizedAffinity -8.85800266
REMARK  11 active torsions:
REMARK  status: ('A' for Active; 'I' for Inactive)
REMARK    1  A    between atoms: C1_2  and  C2_3 
REMARK    2  A    between atoms: C1_2  and  O4_13 
REMARK    3  A    between atoms: C3_4  and  C4_5 
REMARK    4  A    between atoms: C7_8  and  O2_9 
REMARK    5  A    between atoms: C8_10  and  O3_11 
REMARK    6  A    between atoms: O4_13  and  C10_14 
REMARK    7  A    between atoms: C12_16  and  O5_17 
REMARK    8  A    between atoms: C12_16  and  C13_18 
REMARK    9  A    between atoms: C13_18  and  O7_20 
REMARK   10  A    between atoms: C15_22  and  O8_23 
REMARK   11  A    between atoms: C16_24  and  O9_25 
ROOT
HETATM    1  C10 UNL     1      -6.248   6.363  14.841  1.00  0.00     0.166 C 
HETATM    2  C11 UNL     1      -6.198   5.125  13.938  1.00  0.00     0.084 C 
HETATM    3  C12 UNL     1      -7.565   4.453  13.801  1.00  0.00     0.147 C 
HETATM    4  C14 UNL     1      -8.626   5.444  13.306  1.00  0.00     0.083 C 
HETATM    5  C15 UNL     1      -8.699   6.685  14.196  1.00  0.00     0.152 C 
HETATM    6  C16 UNL     1      -7.326   7.354  14.366  1.00  0.00     0.176 C 
ENDROOT
BRANCH   1   7
HETATM    7  O4  UNL     1      -4.970   7.038  14.779  1.00  0.00    -0.310 OA
BRANCH   7   8
HETATM    8  C1  UNL     1      -4.555   7.407  13.544  1.00  0.00     0.283 C 
HETATM    9  O1  UNL     1      -5.007   8.312  12.862  1.00  0.00    -0.260 OA
BRANCH   8  10
HETATM   10  C2  UNL     1      -3.432   6.528  13.159  1.00  0.00     0.083 C 
HETATM   11  C3  UNL     1      -3.678   5.349  12.571  1.00  0.00     0.017 C 
BRANCH  11  12
HETATM   12  C4  UNL     1      -2.633   4.400  12.167  1.00  0.00    -0.033 A 
HETATM   13  C5  UNL     1      -1.275   4.761  12.113  1.00  0.00     0.014 A 
HETATM   14  C6  UNL     1      -0.307   3.843  11.697  1.00  0.00     0.040 A 
HETATM   15  C7  UNL     1      -0.701   2.567  11.328  1.00  0.00     0.098 A 
HETATM   16  C8  UNL     1      -2.042   2.197  11.363  1.00  0.00     0.099 A 
HETATM   17  C9  UNL     1      -3.013   3.106  11.774  1.00  0.00     0.050 A 
BRANCH  15  18
HETATM   18  O2  UNL     1       0.244   1.670  10.921  1.00  0.00    -0.358 OA
HETATM   19  H5  UNL     1      -0.262   0.858  10.716  1.00  0.00     0.217 HD
ENDBRANCH  15  18
BRANCH  16  20
HETATM   20  O3  UNL     1      -2.359   0.923  10.980  1.00  0.00    -0.358 OA
HETATM   21  H6  UNL     1      -3.322   0.810  11.069  1.00  0.00     0.217 HD
ENDBRANCH  16  20
ENDBRANCH  11  12
ENDBRANCH   8  10
ENDBRANCH   7   8
ENDBRANCH   1   7
BRANCH   6  22
HETATM   22  O9  UNL     1      -7.452   8.420  15.320  1.00  0.00    -0.390 OA
HETATM   23  H18 UNL     1      -8.101   8.102  15.981  1.00  0.00     0.210 HD
ENDBRANCH   6  22
BRANCH   3  24
HETATM   24  O5  UNL     1      -7.979   3.996  15.098  1.00  0.00    -0.379 OA
HETATM   25  H11 UNL     1      -7.562   3.116  15.215  1.00  0.00     0.211 HD
ENDBRANCH   3  24
BRANCH   3  26
HETATM   26  C13 UNL     1      -7.446   3.281  12.817  1.00  0.00     0.176 C 
HETATM   27  O6  UNL     1      -8.009   2.202  12.883  1.00  0.00    -0.648 OA
BRANCH  26  28
HETATM   28  O7  UNL     1      -6.639   3.580  11.773  1.00  0.00    -0.774 OA
HETATM   29  H12 UNL     1      -6.648   2.768  11.221  1.00  0.00     0.167 HD
ENDBRANCH  26  28
ENDBRANCH   3  26
BRANCH   5  30
HETATM   30  O8  UNL     1      -9.217   6.360  15.495  1.00  0.00    -0.393 OA
HETATM   31  H16 UNL     1      -8.944   5.438  15.703  1.00  0.00     0.210 HD
ENDBRANCH   5  30
TORSDOF 11
ENDMDL
MODEL 4
REMARK minimizedAffinity -8.84074402
REMARK  11 active torsions:
REMARK  status: ('A' for Active; 'I' for Inactive)
REMARK    1  A    between atoms: C1_2  and  C2_3 
REMARK    2  A    between atoms: C1_2  and  O4_13 
REMARK    3  A    between atoms: C3_4  and  C4_5 
REMARK    4  A    between atoms: C7_8  and  O2_9 
REMARK    5  A    between atoms: C8_10  and  O3_11 
REMARK    6  A    between atoms: O4_13  and  C10_14 
REMARK    7  A    between atoms: C12_16  and  O5_17 
REMARK    8  A    between atoms: C12_16  and  C13_18 
REMARK    9  A    between atoms: C13_18  and  O7_20 
REMARK   10  A    between atoms: C15_22  and  O8_23 
REMARK   11  A    between atoms: C16_24  and  O9_25 
ROOT
HETATM    1  C10 UNL     1      -0.088   6.611  12.375  1.00  0.00     0.166 C 
HETATM    2  C11 UNL     1      -0.261   7.009  10.905  1.00  0.00     0.084 C 
HETATM    3  C12 UNL     1       0.786   8.030  10.456  1.00  0.00     0.147 C 
HETATM    4  C14 UNL     1       2.209   7.522  10.718  1.00  0.00     0.083 C 
HETATM    5  C15 UNL     1       2.407   7.124  12.180  1.00  0.00     0.152 C 
HETATM    6  C16 UNL     1       1.344   6.120  12.653  1.00  0.00     0.176 C 
ENDROOT
BRANCH   1   7
HETATM    7  O4  UNL     1      -0.993   5.521  12.673  1.00  0.00    -0.310 OA
BRANCH   7   8
HETATM    8  C1  UNL     1      -1.154   4.601  11.693  1.00  0.00     0.283 C 
HETATM    9  O1  UNL     1      -0.284   4.149  10.967  1.00  0.00    -0.260 OA
BRANCH   8  10
HETATM   10  C2  UNL     1      -2.579   4.215  11.659  1.00  0.00     0.083 C 
HETATM   11  C3  UNL     1      -3.401   4.612  12.641  1.00  0.00     0.017 C 
BRANCH  11  12
HETATM   12  C4  UNL     1      -4.827   4.266  12.706  1.00  0.00    -0.033 A 
HETATM   13  C5  UNL     1      -5.778   5.120  13.292  1.00  0.00     0.014 A 
HETATM   14  C6  UNL     1      -7.124   4.750  13.363  1.00  0.00     0.040 A 
HETATM   15  C7  UNL     1      -7.514   3.522  12.855  1.00  0.00     0.098 A 
HETATM   16  C8  UNL     1      -6.584   2.659  12.284  1.00  0.00     0.099 A 
HETATM   17  C9  UNL     1      -5.241   3.019  12.211  1.00  0.00     0.050 A 
BRANCH  15  18
HETATM   18  O2  UNL     1      -8.829   3.160  12.925  1.00  0.00    -0.358 OA
HETATM   19  H5  UNL     1      -8.859   2.272  12.513  1.00  0.00     0.217 HD
ENDBRANCH  15  18
BRANCH  16  20
HETATM   20  O3  UNL     1      -7.039   1.460  11.807  1.00  0.00    -0.358 OA
HETATM   21  H6  UNL     1      -6.283   0.977  11.430  1.00  0.00     0.217 HD
ENDBRANCH  16  20
ENDBRANCH  11  12
ENDBRANCH   8  10
ENDBRANCH   7   8
ENDBRANCH   1   7
BRANCH   6  22
HETATM   22  O9  UNL     1       1.513   5.907  14.063  1.00  0.00    -0.390 OA
HETATM   23  H18 UNL     1       1.789   6.773  14.427  1.00  0.00     0.210 HD
ENDBRANCH   6  22
BRANCH   3  24
HETATM   24  O5  UNL     1       0.611   9.230  11.227  1.00  0.00    -0.379 OA
HETATM   25  H11 UNL     1      -0.085   9.743  10.764  1.00  0.00     0.211 HD
ENDBRANCH   3  24
BRANCH   3  26
HETATM   26  C13 UNL     1       0.598   8.308   8.958  1.00  0.00     0.176 C 
HETATM   27  O6  UNL     1       1.252   7.855   8.035  1.00  0.00    -0.648 OA
BRANCH  26  28
HETATM   28  O7  UNL     1      -0.456   9.125   8.726  1.00  0.00    -0.774 OA
HETATM   29  H12 UNL     1      -0.475   9.221   7.748  1.00  0.00     0.167 HD
ENDBRANCH  26  28
ENDBRANCH   3  26
BRANCH   5  30
HETATM   30  O8  UNL     1       2.368   8.275  13.038  1.00  0.00    -0.393 OA
HETATM   31  H16 UNL     1       1.760   8.931  12.630  1.00  0.00     0.210 HD
ENDBRANCH   5  30
TORSDOF 11
ENDMDL
MODEL 5
REMARK minimizedAffinity -8.77282238
REMARK  11 active torsions:
REMARK  status: ('A' for Active; 'I' for Inactive)
REMARK    1  A    between atoms: C1_2  and  C2_3 
REMARK    2  A    between atoms: C1_2  and  O4_13 
REMARK    3  A    between atoms: C3_4  and  C4_5 
REMARK    4  A    between atoms: C7_8  and  O2_9 
REMARK    5  A    between atoms: C8_10  and  O3_11 
REMARK    6  A    between atoms: O4_13  and  C10_14 
REMARK    7  A    between atoms: C12_16  and  O5_17 
REMARK    8  A    between atoms: C12_16  and  C13_18 
REMARK    9  A    between atoms: C13_18  and  O7_20 
REMARK   10  A    between atoms: C15_22  and  O8_23 
REMARK   11  A    between atoms: C16_24  and  O9_25 
ROOT
HETATM    1  C10 UNL     1       0.269   5.116  11.811  1.00  0.00     0.166 C 
HETATM    2  C11 UNL     1      -0.424   5.689  13.053  1.00  0.00     0.084 C 
HETATM    3  C12 UNL     1       0.488   6.630  13.841  1.00  0.00     0.147 C 
HETATM    4  C14 UNL     1       1.028   7.757  12.952  1.00  0.00     0.083 C 
HETATM    5  C15 UNL     1       1.728   7.210  11.708  1.00  0.00     0.152 C 
HETATM    6  C16 UNL     1       0.833   6.239  10.923  1.00  0.00     0.176 C 
ENDROOT
BRANCH   1   7
HETATM    7  O4  UNL     1      -0.705   4.383  11.030  1.00  0.00    -0.310 OA
BRANCH   7   8
HETATM    8  C1  UNL     1      -0.841   3.070  11.334  1.00  0.00     0.283 C 
HETATM    9  O1  UNL     1      -0.002   2.197  11.187  1.00  0.00    -0.260 OA
BRANCH   8  10
HETATM   10  C2  UNL     1      -2.189   2.871  11.901  1.00  0.00     0.083 C 
HETATM   11  C3  UNL     1      -3.247   3.470  11.335  1.00  0.00     0.017 C 
BRANCH  11  12
HETATM   12  C4  UNL     1      -4.623   3.347  11.833  1.00  0.00    -0.033 A 
HETATM   13  C5  UNL     1      -5.464   2.286  11.454  1.00  0.00     0.014 A 
HETATM   14  C6  UNL     1      -6.778   2.212  11.923  1.00  0.00     0.040 A 
HETATM   15  C7  UNL     1      -7.251   3.206  12.765  1.00  0.00     0.098 A 
HETATM   16  C8  UNL     1      -6.436   4.270  13.139  1.00  0.00     0.099 A 
HETATM   17  C9  UNL     1      -5.127   4.352  12.675  1.00  0.00     0.050 A 
BRANCH  15  18
HETATM   18  O2  UNL     1      -8.535   3.135  13.223  1.00  0.00    -0.358 OA
HETATM   19  H5  UNL     1      -8.637   3.929  13.786  1.00  0.00     0.217 HD
ENDBRANCH  15  18
BRANCH  16  20
HETATM   20  O3  UNL     1      -6.971   5.218  13.969  1.00  0.00    -0.358 OA
HETATM   21  H6  UNL     1      -6.285   5.884  14.150  1.00  0.00     0.217 HD
ENDBRANCH  16  20
ENDBRANCH  11  12
ENDBRANCH   8  10
ENDBRANCH   7   8
ENDBRANCH   1   7
BRANCH   6  22
HETATM   22  O9  UNL     1       1.607   5.665   9.858  1.00  0.00    -0.390 OA
HETATM   23  H18 UNL     1       2.511   5.559  10.219  1.00  0.00     0.210 HD
ENDBRANCH   6  22
BRANCH   3  24
HETATM   24  O5  UNL     1       1.618   5.881  14.313  1.00  0.00    -0.379 OA
HETATM   25  H11 UNL     1       1.328   5.464  15.153  1.00  0.00     0.211 HD
ENDBRANCH   3  24
BRANCH   3  26
HETATM   26  C13 UNL     1      -0.305   7.225  15.013  1.00  0.00     0.176 C 
HETATM   27  O6  UNL     1      -1.256   7.985  14.951  1.00  0.00    -0.648 OA
BRANCH  26  28
HETATM   28  O7  UNL     1       0.144   6.772  16.207  1.00  0.00    -0.774 OA
HETATM   29  H12 UNL     1      -0.436   7.212  16.865  1.00  0.00     0.167 HD
ENDBRANCH  26  28
ENDBRANCH   3  26
BRANCH   5  30
HETATM   30  O8  UNL     1       2.946   6.534  12.058  1.00  0.00    -0.393 OA
HETATM   31  H16 UNL     1       2.823   6.138  12.949  1.00  0.00     0.210 HD
ENDBRANCH   5  30
TORSDOF 11
ENDMDL
MODEL 6
REMARK minimizedAffinity -8.57786655
REMARK  11 active torsions:
REMARK  status: ('A' for Active; 'I' for Inactive)
REMARK    1  A    between atoms: C1_2  and  C2_3 
REMARK    2  A    between atoms: C1_2  and  O4_13 
REMARK    3  A    between atoms: C3_4  and  C4_5 
REMARK    4  A    between atoms: C7_8  and  O2_9 
REMARK    5  A    between atoms: C8_10  and  O3_11 
REMARK    6  A    between atoms: O4_13  and  C10_14 
REMARK    7  A    between atoms: C12_16  and  O5_17 
REMARK    8  A    between atoms: C12_16  and  C13_18 
REMARK    9  A    between atoms: C13_18  and  O7_20 
REMARK   10  A    between atoms: C15_22  and  O8_23 
REMARK   11  A    between atoms: C16_24  and  O9_25 
ROOT
HETATM    1  C10 UNL     1      -0.405   5.215  11.669  1.00  0.00     0.166 C 
HETATM    2  C11 UNL     1       0.907   4.724  11.048  1.00  0.00     0.084 C 
HETATM    3  C12 UNL     1       1.850   5.877  10.702  1.00  0.00     0.147 C 
HETATM    4  C14 UNL     1       2.126   6.758  11.926  1.00  0.00     0.083 C 
HETATM    5  C15 UNL     1       0.831   7.266  12.560  1.00  0.00     0.152 C 
HETATM    6  C16 UNL     1      -0.140   6.119  12.886  1.00  0.00     0.176 C 
ENDROOT
BRANCH   1   7
HETATM    7  O4  UNL     1      -1.162   4.070  12.128  1.00  0.00    -0.310 OA
BRANCH   7   8
HETATM    8  C1  UNL     1      -1.969   3.488  11.209  1.00  0.00     0.283 C 
HETATM    9  O1  UNL     1      -1.641   2.673  10.363  1.00  0.00    -0.260 OA
BRANCH   8  10
HETATM   10  C2  UNL     1      -3.339   3.998  11.417  1.00  0.00     0.083 C 
HETATM   11  C3  UNL     1      -3.863   4.020  12.651  1.00  0.00     0.017 C 
BRANCH  11  12
HETATM   12  C4  UNL     1      -5.220   4.492  12.958  1.00  0.00    -0.033 A 
HETATM   13  C5  UNL     1      -5.473   5.801  13.405  1.00  0.00     0.014 A 
HETATM   14  C6  UNL     1      -6.772   6.211  13.715  1.00  0.00     0.040 A 
HETATM   15  C7  UNL     1      -7.816   5.308  13.585  1.00  0.00     0.098 A 
HETATM   16  C8  UNL     1      -7.580   4.006  13.156  1.00  0.00     0.099 A 
HETATM   17  C9  UNL     1      -6.288   3.588  12.847  1.00  0.00     0.050 A 
BRANCH  15  18
HETATM   18  O2  UNL     1      -9.085   5.709  13.888  1.00  0.00    -0.358 OA
HETATM   19  H5  UNL     1      -9.636   4.917  13.723  1.00  0.00     0.217 HD
ENDBRANCH  15  18
BRANCH  16  20
HETATM   20  O3  UNL     1      -8.656   3.167  13.055  1.00  0.00    -0.358 OA
HETATM   21  H6  UNL     1      -8.339   2.304  12.734  1.00  0.00     0.217 HD
ENDBRANCH  16  20
ENDBRANCH  11  12
ENDBRANCH   8  10
ENDBRANCH   7   8
ENDBRANCH   1   7
BRANCH   6  22
HETATM   22  O9  UNL     1      -1.378   6.685  13.343  1.00  0.00    -0.390 OA
HETATM   23  H18 UNL     1      -1.499   7.504  12.820  1.00  0.00     0.210 HD
ENDBRANCH   6  22
BRANCH   3  24
HETATM   24  O5  UNL     1       1.216   6.703   9.714  1.00  0.00    -0.379 OA
HETATM   25  H11 UNL     1       1.416   6.284   8.850  1.00  0.00     0.211 HD
ENDBRANCH   3  24
BRANCH   3  26
HETATM   26  C13 UNL     1       3.169   5.297  10.169  1.00  0.00     0.176 C 
HETATM   27  O6  UNL     1       4.205   5.900   9.948  1.00  0.00    -0.648 OA
BRANCH  26  28
HETATM   28  O7  UNL     1       3.094   3.958   9.991  1.00  0.00    -0.774 OA
HETATM   29  H12 UNL     1       3.985   3.709   9.659  1.00  0.00     0.167 HD
ENDBRANCH  26  28
ENDBRANCH   3  26
BRANCH   5  30
HETATM   30  O8  UNL     1       0.166   8.201  11.697  1.00  0.00    -0.393 OA
HETATM   31  H16 UNL     1       0.367   7.946  10.769  1.00  0.00     0.210 HD
ENDBRANCH   5  30
TORSDOF 11
ENDMDL
MODEL 7
REMARK minimizedAffinity -8.55164051
REMARK  11 active torsions:
REMARK  status: ('A' for Active; 'I' for Inactive)
REMARK    1  A    between atoms: C1_2  and  C2_3 
REMARK    2  A    between atoms: C1_2  and  O4_13 
REMARK    3  A    between atoms: C3_4  and  C4_5 
REMARK    4  A    between atoms: C7_8  and  O2_9 
REMARK    5  A    between atoms: C8_10  and  O3_11 
REMARK    6  A    between atoms: O4_13  and  C10_14 
REMARK    7  A    between atoms: C12_16  and  O5_17 
REMARK    8  A    between atoms: C12_16  and  C13_18 
REMARK    9  A    between atoms: C13_18  and  O7_20 
REMARK   10  A    between atoms: C15_22  and  O8_23 
REMARK   11  A    between atoms: C16_24  and  O9_25 
ROOT
HETATM    1  C10 UNL     1       0.166   6.327  13.377  1.00  0.00     0.166 C 
HETATM    2  C11 UNL     1      -0.894   7.069  14.199  1.00  0.00     0.084 C 
HETATM    3  C12 UNL     1      -0.336   7.595  15.522  1.00  0.00     0.147 C 
HETATM    4  C14 UNL     1       0.893   8.483  15.295  1.00  0.00     0.083 C 
HETATM    5  C15 UNL     1       1.968   7.762  14.481  1.00  0.00     0.152 C 
HETATM    6  C16 UNL     1       1.414   7.203  13.162  1.00  0.00     0.176 C 
ENDROOT
BRANCH   1   7
HETATM    7  O4  UNL     1      -0.385   6.018  12.075  1.00  0.00    -0.310 OA
BRANCH   7   8
HETATM    8  C1  UNL     1      -0.591   4.705  11.817  1.00  0.00     0.283 C 
HETATM    9  O1  UNL     1       0.195   3.933  11.293  1.00  0.00    -0.260 OA
BRANCH   8  10
HETATM   10  C2  UNL     1      -1.941   4.351  12.298  1.00  0.00     0.083 C 
HETATM   11  C3  UNL     1      -2.884   3.971  11.424  1.00  0.00     0.017 C 
BRANCH  11  12
HETATM   12  C4  UNL     1      -4.258   3.617  11.802  1.00  0.00    -0.033 A 
HETATM   13  C5  UNL     1      -5.010   4.392  12.702  1.00  0.00     0.014 A 
HETATM   14  C6  UNL     1      -6.305   4.013  13.064  1.00  0.00     0.040 A 
HETATM   15  C7  UNL     1      -6.843   2.852  12.530  1.00  0.00     0.098 A 
HETATM   16  C8  UNL     1      -6.107   2.066  11.649  1.00  0.00     0.099 A 
HETATM   17  C9  UNL     1      -4.816   2.436  11.285  1.00  0.00     0.050 A 
BRANCH  15  18
HETATM   18  O2  UNL     1      -8.108   2.481  12.884  1.00  0.00    -0.358 OA
HETATM   19  H5  UNL     1      -8.264   1.649  12.393  1.00  0.00     0.217 HD
ENDBRANCH  15  18
BRANCH  16  20
HETATM   20  O3  UNL     1      -6.699   0.932  11.165  1.00  0.00    -0.358 OA
HETATM   21  H6  UNL     1      -6.074   0.499  10.558  1.00  0.00     0.217 HD
ENDBRANCH  16  20
ENDBRANCH  11  12
ENDBRANCH   8  10
ENDBRANCH   7   8
ENDBRANCH   1   7
BRANCH   6  22
HETATM   22  O9  UNL     1       2.442   6.426  12.528  1.00  0.00    -0.390 OA
HETATM   23  H18 UNL     1       2.929   5.992  13.258  1.00  0.00     0.210 HD
ENDBRANCH   6  22
BRANCH   3  24
HETATM   24  O5  UNL     1       0.087   6.475  16.316  1.00  0.00    -0.379 OA
HETATM   25  H11 UNL     1      -0.717   6.162  16.783  1.00  0.00     0.211 HD
ENDBRANCH   3  24
BRANCH   3  26
HETATM   26  C13 UNL     1      -1.432   8.395  16.241  1.00  0.00     0.176 C 
HETATM   27  O6  UNL     1      -1.559   9.606  16.276  1.00  0.00    -0.648 OA
BRANCH  26  28
HETATM   28  O7  UNL     1      -2.334   7.585  16.843  1.00  0.00    -0.774 OA
HETATM   29  H12 UNL     1      -2.976   8.203  17.255  1.00  0.00     0.167 HD
ENDBRANCH  26  28
ENDBRANCH   3  26
BRANCH   5  30
HETATM   30  O8  UNL     1       2.548   6.684  15.232  1.00  0.00    -0.393 OA
HETATM   31  H16 UNL     1       1.853   6.330  15.830  1.00  0.00     0.210 HD
ENDBRANCH   5  30
TORSDOF 11
ENDMDL
MODEL 8
REMARK minimizedAffinity -8.42846966
REMARK  11 active torsions:
REMARK  status: ('A' for Active; 'I' for Inactive)
REMARK    1  A    between atoms: C1_2  and  C2_3 
REMARK    2  A    between atoms: C1_2  and  O4_13 
REMARK    3  A    between atoms: C3_4  and  C4_5 
REMARK    4  A    between atoms: C7_8  and  O2_9 
REMARK    5  A    between atoms: C8_10  and  O3_11 
REMARK    6  A    between atoms: O4_13  and  C10_14 
REMARK    7  A    between atoms: C12_16  and  O5_17 
REMARK    8  A    between atoms: C12_16  and  C13_18 
REMARK    9  A    between atoms: C13_18  and  O7_20 
REMARK   10  A    between atoms: C15_22  and  O8_23 
REMARK   11  A    between atoms: C16_24  and  O9_25 
ROOT
HETATM    1  C10 UNL     1      -0.373   7.274  12.966  1.00  0.00     0.166 C 
HETATM    2  C11 UNL     1      -0.714   7.881  11.601  1.00  0.00     0.084 C 
HETATM    3  C12 UNL     1       0.488   7.890  10.655  1.00  0.00     0.147 C 
HETATM    4  C14 UNL     1       1.078   6.484  10.492  1.00  0.00     0.083 C 
HETATM    5  C15 UNL     1       1.432   5.859  11.841  1.00  0.00     0.152 C 
HETATM    6  C16 UNL     1       0.241   5.871  12.812  1.00  0.00     0.176 C 
ENDROOT
BRANCH   1   7
HETATM    7  O4  UNL     1      -1.591   7.139  13.735  1.00  0.00    -0.310 OA
BRANCH   7   8
HETATM    8  C1  UNL     1      -2.557   8.053  13.478  1.00  0.00     0.283 C 
HETATM    9  O1  UNL     1      -2.398   9.247  13.287  1.00  0.00    -0.260 OA
BRANCH   8  10
HETATM   10  C2  UNL     1      -3.855   7.349  13.449  1.00  0.00     0.083 C 
HETATM   11  C3  UNL     1      -3.892   6.025  13.243  1.00  0.00     0.017 C 
BRANCH  11  12
HETATM   12  C4  UNL     1      -5.131   5.239  13.180  1.00  0.00    -0.033 A 
HETATM   13  C5  UNL     1      -5.190   3.986  12.546  1.00  0.00     0.014 A 
HETATM   14  C6  UNL     1      -6.391   3.275  12.479  1.00  0.00     0.040 A 
HETATM   15  C7  UNL     1      -7.534   3.824  13.040  1.00  0.00     0.098 A 
HETATM   16  C8  UNL     1      -7.495   5.069  13.659  1.00  0.00     0.099 A 
HETATM   17  C9  UNL     1      -6.302   5.785  13.729  1.00  0.00     0.050 A 
BRANCH  15  18
HETATM   18  O2  UNL     1      -8.707   3.130  12.974  1.00  0.00    -0.358 OA
HETATM   19  H5  UNL     1      -9.357   3.706  13.426  1.00  0.00     0.217 HD
ENDBRANCH  15  18
BRANCH  16  20
HETATM   20  O3  UNL     1      -8.661   5.552  14.187  1.00  0.00    -0.358 OA
HETATM   21  H6  UNL     1      -8.475   6.417  14.593  1.00  0.00     0.217 HD
ENDBRANCH  16  20
ENDBRANCH  11  12
ENDBRANCH   8  10
ENDBRANCH   7   8
ENDBRANCH   1   7
BRANCH   6  22
HETATM   22  O9  UNL     1       0.691   5.400  14.092  1.00  0.00    -0.390 OA
HETATM   23  H18 UNL     1       1.605   5.739  14.188  1.00  0.00     0.210 HD
ENDBRANCH   6  22
BRANCH   3  24
HETATM   24  O5  UNL     1       1.512   8.719  11.227  1.00  0.00    -0.379 OA
HETATM   25  H11 UNL     1       1.294   9.636  10.953  1.00  0.00     0.211 HD
ENDBRANCH   3  24
BRANCH   3  26
HETATM   26  C13 UNL     1       0.042   8.431   9.289  1.00  0.00     0.176 C 
HETATM   27  O6  UNL     1      -0.916   9.147   9.056  1.00  0.00    -0.648 OA
BRANCH  26  28
HETATM   28  O7  UNL     1       0.884   8.053   8.299  1.00  0.00    -0.774 OA
HETATM   29  H12 UNL     1       0.502   8.459   7.490  1.00  0.00     0.167 HD
ENDBRANCH  26  28
ENDBRANCH   3  26
BRANCH   5  30
HETATM   30  O8  UNL     1       2.534   6.546  12.455  1.00  0.00    -0.393 OA
HETATM   31  H16 UNL     1       2.490   7.488  12.177  1.00  0.00     0.210 HD
ENDBRANCH   5  30
TORSDOF 11
ENDMDL
MODEL 9
REMARK minimizedAffinity -8.36038113
REMARK  11 active torsions:
REMARK  status: ('A' for Active; 'I' for Inactive)
REMARK    1  A    between atoms: C1_2  and  C2_3 
REMARK    2  A    between atoms: C1_2  and  O4_13 
REMARK    3  A    between atoms: C3_4  and  C4_5 
REMARK    4  A    between atoms: C7_8  and  O2_9 
REMARK    5  A    between atoms: C8_10  and  O3_11 
REMARK    6  A    between atoms: O4_13  and  C10_14 
REMARK    7  A    between atoms: C12_16  and  O5_17 
REMARK    8  A    between atoms: C12_16  and  C13_18 
REMARK    9  A    between atoms: C13_18  and  O7_20 
REMARK   10  A    between atoms: C15_22  and  O8_23 
REMARK   11  A    between atoms: C16_24  and  O9_25 
ROOT
HETATM    1  C10 UNL     1       0.240   6.672  11.706  1.00  0.00     0.166 C 
HETATM    2  C11 UNL     1       0.872   6.048  10.456  1.00  0.00     0.084 C 
HETATM    3  C12 UNL     1       2.226   6.675  10.119  1.00  0.00     0.147 C 
HETATM    4  C14 UNL     1       3.188   6.596  11.310  1.00  0.00     0.083 C 
HETATM    5  C15 UNL     1       2.582   7.217  12.569  1.00  0.00     0.152 C 
HETATM    6  C16 UNL     1       1.207   6.618  12.902  1.00  0.00     0.176 C 
ENDROOT
BRANCH   1   7
HETATM    7  O4  UNL     1      -0.941   5.914  12.060  1.00  0.00    -0.310 OA
BRANCH   7   8
HETATM    8  C1  UNL     1      -0.975   4.632  11.622  1.00  0.00     0.283 C 
HETATM    9  O1  UNL     1      -0.024   3.961  11.258  1.00  0.00    -0.260 OA
BRANCH   8  10
HETATM   10  C2  UNL     1      -2.375   4.169  11.678  1.00  0.00     0.083 C 
HETATM   11  C3  UNL     1      -3.237   4.746  12.527  1.00  0.00     0.017 C 
BRANCH  11  12
HETATM   12  C4  UNL     1      -4.643   4.345  12.668  1.00  0.00    -0.033 A 
HETATM   13  C5  UNL     1      -5.158   3.193  12.048  1.00  0.00     0.014 A 
HETATM   14  C6  UNL     1      -6.507   2.854  12.178  1.00  0.00     0.040 A 
HETATM   15  C7  UNL     1      -7.341   3.674  12.921  1.00  0.00     0.098 A 
HETATM   16  C8  UNL     1      -6.851   4.825  13.530  1.00  0.00     0.099 A 
HETATM   17  C9  UNL     1      -5.508   5.171  13.403  1.00  0.00     0.050 A 
BRANCH  15  18
HETATM   18  O2  UNL     1      -8.660   3.344  13.048  1.00  0.00    -0.358 OA
HETATM   19  H5  UNL     1      -9.038   4.056  13.603  1.00  0.00     0.217 HD
ENDBRANCH  15  18
BRANCH  16  20
HETATM   20  O3  UNL     1      -7.732   5.590  14.244  1.00  0.00    -0.358 OA
HETATM   21  H6  UNL     1      -7.245   6.346  14.616  1.00  0.00     0.217 HD
ENDBRANCH  16  20
ENDBRANCH  11  12
ENDBRANCH   8  10
ENDBRANCH   7   8
ENDBRANCH   1   7
BRANCH   6  22
HETATM   22  O9  UNL     1       0.647   7.346  14.006  1.00  0.00    -0.390 OA
HETATM   23  H18 UNL     1       0.931   8.275  13.877  1.00  0.00     0.210 HD
ENDBRANCH   6  22
BRANCH   3  24
HETATM   24  O5  UNL     1       2.023   8.066   9.824  1.00  0.00    -0.379 OA
HETATM   25  H11 UNL     1       1.774   8.102   8.876  1.00  0.00     0.211 HD
ENDBRANCH   3  24
BRANCH   3  26
HETATM   26  C13 UNL     1       2.827   5.939   8.913  1.00  0.00     0.176 C 
HETATM   27  O6  UNL     1       2.429   5.961   7.761  1.00  0.00    -0.648 OA
BRANCH  26  28
HETATM   28  O7  UNL     1       3.941   5.247   9.249  1.00  0.00    -0.774 OA
HETATM   29  H12 UNL     1       4.230   4.833   8.408  1.00  0.00     0.167 HD
ENDBRANCH  26  28
ENDBRANCH   3  26
BRANCH   5  30
HETATM   30  O8  UNL     1       2.442   8.639  12.427  1.00  0.00    -0.393 OA
HETATM   31  H16 UNL     1       2.278   8.830  11.476  1.00  0.00     0.210 HD
ENDBRANCH   5  30
TORSDOF 11
ENDMDL
