MODEL 1
REMARK minimizedAffinity -8.30042744
REMARK  2 active torsions:
REMARK  status: ('A' for Active; 'I' for Inactive)
REMARK    1  A    between atoms: C4_6  and  O3_7 
REMARK    2  A    between atoms: C11_14  and  O4_15 
ROOT
HETATM    1  O1  UNL     1       0.215  54.899 -26.803  1.00  0.00    -0.259 OA
HETATM    2  C1  UNL     1       0.162  54.192 -25.802  1.00  0.00     0.299 A 
HETATM    3  O2  UNL     1       0.711  54.597 -24.597  1.00  0.00    -0.274 OA
HETATM    4  C2  UNL     1       0.667  53.806 -23.430  1.00  0.00     0.093 A 
HETATM    5  C3  UNL     1       1.266  54.358 -22.297  1.00  0.00     0.074 A 
HETATM    6  C4  UNL     1       1.258  53.634 -21.116  1.00  0.00     0.068 A 
HETATM    7  C5  UNL     1       0.662  52.380 -21.063  1.00  0.00     0.037 A 
HETATM    8  C6  UNL     1       0.066  51.844 -22.214  1.00  0.00     0.018 A 
HETATM    9  C7  UNL     1       0.055  52.549 -23.430  1.00  0.00     0.009 A 
HETATM   10  C8  UNL     1      -0.548  52.058 -24.676  1.00  0.00    -0.007 A 
HETATM   11  C9  UNL     1      -1.188  50.810 -24.790  1.00  0.00     0.016 A 
HETATM   12  C10 UNL     1      -1.747  50.385 -26.001  1.00  0.00     0.037 A 
HETATM   13  C11 UNL     1      -1.677  51.201 -27.118  1.00  0.00     0.066 A 
HETATM   14  C12 UNL     1      -1.054  52.437 -27.046  1.00  0.00     0.055 A 
HETATM   15  C13 UNL     1      -0.492  52.862 -25.828  1.00  0.00     0.053 A 
ENDROOT
BRANCH   6  16
HETATM   16  O3  UNL     1       1.848  54.190 -20.022  1.00  0.00    -0.361 OA
HETATM   17  H2  UNL     1       1.767  53.577 -19.273  1.00  0.00     0.217 HD
ENDBRANCH   6  16
BRANCH  13  18
HETATM   18  O4  UNL     1      -2.234  50.748 -28.275  1.00  0.00    -0.361 OA
HETATM   19  H7  UNL     1      -2.112  51.417 -28.970  1.00  0.00     0.217 HD
ENDBRANCH  13  18
TORSDOF 2
ENDMDL
MODEL 2
REMARK minimizedAffinity -8.15008736
REMARK  2 active torsions:
REMARK  status: ('A' for Active; 'I' for Inactive)
REMARK    1  A    between atoms: C4_6  and  O3_7 
REMARK    2  A    between atoms: C11_14  and  O4_15 
ROOT
HETATM    1  O1  UNL     1      -0.451  52.488 -21.762  1.00  0.00    -0.259 OA
HETATM    2  C1  UNL     1      -0.472  52.294 -22.972  1.00  0.00     0.299 A 
HETATM    3  O2  UNL     1       0.696  52.194 -23.712  1.00  0.00    -0.274 OA
HETATM    4  C2  UNL     1       0.704  51.971 -25.104  1.00  0.00     0.093 A 
HETATM    5  C3  UNL     1       1.963  51.897 -25.702  1.00  0.00     0.074 A 
HETATM    6  C4  UNL     1       2.044  51.679 -27.067  1.00  0.00     0.068 A 
HETATM    7  C5  UNL     1       0.889  51.538 -27.827  1.00  0.00     0.037 A 
HETATM    8  C6  UNL     1      -0.366  51.617 -27.207  1.00  0.00     0.018 A 
HETATM    9  C7  UNL     1      -0.487  51.837 -25.824  1.00  0.00     0.009 A 
HETATM   10  C8  UNL     1      -1.762  51.932 -25.101  1.00  0.00    -0.007 A 
HETATM   11  C9  UNL     1      -3.019  51.811 -25.723  1.00  0.00     0.016 A 
HETATM   12  C10 UNL     1      -4.208  51.910 -24.990  1.00  0.00     0.037 A 
HETATM   13  C11 UNL     1      -4.160  52.129 -23.623  1.00  0.00     0.066 A 
HETATM   14  C12 UNL     1      -2.942  52.253 -22.975  1.00  0.00     0.055 A 
HETATM   15  C13 UNL     1      -1.749  52.155 -23.712  1.00  0.00     0.053 A 
ENDROOT
BRANCH   6  16
HETATM   16  O3  UNL     1       3.282  51.609 -27.631  1.00  0.00    -0.361 OA
HETATM   17  H2  UNL     1       3.186  51.454 -28.585  1.00  0.00     0.217 HD
ENDBRANCH   6  16
BRANCH  13  18
HETATM   18  O4  UNL     1      -5.341  52.218 -22.951  1.00  0.00    -0.361 OA
HETATM   19  H7  UNL     1      -5.159  52.371 -22.008  1.00  0.00     0.217 HD
ENDBRANCH  13  18
TORSDOF 2
ENDMDL
MODEL 3
REMARK minimizedAffinity -8.02197742
REMARK  2 active torsions:
REMARK  status: ('A' for Active; 'I' for Inactive)
REMARK    1  A    between atoms: C4_6  and  O3_7 
REMARK    2  A    between atoms: C11_14  and  O4_15 
ROOT
HETATM    1  O1  UNL     1       0.682  54.804 -25.143  1.00  0.00    -0.259 OA
HETATM    2  C1  UNL     1       0.022  53.772 -25.156  1.00  0.00     0.299 A 
HETATM    3  O2  UNL     1      -0.682  53.374 -26.282  1.00  0.00    -0.274 OA
HETATM    4  C2  UNL     1      -1.451  52.193 -26.327  1.00  0.00     0.093 A 
HETATM    5  C3  UNL     1      -2.100  51.934 -27.535  1.00  0.00     0.074 A 
HETATM    6  C4  UNL     1      -2.871  50.790 -27.649  1.00  0.00     0.068 A 
HETATM    7  C5  UNL     1      -2.997  49.916 -26.576  1.00  0.00     0.037 A 
HETATM    8  C6  UNL     1      -2.337  50.195 -25.370  1.00  0.00     0.018 A 
HETATM    9  C7  UNL     1      -1.545  51.346 -25.218  1.00  0.00     0.009 A 
HETATM   10  C8  UNL     1      -0.823  51.708 -23.991  1.00  0.00    -0.007 A 
HETATM   11  C9  UNL     1      -0.847  50.932 -22.817  1.00  0.00     0.016 A 
HETATM   12  C10 UNL     1      -0.143  51.319 -21.672  1.00  0.00     0.037 A 
HETATM   13  C11 UNL     1       0.599  52.490 -21.680  1.00  0.00     0.066 A 
HETATM   14  C12 UNL     1       0.646  53.282 -22.816  1.00  0.00     0.055 A 
HETATM   15  C13 UNL     1      -0.062  52.891 -23.966  1.00  0.00     0.053 A 
ENDROOT
BRANCH   6  16
HETATM   16  O3  UNL     1      -3.496  50.556 -28.836  1.00  0.00    -0.361 OA
HETATM   17  H2  UNL     1      -3.996  49.726 -28.772  1.00  0.00     0.217 HD
ENDBRANCH   6  16
BRANCH  13  18
HETATM   18  O4  UNL     1       1.268  52.828 -20.544  1.00  0.00    -0.361 OA
HETATM   19  H7  UNL     1       1.741  53.665 -20.691  1.00  0.00     0.217 HD
ENDBRANCH  13  18
TORSDOF 2
ENDMDL
MODEL 4
REMARK minimizedAffinity -7.99052238
REMARK  2 active torsions:
REMARK  status: ('A' for Active; 'I' for Inactive)
REMARK    1  A    between atoms: C4_6  and  O3_7 
REMARK    2  A    between atoms: C11_14  and  O4_15 
ROOT
HETATM    1  O1  UNL     1      -1.533  49.829 -21.434  1.00  0.00    -0.259 OA
HETATM    2  C1  UNL     1      -1.049  50.631 -22.225  1.00  0.00     0.299 A 
HETATM    3  O2  UNL     1      -1.229  50.501 -23.592  1.00  0.00    -0.274 OA
HETATM    4  C2  UNL     1      -0.685  51.407 -24.526  1.00  0.00     0.093 A 
HETATM    5  C3  UNL     1      -0.957  51.136 -25.868  1.00  0.00     0.074 A 
HETATM    6  C4  UNL     1      -0.454  51.986 -26.838  1.00  0.00     0.068 A 
HETATM    7  C5  UNL     1       0.311  53.090 -26.479  1.00  0.00     0.037 A 
HETATM    8  C6  UNL     1       0.574  53.343 -25.125  1.00  0.00     0.018 A 
HETATM    9  C7  UNL     1       0.079  52.503 -24.113  1.00  0.00     0.009 A 
HETATM   10  C8  UNL     1       0.309  52.700 -22.675  1.00  0.00    -0.007 A 
HETATM   11  C9  UNL     1       1.061  53.767 -22.148  1.00  0.00     0.016 A 
HETATM   12  C10 UNL     1       1.253  53.912 -20.769  1.00  0.00     0.037 A 
HETATM   13  C11 UNL     1       0.695  52.994 -19.894  1.00  0.00     0.066 A 
HETATM   14  C12 UNL     1      -0.051  51.930 -20.375  1.00  0.00     0.055 A 
HETATM   15  C13 UNL     1      -0.242  51.785 -21.760  1.00  0.00     0.053 A 
ENDROOT
BRANCH   6  16
HETATM   16  O3  UNL     1      -0.731  51.705 -28.141  1.00  0.00    -0.361 OA
HETATM   17  H2  UNL     1      -0.318  52.379 -28.705  1.00  0.00     0.217 HD
ENDBRANCH   6  16
BRANCH  13  18
HETATM   18  O4  UNL     1       0.908  53.174 -18.561  1.00  0.00    -0.361 OA
HETATM   19  H7  UNL     1       0.464  52.462 -18.069  1.00  0.00     0.217 HD
ENDBRANCH  13  18
TORSDOF 2
ENDMDL
MODEL 5
REMARK minimizedAffinity -7.92711067
REMARK  2 active torsions:
REMARK  status: ('A' for Active; 'I' for Inactive)
REMARK    1  A    between atoms: C4_6  and  O3_7 
REMARK    2  A    between atoms: C11_14  and  O4_15 
ROOT
HETATM    1  O1  UNL     1       1.819  54.999 -22.239  1.00  0.00    -0.259 OA
HETATM    2  C1  UNL     1       1.218  54.088 -22.799  1.00  0.00     0.299 A 
HETATM    3  O2  UNL     1       1.098  54.037 -24.178  1.00  0.00    -0.274 OA
HETATM    4  C2  UNL     1       0.412  53.003 -24.849  1.00  0.00     0.093 A 
HETATM    5  C3  UNL     1       0.381  53.097 -26.241  1.00  0.00     0.074 A 
HETATM    6  C4  UNL     1      -0.275  52.114 -26.963  1.00  0.00     0.068 A 
HETATM    7  C5  UNL     1      -0.892  51.054 -26.310  1.00  0.00     0.037 A 
HETATM    8  C6  UNL     1      -0.850  50.979 -24.910  1.00  0.00     0.018 A 
HETATM    9  C7  UNL     1      -0.193  51.958 -24.144  1.00  0.00     0.009 A 
HETATM   10  C8  UNL     1      -0.103  51.951 -22.679  1.00  0.00    -0.007 A 
HETATM   11  C9  UNL     1      -0.674  50.950 -21.870  1.00  0.00     0.016 A 
HETATM   12  C10 UNL     1      -0.562  50.988 -20.475  1.00  0.00     0.037 A 
HETATM   13  C11 UNL     1       0.123  52.026 -19.865  1.00  0.00     0.066 A 
HETATM   14  C12 UNL     1       0.698  53.030 -20.627  1.00  0.00     0.055 A 
HETATM   15  C13 UNL     1       0.585  52.991 -22.028  1.00  0.00     0.053 A 
ENDROOT
BRANCH   6  16
HETATM   16  O3  UNL     1      -0.294  52.224 -28.321  1.00  0.00    -0.361 OA
HETATM   17  H2  UNL     1      -0.784  51.472 -28.692  1.00  0.00     0.217 HD
ENDBRANCH   6  16
BRANCH  13  18
HETATM   18  O4  UNL     1       0.206  52.022 -18.506  1.00  0.00    -0.361 OA
HETATM   19  H7  UNL     1       0.711  52.802 -18.216  1.00  0.00     0.217 HD
ENDBRANCH  13  18
TORSDOF 2
ENDMDL
MODEL 6
REMARK minimizedAffinity -7.89880943
REMARK  2 active torsions:
REMARK  status: ('A' for Active; 'I' for Inactive)
REMARK    1  A    between atoms: C4_6  and  O3_7 
REMARK    2  A    between atoms: C11_14  and  O4_15 
ROOT
HETATM    1  O1  UNL     1      -2.311  49.598 -23.600  1.00  0.00    -0.259 OA
HETATM    2  C1  UNL     1      -1.544  50.499 -23.280  1.00  0.00     0.299 A 
HETATM    3  O2  UNL     1      -1.281  50.791 -21.951  1.00  0.00    -0.274 OA
HETATM    4  C2  UNL     1      -0.405  51.821 -21.552  1.00  0.00     0.093 A 
HETATM    5  C3  UNL     1      -0.247  51.988 -20.175  1.00  0.00     0.074 A 
HETATM    6  C4  UNL     1       0.600  52.981 -19.714  1.00  0.00     0.068 A 
HETATM    7  C5  UNL     1       1.279  53.799 -20.609  1.00  0.00     0.037 A 
HETATM    8  C6  UNL     1       1.106  53.615 -21.989  1.00  0.00     0.018 A 
HETATM    9  C7  UNL     1       0.255  52.617 -22.494  1.00  0.00     0.009 A 
HETATM   10  C8  UNL     1       0.021  52.361 -23.921  1.00  0.00    -0.007 A 
HETATM   11  C9  UNL     1       0.631  53.098 -24.953  1.00  0.00     0.016 A 
HETATM   12  C10 UNL     1       0.376  52.817 -26.300  1.00  0.00     0.037 A 
HETATM   13  C11 UNL     1      -0.493  51.792 -26.638  1.00  0.00     0.066 A 
HETATM   14  C12 UNL     1      -1.114  51.044 -25.651  1.00  0.00     0.055 A 
HETATM   15  C13 UNL     1      -0.856  51.328 -24.298  1.00  0.00     0.053 A 
ENDROOT
BRANCH   6  16
HETATM   16  O3  UNL     1       0.740  53.128 -18.367  1.00  0.00    -0.361 OA
HETATM   17  H2  UNL     1       1.359  53.855 -18.191  1.00  0.00     0.217 HD
ENDBRANCH   6  16
BRANCH  13  18
HETATM   18  O4  UNL     1      -0.713  51.554 -27.961  1.00  0.00    -0.361 OA
HETATM   19  H7  UNL     1      -1.338  50.815 -28.051  1.00  0.00     0.217 HD
ENDBRANCH  13  18
TORSDOF 2
ENDMDL
MODEL 7
REMARK minimizedAffinity -7.8533659
REMARK  2 active torsions:
REMARK  status: ('A' for Active; 'I' for Inactive)
REMARK    1  A    between atoms: C4_6  and  O3_7 
REMARK    2  A    between atoms: C11_14  and  O4_15 
ROOT
HETATM    1  O1  UNL     1       2.009  54.724 -21.529  1.00  0.00    -0.259 OA
HETATM    2  C1  UNL     1       1.266  53.760 -21.671  1.00  0.00     0.299 A 
HETATM    3  O2  UNL     1       0.823  53.361 -22.922  1.00  0.00    -0.274 OA
HETATM    4  C2  UNL     1      -0.032  52.257 -23.116  1.00  0.00     0.093 A 
HETATM    5  C3  UNL     1      -0.387  51.986 -24.439  1.00  0.00     0.074 A 
HETATM    6  C4  UNL     1      -1.224  50.915 -24.701  1.00  0.00     0.068 A 
HETATM    7  C5  UNL     1      -1.702  50.124 -23.663  1.00  0.00     0.037 A 
HETATM    8  C6  UNL     1      -1.334  50.414 -22.341  1.00  0.00     0.018 A 
HETATM    9  C7  UNL     1      -0.486  51.493 -22.037  1.00  0.00     0.009 A 
HETATM   10  C8  UNL     1      -0.054  51.861 -20.682  1.00  0.00    -0.007 A 
HETATM   11  C9  UNL     1      -0.449  51.163 -19.524  1.00  0.00     0.016 A 
HETATM   12  C10 UNL     1      -0.011  51.553 -18.253  1.00  0.00     0.037 A 
HETATM   13  C11 UNL     1       0.830  52.646 -18.117  1.00  0.00     0.066 A 
HETATM   14  C12 UNL     1       1.240  53.359 -19.233  1.00  0.00     0.055 A 
HETATM   15  C13 UNL     1       0.799  52.966 -20.509  1.00  0.00     0.053 A 
ENDROOT
BRANCH   6  16
HETATM   16  O3  UNL     1      -1.558  50.668 -25.998  1.00  0.00    -0.361 OA
HETATM   17  H2  UNL     1      -2.144  49.894 -26.031  1.00  0.00     0.217 HD
ENDBRANCH   6  16
BRANCH  13  18
HETATM   18  O4  UNL     1       1.230  52.989 -16.862  1.00  0.00    -0.361 OA
HETATM   19  H7  UNL     1       1.812  53.767 -16.916  1.00  0.00     0.217 HD
ENDBRANCH  13  18
TORSDOF 2
ENDMDL
MODEL 8
REMARK minimizedAffinity -7.66719246
REMARK  2 active torsions:
REMARK  status: ('A' for Active; 'I' for Inactive)
REMARK    1  A    between atoms: C4_6  and  O3_7 
REMARK    2  A    between atoms: C11_14  and  O4_15 
ROOT
HETATM    1  O1  UNL     1       1.818  54.830 -21.773  1.00  0.00    -0.259 OA
HETATM    2  C1  UNL     1       1.277  53.872 -21.233  1.00  0.00     0.299 A 
HETATM    3  O2  UNL     1       1.370  53.660 -19.867  1.00  0.00    -0.274 OA
HETATM    4  C2  UNL     1       0.760  52.566 -19.218  1.00  0.00     0.093 A 
HETATM    5  C3  UNL     1       0.949  52.495 -17.837  1.00  0.00     0.074 A 
HETATM    6  C4  UNL     1       0.376  51.446 -17.137  1.00  0.00     0.068 A 
HETATM    7  C5  UNL     1      -0.374  50.483 -17.801  1.00  0.00     0.037 A 
HETATM    8  C6  UNL     1      -0.551  50.573 -19.189  1.00  0.00     0.018 A 
HETATM    9  C7  UNL     1       0.016  51.623 -19.933  1.00  0.00     0.009 A 
HETATM   10  C8  UNL     1      -0.124  51.788 -21.385  1.00  0.00    -0.007 A 
HETATM   11  C9  UNL     1      -0.849  50.901 -22.203  1.00  0.00     0.016 A 
HETATM   12  C10 UNL     1      -0.952  51.100 -23.584  1.00  0.00     0.037 A 
HETATM   13  C11 UNL     1      -0.334  52.191 -24.172  1.00  0.00     0.066 A 
HETATM   14  C12 UNL     1       0.390  53.087 -23.402  1.00  0.00     0.055 A 
HETATM   15  C13 UNL     1       0.493  52.885 -22.013  1.00  0.00     0.053 A 
ENDROOT
BRANCH   6  16
HETATM   16  O3  UNL     1       0.572  51.394 -15.790  1.00  0.00    -0.361 OA
HETATM   17  H2  UNL     1       0.116  50.614 -15.434  1.00  0.00     0.217 HD
ENDBRANCH   6  16
BRANCH  13  18
HETATM   18  O4  UNL     1      -0.460  52.346 -25.519  1.00  0.00    -0.361 OA
HETATM   19  H7  UNL     1       0.020  53.146 -25.794  1.00  0.00     0.217 HD
ENDBRANCH  13  18
TORSDOF 2
ENDMDL
MODEL 9
REMARK minimizedAffinity -7.64533758
REMARK  2 active torsions:
REMARK  status: ('A' for Active; 'I' for Inactive)
REMARK    1  A    between atoms: C4_6  and  O3_7 
REMARK    2  A    between atoms: C11_14  and  O4_15 
ROOT
HETATM    1  O1  UNL     1       1.487  54.402 -20.992  1.00  0.00    -0.259 OA
HETATM    2  C1  UNL     1       0.895  53.342 -21.163  1.00  0.00     0.299 A 
HETATM    3  O2  UNL     1       0.619  52.486 -20.109  1.00  0.00    -0.274 OA
HETATM    4  C2  UNL     1      -0.060  51.261 -20.275  1.00  0.00     0.093 A 
HETATM    5  C3  UNL     1      -0.260  50.513 -19.113  1.00  0.00     0.074 A 
HETATM    6  C4  UNL     1      -0.920  49.300 -19.204  1.00  0.00     0.068 A 
HETATM    7  C5  UNL     1      -1.375  48.836 -20.433  1.00  0.00     0.037 A 
HETATM    8  C6  UNL     1      -1.163  49.603 -21.588  1.00  0.00     0.018 A 
HETATM    9  C7  UNL     1      -0.497  50.839 -21.534  1.00  0.00     0.009 A 
HETATM   10  C8  UNL     1      -0.237  51.700 -22.695  1.00  0.00    -0.007 A 
HETATM   11  C9  UNL     1      -0.631  51.375 -24.007  1.00  0.00     0.016 A 
HETATM   12  C10 UNL     1      -0.359  52.228 -25.083  1.00  0.00     0.037 A 
HETATM   13  C11 UNL     1       0.310  53.422 -24.865  1.00  0.00     0.066 A 
HETATM   14  C12 UNL     1       0.715  53.776 -23.589  1.00  0.00     0.055 A 
HETATM   15  C13 UNL     1       0.442  52.917 -22.509  1.00  0.00     0.053 A 
ENDROOT
BRANCH   6  16
HETATM   16  O3  UNL     1      -1.106  48.585 -18.059  1.00  0.00    -0.361 OA
HETATM   17  H2  UNL     1      -1.579  47.764 -18.272  1.00  0.00     0.217 HD
ENDBRANCH   6  16
BRANCH  13  18
HETATM   18  O4  UNL     1       0.553  54.221 -25.941  1.00  0.00    -0.361 OA
HETATM   19  H7  UNL     1       1.026  55.017 -25.644  1.00  0.00     0.217 HD
ENDBRANCH  13  18
TORSDOF 2
ENDMDL
