MODEL 1
REMARK minimizedAffinity -7.71718788
REMARK CNNscore 0.530298412
REMARK CNNaffinity 6.60384417
REMARK  6 active torsions:
REMARK  status: ('A' for Active; 'I' for Inactive)
REMARK    1  A    between atoms: C2_2  and  O2_4 
REMARK    2  A    between atoms: O2_4  and  C3_5 
REMARK    3  A    between atoms: C13_15  and  C14_16 
REMARK    4  A    between atoms: C14_16  and  C16_18 
REMARK    5  A    between atoms: C17_19  and  C18_20 
REMARK    6  A    between atoms: C18_20  and  C20_22 
ROOT
HETATM    1  C3  UNL     1      -0.505  52.257 -21.640  1.00  0.00     0.135 C 
HETATM    2  C4  UNL     1      -1.296  52.308 -22.952  1.00  0.00     0.034 C 
HETATM    3  C5  UNL     1      -2.722  51.784 -22.783  1.00  0.00     0.015 C 
HETATM    4  C6  UNL     1      -2.779  50.352 -22.182  1.00  0.00     0.001 C 
HETATM    5  C7  UNL     1      -2.216  49.363 -23.237  1.00  0.00     0.019 C 
HETATM    6  C8  UNL     1      -4.271  50.011 -21.766  1.00  0.00     0.039 C 
HETATM    7  C9  UNL     1      -5.069  49.131 -22.757  1.00  0.00     0.010 C 
HETATM    8  C10 UNL     1      -6.481  48.777 -22.250  1.00  0.00     0.010 C 
HETATM    9  C11 UNL     1      -6.438  48.119 -20.858  1.00  0.00    -0.033 C 
HETATM   10  C12 UNL     1      -5.772  46.734 -20.970  1.00  0.00     0.016 C 
HETATM   11  C13 UNL     1      -7.816  48.061 -20.129  1.00  0.00     0.001 C 
HETATM   12  C23 UNL     1      -7.428  47.966 -18.628  1.00  0.00     0.006 C 
HETATM   13  C24 UNL     1      -6.011  48.560 -18.507  1.00  0.00     0.009 C 
HETATM   14  C25 UNL     1      -5.716  49.102 -19.905  1.00  0.00     0.036 C 
HETATM   15  C26 UNL     1      -4.282  49.482 -20.289  1.00  0.00     0.123 C 
HETATM   16  C27 UNL     1      -3.199  48.468 -20.017  1.00  0.00     0.014 C 
HETATM   17  C28 UNL     1      -1.963  48.916 -20.278  1.00  0.00     0.014 C 
HETATM   18  C29 UNL     1      -1.938  50.313 -20.859  1.00  0.00     0.124 C 
HETATM   19  C30 UNL     1      -0.516  50.846 -21.036  1.00  0.00     0.079 C 
HETATM   20  O3  UNL     1      -2.604  51.191 -19.910  1.00  0.00    -0.223 OA
HETATM   21  O4  UNL     1      -3.906  50.617 -19.458  1.00  0.00    -0.224 OA
ENDROOT
BRANCH  11  22
HETATM   22  C14 UNL     1      -8.904  47.061 -20.607  1.00  0.00     0.008 C 
HETATM   23  C15 UNL     1      -9.173  47.273 -22.109  1.00  0.00     0.014 C 
BRANCH  22  24
HETATM   24  C16 UNL     1     -10.183  47.038 -19.794  1.00  0.00    -0.026 C 
HETATM   25  C17 UNL     1     -11.126  47.995 -19.730  1.00  0.00    -0.026 C 
BRANCH  25  26
HETATM   26  C18 UNL     1     -12.384  47.877 -18.892  1.00  0.00     0.007 C 
HETATM   27  C19 UNL     1     -12.550  46.425 -18.438  1.00  0.00     0.014 C 
BRANCH  26  28
HETATM   28  C20 UNL     1     -13.617  48.457 -19.641  1.00  0.00    -0.015 C 
HETATM   29  C21 UNL     1     -13.959  47.734 -20.949  1.00  0.00     0.010 C 
HETATM   30  C22 UNL     1     -14.856  48.486 -18.737  1.00  0.00     0.010 C 
ENDBRANCH  26  28
ENDBRANCH  25  26
ENDBRANCH  22  24
ENDBRANCH  11  22
BRANCH   1  31
HETATM   31  O2  UNL     1       0.874  52.599 -21.883  1.00  0.00    -0.316 OA
BRANCH  31  32
HETATM   32  C2  UNL     1       1.327  53.736 -21.287  1.00  0.00     0.255 C 
HETATM   33  C1  UNL     1       1.154  53.636 -19.803  1.00  0.00     0.126 C 
HETATM   34  O1  UNL     1       1.784  54.712 -21.862  1.00  0.00    -0.266 OA
ENDBRANCH  31  32
ENDBRANCH   1  31
TORSDOF 6
ENDMDL
MODEL 2
REMARK minimizedAffinity -7.40815496
REMARK CNNscore 0.488926381
REMARK CNNaffinity 6.60292101
REMARK  6 active torsions:
REMARK  status: ('A' for Active; 'I' for Inactive)
REMARK    1  A    between atoms: C2_2  and  O2_4 
REMARK    2  A    between atoms: O2_4  and  C3_5 
REMARK    3  A    between atoms: C13_15  and  C14_16 
REMARK    4  A    between atoms: C14_16  and  C16_18 
REMARK    5  A    between atoms: C17_19  and  C18_20 
REMARK    6  A    between atoms: C18_20  and  C20_22 
ROOT
HETATM    1  C3  UNL     1     -11.178  47.708 -19.934  1.00  0.00     0.135 C 
HETATM    2  C4  UNL     1     -10.497  48.247 -18.671  1.00  0.00     0.034 C 
HETATM    3  C5  UNL     1      -9.074  48.730 -18.948  1.00  0.00     0.015 C 
HETATM    4  C6  UNL     1      -8.180  47.647 -19.614  1.00  0.00     0.001 C 
HETATM    5  C7  UNL     1      -7.922  46.526 -18.573  1.00  0.00     0.019 C 
HETATM    6  C8  UNL     1      -6.838  48.314 -20.134  1.00  0.00     0.039 C 
HETATM    7  C9  UNL     1      -5.595  48.128 -19.233  1.00  0.00     0.010 C 
HETATM    8  C10 UNL     1      -4.313  48.734 -19.838  1.00  0.00     0.010 C 
HETATM    9  C11 UNL     1      -4.040  48.191 -21.253  1.00  0.00    -0.033 C 
HETATM   10  C12 UNL     1      -3.685  46.695 -21.165  1.00  0.00     0.016 C 
HETATM   11  C13 UNL     1      -2.987  49.006 -22.066  1.00  0.00     0.001 C 
HETATM   12  C23 UNL     1      -3.341  48.686 -23.543  1.00  0.00     0.006 C 
HETATM   13  C24 UNL     1      -4.823  48.262 -23.553  1.00  0.00     0.009 C 
HETATM   14  C25 UNL     1      -5.287  48.503 -22.118  1.00  0.00     0.036 C 
HETATM   15  C26 UNL     1      -6.610  47.904 -21.632  1.00  0.00     0.123 C 
HETATM   16  C27 UNL     1      -6.840  46.434 -21.883  1.00  0.00     0.014 C 
HETATM   17  C28 UNL     1      -8.061  46.012 -21.529  1.00  0.00     0.014 C 
HETATM   18  C29 UNL     1      -8.909  47.087 -20.885  1.00  0.00     0.124 C 
HETATM   19  C30 UNL     1     -10.335  46.614 -20.600  1.00  0.00     0.079 C 
HETATM   20  O3  UNL     1      -9.010  48.186 -21.832  1.00  0.00    -0.223 OA
HETATM   21  O4  UNL     1      -7.673  48.552 -22.387  1.00  0.00    -0.224 OA
ENDROOT
BRANCH  11  22
HETATM   22  C14 UNL     1      -1.480  48.908 -21.699  1.00  0.00     0.008 C 
HETATM   23  C15 UNL     1      -1.336  48.443 -20.238  1.00  0.00     0.014 C 
BRANCH  22  24
HETATM   24  C16 UNL     1      -0.648  50.141 -21.993  1.00  0.00    -0.026 C 
HETATM   25  C17 UNL     1      -1.027  51.426 -21.881  1.00  0.00    -0.026 C 
BRANCH  25  26
HETATM   26  C18 UNL     1      -0.115  52.598 -22.188  1.00  0.00     0.007 C 
HETATM   27  C19 UNL     1       0.541  52.380 -23.554  1.00  0.00     0.014 C 
BRANCH  26  28
HETATM   28  C20 UNL     1       0.890  52.850 -21.030  1.00  0.00    -0.015 C 
HETATM   29  C21 UNL     1       1.633  54.188 -21.118  1.00  0.00     0.010 C 
HETATM   30  C22 UNL     1       0.206  52.738 -19.662  1.00  0.00     0.010 C 
ENDBRANCH  26  28
ENDBRANCH  25  26
ENDBRANCH  22  24
ENDBRANCH  11  22
BRANCH   1  31
HETATM   31  O2  UNL     1     -12.447  47.113 -19.593  1.00  0.00    -0.316 OA
BRANCH  31  32
HETATM   32  C2  UNL     1     -13.555  47.743 -20.069  1.00  0.00     0.255 C 
HETATM   33  C1  UNL     1     -14.575  46.731 -20.492  1.00  0.00     0.126 C 
HETATM   34  O1  UNL     1     -13.704  48.952 -20.168  1.00  0.00    -0.266 OA
ENDBRANCH  31  32
ENDBRANCH   1  31
TORSDOF 6
ENDMDL
MODEL 3
REMARK minimizedAffinity -7.29277229
REMARK CNNscore 0.379306525
REMARK CNNaffinity 6.69131231
REMARK  6 active torsions:
REMARK  status: ('A' for Active; 'I' for Inactive)
REMARK    1  A    between atoms: C2_2  and  O2_4 
REMARK    2  A    between atoms: O2_4  and  C3_5 
REMARK    3  A    between atoms: C13_15  and  C14_16 
REMARK    4  A    between atoms: C14_16  and  C16_18 
REMARK    5  A    between atoms: C17_19  and  C18_20 
REMARK    6  A    between atoms: C18_20  and  C20_22 
ROOT
HETATM    1  C3  UNL     1       2.978  56.831  -7.877  1.00  0.00     0.135 C 
HETATM    2  C4  UNL     1       3.634  56.476  -9.217  1.00  0.00     0.034 C 
HETATM    3  C5  UNL     1       2.630  55.888 -10.208  1.00  0.00     0.015 C 
HETATM    4  C6  UNL     1       1.866  54.657  -9.646  1.00  0.00     0.001 C 
HETATM    5  C7  UNL     1       2.874  53.486  -9.504  1.00  0.00     0.019 C 
HETATM    6  C8  UNL     1       0.654  54.302 -10.605  1.00  0.00     0.039 C 
HETATM    7  C9  UNL     1       0.886  53.131 -11.588  1.00  0.00     0.010 C 
HETATM    8  C10 UNL     1      -0.359  52.794 -12.432  1.00  0.00     0.010 C 
HETATM    9  C11 UNL     1      -1.589  52.519 -11.547  1.00  0.00    -0.033 C 
HETATM   10  C12 UNL     1      -1.366  51.216 -10.755  1.00  0.00     0.016 C 
HETATM   11  C13 UNL     1      -2.949  52.526 -12.311  1.00  0.00     0.001 C 
HETATM   12  C23 UNL     1      -3.986  52.852 -11.202  1.00  0.00     0.006 C 
HETATM   13  C24 UNL     1      -3.214  53.580 -10.085  1.00  0.00     0.009 C 
HETATM   14  C25 UNL     1      -1.815  53.773 -10.666  1.00  0.00     0.036 C 
HETATM   15  C26 UNL     1      -0.654  54.168  -9.748  1.00  0.00     0.123 C 
HETATM   16  C27 UNL     1      -0.456  53.357  -8.491  1.00  0.00     0.014 C 
HETATM   17  C28 UNL     1       0.507  53.832  -7.689  1.00  0.00     0.014 C 
HETATM   18  C29 UNL     1       1.231  55.031  -8.261  1.00  0.00     0.124 C 
HETATM   19  C30 UNL     1       2.241  55.626  -7.279  1.00  0.00     0.079 C 
HETATM   20  O3  UNL     1       0.236  56.059  -8.519  1.00  0.00    -0.223 OA
HETATM   21  O4  UNL     1      -0.942  55.506  -9.251  1.00  0.00    -0.224 OA
ENDROOT
BRANCH  11  22
HETATM   22  C14 UNL     1      -3.317  51.345 -13.250  1.00  0.00     0.008 C 
HETATM   23  C15 UNL     1      -3.530  50.070 -12.413  1.00  0.00     0.014 C 
BRANCH  22  24
HETATM   24  C16 UNL     1      -2.379  51.113 -14.419  1.00  0.00    -0.026 C 
HETATM   25  C17 UNL     1      -2.696  50.640 -15.637  1.00  0.00    -0.026 C 
BRANCH  25  26
HETATM   26  C18 UNL     1      -1.685  50.453 -16.752  1.00  0.00     0.007 C 
HETATM   27  C19 UNL     1      -2.137  49.299 -17.651  1.00  0.00     0.014 C 
BRANCH  26  28
HETATM   28  C20 UNL     1      -0.245  50.297 -16.188  1.00  0.00    -0.015 C 
HETATM   29  C21 UNL     1       0.286  48.859 -16.202  1.00  0.00     0.010 C 
HETATM   30  C22 UNL     1       0.744  51.211 -16.922  1.00  0.00     0.010 C 
ENDBRANCH  26  28
ENDBRANCH  25  26
ENDBRANCH  22  24
ENDBRANCH  11  22
BRANCH   1  31
HETATM   31  O2  UNL     1       3.988  57.221  -6.924  1.00  0.00    -0.316 OA
BRANCH  31  32
HETATM   32  C2  UNL     1       4.831  56.239  -6.504  1.00  0.00     0.255 C 
HETATM   33  C1  UNL     1       6.089  56.265  -7.316  1.00  0.00     0.126 C 
HETATM   34  O1  UNL     1       4.602  55.431  -5.616  1.00  0.00    -0.266 OA
ENDBRANCH  31  32
ENDBRANCH   1  31
TORSDOF 6
ENDMDL
MODEL 4
REMARK minimizedAffinity -8.11232758
REMARK CNNscore 0.366251379
REMARK CNNaffinity 5.92727089
REMARK  6 active torsions:
REMARK  status: ('A' for Active; 'I' for Inactive)
REMARK    1  A    between atoms: C2_2  and  O2_4 
REMARK    2  A    between atoms: O2_4  and  C3_5 
REMARK    3  A    between atoms: C13_15  and  C14_16 
REMARK    4  A    between atoms: C14_16  and  C16_18 
REMARK    5  A    between atoms: C17_19  and  C18_20 
REMARK    6  A    between atoms: C18_20  and  C20_22 
ROOT
HETATM    1  C3  UNL     1       7.694  62.839 -34.191  1.00  0.00     0.135 C 
HETATM    2  C4  UNL     1       6.235  62.452 -33.924  1.00  0.00     0.034 C 
HETATM    3  C5  UNL     1       5.281  63.079 -34.940  1.00  0.00     0.015 C 
HETATM    4  C6  UNL     1       5.414  64.625 -35.030  1.00  0.00     0.001 C 
HETATM    5  C7  UNL     1       4.888  65.234 -33.704  1.00  0.00     0.019 C 
HETATM    6  C8  UNL     1       4.620  65.152 -36.298  1.00  0.00     0.039 C 
HETATM    7  C9  UNL     1       3.221  65.750 -36.023  1.00  0.00     0.010 C 
HETATM    8  C10 UNL     1       2.543  66.312 -37.288  1.00  0.00     0.010 C 
HETATM    9  C11 UNL     1       3.438  67.341 -38.004  1.00  0.00    -0.033 C 
HETATM   10  C12 UNL     1       3.576  68.596 -37.121  1.00  0.00     0.016 C 
HETATM   11  C13 UNL     1       2.992  67.683 -39.459  1.00  0.00     0.001 C 
HETATM   12  C23 UNL     1       4.299  68.187 -40.130  1.00  0.00     0.006 C 
HETATM   13  C24 UNL     1       5.463  67.578 -39.325  1.00  0.00     0.009 C 
HETATM   14  C25 UNL     1       4.778  66.639 -38.334  1.00  0.00     0.036 C 
HETATM   15  C26 UNL     1       5.561  66.086 -37.138  1.00  0.00     0.123 C 
HETATM   16  C27 UNL     1       6.321  67.076 -36.290  1.00  0.00     0.014 C 
HETATM   17  C28 UNL     1       7.067  66.504 -35.334  1.00  0.00     0.014 C 
HETATM   18  C29 UNL     1       6.918  65.000 -35.271  1.00  0.00     0.124 C 
HETATM   19  C30 UNL     1       7.866  64.362 -34.255  1.00  0.00     0.079 C 
HETATM   20  O3  UNL     1       7.280  64.472 -36.577  1.00  0.00    -0.223 OA
HETATM   21  O4  UNL     1       6.602  65.222 -37.675  1.00  0.00    -0.224 OA
ENDROOT
BRANCH  11  22
HETATM   22  C14 UNL     1       1.731  68.559 -39.698  1.00  0.00     0.008 C 
HETATM   23  C15 UNL     1       0.472  67.673 -39.644  1.00  0.00     0.014 C 
BRANCH  22  24
HETATM   24  C16 UNL     1       1.762  69.437 -40.934  1.00  0.00    -0.026 C 
HETATM   25  C17 UNL     1       1.485  69.074 -42.199  1.00  0.00    -0.026 C 
BRANCH  25  26
HETATM   26  C18 UNL     1       1.532  70.031 -43.374  1.00  0.00     0.007 C 
HETATM   27  C19 UNL     1       2.799  70.884 -43.276  1.00  0.00     0.014 C 
BRANCH  26  28
HETATM   28  C20 UNL     1       0.217  70.852 -43.486  1.00  0.00    -0.015 C 
HETATM   29  C21 UNL     1       0.081  71.652 -44.787  1.00  0.00     0.010 C 
HETATM   30  C22 UNL     1      -1.017  69.959 -43.308  1.00  0.00     0.010 C 
ENDBRANCH  26  28
ENDBRANCH  25  26
ENDBRANCH  22  24
ENDBRANCH  11  22
BRANCH   1  31
HETATM   31  O2  UNL     1       8.532  62.366 -33.117  1.00  0.00    -0.316 OA
BRANCH  31  32
HETATM   32  C2  UNL     1       9.828  62.783 -33.136  1.00  0.00     0.255 C 
HETATM   33  C1  UNL     1      10.490  62.329 -34.401  1.00  0.00     0.126 C 
HETATM   34  O1  UNL     1      10.391  63.411 -32.253  1.00  0.00    -0.266 OA
ENDBRANCH  31  32
ENDBRANCH   1  31
TORSDOF 6
ENDMDL
MODEL 5
REMARK minimizedAffinity -7.86599636
REMARK CNNscore 0.336339623
REMARK CNNaffinity 5.80025482
REMARK  6 active torsions:
REMARK  status: ('A' for Active; 'I' for Inactive)
REMARK    1  A    between atoms: C2_2  and  O2_4 
REMARK    2  A    between atoms: O2_4  and  C3_5 
REMARK    3  A    between atoms: C13_15  and  C14_16 
REMARK    4  A    between atoms: C14_16  and  C16_18 
REMARK    5  A    between atoms: C17_19  and  C18_20 
REMARK    6  A    between atoms: C18_20  and  C20_22 
ROOT
HETATM    1  C3  UNL     1       7.657  62.946 -34.338  1.00  0.00     0.135 C 
HETATM    2  C4  UNL     1       6.184  62.601 -34.091  1.00  0.00     0.034 C 
HETATM    3  C5  UNL     1       5.262  63.255 -35.120  1.00  0.00     0.015 C 
HETATM    4  C6  UNL     1       5.441  64.796 -35.206  1.00  0.00     0.001 C 
HETATM    5  C7  UNL     1       4.913  65.419 -33.887  1.00  0.00     0.019 C 
HETATM    6  C8  UNL     1       4.679  65.347 -36.485  1.00  0.00     0.039 C 
HETATM    7  C9  UNL     1       3.293  65.983 -36.228  1.00  0.00     0.010 C 
HETATM    8  C10 UNL     1       2.649  66.565 -37.502  1.00  0.00     0.010 C 
HETATM    9  C11 UNL     1       3.583  67.569 -38.204  1.00  0.00    -0.033 C 
HETATM   10  C12 UNL     1       3.744  68.819 -37.318  1.00  0.00     0.016 C 
HETATM   11  C13 UNL     1       3.167  67.924 -39.665  1.00  0.00     0.001 C 
HETATM   12  C23 UNL     1       4.496  68.392 -40.317  1.00  0.00     0.006 C 
HETATM   13  C24 UNL     1       5.632  67.750 -39.497  1.00  0.00     0.009 C 
HETATM   14  C25 UNL     1       4.907  66.830 -38.516  1.00  0.00     0.036 C 
HETATM   15  C26 UNL     1       5.658  66.254 -37.311  1.00  0.00     0.123 C 
HETATM   16  C27 UNL     1       6.434  67.221 -36.451  1.00  0.00     0.014 C 
HETATM   17  C28 UNL     1       7.149  66.629 -35.486  1.00  0.00     0.014 C 
HETATM   18  C29 UNL     1       6.957  65.129 -35.426  1.00  0.00     0.124 C 
HETATM   19  C30 UNL     1       7.873  64.463 -34.398  1.00  0.00     0.079 C 
HETATM   20  O3  UNL     1       7.323  64.591 -36.727  1.00  0.00    -0.223 OA
HETATM   21  O4  UNL     1       6.681  65.361 -37.834  1.00  0.00    -0.224 OA
ENDROOT
BRANCH  11  22
HETATM   22  C14 UNL     1       1.935  68.836 -39.920  1.00  0.00     0.008 C 
HETATM   23  C15 UNL     1       2.381  70.102 -40.676  1.00  0.00     0.014 C 
BRANCH  22  24
HETATM   24  C16 UNL     1       1.090  69.162 -38.704  1.00  0.00    -0.026 C 
HETATM   25  C17 UNL     1       0.702  70.378 -38.284  1.00  0.00    -0.026 C 
BRANCH  25  26
HETATM   26  C18 UNL     1      -0.157  70.605 -37.055  1.00  0.00     0.007 C 
HETATM   27  C19 UNL     1       0.334  69.697 -35.924  1.00  0.00     0.014 C 
BRANCH  26  28
HETATM   28  C20 UNL     1      -1.668  70.451 -37.386  1.00  0.00    -0.015 C 
HETATM   29  C21 UNL     1      -2.610  70.984 -36.299  1.00  0.00     0.010 C 
HETATM   30  C22 UNL     1      -2.016  71.109 -38.727  1.00  0.00     0.010 C 
ENDBRANCH  26  28
ENDBRANCH  25  26
ENDBRANCH  22  24
ENDBRANCH  11  22
BRANCH   1  31
HETATM   31  O2  UNL     1       8.467  62.449 -33.253  1.00  0.00    -0.316 OA
BRANCH  31  32
HETATM   32  C2  UNL     1       9.768  62.847 -33.241  1.00  0.00     0.255 C 
HETATM   33  C1  UNL     1      10.456  62.378 -34.487  1.00  0.00     0.126 C 
HETATM   34  O1  UNL     1      10.318  63.472 -32.347  1.00  0.00    -0.266 OA
ENDBRANCH  31  32
ENDBRANCH   1  31
TORSDOF 6
ENDMDL
MODEL 6
REMARK minimizedAffinity -7.52020788
REMARK CNNscore 0.319257081
REMARK CNNaffinity 5.98069811
REMARK  6 active torsions:
REMARK  status: ('A' for Active; 'I' for Inactive)
REMARK    1  A    between atoms: C2_2  and  O2_4 
REMARK    2  A    between atoms: O2_4  and  C3_5 
REMARK    3  A    between atoms: C13_15  and  C14_16 
REMARK    4  A    between atoms: C14_16  and  C16_18 
REMARK    5  A    between atoms: C17_19  and  C18_20 
REMARK    6  A    between atoms: C18_20  and  C20_22 
ROOT
HETATM    1  C3  UNL     1       7.093  62.987 -34.516  1.00  0.00     0.135 C 
HETATM    2  C4  UNL     1       5.618  63.023 -34.097  1.00  0.00     0.034 C 
HETATM    3  C5  UNL     1       4.762  63.816 -35.084  1.00  0.00     0.015 C 
HETATM    4  C6  UNL     1       5.283  65.261 -35.321  1.00  0.00     0.001 C 
HETATM    5  C7  UNL     1       5.072  66.072 -34.016  1.00  0.00     0.019 C 
HETATM    6  C8  UNL     1       4.528  65.899 -36.562  1.00  0.00     0.039 C 
HETATM    7  C9  UNL     1       3.368  66.866 -36.227  1.00  0.00     0.010 C 
HETATM    8  C10 UNL     1       2.734  67.506 -37.478  1.00  0.00     0.010 C 
HETATM    9  C11 UNL     1       3.788  68.210 -38.352  1.00  0.00    -0.033 C 
HETATM   10  C12 UNL     1       4.338  69.436 -37.599  1.00  0.00     0.016 C 
HETATM   11  C13 UNL     1       3.300  68.565 -39.791  1.00  0.00     0.001 C 
HETATM   12  C23 UNL     1       4.617  68.658 -40.609  1.00  0.00     0.006 C 
HETATM   13  C24 UNL     1       5.659  67.812 -39.851  1.00  0.00     0.009 C 
HETATM   14  C25 UNL     1       4.858  67.156 -38.727  1.00  0.00     0.036 C 
HETATM   15  C26 UNL     1       5.589  66.492 -37.556  1.00  0.00     0.123 C 
HETATM   16  C27 UNL     1       6.663  67.294 -36.864  1.00  0.00     0.014 C 
HETATM   17  C28 UNL     1       7.328  66.606 -35.925  1.00  0.00     0.014 C 
HETATM   18  C29 UNL     1       6.800  65.204 -35.717  1.00  0.00     0.124 C 
HETATM   19  C30 UNL     1       7.648  64.401 -34.729  1.00  0.00     0.079 C 
HETATM   20  O3  UNL     1       6.876  64.515 -36.995  1.00  0.00    -0.223 OA
HETATM   21  O4  UNL     1       6.308  65.348 -38.097  1.00  0.00    -0.224 OA
ENDROOT
BRANCH  11  22
HETATM   22  C14 UNL     1       2.294  69.729 -40.003  1.00  0.00     0.008 C 
HETATM   23  C15 UNL     1       2.561  70.836 -38.966  1.00  0.00     0.014 C 
BRANCH  22  24
HETATM   24  C16 UNL     1       0.830  69.336 -40.058  1.00  0.00    -0.026 C 
HETATM   25  C17 UNL     1      -0.044  69.582 -41.049  1.00  0.00    -0.026 C 
BRANCH  25  26
HETATM   26  C18 UNL     1      -1.493  69.136 -41.019  1.00  0.00     0.007 C 
HETATM   27  C19 UNL     1      -1.828  68.426 -42.333  1.00  0.00     0.014 C 
BRANCH  26  28
HETATM   28  C20 UNL     1      -2.440  70.318 -40.672  1.00  0.00    -0.015 C 
HETATM   29  C21 UNL     1      -3.877  70.146 -41.179  1.00  0.00     0.010 C 
HETATM   30  C22 UNL     1      -2.463  70.592 -39.164  1.00  0.00     0.010 C 
ENDBRANCH  26  28
ENDBRANCH  25  26
ENDBRANCH  22  24
ENDBRANCH  11  22
BRANCH   1  31
HETATM   31  O2  UNL     1       7.884  62.377 -33.476  1.00  0.00    -0.316 OA
BRANCH  31  32
HETATM   32  C2  UNL     1       8.808  61.463 -33.880  1.00  0.00     0.255 C 
HETATM   33  C1  UNL     1       8.172  60.474 -34.809  1.00  0.00     0.126 C 
HETATM   34  O1  UNL     1       9.977  61.423 -33.530  1.00  0.00    -0.266 OA
ENDBRANCH  31  32
ENDBRANCH   1  31
TORSDOF 6
ENDMDL
MODEL 7
REMARK minimizedAffinity -7.5037303
REMARK CNNscore 0.284365475
REMARK CNNaffinity 6.20881462
REMARK  6 active torsions:
REMARK  status: ('A' for Active; 'I' for Inactive)
REMARK    1  A    between atoms: C2_2  and  O2_4 
REMARK    2  A    between atoms: O2_4  and  C3_5 
REMARK    3  A    between atoms: C13_15  and  C14_16 
REMARK    4  A    between atoms: C14_16  and  C16_18 
REMARK    5  A    between atoms: C17_19  and  C18_20 
REMARK    6  A    between atoms: C18_20  and  C20_22 
ROOT
HETATM    1  C3  UNL     1      -3.383  51.845 -11.403  1.00  0.00     0.135 C 
HETATM    2  C4  UNL     1      -3.968  52.918 -10.476  1.00  0.00     0.034 C 
HETATM    3  C5  UNL     1      -2.947  54.004 -10.140  1.00  0.00     0.015 C 
HETATM    4  C6  UNL     1      -1.631  53.439  -9.537  1.00  0.00     0.001 C 
HETATM    5  C7  UNL     1      -1.949  52.875  -8.127  1.00  0.00     0.019 C 
HETATM    6  C8  UNL     1      -0.532  54.582  -9.500  1.00  0.00     0.039 C 
HETATM    7  C9  UNL     1      -0.319  55.276  -8.135  1.00  0.00     0.010 C 
HETATM    8  C10 UNL     1       0.816  56.319  -8.156  1.00  0.00     0.010 C 
HETATM    9  C11 UNL     1       2.137  55.711  -8.664  1.00  0.00    -0.033 C 
HETATM   10  C12 UNL     1       2.654  54.685  -7.638  1.00  0.00     0.016 C 
HETATM   11  C13 UNL     1       3.223  56.762  -9.054  1.00  0.00     0.001 C 
HETATM   12  C23 UNL     1       4.125  55.995 -10.059  1.00  0.00     0.006 C 
HETATM   13  C24 UNL     1       3.257  54.865 -10.647  1.00  0.00     0.009 C 
HETATM   14  C25 UNL     1       1.867  55.128 -10.073  1.00  0.00     0.036 C 
HETATM   15  C26 UNL     1       0.788  54.043 -10.157  1.00  0.00     0.123 C 
HETATM   16  C27 UNL     1       1.159  52.659  -9.686  1.00  0.00     0.014 C 
HETATM   17  C28 UNL     1       0.201  51.745  -9.893  1.00  0.00     0.014 C 
HETATM   18  C29 UNL     1      -1.067  52.322 -10.483  1.00  0.00     0.124 C 
HETATM   19  C30 UNL     1      -2.098  51.244 -10.820  1.00  0.00     0.079 C 
HETATM   20  O3  UNL     1      -0.709  52.971 -11.734  1.00  0.00    -0.223 OA
HETATM   21  O4  UNL     1       0.482  53.856 -11.568  1.00  0.00    -0.224 OA
ENDROOT
BRANCH  11  22
HETATM   22  C14 UNL     1       3.971  57.552  -7.945  1.00  0.00     0.008 C 
HETATM   23  C15 UNL     1       5.186  56.737  -7.465  1.00  0.00     0.014 C 
BRANCH  22  24
HETATM   24  C16 UNL     1       3.116  58.042  -6.792  1.00  0.00    -0.026 C 
HETATM   25  C17 UNL     1       3.386  57.943  -5.479  1.00  0.00    -0.026 C 
BRANCH  25  26
HETATM   26  C18 UNL     1       2.471  58.476  -4.394  1.00  0.00     0.007 C 
HETATM   27  C19 UNL     1       3.314  59.184  -3.329  1.00  0.00     0.014 C 
BRANCH  26  28
HETATM   28  C20 UNL     1       1.546  57.359  -3.836  1.00  0.00    -0.015 C 
HETATM   29  C21 UNL     1       1.253  57.472  -2.335  1.00  0.00     0.010 C 
HETATM   30  C22 UNL     1       0.223  57.292  -4.608  1.00  0.00     0.010 C 
ENDBRANCH  26  28
ENDBRANCH  25  26
ENDBRANCH  22  24
ENDBRANCH  11  22
BRANCH   1  31
HETATM   31  O2  UNL     1      -4.323  50.761 -11.555  1.00  0.00    -0.316 OA
BRANCH  31  32
HETATM   32  C2  UNL     1      -4.802  50.215 -10.404  1.00  0.00     0.255 C 
HETATM   33  C1  UNL     1      -6.238  49.826 -10.585  1.00  0.00     0.126 C 
HETATM   34  O1  UNL     1      -4.179  50.077  -9.363  1.00  0.00    -0.266 OA
ENDBRANCH  31  32
ENDBRANCH   1  31
TORSDOF 6
ENDMDL
MODEL 8
REMARK minimizedAffinity -8.60712433
REMARK CNNscore 0.279326558
REMARK CNNaffinity 6.91755342
REMARK  6 active torsions:
REMARK  status: ('A' for Active; 'I' for Inactive)
REMARK    1  A    between atoms: C2_2  and  O2_4 
REMARK    2  A    between atoms: O2_4  and  C3_5 
REMARK    3  A    between atoms: C13_15  and  C14_16 
REMARK    4  A    between atoms: C14_16  and  C16_18 
REMARK    5  A    between atoms: C17_19  and  C18_20 
REMARK    6  A    between atoms: C18_20  and  C20_22 
ROOT
HETATM    1  C3  UNL     1      -1.681  50.479 -16.408  1.00  0.00     0.135 C 
HETATM    2  C4  UNL     1      -0.344  50.307 -17.139  1.00  0.00     0.034 C 
HETATM    3  C5  UNL     1      -0.456  50.643 -18.625  1.00  0.00     0.015 C 
HETATM    4  C6  UNL     1      -1.567  49.836 -19.352  1.00  0.00     0.001 C 
HETATM    5  C7  UNL     1      -1.126  48.350 -19.410  1.00  0.00     0.019 C 
HETATM    6  C8  UNL     1      -1.814  50.453 -20.793  1.00  0.00     0.039 C 
HETATM    7  C9  UNL     1      -1.144  49.712 -21.973  1.00  0.00     0.010 C 
HETATM    8  C10 UNL     1      -1.491  50.321 -23.346  1.00  0.00     0.010 C 
HETATM    9  C11 UNL     1      -3.013  50.411 -23.560  1.00  0.00    -0.033 C 
HETATM   10  C12 UNL     1      -3.596  48.990 -23.675  1.00  0.00     0.016 C 
HETATM   11  C13 UNL     1      -3.445  51.329 -24.745  1.00  0.00     0.001 C 
HETATM   12  C23 UNL     1      -4.897  51.739 -24.375  1.00  0.00     0.006 C 
HETATM   13  C24 UNL     1      -5.016  51.588 -22.846  1.00  0.00     0.009 C 
HETATM   14  C25 UNL     1      -3.595  51.250 -22.396  1.00  0.00     0.036 C 
HETATM   15  C26 UNL     1      -3.351  50.705 -20.985  1.00  0.00     0.123 C 
HETATM   16  C27 UNL     1      -4.201  49.542 -20.534  1.00  0.00     0.014 C 
HETATM   17  C28 UNL     1      -4.004  49.196 -19.254  1.00  0.00     0.014 C 
HETATM   18  C29 UNL     1      -2.918  49.999 -18.572  1.00  0.00     0.124 C 
HETATM   19  C30 UNL     1      -2.795  49.668 -17.084  1.00  0.00     0.079 C 
HETATM   20  O3  UNL     1      -3.291  51.402 -18.664  1.00  0.00    -0.223 OA
HETATM   21  O4  UNL     1      -3.699  51.767 -20.052  1.00  0.00    -0.224 OA
ENDROOT
BRANCH  11  22
HETATM   22  C14 UNL     1      -3.231  50.858 -26.209  1.00  0.00     0.008 C 
HETATM   23  C15 UNL     1      -3.476  49.340 -26.301  1.00  0.00     0.014 C 
BRANCH  22  24
HETATM   24  C16 UNL     1      -1.919  51.268 -26.850  1.00  0.00    -0.026 C 
HETATM   25  C17 UNL     1      -1.088  52.247 -26.451  1.00  0.00    -0.026 C 
BRANCH  25  26
HETATM   26  C18 UNL     1       0.215  52.577 -27.152  1.00  0.00     0.007 C 
HETATM   27  C19 UNL     1       0.371  51.669 -28.375  1.00  0.00     0.014 C 
BRANCH  26  28
HETATM   28  C20 UNL     1       1.415  52.529 -26.166  1.00  0.00    -0.015 C 
HETATM   29  C21 UNL     1       1.027  52.686 -24.691  1.00  0.00     0.010 C 
HETATM   30  C22 UNL     1       2.233  51.244 -26.342  1.00  0.00     0.010 C 
ENDBRANCH  26  28
ENDBRANCH  25  26
ENDBRANCH  22  24
ENDBRANCH  11  22
BRANCH   1  31
HETATM   31  O2  UNL     1      -1.568  49.991 -15.056  1.00  0.00    -0.316 OA
BRANCH  31  32
HETATM   32  C2  UNL     1      -1.744  50.911 -14.068  1.00  0.00     0.255 C 
HETATM   33  C1  UNL     1      -2.976  50.585 -13.281  1.00  0.00     0.126 C 
HETATM   34  O1  UNL     1      -1.030  51.879 -13.856  1.00  0.00    -0.266 OA
ENDBRANCH  31  32
ENDBRANCH   1  31
TORSDOF 6
ENDMDL
MODEL 9
REMARK minimizedAffinity -7.24953413
REMARK CNNscore 0.230125859
REMARK CNNaffinity 5.780231
REMARK  6 active torsions:
REMARK  status: ('A' for Active; 'I' for Inactive)
REMARK    1  A    between atoms: C2_2  and  O2_4 
REMARK    2  A    between atoms: O2_4  and  C3_5 
REMARK    3  A    between atoms: C13_15  and  C14_16 
REMARK    4  A    between atoms: C14_16  and  C16_18 
REMARK    5  A    between atoms: C17_19  and  C18_20 
REMARK    6  A    between atoms: C18_20  and  C20_22 
ROOT
HETATM    1  C3  UNL     1      -9.489  45.159 -33.897  1.00  0.00     0.135 C 
HETATM    2  C4  UNL     1      -8.030  45.610 -33.764  1.00  0.00     0.034 C 
HETATM    3  C5  UNL     1      -7.596  45.721 -32.302  1.00  0.00     0.015 C 
HETATM    4  C6  UNL     1      -8.519  46.644 -31.459  1.00  0.00     0.001 C 
HETATM    5  C7  UNL     1      -8.318  48.103 -31.946  1.00  0.00     0.019 C 
HETATM    6  C8  UNL     1      -8.183  46.466 -29.919  1.00  0.00     0.039 C 
HETATM    7  C9  UNL     1      -7.286  47.557 -29.289  1.00  0.00     0.010 C 
HETATM    8  C10 UNL     1      -7.067  47.361 -27.776  1.00  0.00     0.010 C 
HETATM    9  C11 UNL     1      -8.402  47.255 -27.017  1.00  0.00    -0.033 C 
HETATM   10  C12 UNL     1      -9.127  48.613 -27.069  1.00  0.00     0.016 C 
HETATM   11  C13 UNL     1      -8.276  46.704 -25.563  1.00  0.00     0.001 C 
HETATM   12  C23 UNL     1      -9.687  46.125 -25.270  1.00  0.00     0.006 C 
HETATM   13  C24 UNL     1     -10.321  45.812 -26.640  1.00  0.00     0.009 C 
HETATM   14  C25 UNL     1      -9.196  46.080 -27.638  1.00  0.00     0.036 C 
HETATM   15  C26 UNL     1      -9.514  46.199 -29.133  1.00  0.00     0.123 C 
HETATM   16  C27 UNL     1     -10.633  47.129 -29.532  1.00  0.00     0.014 C 
HETATM   17  C28 UNL     1     -10.921  47.093 -30.841  1.00  0.00     0.014 C 
HETATM   18  C29 UNL     1     -10.008  46.186 -31.635  1.00  0.00     0.124 C 
HETATM   19  C30 UNL     1     -10.431  46.070 -33.101  1.00  0.00     0.079 C 
HETATM   20  O3  UNL     1     -10.110  44.854 -31.060  1.00  0.00    -0.223 OA
HETATM   21  O4  UNL     1      -9.980  44.891 -29.573  1.00  0.00    -0.224 OA
ENDROOT
BRANCH  11  22
HETATM   22  C14 UNL     1      -7.670  47.596 -24.445  1.00  0.00     0.008 C 
HETATM   23  C15 UNL     1      -8.270  49.012 -24.536  1.00  0.00     0.014 C 
BRANCH  22  24
HETATM   24  C16 UNL     1      -6.156  47.619 -24.366  1.00  0.00    -0.026 C 
HETATM   25  C17 UNL     1      -5.328  48.554 -24.865  1.00  0.00    -0.026 C 
BRANCH  25  26
HETATM   26  C18 UNL     1      -3.819  48.496 -24.725  1.00  0.00     0.007 C 
HETATM   27  C19 UNL     1      -3.360  49.605 -23.774  1.00  0.00     0.014 C 
BRANCH  26  28
HETATM   28  C20 UNL     1      -3.122  48.518 -26.114  1.00  0.00    -0.015 C 
HETATM   29  C21 UNL     1      -4.088  48.510 -27.305  1.00  0.00     0.010 C 
HETATM   30  C22 UNL     1      -2.168  49.711 -26.242  1.00  0.00     0.010 C 
ENDBRANCH  26  28
ENDBRANCH  25  26
ENDBRANCH  22  24
ENDBRANCH  11  22
BRANCH   1  31
HETATM   31  O2  UNL     1      -9.901  45.231 -35.278  1.00  0.00    -0.316 OA
BRANCH  31  32
HETATM   32  C2  UNL     1      -9.535  46.352 -35.957  1.00  0.00     0.255 C 
HETATM   33  C1  UNL     1      -9.870  46.201 -37.409  1.00  0.00     0.126 C 
HETATM   34  O1  UNL     1      -8.989  47.334 -35.476  1.00  0.00    -0.266 OA
ENDBRANCH  31  32
ENDBRANCH   1  31
TORSDOF 6
ENDMDL
