MODEL 1
REMARK minimizedAffinity -9.04694653
REMARK CNNscore 0.286978722
REMARK CNNaffinity 7.13509798
REMARK  12 active torsions:
REMARK  status: ('A' for Active; 'I' for Inactive)
REMARK    1  A    between atoms: C3_3  and  O1_4 
REMARK    2  A    between atoms: N1_14  and  O2_16 
REMARK    3  A    between atoms: O2_16  and  C13_17 
REMARK    4  A    between atoms: C13_17  and  C14_18 
REMARK       I    between atoms: C14_18  and  N2_20 
REMARK    5  A    between atoms: N2_20  and  C15_21 
REMARK    6  A    between atoms: C15_21  and  C16_22 
REMARK    7  A    between atoms: C15_21  and  C27_38 
REMARK       I    between atoms: C16_22  and  N3_24 
REMARK    8  A    between atoms: N3_24  and  C17_25 
REMARK    9  A    between atoms: C17_25  and  C18_26 
REMARK   10  A    between atoms: C17_25  and  C20_30 
REMARK   11  A    between atoms: C18_26  and  C19_27 
REMARK   12  A    between atoms: C19_27  and  O6_29 
ROOT
HETATM    1  C1  UNL     1      -9.990   6.642  12.994  1.00  0.00     0.015 C 
HETATM    2  C2  UNL     1      -9.039   6.715  13.726  1.00  0.00    -0.078 C 
HETATM    3  C3  UNL     1      -7.886   6.810  14.637  1.00  0.00     0.128 C 
HETATM    4  C4  UNL     1      -7.989   5.809  15.793  1.00  0.00     0.052 C 
HETATM    5  C5  UNL     1      -6.581   5.839  16.377  1.00  0.00     0.010 C 
HETATM    6  C6  UNL     1      -5.679   5.807  15.140  1.00  0.00     0.002 C 
HETATM    7  C7  UNL     1      -4.214   6.267  15.341  1.00  0.00    -0.004 C 
HETATM    8  C8  UNL     1      -3.986   7.481  16.256  1.00  0.00     0.010 C 
HETATM    9  C9  UNL     1      -2.498   7.796  16.423  1.00  0.00     0.035 C 
HETATM   10  C10 UNL     1      -1.734   7.882  15.120  1.00  0.00    -0.069 C 
HETATM   11  C11 UNL     1      -0.854   8.881  14.927  1.00  0.00     0.030 C 
HETATM   12  C12 UNL     1       0.026   8.934  13.723  1.00  0.00     0.032 C 
HETATM   13  N1  UNL     1       0.846   9.893  13.414  1.00  0.00    -0.271 N 
ATOM     14  H1  UNL     1       1.431   9.896  12.577  1.00  0.00     0.194 HD
HETATM   15  C30 UNL     1       0.016   7.729  12.805  1.00  0.00     0.060 C 
HETATM   16  C31 UNL     1      -1.380   7.137  12.714  1.00  0.00     0.020 C 
HETATM   17  C32 UNL     1      -1.983   6.770  14.102  1.00  0.00    -0.016 C 
HETATM   18  C33 UNL     1      -1.263   5.489  14.603  1.00  0.00     0.020 C 
HETATM   19  C34 UNL     1      -3.531   6.486  13.967  1.00  0.00     0.002 C 
HETATM   20  C35 UNL     1      -4.289   7.555  13.136  1.00  0.00     0.007 C 
HETATM   21  C36 UNL     1      -5.770   7.753  13.473  1.00  0.00     0.014 C 
HETATM   22  C37 UNL     1      -6.487   6.494  13.988  1.00  0.00     0.003 C 
HETATM   23  C38 UNL     1      -6.615   5.481  12.816  1.00  0.00     0.020 C 
ENDROOT
BRANCH   3  24
HETATM   24  O1  UNL     1      -7.891   8.118  15.221  1.00  0.00    -0.377 OA
HETATM   25  H2  UNL     1      -8.809   8.314  15.472  1.00  0.00     0.211 HD
ENDBRANCH   3  24
BRANCH  13  26
HETATM   26  O2  UNL     1       0.835  10.925  14.366  1.00  0.00    -0.271 OA
BRANCH  26  27
HETATM   27  C13 UNL     1       2.014  10.838  15.151  1.00  0.00     0.303 C 
BRANCH  27  28
HETATM   28  C14 UNL     1       1.903  11.688  16.417  1.00  0.00     0.244 C 
HETATM   29  O3  UNL     1       2.495  12.751  16.588  1.00  0.00    -0.271 OA
HETATM   30  N2  UNL     1       1.044  11.148  17.360  1.00  0.00    -0.346 N 
HETATM   31  H16 UNL     1       0.906  10.143  17.317  1.00  0.00     0.163 HD
BRANCH  30  32
HETATM   32  C15 UNL     1       0.912  11.731  18.693  1.00  0.00     0.180 C 
BRANCH  32  33
HETATM   33  C16 UNL     1       1.888  10.999  19.642  1.00  0.00     0.241 C 
HETATM   34  O4  UNL     1       2.496   9.985  19.302  1.00  0.00    -0.271 OA
HETATM   35  N3  UNL     1       1.982  11.555  20.901  1.00  0.00    -0.354 N 
HETATM   36  H18 UNL     1       1.402  12.355  21.124  1.00  0.00     0.162 HD
BRANCH  35  37
HETATM   37  C17 UNL     1       2.840  11.009  21.967  1.00  0.00     0.098 C 
BRANCH  37  38
HETATM   38  C18 UNL     1       3.106   9.529  21.643  1.00  0.00     0.135 C 
BRANCH  38  39
HETATM   39  C19 UNL     1       2.407   8.579  22.577  1.00  0.00     0.141 C 
HETATM   40  O5  UNL     1       1.657   7.663  22.292  1.00  0.00    -0.650 OA
BRANCH  39  41
HETATM   41  O6  UNL     1       2.711   8.839  23.866  1.00  0.00    -0.776 OA
HETATM   42  H22 UNL     1       2.232   8.147  24.368  1.00  0.00     0.167 HD
ENDBRANCH  39  41
ENDBRANCH  38  39
ENDBRANCH  37  38
BRANCH  37  43
HETATM   43  C20 UNL     1       4.131  11.879  22.072  1.00  0.00     0.014 C 
HETATM   44  C21 UNL     1       3.884  13.386  22.141  1.00  0.00     0.033 C 
HETATM   45  C22 UNL     1       5.190  14.168  22.277  1.00  0.00     0.169 C 
HETATM   46  O7  UNL     1       6.341  13.430  21.877  1.00  0.00    -0.381 OA
HETATM   47  C23 UNL     1       6.182  12.655  20.685  1.00  0.00     0.054 C 
HETATM   48  C24 UNL     1       5.879  13.552  19.473  1.00  0.00     0.045 C 
HETATM   49  C25 UNL     1       7.538  11.973  20.447  1.00  0.00     0.045 C 
HETATM   50  C26 UNL     1       5.093  11.582  20.898  1.00  0.00     0.044 C 
ENDBRANCH  37  43
ENDBRANCH  35  37
ENDBRANCH  32  33
BRANCH  32  51
HETATM   51  C27 UNL     1      -0.540  11.668  19.219  1.00  0.00     0.009 C 
HETATM   52  C28 UNL     1      -1.440  10.732  18.405  1.00  0.00     0.012 C 
HETATM   53  C29 UNL     1      -1.163  13.068  19.266  1.00  0.00     0.012 C 
ENDBRANCH  32  51
ENDBRANCH  30  32
ENDBRANCH  27  28
ENDBRANCH  26  27
ENDBRANCH  13  26
TORSDOF 12
ENDMDL
MODEL 2
REMARK minimizedAffinity -8.73266792
REMARK CNNscore 0.283022255
REMARK CNNaffinity 6.73641539
REMARK  12 active torsions:
REMARK  status: ('A' for Active; 'I' for Inactive)
REMARK    1  A    between atoms: C3_3  and  O1_4 
REMARK    2  A    between atoms: N1_14  and  O2_16 
REMARK    3  A    between atoms: O2_16  and  C13_17 
REMARK    4  A    between atoms: C13_17  and  C14_18 
REMARK       I    between atoms: C14_18  and  N2_20 
REMARK    5  A    between atoms: N2_20  and  C15_21 
REMARK    6  A    between atoms: C15_21  and  C16_22 
REMARK    7  A    between atoms: C15_21  and  C27_38 
REMARK       I    between atoms: C16_22  and  N3_24 
REMARK    8  A    between atoms: N3_24  and  C17_25 
REMARK    9  A    between atoms: C17_25  and  C18_26 
REMARK   10  A    between atoms: C17_25  and  C20_30 
REMARK   11  A    between atoms: C18_26  and  C19_27 
REMARK   12  A    between atoms: C19_27  and  O6_29 
ROOT
HETATM    1  C1  UNL     1      -7.293   8.337  15.474  1.00  0.00     0.015 C 
HETATM    2  C2  UNL     1      -6.379   7.620  15.167  1.00  0.00    -0.078 C 
HETATM    3  C3  UNL     1      -5.265   6.727  14.803  1.00  0.00     0.128 C 
HETATM    4  C4  UNL     1      -5.757   5.470  14.078  1.00  0.00     0.052 C 
HETATM    5  C5  UNL     1      -4.465   4.896  13.507  1.00  0.00     0.010 C 
HETATM    6  C6  UNL     1      -3.746   6.124  12.943  1.00  0.00     0.002 C 
HETATM    7  C7  UNL     1      -2.226   5.979  12.688  1.00  0.00    -0.004 C 
HETATM    8  C8  UNL     1      -1.416   5.202  13.738  1.00  0.00     0.010 C 
HETATM    9  C9  UNL     1       0.056   5.073  13.341  1.00  0.00     0.035 C 
HETATM   10  C10 UNL     1       0.704   6.380  12.939  1.00  0.00    -0.069 C 
HETATM   11  C11 UNL     1       1.934   6.683  13.392  1.00  0.00     0.030 C 
HETATM   12  C12 UNL     1       2.675   7.888  12.916  1.00  0.00     0.032 C 
HETATM   13  N1  UNL     1       3.827   8.302  13.351  1.00  0.00    -0.271 N 
ATOM     14  H1  UNL     1       4.302   9.135  13.003  1.00  0.00     0.194 HD
HETATM   15  C30 UNL     1       2.062   8.669  11.772  1.00  0.00     0.060 C 
HETATM   16  C31 UNL     1       0.548   8.692  11.890  1.00  0.00     0.020 C 
HETATM   17  C32 UNL     1      -0.083   7.271  11.978  1.00  0.00    -0.016 C 
HETATM   18  C33 UNL     1      -0.009   6.636  10.563  1.00  0.00     0.020 C 
HETATM   19  C34 UNL     1      -1.592   7.370  12.433  1.00  0.00     0.002 C 
HETATM   20  C35 UNL     1      -1.814   8.311  13.648  1.00  0.00     0.007 C 
HETATM   21  C36 UNL     1      -3.018   7.993  14.541  1.00  0.00     0.014 C 
HETATM   22  C37 UNL     1      -4.206   7.342  13.814  1.00  0.00     0.003 C 
HETATM   23  C38 UNL     1      -4.848   8.397  12.869  1.00  0.00     0.020 C 
ENDROOT
BRANCH   3  24
HETATM   24  O1  UNL     1      -4.636   6.289  16.013  1.00  0.00    -0.377 OA
HETATM   25  H2  UNL     1      -5.346   6.059  16.634  1.00  0.00     0.211 HD
ENDBRANCH   3  24
BRANCH  13  26
HETATM   26  O2  UNL     1       4.343   7.467  14.355  1.00  0.00    -0.271 OA
BRANCH  26  27
HETATM   27  C13 UNL     1       4.749   8.269  15.454  1.00  0.00     0.303 C 
BRANCH  27  28
HETATM   28  C14 UNL     1       6.139   8.864  15.224  1.00  0.00     0.244 C 
HETATM   29  O3  UNL     1       6.348   9.916  14.626  1.00  0.00    -0.271 OA
HETATM   30  N2  UNL     1       7.155   8.101  15.777  1.00  0.00    -0.346 N 
HETATM   31  H16 UNL     1       6.955   7.114  15.904  1.00  0.00     0.163 HD
BRANCH  30  32
HETATM   32  C15 UNL     1       8.560   8.420  15.544  1.00  0.00     0.180 C 
BRANCH  32  33
HETATM   33  C16 UNL     1       8.836   9.835  16.101  1.00  0.00     0.241 C 
HETATM   34  O4  UNL     1       9.125  10.782  15.371  1.00  0.00    -0.271 OA
HETATM   35  N3  UNL     1       8.770   9.929  17.476  1.00  0.00    -0.354 N 
HETATM   36  H18 UNL     1       8.587   9.088  18.012  1.00  0.00     0.162 HD
BRANCH  35  37
HETATM   37  C17 UNL     1       9.014  11.178  18.217  1.00  0.00     0.098 C 
BRANCH  37  38
HETATM   38  C18 UNL     1       7.980  11.259  19.353  1.00  0.00     0.135 C 
BRANCH  38  39
HETATM   39  C19 UNL     1       6.655  11.818  18.914  1.00  0.00     0.141 C 
HETATM   40  O5  UNL     1       6.142  12.874  19.236  1.00  0.00    -0.650 OA
BRANCH  39  41
HETATM   41  O6  UNL     1       6.028  10.989  18.053  1.00  0.00    -0.776 OA
HETATM   42  H22 UNL     1       5.206  11.467  17.816  1.00  0.00     0.167 HD
ENDBRANCH  39  41
ENDBRANCH  38  39
ENDBRANCH  37  38
BRANCH  37  43
HETATM   43  C20 UNL     1      10.496  11.196  18.704  1.00  0.00     0.014 C 
HETATM   44  C21 UNL     1      10.724  11.905  20.039  1.00  0.00     0.033 C 
HETATM   45  C22 UNL     1      12.190  11.852  20.466  1.00  0.00     0.169 C 
HETATM   46  O7  UNL     1      13.086  11.575  19.394  1.00  0.00    -0.381 OA
HETATM   47  C23 UNL     1      12.802  12.260  18.171  1.00  0.00     0.054 C 
HETATM   48  C24 UNL     1      12.901  13.784  18.351  1.00  0.00     0.045 C 
HETATM   49  C25 UNL     1      13.895  11.824  17.185  1.00  0.00     0.045 C 
HETATM   50  C26 UNL     1      11.420  11.829  17.636  1.00  0.00     0.044 C 
ENDBRANCH  37  43
ENDBRANCH  35  37
ENDBRANCH  32  33
BRANCH  32  51
HETATM   51  C27 UNL     1       8.944   8.317  14.049  1.00  0.00     0.009 C 
HETATM   52  C28 UNL     1       8.050   7.356  13.259  1.00  0.00     0.012 C 
HETATM   53  C29 UNL     1      10.412   7.902  13.892  1.00  0.00     0.012 C 
ENDBRANCH  32  51
ENDBRANCH  30  32
ENDBRANCH  27  28
ENDBRANCH  26  27
ENDBRANCH  13  26
TORSDOF 12
ENDMDL
MODEL 3
REMARK minimizedAffinity -8.03172302
REMARK CNNscore 0.270463824
REMARK CNNaffinity 5.94232607
REMARK  12 active torsions:
REMARK  status: ('A' for Active; 'I' for Inactive)
REMARK    1  A    between atoms: C3_3  and  O1_4 
REMARK    2  A    between atoms: N1_14  and  O2_16 
REMARK    3  A    between atoms: O2_16  and  C13_17 
REMARK    4  A    between atoms: C13_17  and  C14_18 
REMARK       I    between atoms: C14_18  and  N2_20 
REMARK    5  A    between atoms: N2_20  and  C15_21 
REMARK    6  A    between atoms: C15_21  and  C16_22 
REMARK    7  A    between atoms: C15_21  and  C27_38 
REMARK       I    between atoms: C16_22  and  N3_24 
REMARK    8  A    between atoms: N3_24  and  C17_25 
REMARK    9  A    between atoms: C17_25  and  C18_26 
REMARK   10  A    between atoms: C17_25  and  C20_30 
REMARK   11  A    between atoms: C18_26  and  C19_27 
REMARK   12  A    between atoms: C19_27  and  O6_29 
ROOT
HETATM    1  C1  UNL     1      -2.243  11.237  28.315  1.00  0.00     0.015 C 
HETATM    2  C2  UNL     1      -1.753  12.315  28.103  1.00  0.00    -0.078 C 
HETATM    3  C3  UNL     1      -1.166  13.637  27.828  1.00  0.00     0.128 C 
HETATM    4  C4  UNL     1      -2.186  14.764  28.016  1.00  0.00     0.052 C 
HETATM    5  C5  UNL     1      -1.304  16.006  28.028  1.00  0.00     0.010 C 
HETATM    6  C6  UNL     1      -0.127  15.601  28.921  1.00  0.00     0.002 C 
HETATM    7  C7  UNL     1       1.160  16.451  28.796  1.00  0.00    -0.004 C 
HETATM    8  C8  UNL     1       1.567  16.894  27.381  1.00  0.00     0.010 C 
HETATM    9  C9  UNL     1       2.816  17.779  27.398  1.00  0.00     0.035 C 
HETATM   10  C10 UNL     1       3.967  17.207  28.196  1.00  0.00    -0.069 C 
HETATM   11  C11 UNL     1       5.215  17.255  27.695  1.00  0.00     0.030 C 
HETATM   12  C12 UNL     1       6.402  16.835  28.497  1.00  0.00     0.032 C 
HETATM   13  N1  UNL     1       7.630  16.773  28.075  1.00  0.00    -0.271 N 
ATOM     14  H1  UNL     1       8.417  16.477  28.653  1.00  0.00     0.194 HD
HETATM   15  C30 UNL     1       6.171  16.513  29.959  1.00  0.00     0.060 C 
HETATM   16  C31 UNL     1       4.830  15.825  30.150  1.00  0.00     0.020 C 
HETATM   17  C32 UNL     1       3.635  16.642  29.577  1.00  0.00    -0.016 C 
HETATM   18  C33 UNL     1       3.378  17.836  30.536  1.00  0.00     0.020 C 
HETATM   19  C34 UNL     1       2.342  15.738  29.502  1.00  0.00     0.002 C 
HETATM   20  C35 UNL     1       2.596  14.339  28.880  1.00  0.00     0.007 C 
HETATM   21  C36 UNL     1       1.402  13.680  28.182  1.00  0.00     0.014 C 
HETATM   22  C37 UNL     1       0.029  14.050  28.766  1.00  0.00     0.003 C 
HETATM   23  C38 UNL     1      -0.101  13.409  30.176  1.00  0.00     0.020 C 
ENDROOT
BRANCH   3  24
HETATM   24  O1  UNL     1      -0.765  13.666  26.453  1.00  0.00    -0.377 OA
HETATM   25  H2  UNL     1      -1.486  13.265  25.939  1.00  0.00     0.211 HD
ENDBRANCH   3  24
BRANCH  13  26
HETATM   26  O2  UNL     1       7.746  17.163  26.731  1.00  0.00    -0.271 OA
BRANCH  26  27
HETATM   27  C13 UNL     1       8.745  16.371  26.108  1.00  0.00     0.303 C 
BRANCH  27  28
HETATM   28  C14 UNL     1       8.725  16.543  24.589  1.00  0.00     0.244 C 
HETATM   29  O3  UNL     1       9.732  16.652  23.894  1.00  0.00    -0.271 OA
HETATM   30  N2  UNL     1       7.445  16.547  24.059  1.00  0.00    -0.346 N 
HETATM   31  H16 UNL     1       6.701  16.829  24.690  1.00  0.00     0.163 HD
BRANCH  30  32
HETATM   32  C15 UNL     1       7.204  16.845  22.650  1.00  0.00     0.180 C 
BRANCH  32  33
HETATM   33  C16 UNL     1       7.116  15.508  21.880  1.00  0.00     0.241 C 
HETATM   34  O4  UNL     1       7.358  15.428  20.677  1.00  0.00    -0.271 OA
HETATM   35  N3  UNL     1       6.706  14.435  22.646  1.00  0.00    -0.354 N 
HETATM   36  H18 UNL     1       6.466  14.595  23.617  1.00  0.00     0.162 HD
BRANCH  35  37
HETATM   37  C17 UNL     1       6.539  13.073  22.111  1.00  0.00     0.098 C 
BRANCH  37  38
HETATM   38  C18 UNL     1       7.315  12.111  23.027  1.00  0.00     0.135 C 
BRANCH  38  39
HETATM   39  C19 UNL     1       8.795  12.380  23.058  1.00  0.00     0.141 C 
HETATM   40  O5  UNL     1       9.409  13.108  23.815  1.00  0.00    -0.650 OA
BRANCH  39  41
HETATM   41  O6  UNL     1       9.444  11.682  22.102  1.00  0.00    -0.776 OA
HETATM   42  H22 UNL     1      10.388  11.910  22.240  1.00  0.00     0.167 HD
ENDBRANCH  39  41
ENDBRANCH  38  39
ENDBRANCH  37  38
BRANCH  37  43
HETATM   43  C20 UNL     1       5.016  12.756  22.000  1.00  0.00     0.014 C 
HETATM   44  C21 UNL     1       4.148  13.396  23.084  1.00  0.00     0.033 C 
HETATM   45  C22 UNL     1       2.668  13.069  22.891  1.00  0.00     0.169 C 
HETATM   46  O7  UNL     1       2.438  11.932  22.065  1.00  0.00    -0.381 OA
HETATM   47  C23 UNL     1       3.311  10.823  22.300  1.00  0.00     0.054 C 
HETATM   48  C24 UNL     1       3.149  10.279  23.729  1.00  0.00     0.045 C 
HETATM   49  C25 UNL     1       2.867   9.727  21.319  1.00  0.00     0.045 C 
HETATM   50  C26 UNL     1       4.769  11.229  21.996  1.00  0.00     0.044 C 
ENDBRANCH  37  43
ENDBRANCH  35  37
ENDBRANCH  32  33
BRANCH  32  51
HETATM   51  C27 UNL     1       8.288  17.771  22.053  1.00  0.00     0.009 C 
HETATM   52  C28 UNL     1       7.822  19.220  21.883  1.00  0.00     0.012 C 
HETATM   53  C29 UNL     1       8.787  17.229  20.709  1.00  0.00     0.012 C 
ENDBRANCH  32  51
ENDBRANCH  30  32
ENDBRANCH  27  28
ENDBRANCH  26  27
ENDBRANCH  13  26
TORSDOF 12
ENDMDL
MODEL 4
REMARK minimizedAffinity -8.19061661
REMARK CNNscore 0.217081726
REMARK CNNaffinity 6.55265093
REMARK  12 active torsions:
REMARK  status: ('A' for Active; 'I' for Inactive)
REMARK    1  A    between atoms: C3_3  and  O1_4 
REMARK    2  A    between atoms: N1_14  and  O2_16 
REMARK    3  A    between atoms: O2_16  and  C13_17 
REMARK    4  A    between atoms: C13_17  and  C14_18 
REMARK       I    between atoms: C14_18  and  N2_20 
REMARK    5  A    between atoms: N2_20  and  C15_21 
REMARK    6  A    between atoms: C15_21  and  C16_22 
REMARK    7  A    between atoms: C15_21  and  C27_38 
REMARK       I    between atoms: C16_22  and  N3_24 
REMARK    8  A    between atoms: N3_24  and  C17_25 
REMARK    9  A    between atoms: C17_25  and  C18_26 
REMARK   10  A    between atoms: C17_25  and  C20_30 
REMARK   11  A    between atoms: C18_26  and  C19_27 
REMARK   12  A    between atoms: C19_27  and  O6_29 
ROOT
HETATM    1  C1  UNL     1       4.912   5.136   9.948  1.00  0.00     0.015 C 
HETATM    2  C2  UNL     1       3.948   5.847  10.053  1.00  0.00    -0.078 C 
HETATM    3  C3  UNL     1       2.775   6.730  10.170  1.00  0.00     0.128 C 
HETATM    4  C4  UNL     1       2.091   6.952   8.817  1.00  0.00     0.052 C 
HETATM    5  C5  UNL     1       0.759   7.574   9.222  1.00  0.00     0.010 C 
HETATM    6  C6  UNL     1       0.310   6.718  10.410  1.00  0.00     0.002 C 
HETATM    7  C7  UNL     1      -0.768   7.331  11.336  1.00  0.00    -0.004 C 
HETATM    8  C8  UNL     1      -0.642   8.831  11.652  1.00  0.00     0.010 C 
HETATM    9  C9  UNL     1      -1.798   9.329  12.521  1.00  0.00     0.035 C 
HETATM   10  C10 UNL     1      -2.058   8.483  13.748  1.00  0.00    -0.069 C 
HETATM   11  C11 UNL     1      -2.287   9.078  14.932  1.00  0.00     0.030 C 
HETATM   12  C12 UNL     1      -2.687   8.299  16.141  1.00  0.00     0.032 C 
HETATM   13  N1  UNL     1      -2.855   8.773  17.339  1.00  0.00    -0.271 N 
ATOM     14  H1  UNL     1      -3.125   8.207  18.144  1.00  0.00     0.194 HD
HETATM   15  C30 UNL     1      -2.994   6.828  15.946  1.00  0.00     0.060 C 
HETATM   16  C31 UNL     1      -2.063   6.220  14.911  1.00  0.00     0.020 C 
HETATM   17  C32 UNL     1      -2.092   6.968  13.545  1.00  0.00    -0.016 C 
HETATM   18  C33 UNL     1      -3.427   6.608  12.840  1.00  0.00     0.020 C 
HETATM   19  C34 UNL     1      -0.879   6.509  12.644  1.00  0.00     0.002 C 
HETATM   20  C35 UNL     1       0.478   6.478  13.397  1.00  0.00     0.007 C 
HETATM   21  C36 UNL     1       1.732   6.693  12.544  1.00  0.00     0.014 C 
HETATM   22  C37 UNL     1       1.618   6.193  11.094  1.00  0.00     0.003 C 
HETATM   23  C38 UNL     1       1.568   4.640  11.106  1.00  0.00     0.020 C 
ENDROOT
BRANCH   3  24
HETATM   24  O1  UNL     1       3.230   8.012  10.619  1.00  0.00    -0.377 OA
HETATM   25  H2  UNL     1       4.030   8.223  10.110  1.00  0.00     0.211 HD
ENDBRANCH   3  24
BRANCH  13  26
HETATM   26  O2  UNL     1      -2.620  10.156  17.396  1.00  0.00    -0.271 OA
BRANCH  26  27
HETATM   27  C13 UNL     1      -1.615  10.411  18.366  1.00  0.00     0.303 C 
BRANCH  27  28
HETATM   28  C14 UNL     1      -0.740  11.599  17.961  1.00  0.00     0.244 C 
HETATM   29  O3  UNL     1      -0.606  11.993  16.805  1.00  0.00    -0.271 OA
HETATM   30  N2  UNL     1      -0.118  12.207  19.038  1.00  0.00    -0.346 N 
HETATM   31  H16 UNL     1       0.028  11.626  19.858  1.00  0.00     0.163 HD
BRANCH  30  32
HETATM   32  C15 UNL     1       0.871  13.265  18.849  1.00  0.00     0.180 C 
BRANCH  32  33
HETATM   33  C16 UNL     1       1.998  13.068  19.888  1.00  0.00     0.241 C 
HETATM   34  O4  UNL     1       2.955  13.836  19.970  1.00  0.00    -0.271 OA
HETATM   35  N3  UNL     1       1.855  11.944  20.677  1.00  0.00    -0.354 N 
HETATM   36  H18 UNL     1       1.070  11.327  20.506  1.00  0.00     0.162 HD
BRANCH  35  37
HETATM   37  C17 UNL     1       2.821  11.557  21.719  1.00  0.00     0.098 C 
BRANCH  37  38
HETATM   38  C18 UNL     1       2.835  10.020  21.797  1.00  0.00     0.135 C 
BRANCH  38  39
HETATM   39  C19 UNL     1       2.899   9.495  23.204  1.00  0.00     0.141 C 
HETATM   40  O5  UNL     1       3.083  10.122  24.232  1.00  0.00    -0.650 OA
BRANCH  39  41
HETATM   41  O6  UNL     1       2.712   8.159  23.243  1.00  0.00    -0.776 OA
HETATM   42  H22 UNL     1       2.741   7.941  24.198  1.00  0.00     0.167 HD
ENDBRANCH  39  41
ENDBRANCH  38  39
ENDBRANCH  37  38
BRANCH  37  43
HETATM   43  C20 UNL     1       4.207  12.189  21.385  1.00  0.00     0.014 C 
HETATM   44  C21 UNL     1       5.179  11.258  20.660  1.00  0.00     0.033 C 
HETATM   45  C22 UNL     1       6.499  11.957  20.338  1.00  0.00     0.169 C 
HETATM   46  O7  UNL     1       6.736  13.120  21.125  1.00  0.00    -0.381 OA
HETATM   47  C23 UNL     1       6.402  12.995  22.510  1.00  0.00     0.054 C 
HETATM   48  C24 UNL     1       7.251  11.909  23.192  1.00  0.00     0.045 C 
HETATM   49  C25 UNL     1       6.755  14.347  23.148  1.00  0.00     0.045 C 
HETATM   50  C26 UNL     1       4.889  12.730  22.664  1.00  0.00     0.044 C 
ENDBRANCH  37  43
ENDBRANCH  35  37
ENDBRANCH  32  33
BRANCH  32  51
HETATM   51  C27 UNL     1       0.248  14.676  18.952  1.00  0.00     0.009 C 
HETATM   52  C28 UNL     1       1.111  15.769  18.315  1.00  0.00     0.012 C 
HETATM   53  C29 UNL     1      -0.044  15.036  20.413  1.00  0.00     0.012 C 
ENDBRANCH  32  51
ENDBRANCH  30  32
ENDBRANCH  27  28
ENDBRANCH  26  27
ENDBRANCH  13  26
TORSDOF 12
ENDMDL
MODEL 5
REMARK minimizedAffinity -8.97911644
REMARK CNNscore 0.193503082
REMARK CNNaffinity 6.11031342
REMARK  12 active torsions:
REMARK  status: ('A' for Active; 'I' for Inactive)
REMARK    1  A    between atoms: C3_3  and  O1_4 
REMARK    2  A    between atoms: N1_14  and  O2_16 
REMARK    3  A    between atoms: O2_16  and  C13_17 
REMARK    4  A    between atoms: C13_17  and  C14_18 
REMARK       I    between atoms: C14_18  and  N2_20 
REMARK    5  A    between atoms: N2_20  and  C15_21 
REMARK    6  A    between atoms: C15_21  and  C16_22 
REMARK    7  A    between atoms: C15_21  and  C27_38 
REMARK       I    between atoms: C16_22  and  N3_24 
REMARK    8  A    between atoms: N3_24  and  C17_25 
REMARK    9  A    between atoms: C17_25  and  C18_26 
REMARK   10  A    between atoms: C17_25  and  C20_30 
REMARK   11  A    between atoms: C18_26  and  C19_27 
REMARK   12  A    between atoms: C19_27  and  O6_29 
ROOT
HETATM    1  C1  UNL     1      -8.104   7.085  14.646  1.00  0.00     0.015 C 
HETATM    2  C2  UNL     1      -6.945   6.766  14.662  1.00  0.00    -0.078 C 
HETATM    3  C3  UNL     1      -5.531   6.357  14.689  1.00  0.00     0.128 C 
HETATM    4  C4  UNL     1      -5.259   5.183  13.743  1.00  0.00     0.052 C 
HETATM    5  C5  UNL     1      -3.737   5.167  13.670  1.00  0.00     0.010 C 
HETATM    6  C6  UNL     1      -3.370   6.646  13.515  1.00  0.00     0.002 C 
HETATM    7  C7  UNL     1      -1.910   7.035  13.851  1.00  0.00    -0.004 C 
HETATM    8  C8  UNL     1      -1.272   6.353  15.073  1.00  0.00     0.010 C 
HETATM    9  C9  UNL     1       0.187   6.772  15.262  1.00  0.00     0.035 C 
HETATM   10  C10 UNL     1       0.409   8.269  15.233  1.00  0.00    -0.069 C 
HETATM   11  C11 UNL     1       1.217   8.841  16.144  1.00  0.00     0.030 C 
HETATM   12  C12 UNL     1       1.581  10.287  16.076  1.00  0.00     0.032 C 
HETATM   13  N1  UNL     1       2.288  10.942  16.947  1.00  0.00    -0.271 N 
ATOM     14  H1  UNL     1       2.514  11.934  16.869  1.00  0.00     0.194 HD
HETATM   15  C30 UNL     1       1.145  11.053  14.844  1.00  0.00     0.060 C 
HETATM   16  C31 UNL     1      -0.220  10.579  14.374  1.00  0.00     0.020 C 
HETATM   17  C32 UNL     1      -0.280   9.045  14.111  1.00  0.00    -0.016 C 
HETATM   18  C33 UNL     1       0.487   8.764  12.791  1.00  0.00     0.020 C 
HETATM   19  C34 UNL     1      -1.780   8.576  13.960  1.00  0.00     0.002 C 
HETATM   20  C35 UNL     1      -2.720   9.135  15.061  1.00  0.00     0.007 C 
HETATM   21  C36 UNL     1      -3.949   8.285  15.400  1.00  0.00     0.014 C 
HETATM   22  C37 UNL     1      -4.504   7.458  14.228  1.00  0.00     0.003 C 
HETATM   23  C38 UNL     1      -5.131   8.428  13.188  1.00  0.00     0.020 C 
ENDROOT
BRANCH   3  24
HETATM   24  O1  UNL     1      -5.227   5.901  16.013  1.00  0.00    -0.377 OA
HETATM   25  H2  UNL     1      -5.968   5.341  16.297  1.00  0.00     0.211 HD
ENDBRANCH   3  24
BRANCH  13  26
HETATM   26  O2  UNL     1       2.705  10.125  18.010  1.00  0.00    -0.271 OA
BRANCH  26  27
HETATM   27  C13 UNL     1       1.987  10.489  19.179  1.00  0.00     0.303 C 
BRANCH  27  28
HETATM   28  C14 UNL     1       2.910  10.567  20.396  1.00  0.00     0.244 C 
HETATM   29  O3  UNL     1       4.112  10.317  20.367  1.00  0.00    -0.271 OA
HETATM   30  N2  UNL     1       2.255  10.968  21.549  1.00  0.00    -0.346 N 
HETATM   31  H16 UNL     1       1.256  10.789  21.582  1.00  0.00     0.163 HD
BRANCH  30  32
HETATM   32  C15 UNL     1       2.925  10.965  22.846  1.00  0.00     0.180 C 
BRANCH  32  33
HETATM   33  C16 UNL     1       4.312  11.627  22.678  1.00  0.00     0.241 C 
HETATM   34  O4  UNL     1       5.351  11.068  23.026  1.00  0.00    -0.271 OA
HETATM   35  N3  UNL     1       4.274  12.901  22.148  1.00  0.00    -0.354 N 
HETATM   36  H18 UNL     1       3.373  13.316  21.944  1.00  0.00     0.162 HD
BRANCH  35  37
HETATM   37  C17 UNL     1       5.477  13.719  21.918  1.00  0.00     0.098 C 
BRANCH  37  38
HETATM   38  C18 UNL     1       5.473  14.859  22.951  1.00  0.00     0.135 C 
BRANCH  38  39
HETATM   39  C19 UNL     1       5.857  16.192  22.370  1.00  0.00     0.141 C 
HETATM   40  O5  UNL     1       5.999  16.487  21.198  1.00  0.00    -0.650 OA
BRANCH  39  41
HETATM   41  O6  UNL     1       6.039  17.119  23.335  1.00  0.00    -0.776 OA
HETATM   42  H22 UNL     1       6.249  17.939  22.842  1.00  0.00     0.167 HD
ENDBRANCH  39  41
ENDBRANCH  38  39
ENDBRANCH  37  38
BRANCH  37  43
HETATM   43  C20 UNL     1       6.735  12.800  21.990  1.00  0.00     0.014 C 
HETATM   44  C21 UNL     1       7.713  13.139  23.116  1.00  0.00     0.033 C 
HETATM   45  C22 UNL     1       8.900  12.177  23.144  1.00  0.00     0.169 C 
HETATM   46  O7  UNL     1       9.097  11.479  21.918  1.00  0.00    -0.381 OA
HETATM   47  C23 UNL     1       8.944  12.271  20.736  1.00  0.00     0.054 C 
HETATM   48  C24 UNL     1       9.983  13.404  20.687  1.00  0.00     0.045 C 
HETATM   49  C25 UNL     1       9.218  11.322  19.560  1.00  0.00     0.045 C 
HETATM   50  C26 UNL     1       7.500  12.805  20.645  1.00  0.00     0.044 C 
ENDBRANCH  37  43
ENDBRANCH  35  37
ENDBRANCH  32  33
BRANCH  32  51
HETATM   51  C27 UNL     1       3.046   9.543  23.440  1.00  0.00     0.009 C 
HETATM   52  C28 UNL     1       2.311   8.479  22.619  1.00  0.00     0.012 C 
HETATM   53  C29 UNL     1       2.545   9.513  24.888  1.00  0.00     0.012 C 
ENDBRANCH  32  51
ENDBRANCH  30  32
ENDBRANCH  27  28
ENDBRANCH  26  27
ENDBRANCH  13  26
TORSDOF 12
ENDMDL
MODEL 6
REMARK minimizedAffinity -7.75001812
REMARK CNNscore 0.186859757
REMARK CNNaffinity 6.86302423
REMARK  12 active torsions:
REMARK  status: ('A' for Active; 'I' for Inactive)
REMARK    1  A    between atoms: C3_3  and  O1_4 
REMARK    2  A    between atoms: N1_14  and  O2_16 
REMARK    3  A    between atoms: O2_16  and  C13_17 
REMARK    4  A    between atoms: C13_17  and  C14_18 
REMARK       I    between atoms: C14_18  and  N2_20 
REMARK    5  A    between atoms: N2_20  and  C15_21 
REMARK    6  A    between atoms: C15_21  and  C16_22 
REMARK    7  A    between atoms: C15_21  and  C27_38 
REMARK       I    between atoms: C16_22  and  N3_24 
REMARK    8  A    between atoms: N3_24  and  C17_25 
REMARK    9  A    between atoms: C17_25  and  C18_26 
REMARK   10  A    between atoms: C17_25  and  C20_30 
REMARK   11  A    between atoms: C18_26  and  C19_27 
REMARK   12  A    between atoms: C19_27  and  O6_29 
ROOT
HETATM    1  C1  UNL     1      -9.378   7.008  15.696  1.00  0.00     0.015 C 
HETATM    2  C2  UNL     1      -8.313   6.531  15.407  1.00  0.00    -0.078 C 
HETATM    3  C3  UNL     1      -7.015   5.929  15.059  1.00  0.00     0.128 C 
HETATM    4  C4  UNL     1      -7.158   4.845  13.986  1.00  0.00     0.052 C 
HETATM    5  C5  UNL     1      -5.715   4.626  13.547  1.00  0.00     0.010 C 
HETATM    6  C6  UNL     1      -5.158   6.047  13.425  1.00  0.00     0.002 C 
HETATM    7  C7  UNL     1      -3.617   6.189  13.429  1.00  0.00    -0.004 C 
HETATM    8  C8  UNL     1      -2.838   5.290  14.403  1.00  0.00     0.010 C 
HETATM    9  C9  UNL     1      -1.326   5.477  14.267  1.00  0.00     0.035 C 
HETATM   10  C10 UNL     1      -0.877   6.922  14.303  1.00  0.00    -0.069 C 
HETATM   11  C11 UNL     1       0.198   7.268  15.034  1.00  0.00     0.030 C 
HETATM   12  C12 UNL     1       0.767   8.647  14.994  1.00  0.00     0.032 C 
HETATM   13  N1  UNL     1       1.749   9.094  15.718  1.00  0.00    -0.271 N 
ATOM     14  H1  UNL     1       2.109  10.047  15.666  1.00  0.00     0.194 HD
HETATM   15  C30 UNL     1       0.193   9.603  13.968  1.00  0.00     0.060 C 
HETATM   16  C31 UNL     1      -1.301   9.380  13.806  1.00  0.00     0.020 C 
HETATM   17  C32 UNL     1      -1.666   7.910  13.445  1.00  0.00    -0.016 C 
HETATM   18  C33 UNL     1      -1.275   7.678  11.961  1.00  0.00     0.020 C 
HETATM   19  C34 UNL     1      -3.218   7.674  13.624  1.00  0.00     0.002 C 
HETATM   20  C35 UNL     1      -3.781   8.228  14.960  1.00  0.00     0.007 C 
HETATM   21  C36 UNL     1      -5.023   7.524  15.517  1.00  0.00     0.014 C 
HETATM   22  C37 UNL     1      -5.954   6.922  14.452  1.00  0.00     0.003 C 
HETATM   23  C38 UNL     1      -6.635   8.082  13.674  1.00  0.00     0.020 C 
ENDROOT
BRANCH   3  24
HETATM   24  O1  UNL     1      -6.497   5.287  16.230  1.00  0.00    -0.377 OA
HETATM   25  H2  UNL     1      -7.236   4.806  16.640  1.00  0.00     0.211 HD
ENDBRANCH   3  24
BRANCH  13  26
HETATM   26  O2  UNL     1       2.258   8.110  16.581  1.00  0.00    -0.271 OA
BRANCH  26  27
HETATM   27  C13 UNL     1       3.197   7.317  15.871  1.00  0.00     0.303 C 
BRANCH  27  28
HETATM   28  C14 UNL     1       4.285   8.182  15.233  1.00  0.00     0.244 C 
HETATM   29  O3  UNL     1       4.726   9.215  15.733  1.00  0.00    -0.271 OA
HETATM   30  N2  UNL     1       4.747   7.675  14.030  1.00  0.00    -0.346 N 
HETATM   31  H16 UNL     1       4.106   7.074  13.522  1.00  0.00     0.163 HD
BRANCH  30  32
HETATM   32  C15 UNL     1       5.680   8.426  13.194  1.00  0.00     0.180 C 
BRANCH  32  33
HETATM   33  C16 UNL     1       6.669   9.171  14.119  1.00  0.00     0.241 C 
HETATM   34  O4  UNL     1       6.840  10.387  14.052  1.00  0.00    -0.271 OA
HETATM   35  N3  UNL     1       7.364   8.352  14.987  1.00  0.00    -0.354 N 
HETATM   36  H18 UNL     1       7.212   7.351  14.938  1.00  0.00     0.162 HD
BRANCH  35  37
HETATM   37  C17 UNL     1       8.368   8.850  15.943  1.00  0.00     0.098 C 
BRANCH  37  38
HETATM   38  C18 UNL     1       9.750   8.724  15.280  1.00  0.00     0.135 C 
BRANCH  38  39
HETATM   39  C19 UNL     1       9.680   8.435  13.806  1.00  0.00     0.141 C 
HETATM   40  O5  UNL     1       9.590   7.352  13.257  1.00  0.00    -0.650 OA
BRANCH  39  41
HETATM   41  O6  UNL     1       9.721   9.569  13.076  1.00  0.00    -0.776 OA
HETATM   42  H22 UNL     1       9.636   9.261  12.150  1.00  0.00     0.167 HD
ENDBRANCH  39  41
ENDBRANCH  38  39
ENDBRANCH  37  38
BRANCH  37  43
HETATM   43  C20 UNL     1       7.992  10.305  16.359  1.00  0.00     0.014 C 
HETATM   44  C21 UNL     1       9.130  11.319  16.243  1.00  0.00     0.033 C 
HETATM   45  C22 UNL     1       8.678  12.725  16.634  1.00  0.00     0.169 C 
HETATM   46  O7  UNL     1       7.490  12.745  17.419  1.00  0.00    -0.381 OA
HETATM   47  C23 UNL     1       7.419  11.745  18.440  1.00  0.00     0.054 C 
HETATM   48  C24 UNL     1       8.546  11.922  19.471  1.00  0.00     0.045 C 
HETATM   49  C25 UNL     1       6.079  11.973  19.155  1.00  0.00     0.045 C 
HETATM   50  C26 UNL     1       7.433  10.341  17.801  1.00  0.00     0.044 C 
ENDBRANCH  37  43
ENDBRANCH  35  37
ENDBRANCH  32  33
BRANCH  32  51
HETATM   51  C27 UNL     1       4.955   9.403  12.239  1.00  0.00     0.009 C 
HETATM   52  C28 UNL     1       3.951  10.314  12.952  1.00  0.00     0.012 C 
HETATM   53  C29 UNL     1       4.250   8.639  11.113  1.00  0.00     0.012 C 
ENDBRANCH  32  51
ENDBRANCH  30  32
ENDBRANCH  27  28
ENDBRANCH  26  27
ENDBRANCH  13  26
TORSDOF 12
ENDMDL
MODEL 7
REMARK minimizedAffinity -9.40661144
REMARK CNNscore 0.168490633
REMARK CNNaffinity 6.17341042
REMARK  12 active torsions:
REMARK  status: ('A' for Active; 'I' for Inactive)
REMARK    1  A    between atoms: C3_3  and  O1_4 
REMARK    2  A    between atoms: N1_14  and  O2_16 
REMARK    3  A    between atoms: O2_16  and  C13_17 
REMARK    4  A    between atoms: C13_17  and  C14_18 
REMARK       I    between atoms: C14_18  and  N2_20 
REMARK    5  A    between atoms: N2_20  and  C15_21 
REMARK    6  A    between atoms: C15_21  and  C16_22 
REMARK    7  A    between atoms: C15_21  and  C27_38 
REMARK       I    between atoms: C16_22  and  N3_24 
REMARK    8  A    between atoms: N3_24  and  C17_25 
REMARK    9  A    between atoms: C17_25  and  C18_26 
REMARK   10  A    between atoms: C17_25  and  C20_30 
REMARK   11  A    between atoms: C18_26  and  C19_27 
REMARK   12  A    between atoms: C19_27  and  O6_29 
ROOT
HETATM    1  C1  UNL     1     -20.018  -3.413  19.232  1.00  0.00     0.015 C 
HETATM    2  C2  UNL     1     -19.141  -2.978  18.534  1.00  0.00    -0.078 C 
HETATM    3  C3  UNL     1     -18.055  -2.456  17.688  1.00  0.00     0.128 C 
HETATM    4  C4  UNL     1     -17.477  -3.539  16.771  1.00  0.00     0.052 C 
HETATM    5  C5  UNL     1     -16.653  -2.724  15.781  1.00  0.00     0.010 C 
HETATM    6  C6  UNL     1     -17.568  -1.545  15.437  1.00  0.00     0.002 C 
HETATM    7  C7  UNL     1     -16.890  -0.303  14.811  1.00  0.00    -0.004 C 
HETATM    8  C8  UNL     1     -15.524   0.108  15.385  1.00  0.00     0.010 C 
HETATM    9  C9  UNL     1     -14.932   1.306  14.642  1.00  0.00     0.035 C 
HETATM   10  C10 UNL     1     -15.885   2.471  14.487  1.00  0.00    -0.069 C 
HETATM   11  C11 UNL     1     -15.451   3.724  14.714  1.00  0.00     0.030 C 
HETATM   12  C12 UNL     1     -16.307   4.916  14.440  1.00  0.00     0.032 C 
HETATM   13  N1  UNL     1     -16.004   6.153  14.698  1.00  0.00    -0.271 N 
ATOM     14  H1  UNL     1     -16.619   6.943  14.501  1.00  0.00     0.194 HD
HETATM   15  C30 UNL     1     -17.625   4.673  13.735  1.00  0.00     0.060 C 
HETATM   16  C31 UNL     1     -18.248   3.368  14.198  1.00  0.00     0.020 C 
HETATM   17  C32 UNL     1     -17.304   2.142  14.023  1.00  0.00    -0.016 C 
HETATM   18  C33 UNL     1     -17.249   1.803  12.510  1.00  0.00     0.020 C 
HETATM   19  C34 UNL     1     -17.867   0.901  14.821  1.00  0.00     0.002 C 
HETATM   20  C35 UNL     1     -18.311   1.241  16.269  1.00  0.00     0.007 C 
HETATM   21  C36 UNL     1     -18.242   0.098  17.287  1.00  0.00     0.014 C 
HETATM   22  C37 UNL     1     -18.467  -1.304  16.698  1.00  0.00     0.003 C 
HETATM   23  C38 UNL     1     -19.954  -1.427  16.262  1.00  0.00     0.020 C 
ENDROOT
BRANCH   3  24
HETATM   24  O1  UNL     1     -16.991  -2.031  18.548  1.00  0.00    -0.377 OA
HETATM   25  H2  UNL     1     -16.880  -2.719  19.225  1.00  0.00     0.211 HD
ENDBRANCH   3  24
BRANCH  13  26
HETATM   26  O2  UNL     1     -14.733   6.275  15.281  1.00  0.00    -0.271 OA
BRANCH  26  27
HETATM   27  C13 UNL     1     -13.779   5.649  14.436  1.00  0.00     0.303 C 
BRANCH  27  28
HETATM   28  C14 UNL     1     -12.707   6.640  13.979  1.00  0.00     0.244 C 
HETATM   29  O3  UNL     1     -12.788   7.321  12.960  1.00  0.00    -0.271 OA
HETATM   30  N2  UNL     1     -11.628   6.711  14.845  1.00  0.00    -0.346 N 
HETATM   31  H16 UNL     1     -11.459   5.890  15.418  1.00  0.00     0.163 HD
BRANCH  30  32
HETATM   32  C15 UNL     1     -10.436   7.487  14.515  1.00  0.00     0.180 C 
BRANCH  32  33
HETATM   33  C16 UNL     1      -9.209   6.780  15.134  1.00  0.00     0.241 C 
HETATM   34  O4  UNL     1      -8.908   6.909  16.320  1.00  0.00    -0.271 OA
HETATM   35  N3  UNL     1      -8.469   6.035  14.239  1.00  0.00    -0.354 N 
HETATM   36  H18 UNL     1      -8.748   6.029  13.264  1.00  0.00     0.162 HD
BRANCH  35  37
HETATM   37  C17 UNL     1      -7.252   5.293  14.611  1.00  0.00     0.098 C 
BRANCH  37  38
HETATM   38  C18 UNL     1      -7.488   3.810  14.279  1.00  0.00     0.135 C 
BRANCH  38  39
HETATM   39  C19 UNL     1      -8.016   3.587  12.888  1.00  0.00     0.141 C 
HETATM   40  O5  UNL     1      -8.187   4.412  12.010  1.00  0.00    -0.650 OA
BRANCH  39  41
HETATM   41  O6  UNL     1      -8.302   2.286  12.670  1.00  0.00    -0.776 OA
HETATM   42  H22 UNL     1      -8.602   2.261  11.737  1.00  0.00     0.167 HD
ENDBRANCH  39  41
ENDBRANCH  38  39
ENDBRANCH  37  38
BRANCH  37  43
HETATM   43  C20 UNL     1      -6.030   5.924  13.875  1.00  0.00     0.014 C 
HETATM   44  C21 UNL     1      -4.886   4.953  13.584  1.00  0.00     0.033 C 
HETATM   45  C22 UNL     1      -3.743   5.633  12.834  1.00  0.00     0.169 C 
HETATM   46  O7  UNL     1      -3.753   7.053  12.944  1.00  0.00    -0.381 OA
HETATM   47  C23 UNL     1      -4.051   7.560  14.248  1.00  0.00     0.054 C 
HETATM   48  C24 UNL     1      -2.992   7.118  15.272  1.00  0.00     0.045 C 
HETATM   49  C25 UNL     1      -3.987   9.089  14.126  1.00  0.00     0.045 C 
HETATM   50  C26 UNL     1      -5.474   7.132  14.665  1.00  0.00     0.044 C 
ENDBRANCH  37  43
ENDBRANCH  35  37
ENDBRANCH  32  33
BRANCH  32  51
HETATM   51  C27 UNL     1     -10.543   8.955  14.990  1.00  0.00     0.009 C 
HETATM   52  C28 UNL     1      -9.181   9.616  15.225  1.00  0.00     0.012 C 
HETATM   53  C29 UNL     1     -11.391   9.055  16.262  1.00  0.00     0.012 C 
ENDBRANCH  32  51
ENDBRANCH  30  32
ENDBRANCH  27  28
ENDBRANCH  26  27
ENDBRANCH  13  26
TORSDOF 12
ENDMDL
MODEL 8
REMARK minimizedAffinity -9.14600849
REMARK CNNscore 0.160540998
REMARK CNNaffinity 6.65352106
REMARK  12 active torsions:
REMARK  status: ('A' for Active; 'I' for Inactive)
REMARK    1  A    between atoms: C3_3  and  O1_4 
REMARK    2  A    between atoms: N1_14  and  O2_16 
REMARK    3  A    between atoms: O2_16  and  C13_17 
REMARK    4  A    between atoms: C13_17  and  C14_18 
REMARK       I    between atoms: C14_18  and  N2_20 
REMARK    5  A    between atoms: N2_20  and  C15_21 
REMARK    6  A    between atoms: C15_21  and  C16_22 
REMARK    7  A    between atoms: C15_21  and  C27_38 
REMARK       I    between atoms: C16_22  and  N3_24 
REMARK    8  A    between atoms: N3_24  and  C17_25 
REMARK    9  A    between atoms: C17_25  and  C18_26 
REMARK   10  A    between atoms: C17_25  and  C20_30 
REMARK   11  A    between atoms: C18_26  and  C19_27 
REMARK   12  A    between atoms: C19_27  and  O6_29 
ROOT
HETATM    1  C1  UNL     1      -7.419   8.094  15.307  1.00  0.00     0.015 C 
HETATM    2  C2  UNL     1      -6.440   7.443  15.056  1.00  0.00    -0.078 C 
HETATM    3  C3  UNL     1      -5.248   6.631  14.758  1.00  0.00     0.128 C 
HETATM    4  C4  UNL     1      -5.602   5.370  13.963  1.00  0.00     0.052 C 
HETATM    5  C5  UNL     1      -4.236   4.892  13.482  1.00  0.00     0.010 C 
HETATM    6  C6  UNL     1      -3.551   6.179  13.013  1.00  0.00     0.002 C 
HETATM    7  C7  UNL     1      -2.010   6.133  12.878  1.00  0.00    -0.004 C 
HETATM    8  C8  UNL     1      -1.239   5.372  13.969  1.00  0.00     0.010 C 
HETATM    9  C9  UNL     1       0.265   5.345  13.689  1.00  0.00     0.035 C 
HETATM   10  C10 UNL     1       0.860   6.700  13.376  1.00  0.00    -0.069 C 
HETATM   11  C11 UNL     1       2.029   7.061  13.937  1.00  0.00     0.030 C 
HETATM   12  C12 UNL     1       2.729   8.323  13.555  1.00  0.00     0.032 C 
HETATM   13  N1  UNL     1       3.815   8.790  14.093  1.00  0.00    -0.271 N 
ATOM     14  H1  UNL     1       4.264   9.661  13.808  1.00  0.00     0.194 HD
HETATM   15  C30 UNL     1       2.162   9.102  12.387  1.00  0.00     0.060 C 
HETATM   16  C31 UNL     1       0.644   9.032  12.382  1.00  0.00     0.020 C 
HETATM   17  C32 UNL     1       0.098   7.573  12.380  1.00  0.00    -0.016 C 
HETATM   18  C33 UNL     1       0.323   6.989  10.959  1.00  0.00     0.020 C 
HETATM   19  C34 UNL     1      -1.445   7.567  12.714  1.00  0.00     0.002 C 
HETATM   20  C35 UNL     1      -1.821   8.453  13.931  1.00  0.00     0.007 C 
HETATM   21  C36 UNL     1      -3.070   8.036  14.715  1.00  0.00     0.014 C 
HETATM   22  C37 UNL     1      -4.154   7.339  13.876  1.00  0.00     0.003 C 
HETATM   23  C38 UNL     1      -4.783   8.383  12.912  1.00  0.00     0.020 C 
ENDROOT
BRANCH   3  24
HETATM   24  O1  UNL     1      -4.691   6.192  16.003  1.00  0.00    -0.377 OA
HETATM   25  H2  UNL     1      -5.433   5.899  16.559  1.00  0.00     0.211 HD
ENDBRANCH   3  24
BRANCH  13  26
HETATM   26  O2  UNL     1       4.300   7.956  15.113  1.00  0.00    -0.271 OA
BRANCH  26  27
HETATM   27  C13 UNL     1       5.460   7.285  14.645  1.00  0.00     0.303 C 
BRANCH  27  28
HETATM   28  C14 UNL     1       6.735   7.997  15.100  1.00  0.00     0.244 C 
HETATM   29  O3  UNL     1       6.750   8.985  15.829  1.00  0.00    -0.271 OA
HETATM   30  N2  UNL     1       7.890   7.402  14.619  1.00  0.00    -0.346 N 
HETATM   31  H16 UNL     1       7.794   6.865  13.763  1.00  0.00     0.163 HD
BRANCH  30  32
HETATM   32  C15 UNL     1       9.202   8.013  14.819  1.00  0.00     0.180 C 
BRANCH  32  33
HETATM   33  C16 UNL     1       9.290   8.507  16.281  1.00  0.00     0.241 C 
HETATM   34  O4  UNL     1       9.019   7.781  17.235  1.00  0.00    -0.271 OA
HETATM   35  N3  UNL     1       9.654   9.832  16.413  1.00  0.00    -0.354 N 
HETATM   36  H18 UNL     1       9.800  10.382  15.574  1.00  0.00     0.162 HD
BRANCH  35  37
HETATM   37  C17 UNL     1       9.783  10.512  17.713  1.00  0.00     0.098 C 
BRANCH  37  38
HETATM   38  C18 UNL     1      11.095  11.315  17.693  1.00  0.00     0.135 C 
BRANCH  38  39
HETATM   39  C19 UNL     1      11.761  11.402  19.038  1.00  0.00     0.141 C 
HETATM   40  O5  UNL     1      12.013  12.401  19.688  1.00  0.00    -0.650 OA
BRANCH  39  41
HETATM   41  O6  UNL     1      12.079  10.180  19.514  1.00  0.00    -0.776 OA
HETATM   42  H22 UNL     1      12.470  10.359  20.394  1.00  0.00     0.167 HD
ENDBRANCH  39  41
ENDBRANCH  38  39
ENDBRANCH  37  38
BRANCH  37  43
HETATM   43  C20 UNL     1       8.510  11.379  17.958  1.00  0.00     0.014 C 
HETATM   44  C21 UNL     1       8.548  12.769  17.322  1.00  0.00     0.033 C 
HETATM   45  C22 UNL     1       7.257  13.544  17.576  1.00  0.00     0.169 C 
HETATM   46  O7  UNL     1       6.496  13.043  18.671  1.00  0.00    -0.381 OA
HETATM   47  C23 UNL     1       7.259  12.678  19.825  1.00  0.00     0.054 C 
HETATM   48  C24 UNL     1       7.995  13.893  20.413  1.00  0.00     0.045 C 
HETATM   49  C25 UNL     1       6.238  12.190  20.863  1.00  0.00     0.045 C 
HETATM   50  C26 UNL     1       8.228  11.529  19.472  1.00  0.00     0.044 C 
ENDBRANCH  37  43
ENDBRANCH  35  37
ENDBRANCH  32  33
BRANCH  32  51
HETATM   51  C27 UNL     1       9.473   9.159  13.818  1.00  0.00     0.009 C 
HETATM   52  C28 UNL     1      10.951   9.555  13.735  1.00  0.00     0.012 C 
HETATM   53  C29 UNL     1       8.628  10.391  14.159  1.00  0.00     0.012 C 
ENDBRANCH  32  51
ENDBRANCH  30  32
ENDBRANCH  27  28
ENDBRANCH  26  27
ENDBRANCH  13  26
TORSDOF 12
ENDMDL
MODEL 9
REMARK minimizedAffinity -7.9097805
REMARK CNNscore 0.157855332
REMARK CNNaffinity 5.89612961
REMARK  12 active torsions:
REMARK  status: ('A' for Active; 'I' for Inactive)
REMARK    1  A    between atoms: C3_3  and  O1_4 
REMARK    2  A    between atoms: N1_14  and  O2_16 
REMARK    3  A    between atoms: O2_16  and  C13_17 
REMARK    4  A    between atoms: C13_17  and  C14_18 
REMARK       I    between atoms: C14_18  and  N2_20 
REMARK    5  A    between atoms: N2_20  and  C15_21 
REMARK    6  A    between atoms: C15_21  and  C16_22 
REMARK    7  A    between atoms: C15_21  and  C27_38 
REMARK       I    between atoms: C16_22  and  N3_24 
REMARK    8  A    between atoms: N3_24  and  C17_25 
REMARK    9  A    between atoms: C17_25  and  C18_26 
REMARK   10  A    between atoms: C17_25  and  C20_30 
REMARK   11  A    between atoms: C18_26  and  C19_27 
REMARK   12  A    between atoms: C19_27  and  O6_29 
ROOT
HETATM    1  C1  UNL     1      -0.409   2.913  11.625  1.00  0.00     0.015 C 
HETATM    2  C2  UNL     1      -0.198   4.086  11.778  1.00  0.00    -0.078 C 
HETATM    3  C3  UNL     1       0.074   5.523  11.955  1.00  0.00     0.128 C 
HETATM    4  C4  UNL     1      -0.077   6.297  10.641  1.00  0.00     0.052 C 
HETATM    5  C5  UNL     1      -0.099   7.745  11.116  1.00  0.00     0.010 C 
HETATM    6  C6  UNL     1      -1.025   7.709  12.335  1.00  0.00     0.002 C 
HETATM    7  C7  UNL     1      -0.924   8.902  13.316  1.00  0.00    -0.004 C 
HETATM    8  C8  UNL     1       0.484   9.443  13.611  1.00  0.00     0.010 C 
HETATM    9  C9  UNL     1       0.445  10.658  14.540  1.00  0.00     0.035 C 
HETATM   10  C10 UNL     1      -0.387  10.455  15.787  1.00  0.00    -0.069 C 
HETATM   11  C11 UNL     1       0.083  10.869  16.978  1.00  0.00     0.030 C 
HETATM   12  C12 UNL     1      -0.752  10.822  18.214  1.00  0.00     0.032 C 
HETATM   13  N1  UNL     1      -0.362  11.126  19.416  1.00  0.00    -0.271 N 
ATOM     14  H1  UNL     1      -0.961  11.077  20.240  1.00  0.00     0.194 HD
HETATM   15  C30 UNL     1      -2.211  10.449  18.050  1.00  0.00     0.060 C 
HETATM   16  C31 UNL     1      -2.375   9.395  16.969  1.00  0.00     0.020 C 
HETATM   17  C32 UNL     1      -1.765   9.819  15.600  1.00  0.00    -0.016 C 
HETATM   18  C33 UNL     1      -2.705  10.885  14.976  1.00  0.00     0.020 C 
HETATM   19  C34 UNL     1      -1.667   8.573  14.636  1.00  0.00     0.002 C 
HETATM   20  C35 UNL     1      -1.065   7.311  15.310  1.00  0.00     0.007 C 
HETATM   21  C36 UNL     1      -0.343   6.326  14.384  1.00  0.00     0.014 C 
HETATM   22  C37 UNL     1      -0.890   6.273  12.948  1.00  0.00     0.003 C 
HETATM   23  C38 UNL     1      -2.302   5.625  12.976  1.00  0.00     0.020 C 
ENDROOT
BRANCH   3  24
HETATM   24  O1  UNL     1       1.439   5.666  12.366  1.00  0.00    -0.377 OA
HETATM   25  H2  UNL     1       1.967   5.069  11.809  1.00  0.00     0.211 HD
ENDBRANCH   3  24
BRANCH  13  26
HETATM   26  O2  UNL     1       0.983  11.531  19.447  1.00  0.00    -0.271 OA
BRANCH  26  27
HETATM   27  C13 UNL     1       1.800  10.391  19.664  1.00  0.00     0.303 C 
BRANCH  27  28
HETATM   28  C14 UNL     1       2.869  10.666  20.723  1.00  0.00     0.244 C 
HETATM   29  O3  UNL     1       3.997  10.180  20.705  1.00  0.00    -0.271 OA
HETATM   30  N2  UNL     1       2.444  11.542  21.708  1.00  0.00    -0.346 N 
HETATM   31  H16 UNL     1       1.442  11.590  21.863  1.00  0.00     0.163 HD
BRANCH  30  32
HETATM   32  C15 UNL     1       3.263  11.819  22.885  1.00  0.00     0.180 C 
BRANCH  32  33
HETATM   33  C16 UNL     1       4.491  12.644  22.439  1.00  0.00     0.241 C 
HETATM   34  O4  UNL     1       5.154  13.314  23.230  1.00  0.00    -0.271 OA
HETATM   35  N3  UNL     1       4.748  12.595  21.083  1.00  0.00    -0.354 N 
HETATM   36  H18 UNL     1       4.119  12.070  20.488  1.00  0.00     0.162 HD
BRANCH  35  37
HETATM   37  C17 UNL     1       5.859  13.319  20.441  1.00  0.00     0.098 C 
BRANCH  37  38
HETATM   38  C18 UNL     1       5.835  14.767  20.959  1.00  0.00     0.135 C 
BRANCH  38  39
HETATM   39  C19 UNL     1       4.732  15.596  20.361  1.00  0.00     0.141 C 
HETATM   40  O5  UNL     1       3.530  15.449  20.487  1.00  0.00    -0.650 OA
BRANCH  39  41
HETATM   41  O6  UNL     1       5.222  16.610  19.616  1.00  0.00    -0.776 OA
HETATM   42  H22 UNL     1       4.424  17.091  19.312  1.00  0.00     0.167 HD
ENDBRANCH  39  41
ENDBRANCH  38  39
ENDBRANCH  37  38
BRANCH  37  43
HETATM   43  C20 UNL     1       7.191  12.561  20.733  1.00  0.00     0.014 C 
HETATM   44  C21 UNL     1       8.034  13.157  21.861  1.00  0.00     0.033 C 
HETATM   45  C22 UNL     1       9.303  12.344  22.109  1.00  0.00     0.169 C 
HETATM   46  O7  UNL     1       9.669  11.508  21.015  1.00  0.00    -0.381 OA
HETATM   47  C23 UNL     1       9.538  12.107  19.722  1.00  0.00     0.054 C 
HETATM   48  C24 UNL     1      10.461  13.329  19.579  1.00  0.00     0.045 C 
HETATM   49  C25 UNL     1      10.000  11.040  18.719  1.00  0.00     0.045 C 
HETATM   50  C26 UNL     1       8.060  12.463  19.456  1.00  0.00     0.044 C 
ENDBRANCH  37  43
ENDBRANCH  35  37
ENDBRANCH  32  33
BRANCH  32  51
HETATM   51  C27 UNL     1       3.688  10.528  23.621  1.00  0.00     0.009 C 
HETATM   52  C28 UNL     1       5.103  10.064  23.265  1.00  0.00     0.012 C 
HETATM   53  C29 UNL     1       2.691   9.395  23.352  1.00  0.00     0.012 C 
ENDBRANCH  32  51
ENDBRANCH  30  32
ENDBRANCH  27  28
ENDBRANCH  26  27
ENDBRANCH  13  26
TORSDOF 12
ENDMDL
