MODEL 1
REMARK minimizedAffinity -7.99483299
REMARK CNNscore 0.438368171
REMARK CNNaffinity 7.11844873
REMARK  10 active torsions:
REMARK  status: ('A' for Active; 'I' for Inactive)
REMARK    1  A    between atoms: C2_2  and  C3_3 
REMARK    2  A    between atoms: C3_3  and  C4_4 
REMARK    3  A    between atoms: C4_4  and  O1_5 
REMARK    4  A    between atoms: O1_5  and  C5_6 
REMARK    5  A    between atoms: C5_6  and  C6_7 
REMARK    6  A    between atoms: C10_11  and  C12_13 
REMARK    7  A    between atoms: C12_13  and  C13_15 
REMARK    8  A    between atoms: C13_15  and  S1_16 
REMARK    9  A    between atoms: S1_16  and  C14_17 
REMARK   10  A    between atoms: C15_20  and  C16_21 
ROOT
HETATM    1  C12 UNL     1       0.161   5.698  11.863  1.00  0.00     0.171 C 
HETATM    2  O2  UNL     1      -0.134   5.903  10.681  1.00  0.00    -0.294 OA
ENDROOT
BRANCH   1   3
HETATM    3  C10 UNL     1       0.600   6.872  12.764  1.00  0.00     0.129 C 
HETATM    4  C9  UNL     1       0.173   6.673  14.217  1.00  0.00     0.076 C 
HETATM    5  C8  UNL     1      -1.125   7.458  14.329  1.00  0.00     0.141 C 
HETATM    6  C7  UNL     1      -1.347   8.014  15.723  1.00  0.00     0.065 C 
HETATM    7  C22 UNL     1      -0.962   8.485  13.256  1.00  0.00     0.279 C 
HETATM    8  C23 UNL     1      -2.354   6.644  14.075  1.00  0.00     0.278 C 
HETATM    9  C6  UNL     1      -2.825   7.793  15.997  1.00  0.00     0.157 C 
HETATM   10  O6  UNL     1      -3.245   6.766  15.096  1.00  0.00    -0.313 OA
HETATM   11  O3  UNL     1       0.028   8.124  12.389  1.00  0.00    -0.301 OA
HETATM   12  O4  UNL     1      -1.624   9.502  13.131  1.00  0.00    -0.264 OA
HETATM   13  O5  UNL     1      -2.550   5.965  13.080  1.00  0.00    -0.264 OA
HETATM   14  C11 UNL     1       2.119   6.994  12.638  1.00  0.00     0.055 C 
BRANCH   9  15
HETATM   15  C5  UNL     1      -3.697   9.043  15.828  1.00  0.00     0.200 C 
BRANCH  15  16
HETATM   16  O1  UNL     1      -4.618   8.881  14.751  1.00  0.00    -0.389 OA
BRANCH  16  17
HETATM   17  C4  UNL     1      -5.990   8.906  15.135  1.00  0.00     0.167 C 
BRANCH  17  18
HETATM   18  C3  UNL     1      -6.508   7.535  15.570  1.00  0.00     0.026 C 
BRANCH  18  19
HETATM   19  C2  UNL     1      -7.789   7.580  16.408  1.00  0.00    -0.002 C 
HETATM   20  C1  UNL     1      -8.885   6.643  15.923  1.00  0.00     0.005 C 
ENDBRANCH  18  19
ENDBRANCH  17  18
ENDBRANCH  16  17
ENDBRANCH  15  16
ENDBRANCH   9  15
ENDBRANCH   1   3
BRANCH   1  21
HETATM   21  C13 UNL     1       0.082   4.329  12.528  1.00  0.00     0.164 C 
BRANCH  21  22
HETATM   22  S1  UNL     1      -0.263   3.005  11.336  1.00  0.00    -0.085 SA
BRANCH  22  23
HETATM   23  C14 UNL     1      -1.970   3.163  11.191  1.00  0.00     0.161 A 
HETATM   24  N1  UNL     1      -2.867   3.220  12.142  1.00  0.00    -0.320 N 
HETATM   25  C15 UNL     1      -4.059   3.291  11.437  1.00  0.00     0.134 A 
ATOM     26  H1  UNL     1      -2.725   3.214  13.152  1.00  0.00     0.169 HD
HETATM   27  N2  UNL     1      -3.900   3.369  10.107  1.00  0.00    -0.283 N 
HETATM   28  N3  UNL     1      -2.566   3.266   9.979  1.00  0.00    -0.278 N 
ATOM     29  H2  UNL     1      -4.608   3.478   9.381  1.00  0.00     0.188 HD
HETATM   30  H26 UNL     1      -2.138   3.282   9.062  1.00  0.00     0.189 HD
BRANCH  25  31
HETATM   31  C16 UNL     1      -5.349   3.354  12.116  1.00  0.00     0.031 A 
HETATM   32  C17 UNL     1      -5.609   4.470  12.934  1.00  0.00     0.017 A 
HETATM   33  C18 UNL     1      -6.829   4.608  13.602  1.00  0.00     0.001 A 
HETATM   34  C19 UNL     1      -7.807   3.630  13.467  1.00  0.00     0.002 A 
HETATM   35  C20 UNL     1      -7.561   2.509  12.673  1.00  0.00     0.025 A 
HETATM   36  C21 UNL     1      -6.339   2.364  12.003  1.00  0.00     0.048 A 
HETATM   37 CL1  UNL     1      -6.124   0.896  11.109  1.00  0.00    -0.083 Cl
ENDBRANCH  25  31
ENDBRANCH  22  23
ENDBRANCH  21  22
ENDBRANCH   1  21
TORSDOF 10
ENDMDL
MODEL 2
REMARK minimizedAffinity -8.05220795
REMARK CNNscore 0.279686987
REMARK CNNaffinity 6.27404165
REMARK  10 active torsions:
REMARK  status: ('A' for Active; 'I' for Inactive)
REMARK    1  A    between atoms: C2_2  and  C3_3 
REMARK    2  A    between atoms: C3_3  and  C4_4 
REMARK    3  A    between atoms: C4_4  and  O1_5 
REMARK    4  A    between atoms: O1_5  and  C5_6 
REMARK    5  A    between atoms: C5_6  and  C6_7 
REMARK    6  A    between atoms: C10_11  and  C12_13 
REMARK    7  A    between atoms: C12_13  and  C13_15 
REMARK    8  A    between atoms: C13_15  and  S1_16 
REMARK    9  A    between atoms: S1_16  and  C14_17 
REMARK   10  A    between atoms: C15_20  and  C16_21 
ROOT
HETATM    1  C12 UNL     1      -0.038   6.308  12.100  1.00  0.00     0.171 C 
HETATM    2  O2  UNL     1      -0.513   6.482  10.973  1.00  0.00    -0.294 OA
ENDROOT
BRANCH   1   3
HETATM    3  C10 UNL     1       0.522   7.507  12.895  1.00  0.00     0.129 C 
HETATM    4  C9  UNL     1       0.248   7.384  14.392  1.00  0.00     0.076 C 
HETATM    5  C8  UNL     1      -1.011   8.210  14.603  1.00  0.00     0.141 C 
HETATM    6  C7  UNL     1      -1.070   8.832  15.986  1.00  0.00     0.065 C 
HETATM    7  C22 UNL     1      -0.938   9.185  13.473  1.00  0.00     0.279 C 
HETATM    8  C23 UNL     1      -2.280   7.422  14.518  1.00  0.00     0.278 C 
HETATM    9  C6  UNL     1      -2.515   8.667  16.424  1.00  0.00     0.157 C 
HETATM   10  O6  UNL     1      -3.054   7.614  15.620  1.00  0.00    -0.313 OA
HETATM   11  O3  UNL     1      -0.055   8.758  12.525  1.00  0.00    -0.301 OA
HETATM   12  O4  UNL     1      -1.585  10.213  13.372  1.00  0.00    -0.264 OA
HETATM   13  O5  UNL     1      -2.597   6.707  13.581  1.00  0.00    -0.264 OA
HETATM   14  C11 UNL     1       2.022   7.579  12.604  1.00  0.00     0.055 C 
BRANCH   9  15
HETATM   15  C5  UNL     1      -3.370   9.933  16.290  1.00  0.00     0.200 C 
BRANCH  15  16
HETATM   16  O1  UNL     1      -3.478  10.610  17.541  1.00  0.00    -0.389 OA
BRANCH  16  17
HETATM   17  C4  UNL     1      -2.472  10.265  18.490  1.00  0.00     0.167 C 
BRANCH  17  18
HETATM   18  C3  UNL     1      -1.509  11.417  18.776  1.00  0.00     0.026 C 
BRANCH  18  19
HETATM   19  C2  UNL     1      -0.266  11.017  19.575  1.00  0.00    -0.002 C 
HETATM   20  C1  UNL     1       0.582  12.192  20.039  1.00  0.00     0.005 C 
ENDBRANCH  18  19
ENDBRANCH  17  18
ENDBRANCH  16  17
ENDBRANCH  15  16
ENDBRANCH   9  15
ENDBRANCH   1   3
BRANCH   1  21
HETATM   21  C13 UNL     1       0.000   4.955  12.801  1.00  0.00     0.164 C 
BRANCH  21  22
HETATM   22  S1  UNL     1      -0.138   3.573  11.634  1.00  0.00    -0.085 SA
BRANCH  22  23
HETATM   23  C14 UNL     1      -1.845   3.514  11.432  1.00  0.00     0.161 A 
HETATM   24  N1  UNL     1      -2.779   3.772  12.310  1.00  0.00    -0.320 N 
HETATM   25  C15 UNL     1      -3.945   3.508  11.607  1.00  0.00     0.134 A 
ATOM     26  H1  UNL     1      -2.676   4.089  13.274  1.00  0.00     0.169 HD
HETATM   27  N2  UNL     1      -3.742   3.190  10.319  1.00  0.00    -0.283 N 
HETATM   28  N3  UNL     1      -2.401   3.182  10.241  1.00  0.00    -0.278 N 
ATOM     29  H2  UNL     1      -4.429   3.003   9.588  1.00  0.00     0.188 HD
HETATM   30  H26 UNL     1      -1.940   2.958   9.368  1.00  0.00     0.189 HD
BRANCH  25  31
HETATM   31  C16 UNL     1      -5.261   3.652  12.221  1.00  0.00     0.031 A 
HETATM   32  C17 UNL     1      -5.500   4.796  13.006  1.00  0.00     0.017 A 
HETATM   33  C18 UNL     1      -6.741   5.010  13.611  1.00  0.00     0.001 A 
HETATM   34  C19 UNL     1      -7.762   4.081  13.446  1.00  0.00     0.002 A 
HETATM   35  C20 UNL     1      -7.538   2.933  12.685  1.00  0.00     0.025 A 
HETATM   36  C21 UNL     1      -6.295   2.712  12.077  1.00  0.00     0.048 A 
HETATM   37 CL1  UNL     1      -6.115   1.217  11.221  1.00  0.00    -0.083 Cl
ENDBRANCH  25  31
ENDBRANCH  22  23
ENDBRANCH  21  22
ENDBRANCH   1  21
TORSDOF 10
ENDMDL
MODEL 3
REMARK minimizedAffinity -8.02344418
REMARK CNNscore 0.275211751
REMARK CNNaffinity 5.94125032
REMARK  10 active torsions:
REMARK  status: ('A' for Active; 'I' for Inactive)
REMARK    1  A    between atoms: C2_2  and  C3_3 
REMARK    2  A    between atoms: C3_3  and  C4_4 
REMARK    3  A    between atoms: C4_4  and  O1_5 
REMARK    4  A    between atoms: O1_5  and  C5_6 
REMARK    5  A    between atoms: C5_6  and  C6_7 
REMARK    6  A    between atoms: C10_11  and  C12_13 
REMARK    7  A    between atoms: C12_13  and  C13_15 
REMARK    8  A    between atoms: C13_15  and  S1_16 
REMARK    9  A    between atoms: S1_16  and  C14_17 
REMARK   10  A    between atoms: C15_20  and  C16_21 
ROOT
HETATM    1  C12 UNL     1      -2.895   7.075  13.886  1.00  0.00     0.171 C 
HETATM    2  O2  UNL     1      -2.420   5.948  13.715  1.00  0.00    -0.294 OA
ENDROOT
BRANCH   1   3
HETATM    3  C10 UNL     1      -3.521   7.450  15.247  1.00  0.00     0.129 C 
HETATM    4  C9  UNL     1      -4.436   6.352  15.782  1.00  0.00     0.076 C 
HETATM    5  C8  UNL     1      -5.827   6.791  15.353  1.00  0.00     0.141 C 
HETATM    6  C7  UNL     1      -6.903   6.329  16.318  1.00  0.00     0.065 C 
HETATM    7  C22 UNL     1      -5.667   8.273  15.247  1.00  0.00     0.279 C 
HETATM    8  C23 UNL     1      -6.268   6.229  14.039  1.00  0.00     0.278 C 
HETATM    9  C6  UNL     1      -8.050   5.875  15.431  1.00  0.00     0.157 C 
HETATM   10  O6  UNL     1      -7.477   5.615  14.147  1.00  0.00    -0.313 OA
HETATM   11  O3  UNL     1      -4.346   8.613  15.194  1.00  0.00    -0.301 OA
HETATM   12  O4  UNL     1      -6.571   9.089  15.187  1.00  0.00    -0.264 OA
HETATM   13  O5  UNL     1      -5.639   6.314  12.996  1.00  0.00    -0.264 OA
HETATM   14  C11 UNL     1      -2.367   7.738  16.209  1.00  0.00     0.055 C 
BRANCH   9  15
HETATM   15  C5  UNL     1      -9.199   6.884  15.309  1.00  0.00     0.200 C 
BRANCH  15  16
HETATM   16  O1  UNL     1     -10.016   6.592  14.176  1.00  0.00    -0.389 OA
BRANCH  16  17
HETATM   17  C4  UNL     1     -10.772   7.699  13.692  1.00  0.00     0.167 C 
BRANCH  17  18
HETATM   18  C3  UNL     1     -12.235   7.344  13.427  1.00  0.00     0.026 C 
BRANCH  18  19
HETATM   19  C2  UNL     1     -12.775   6.202  14.294  1.00  0.00    -0.002 C 
HETATM   20  C1  UNL     1     -14.287   6.044  14.245  1.00  0.00     0.005 C 
ENDBRANCH  18  19
ENDBRANCH  17  18
ENDBRANCH  16  17
ENDBRANCH  15  16
ENDBRANCH   9  15
ENDBRANCH   1   3
BRANCH   1  21
HETATM   21  C13 UNL     1      -2.873   8.171  12.827  1.00  0.00     0.164 C 
BRANCH  21  22
HETATM   22  S1  UNL     1      -1.692   9.489  13.226  1.00  0.00    -0.085 SA
BRANCH  22  23
HETATM   23  C14 UNL     1      -0.364   9.016  12.239  1.00  0.00     0.161 A 
HETATM   24  N1  UNL     1      -0.385   8.482  11.046  1.00  0.00    -0.320 N 
HETATM   25  C15 UNL     1       0.959   8.271  10.778  1.00  0.00     0.134 A 
ATOM     26  H1  UNL     1      -1.191   8.271  10.457  1.00  0.00     0.169 HD
HETATM   27  N2  UNL     1       1.782   8.741  11.728  1.00  0.00    -0.283 N 
HETATM   28  N3  UNL     1       0.915   9.191  12.651  1.00  0.00    -0.278 N 
ATOM     29  H2  UNL     1       2.802   8.754  11.745  1.00  0.00     0.188 HD
HETATM   30  H26 UNL     1       1.253   9.603  13.512  1.00  0.00     0.189 HD
BRANCH  25  31
HETATM   31  C16 UNL     1       1.407   7.662   9.530  1.00  0.00     0.031 A 
HETATM   32  C17 UNL     1       0.983   8.248   8.323  1.00  0.00     0.017 A 
HETATM   33  C18 UNL     1       1.385   7.730   7.088  1.00  0.00     0.001 A 
HETATM   34  C19 UNL     1       2.215   6.615   7.041  1.00  0.00     0.002 A 
HETATM   35  C20 UNL     1       2.632   6.012   8.228  1.00  0.00     0.025 A 
HETATM   36  C21 UNL     1       2.229   6.525   9.469  1.00  0.00     0.048 A 
HETATM   37 CL1  UNL     1       2.751   5.646  10.867  1.00  0.00    -0.083 Cl
ENDBRANCH  25  31
ENDBRANCH  22  23
ENDBRANCH  21  22
ENDBRANCH   1  21
TORSDOF 10
ENDMDL
MODEL 4
REMARK minimizedAffinity -7.17569923
REMARK CNNscore 0.261247337
REMARK CNNaffinity 6.02356339
REMARK  10 active torsions:
REMARK  status: ('A' for Active; 'I' for Inactive)
REMARK    1  A    between atoms: C2_2  and  C3_3 
REMARK    2  A    between atoms: C3_3  and  C4_4 
REMARK    3  A    between atoms: C4_4  and  O1_5 
REMARK    4  A    between atoms: O1_5  and  C5_6 
REMARK    5  A    between atoms: C5_6  and  C6_7 
REMARK    6  A    between atoms: C10_11  and  C12_13 
REMARK    7  A    between atoms: C12_13  and  C13_15 
REMARK    8  A    between atoms: C13_15  and  S1_16 
REMARK    9  A    between atoms: S1_16  and  C14_17 
REMARK   10  A    between atoms: C15_20  and  C16_21 
ROOT
HETATM    1  C12 UNL     1       0.237   7.571  11.984  1.00  0.00     0.171 C 
HETATM    2  O2  UNL     1       0.992   8.423  11.504  1.00  0.00    -0.294 OA
ENDROOT
BRANCH   1   3
HETATM    3  C10 UNL     1       0.204   7.340  13.510  1.00  0.00     0.129 C 
HETATM    4  C9  UNL     1      -1.193   6.974  14.006  1.00  0.00     0.076 C 
HETATM    5  C8  UNL     1      -1.767   8.296  14.490  1.00  0.00     0.141 C 
HETATM    6  C7  UNL     1      -2.754   8.116  15.629  1.00  0.00     0.065 C 
HETATM    7  C22 UNL     1      -0.534   9.064  14.838  1.00  0.00     0.279 C 
HETATM    8  C23 UNL     1      -2.556   9.035  13.456  1.00  0.00     0.278 C 
HETATM    9  C6  UNL     1      -3.885   9.081  15.318  1.00  0.00     0.157 C 
HETATM   10  O6  UNL     1      -3.793   9.361  13.919  1.00  0.00    -0.313 OA
HETATM   11  O3  UNL     1       0.567   8.491  14.270  1.00  0.00    -0.301 OA
HETATM   12  O4  UNL     1      -0.488  10.080  15.511  1.00  0.00    -0.264 OA
HETATM   13  O5  UNL     1      -2.149   9.325  12.342  1.00  0.00    -0.264 OA
HETATM   14  C11 UNL     1       1.216   6.235  13.820  1.00  0.00     0.055 C 
BRANCH   9  15
HETATM   15  C5  UNL     1      -3.851  10.384  16.127  1.00  0.00     0.200 C 
BRANCH  15  16
HETATM   16  O1  UNL     1      -4.039  11.516  15.280  1.00  0.00    -0.389 OA
BRANCH  16  17
HETATM   17  C4  UNL     1      -3.500  12.733  15.789  1.00  0.00     0.167 C 
BRANCH  17  18
HETATM   18  C3  UNL     1      -4.120  13.971  15.143  1.00  0.00     0.026 C 
BRANCH  18  19
HETATM   19  C2  UNL     1      -3.236  14.643  14.088  1.00  0.00    -0.002 C 
HETATM   20  C1  UNL     1      -1.783  14.192  14.114  1.00  0.00     0.005 C 
ENDBRANCH  18  19
ENDBRANCH  17  18
ENDBRANCH  16  17
ENDBRANCH  15  16
ENDBRANCH   9  15
ENDBRANCH   1   3
BRANCH   1  21
HETATM   21  C13 UNL     1      -0.723   6.730  11.152  1.00  0.00     0.164 C 
BRANCH  21  22
HETATM   22  S1  UNL     1      -0.388   4.953  11.300  1.00  0.00    -0.085 SA
BRANCH  22  23
HETATM   23  C14 UNL     1      -1.993   4.335  11.255  1.00  0.00     0.161 A 
HETATM   24  N1  UNL     1      -2.968   4.536  12.103  1.00  0.00    -0.320 N 
HETATM   25  C15 UNL     1      -3.991   3.754  11.589  1.00  0.00     0.134 A 
ATOM     26  H1  UNL     1      -2.975   5.124  12.937  1.00  0.00     0.169 HD
HETATM   27  N2  UNL     1      -3.690   3.166  10.421  1.00  0.00    -0.283 N 
HETATM   28  N3  UNL     1      -2.410   3.536  10.243  1.00  0.00    -0.278 N 
ATOM     29  H2  UNL     1      -4.280   2.588   9.822  1.00  0.00     0.188 HD
HETATM   30  H26 UNL     1      -1.896   3.226   9.428  1.00  0.00     0.189 HD
BRANCH  25  31
HETATM   31  C16 UNL     1      -5.291   3.664  12.244  1.00  0.00     0.031 A 
HETATM   32  C17 UNL     1      -5.686   4.730  13.074  1.00  0.00     0.017 A 
HETATM   33  C18 UNL     1      -6.925   4.722  13.721  1.00  0.00     0.001 A 
HETATM   34  C19 UNL     1      -7.788   3.645  13.551  1.00  0.00     0.002 A 
HETATM   35  C20 UNL     1      -7.407   2.572  12.745  1.00  0.00     0.025 A 
HETATM   36  C21 UNL     1      -6.164   2.573  12.096  1.00  0.00     0.048 A 
HETATM   37 CL1  UNL     1      -5.774   1.154  11.184  1.00  0.00    -0.083 Cl
ENDBRANCH  25  31
ENDBRANCH  22  23
ENDBRANCH  21  22
ENDBRANCH   1  21
TORSDOF 10
ENDMDL
MODEL 5
REMARK minimizedAffinity -8.28856659
REMARK CNNscore 0.156305745
REMARK CNNaffinity 6.06941986
REMARK  10 active torsions:
REMARK  status: ('A' for Active; 'I' for Inactive)
REMARK    1  A    between atoms: C2_2  and  C3_3 
REMARK    2  A    between atoms: C3_3  and  C4_4 
REMARK    3  A    between atoms: C4_4  and  O1_5 
REMARK    4  A    between atoms: O1_5  and  C5_6 
REMARK    5  A    between atoms: C5_6  and  C6_7 
REMARK    6  A    between atoms: C10_11  and  C12_13 
REMARK    7  A    between atoms: C12_13  and  C13_15 
REMARK    8  A    between atoms: C13_15  and  S1_16 
REMARK    9  A    between atoms: S1_16  and  C14_17 
REMARK   10  A    between atoms: C15_20  and  C16_21 
ROOT
HETATM    1  C12 UNL     1       1.053   6.296  10.204  1.00  0.00     0.171 C 
HETATM    2  O2  UNL     1       1.649   5.465   9.510  1.00  0.00    -0.294 OA
ENDROOT
BRANCH   1   3
HETATM    3  C10 UNL     1       1.431   7.790  10.115  1.00  0.00     0.129 C 
HETATM    4  C9  UNL     1       2.733   8.010   9.349  1.00  0.00     0.076 C 
HETATM    5  C8  UNL     1       3.788   8.110  10.441  1.00  0.00     0.141 C 
HETATM    6  C7  UNL     1       4.947   9.006  10.045  1.00  0.00     0.065 C 
HETATM    7  C22 UNL     1       2.986   8.591  11.606  1.00  0.00     0.279 C 
HETATM    8  C23 UNL     1       4.447   6.810  10.775  1.00  0.00     0.278 C 
HETATM    9  C6  UNL     1       6.185   8.280  10.543  1.00  0.00     0.157 C 
HETATM   10  O6  UNL     1       5.802   6.913  10.708  1.00  0.00    -0.313 OA
HETATM   11  O3  UNL     1       1.653   8.399  11.386  1.00  0.00    -0.301 OA
HETATM   12  O4  UNL     1       3.433   9.067  12.636  1.00  0.00    -0.264 OA
HETATM   13  O5  UNL     1       3.858   5.785  11.081  1.00  0.00    -0.264 OA
HETATM   14  C11 UNL     1       0.260   8.513   9.447  1.00  0.00     0.055 C 
BRANCH   9  15
HETATM   15  C5  UNL     1       6.766   8.835  11.849  1.00  0.00     0.200 C 
BRANCH  15  16
HETATM   16  O1  UNL     1       7.925   8.102  12.244  1.00  0.00    -0.389 OA
BRANCH  16  17
HETATM   17  C4  UNL     1       8.325   8.310  13.596  1.00  0.00     0.167 C 
BRANCH  17  18
HETATM   18  C3  UNL     1       7.302   7.787  14.603  1.00  0.00     0.026 C 
BRANCH  18  19
HETATM   19  C2  UNL     1       7.088   8.696  15.816  1.00  0.00    -0.002 C 
HETATM   20  C1  UNL     1       6.792  10.146  15.464  1.00  0.00     0.005 C 
ENDBRANCH  18  19
ENDBRANCH  17  18
ENDBRANCH  16  17
ENDBRANCH  15  16
ENDBRANCH   9  15
ENDBRANCH   1   3
BRANCH   1  21
HETATM   21  C13 UNL     1      -0.094   5.944  11.143  1.00  0.00     0.164 C 
BRANCH  21  22
HETATM   22  S1  UNL     1      -0.148   4.172  11.528  1.00  0.00    -0.085 SA
BRANCH  22  23
HETATM   23  C14 UNL     1      -1.835   3.875  11.361  1.00  0.00     0.161 A 
HETATM   24  N1  UNL     1      -2.784   4.051  12.243  1.00  0.00    -0.320 N 
HETATM   25  C15 UNL     1      -3.913   3.598  11.577  1.00  0.00     0.134 A 
ATOM     26  H1  UNL     1      -2.713   4.427  13.189  1.00  0.00     0.169 HD
HETATM   27  N2  UNL     1      -3.685   3.245  10.302  1.00  0.00    -0.283 N 
HETATM   28  N3  UNL     1      -2.356   3.412  10.199  1.00  0.00    -0.278 N 
ATOM     29  H2  UNL     1      -4.350   2.930   9.595  1.00  0.00     0.188 HD
HETATM   30  H26 UNL     1      -1.880   3.206   9.330  1.00  0.00     0.189 HD
BRANCH  25  31
HETATM   31  C16 UNL     1      -5.228   3.596  12.209  1.00  0.00     0.031 A 
HETATM   32  C17 UNL     1      -5.580   4.705  13.001  1.00  0.00     0.017 A 
HETATM   33  C18 UNL     1      -6.829   4.782  13.623  1.00  0.00     0.001 A 
HETATM   34  C19 UNL     1      -7.745   3.747  13.466  1.00  0.00     0.002 A 
HETATM   35  C20 UNL     1      -7.407   2.633  12.698  1.00  0.00     0.025 A 
HETATM   36  C21 UNL     1      -6.155   2.550  12.074  1.00  0.00     0.048 A 
HETATM   37 CL1  UNL     1      -5.826   1.086  11.209  1.00  0.00    -0.083 Cl
ENDBRANCH  25  31
ENDBRANCH  22  23
ENDBRANCH  21  22
ENDBRANCH   1  21
TORSDOF 10
ENDMDL
MODEL 6
REMARK minimizedAffinity -7.8619833
REMARK CNNscore 0.155769587
REMARK CNNaffinity 6.29132509
REMARK  10 active torsions:
REMARK  status: ('A' for Active; 'I' for Inactive)
REMARK    1  A    between atoms: C2_2  and  C3_3 
REMARK    2  A    between atoms: C3_3  and  C4_4 
REMARK    3  A    between atoms: C4_4  and  O1_5 
REMARK    4  A    between atoms: O1_5  and  C5_6 
REMARK    5  A    between atoms: C5_6  and  C6_7 
REMARK    6  A    between atoms: C10_11  and  C12_13 
REMARK    7  A    between atoms: C12_13  and  C13_15 
REMARK    8  A    between atoms: C13_15  and  S1_16 
REMARK    9  A    between atoms: S1_16  and  C14_17 
REMARK   10  A    between atoms: C15_20  and  C16_21 
ROOT
HETATM    1  C12 UNL     1      -3.034   6.132  14.604  1.00  0.00     0.171 C 
HETATM    2  O2  UNL     1      -2.705   5.031  15.059  1.00  0.00    -0.294 OA
ENDROOT
BRANCH   1   3
HETATM    3  C10 UNL     1      -2.163   7.375  14.884  1.00  0.00     0.129 C 
HETATM    4  C9  UNL     1      -2.005   8.258  13.648  1.00  0.00     0.076 C 
HETATM    5  C8  UNL     1      -0.674   7.823  13.055  1.00  0.00     0.141 C 
HETATM    6  C7  UNL     1       0.030   8.952  12.325  1.00  0.00     0.065 C 
HETATM    7  C22 UNL     1       0.046   7.299  14.254  1.00  0.00     0.279 C 
HETATM    8  C23 UNL     1      -0.789   6.751  12.018  1.00  0.00     0.278 C 
HETATM    9  C6  UNL     1       0.595   8.309  11.070  1.00  0.00     0.157 C 
HETATM   10  O6  UNL     1      -0.158   7.110  10.867  1.00  0.00    -0.313 OA
HETATM   11  O3  UNL     1      -0.827   7.061  15.275  1.00  0.00    -0.301 OA
HETATM   12  O4  UNL     1       1.243   7.079  14.332  1.00  0.00    -0.264 OA
HETATM   13  O5  UNL     1      -1.359   5.684  12.175  1.00  0.00    -0.264 OA
HETATM   14  C11 UNL     1      -2.822   8.136  16.036  1.00  0.00     0.055 C 
BRANCH   9  15
HETATM   15  C5  UNL     1       2.094   7.994  11.135  1.00  0.00     0.200 C 
BRANCH  15  16
HETATM   16  O1  UNL     1       2.396   6.800  10.414  1.00  0.00    -0.389 OA
BRANCH  16  17
HETATM   17  C4  UNL     1       3.380   6.957   9.395  1.00  0.00     0.167 C 
BRANCH  17  18
HETATM   18  C3  UNL     1       3.085   8.134   8.464  1.00  0.00     0.026 C 
BRANCH  18  19
HETATM   19  C2  UNL     1       1.848   7.945   7.581  1.00  0.00    -0.002 C 
HETATM   20  C1  UNL     1       1.984   6.838   6.547  1.00  0.00     0.005 C 
ENDBRANCH  18  19
ENDBRANCH  17  18
ENDBRANCH  16  17
ENDBRANCH  15  16
ENDBRANCH   9  15
ENDBRANCH   1   3
BRANCH   1  21
HETATM   21  C13 UNL     1      -4.258   6.349  13.723  1.00  0.00     0.164 C 
BRANCH  21  22
HETATM   22  S1  UNL     1      -4.853   4.805  12.979  1.00  0.00    -0.085 SA
BRANCH  22  23
HETATM   23  C14 UNL     1      -6.552   5.026  13.135  1.00  0.00     0.161 A 
HETATM   24  N1  UNL     1      -7.213   6.132  13.359  1.00  0.00    -0.320 N 
HETATM   25  C15 UNL     1      -8.527   5.697  13.439  1.00  0.00     0.134 A 
ATOM     26  H1  UNL     1      -6.851   7.082  13.452  1.00  0.00     0.169 HD
HETATM   27  N2  UNL     1      -8.682   4.389  13.182  1.00  0.00    -0.283 N 
HETATM   28  N3  UNL     1      -7.411   3.985  13.013  1.00  0.00    -0.278 N 
ATOM     29  H2  UNL     1      -9.541   3.843  13.130  1.00  0.00     0.188 HD
HETATM   30  H26 UNL     1      -7.205   3.015  12.812  1.00  0.00     0.189 HD
BRANCH  25  31
HETATM   31  C16 UNL     1      -9.626   6.620  13.701  1.00  0.00     0.031 A 
HETATM   32  C17 UNL     1     -10.530   6.882  12.654  1.00  0.00     0.017 A 
HETATM   33  C18 UNL     1     -11.618   7.741  12.835  1.00  0.00     0.001 A 
HETATM   34  C19 UNL     1     -11.816   8.355  14.067  1.00  0.00     0.002 A 
HETATM   35  C20 UNL     1     -10.922   8.120  15.111  1.00  0.00     0.025 A 
HETATM   36  C21 UNL     1      -9.828   7.262  14.934  1.00  0.00     0.048 A 
HETATM   37 CL1  UNL     1      -8.748   7.108  16.279  1.00  0.00    -0.083 Cl
ENDBRANCH  25  31
ENDBRANCH  22  23
ENDBRANCH  21  22
ENDBRANCH   1  21
TORSDOF 10
ENDMDL
MODEL 7
REMARK minimizedAffinity -7.71545696
REMARK CNNscore 0.149782613
REMARK CNNaffinity 5.82303667
REMARK  10 active torsions:
REMARK  status: ('A' for Active; 'I' for Inactive)
REMARK    1  A    between atoms: C2_2  and  C3_3 
REMARK    2  A    between atoms: C3_3  and  C4_4 
REMARK    3  A    between atoms: C4_4  and  O1_5 
REMARK    4  A    between atoms: O1_5  and  C5_6 
REMARK    5  A    between atoms: C5_6  and  C6_7 
REMARK    6  A    between atoms: C10_11  and  C12_13 
REMARK    7  A    between atoms: C12_13  and  C13_15 
REMARK    8  A    between atoms: C13_15  and  S1_16 
REMARK    9  A    between atoms: S1_16  and  C14_17 
REMARK   10  A    between atoms: C15_20  and  C16_21 
ROOT
HETATM    1  C12 UNL     1      -3.157   6.997  14.712  1.00  0.00     0.171 C 
HETATM    2  O2  UNL     1      -2.903   7.235  15.898  1.00  0.00    -0.294 OA
ENDROOT
BRANCH   1   3
HETATM    3  C10 UNL     1      -4.165   7.881  13.947  1.00  0.00     0.129 C 
HETATM    4  C9  UNL     1      -5.136   8.593  14.886  1.00  0.00     0.076 C 
HETATM    5  C8  UNL     1      -6.367   7.701  14.887  1.00  0.00     0.141 C 
HETATM    6  C7  UNL     1      -7.648   8.482  15.110  1.00  0.00     0.065 C 
HETATM    7  C22 UNL     1      -6.262   7.023  13.559  1.00  0.00     0.279 C 
HETATM    8  C23 UNL     1      -6.382   6.681  15.982  1.00  0.00     0.278 C 
HETATM    9  C6  UNL     1      -8.467   7.622  16.058  1.00  0.00     0.157 C 
HETATM   10  O6  UNL     1      -7.538   6.745  16.698  1.00  0.00    -0.313 OA
HETATM   11  O3  UNL     1      -5.002   7.150  13.052  1.00  0.00    -0.301 OA
HETATM   12  O4  UNL     1      -7.153   6.412  12.995  1.00  0.00    -0.264 OA
HETATM   13  O5  UNL     1      -5.487   5.882  16.206  1.00  0.00    -0.264 OA
HETATM   14  C11 UNL     1      -3.353   8.878  13.119  1.00  0.00     0.055 C 
BRANCH   9  15
HETATM   15  C5  UNL     1      -9.585   6.818  15.383  1.00  0.00     0.200 C 
BRANCH  15  16
HETATM   16  O1  UNL     1     -10.719   7.642  15.120  1.00  0.00    -0.389 OA
BRANCH  16  17
HETATM   17  C4  UNL     1     -11.462   7.275  13.961  1.00  0.00     0.167 C 
BRANCH  17  18
HETATM   18  C3  UNL     1     -12.592   6.292  14.269  1.00  0.00     0.026 C 
BRANCH  18  19
HETATM   19  C2  UNL     1     -13.977   6.937  14.372  1.00  0.00    -0.002 C 
HETATM   20  C1  UNL     1     -14.747   6.973  13.060  1.00  0.00     0.005 C 
ENDBRANCH  18  19
ENDBRANCH  17  18
ENDBRANCH  16  17
ENDBRANCH  15  16
ENDBRANCH   9  15
ENDBRANCH   1   3
BRANCH   1  21
HETATM   21  C13 UNL     1      -2.496   5.880  13.914  1.00  0.00     0.164 C 
BRANCH  21  22
HETATM   22  S1  UNL     1      -0.918   5.357  14.640  1.00  0.00    -0.085 SA
BRANCH  22  23
HETATM   23  C14 UNL     1       0.169   5.882  13.415  1.00  0.00     0.161 A 
HETATM   24  N1  UNL     1      -0.086   6.156  12.161  1.00  0.00    -0.320 N 
HETATM   25  C15 UNL     1       1.166   6.469  11.652  1.00  0.00     0.134 A 
ATOM     26  H1  UNL     1      -0.984   6.142  11.677  1.00  0.00     0.169 HD
HETATM   27  N2  UNL     1       2.140   6.479  12.575  1.00  0.00    -0.283 N 
HETATM   28  N3  UNL     1       1.483   6.084  13.679  1.00  0.00    -0.278 N 
ATOM     29  H2  UNL     1       3.124   6.723  12.467  1.00  0.00     0.188 HD
HETATM   30  H26 UNL     1       1.974   5.984  14.559  1.00  0.00     0.189 HD
BRANCH  25  31
HETATM   31  C16 UNL     1       1.356   6.829  10.252  1.00  0.00     0.031 A 
HETATM   32  C17 UNL     1       0.557   7.860   9.722  1.00  0.00     0.017 A 
HETATM   33  C18 UNL     1       0.696   8.271   8.393  1.00  0.00     0.001 A 
HETATM   34  C19 UNL     1       1.633   7.654   7.571  1.00  0.00     0.002 A 
HETATM   35  C20 UNL     1       2.421   6.620   8.075  1.00  0.00     0.025 A 
HETATM   36  C21 UNL     1       2.286   6.202   9.405  1.00  0.00     0.048 A 
HETATM   37 CL1  UNL     1       3.268   4.861   9.892  1.00  0.00    -0.083 Cl
ENDBRANCH  25  31
ENDBRANCH  22  23
ENDBRANCH  21  22
ENDBRANCH   1  21
TORSDOF 10
ENDMDL
MODEL 8
REMARK minimizedAffinity -7.82403183
REMARK CNNscore 0.146765724
REMARK CNNaffinity 5.40384674
REMARK  10 active torsions:
REMARK  status: ('A' for Active; 'I' for Inactive)
REMARK    1  A    between atoms: C2_2  and  C3_3 
REMARK    2  A    between atoms: C3_3  and  C4_4 
REMARK    3  A    between atoms: C4_4  and  O1_5 
REMARK    4  A    between atoms: O1_5  and  C5_6 
REMARK    5  A    between atoms: C5_6  and  C6_7 
REMARK    6  A    between atoms: C10_11  and  C12_13 
REMARK    7  A    between atoms: C12_13  and  C13_15 
REMARK    8  A    between atoms: C13_15  and  S1_16 
REMARK    9  A    between atoms: S1_16  and  C14_17 
REMARK   10  A    between atoms: C15_20  and  C16_21 
ROOT
HETATM    1  C12 UNL     1     -11.440   7.975  13.666  1.00  0.00     0.171 C 
HETATM    2  O2  UNL     1     -10.914   7.489  12.660  1.00  0.00    -0.294 OA
ENDROOT
BRANCH   1   3
HETATM    3  C10 UNL     1     -12.761   8.765  13.541  1.00  0.00     0.129 C 
HETATM    4  C9  UNL     1     -13.723   8.462  14.687  1.00  0.00     0.076 C 
HETATM    5  C8  UNL     1     -14.648   7.398  14.117  1.00  0.00     0.141 C 
HETATM    6  C7  UNL     1     -16.041   7.460  14.717  1.00  0.00     0.065 C 
HETATM    7  C22 UNL     1     -14.579   7.677  12.651  1.00  0.00     0.279 C 
HETATM    8  C23 UNL     1     -14.209   5.995  14.392  1.00  0.00     0.278 C 
HETATM    9  C6  UNL     1     -16.430   6.009  14.942  1.00  0.00     0.157 C 
HETATM   10  O6  UNL     1     -15.206   5.270  14.967  1.00  0.00    -0.313 OA
HETATM   11  O3  UNL     1     -13.499   8.460  12.359  1.00  0.00    -0.301 OA
HETATM   12  O4  UNL     1     -15.349   7.256  11.804  1.00  0.00    -0.264 OA
HETATM   13  O5  UNL     1     -13.106   5.543  14.128  1.00  0.00    -0.264 OA
HETATM   14  C11 UNL     1     -12.395  10.250  13.494  1.00  0.00     0.055 C 
BRANCH   9  15
HETATM   15  C5  UNL     1     -17.380   5.433  13.885  1.00  0.00     0.200 C 
BRANCH  15  16
HETATM   16  O1  UNL     1     -17.747   4.092  14.204  1.00  0.00    -0.389 OA
BRANCH  16  17
HETATM   17  C4  UNL     1     -17.883   3.231  13.077  1.00  0.00     0.167 C 
BRANCH  17  18
HETATM   18  C3  UNL     1     -16.957   2.016  13.147  1.00  0.00     0.026 C 
BRANCH  18  19
HETATM   19  C2  UNL     1     -16.468   1.675  14.558  1.00  0.00    -0.002 C 
HETATM   20  C1  UNL     1     -14.968   1.836  14.753  1.00  0.00     0.005 C 
ENDBRANCH  18  19
ENDBRANCH  17  18
ENDBRANCH  16  17
ENDBRANCH  15  16
ENDBRANCH   9  15
ENDBRANCH   1   3
BRANCH   1  21
HETATM   21  C13 UNL     1     -10.880   7.813  15.074  1.00  0.00     0.164 C 
BRANCH  21  22
HETATM   22  S1  UNL     1      -9.118   8.235  15.167  1.00  0.00    -0.085 SA
BRANCH  22  23
HETATM   23  C14 UNL     1      -8.420   6.678  14.951  1.00  0.00     0.161 A 
HETATM   24  N1  UNL     1      -7.812   6.196  13.899  1.00  0.00    -0.320 N 
HETATM   25  C15 UNL     1      -7.516   4.896  14.281  1.00  0.00     0.134 A 
ATOM     26  H1  UNL     1      -7.605   6.661  13.014  1.00  0.00     0.169 HD
HETATM   27  N2  UNL     1      -7.846   4.615  15.551  1.00  0.00    -0.283 N 
HETATM   28  N3  UNL     1      -8.435   5.757  15.945  1.00  0.00    -0.278 N 
ATOM     29  H2  UNL     1      -7.690   3.757  16.080  1.00  0.00     0.188 HD
HETATM   30  H26 UNL     1      -8.808   5.843  16.883  1.00  0.00     0.189 HD
BRANCH  25  31
HETATM   31  C16 UNL     1      -6.835   3.969  13.384  1.00  0.00     0.031 A 
HETATM   32  C17 UNL     1      -7.519   2.799  13.003  1.00  0.00     0.017 A 
HETATM   33  C18 UNL     1      -6.937   1.872  12.133  1.00  0.00     0.001 A 
HETATM   34  C19 UNL     1      -5.660   2.099  11.632  1.00  0.00     0.002 A 
HETATM   35  C20 UNL     1      -4.961   3.246  12.011  1.00  0.00     0.025 A 
HETATM   36  C21 UNL     1      -5.538   4.177  12.885  1.00  0.00     0.048 A 
HETATM   37 CL1  UNL     1      -4.545   5.521  13.339  1.00  0.00    -0.083 Cl
ENDBRANCH  25  31
ENDBRANCH  22  23
ENDBRANCH  21  22
ENDBRANCH   1  21
TORSDOF 10
ENDMDL
MODEL 9
REMARK minimizedAffinity -8.49785709
REMARK CNNscore 0.124016158
REMARK CNNaffinity 6.3119359
REMARK  10 active torsions:
REMARK  status: ('A' for Active; 'I' for Inactive)
REMARK    1  A    between atoms: C2_2  and  C3_3 
REMARK    2  A    between atoms: C3_3  and  C4_4 
REMARK    3  A    between atoms: C4_4  and  O1_5 
REMARK    4  A    between atoms: O1_5  and  C5_6 
REMARK    5  A    between atoms: C5_6  and  C6_7 
REMARK    6  A    between atoms: C10_11  and  C12_13 
REMARK    7  A    between atoms: C12_13  and  C13_15 
REMARK    8  A    between atoms: C13_15  and  S1_16 
REMARK    9  A    between atoms: S1_16  and  C14_17 
REMARK   10  A    between atoms: C15_20  and  C16_21 
ROOT
HETATM    1  C12 UNL     1      -2.832   8.643  14.717  1.00  0.00     0.171 C 
HETATM    2  O2  UNL     1      -2.593   8.001  15.746  1.00  0.00    -0.294 OA
ENDROOT
BRANCH   1   3
HETATM    3  C10 UNL     1      -1.716   9.476  14.050  1.00  0.00     0.129 C 
HETATM    4  C9  UNL     1      -1.654   9.251  12.542  1.00  0.00     0.076 C 
HETATM    5  C8  UNL     1      -0.567   8.201  12.372  1.00  0.00     0.141 C 
HETATM    6  C7  UNL     1       0.167   8.336  11.051  1.00  0.00     0.065 C 
HETATM    7  C22 UNL     1       0.274   8.423  13.588  1.00  0.00     0.279 C 
HETATM    8  C23 UNL     1      -1.074   6.794  12.351  1.00  0.00     0.278 C 
HETATM    9  C6  UNL     1       0.347   6.909  10.560  1.00  0.00     0.157 C 
HETATM   10  O6  UNL     1      -0.632   6.127  11.250  1.00  0.00    -0.313 OA
HETATM   11  O3  UNL     1      -0.407   9.154  14.517  1.00  0.00    -0.301 OA
HETATM   12  O4  UNL     1       1.403   8.000  13.764  1.00  0.00    -0.264 OA
HETATM   13  O5  UNL     1      -1.782   6.293  13.210  1.00  0.00    -0.264 OA
HETATM   14  C11 UNL     1      -1.986  10.943  14.387  1.00  0.00     0.055 C 
BRANCH   9  15
HETATM   15  C5  UNL     1       1.749   6.330  10.785  1.00  0.00     0.200 C 
BRANCH  15  16
HETATM   16  O1  UNL     1       2.112   5.447   9.726  1.00  0.00    -0.389 OA
BRANCH  16  17
HETATM   17  C4  UNL     1       3.119   5.952   8.853  1.00  0.00     0.167 C 
BRANCH  17  18
HETATM   18  C3  UNL     1       3.176   7.480   8.838  1.00  0.00     0.026 C 
BRANCH  18  19
HETATM   19  C2  UNL     1       2.385   8.130   7.699  1.00  0.00    -0.002 C 
HETATM   20  C1  UNL     1       1.942   7.160   6.615  1.00  0.00     0.005 C 
ENDBRANCH  18  19
ENDBRANCH  17  18
ENDBRANCH  16  17
ENDBRANCH  15  16
ENDBRANCH   9  15
ENDBRANCH   1   3
BRANCH   1  21
HETATM   21  C13 UNL     1      -4.185   8.641  14.016  1.00  0.00     0.164 C 
BRANCH  21  22
HETATM   22  S1  UNL     1      -5.566   8.520  15.186  1.00  0.00    -0.085 SA
BRANCH  22  23
HETATM   23  C14 UNL     1      -6.113   6.925  14.848  1.00  0.00     0.161 A 
HETATM   24  N1  UNL     1      -5.717   6.110  13.904  1.00  0.00    -0.320 N 
HETATM   25  C15 UNL     1      -6.537   5.007  14.084  1.00  0.00     0.134 A 
ATOM     26  H1  UNL     1      -4.985   6.251  13.207  1.00  0.00     0.169 HD
HETATM   27  N2  UNL     1      -7.343   5.098  15.154  1.00  0.00    -0.283 N 
HETATM   28  N3  UNL     1      -7.067   6.333  15.607  1.00  0.00    -0.278 N 
ATOM     29  H2  UNL     1      -7.996   4.409  15.526  1.00  0.00     0.188 HD
HETATM   30  H26 UNL     1      -7.544   6.697  16.422  1.00  0.00     0.189 HD
BRANCH  25  31
HETATM   31  C16 UNL     1      -6.449   3.835  13.219  1.00  0.00     0.031 A 
HETATM   32  C17 UNL     1      -7.480   2.880  13.296  1.00  0.00     0.017 A 
HETATM   33  C18 UNL     1      -7.472   1.742  12.485  1.00  0.00     0.001 A 
HETATM   34  C19 UNL     1      -6.431   1.538  11.587  1.00  0.00     0.002 A 
HETATM   35  C20 UNL     1      -5.392   2.466  11.509  1.00  0.00     0.025 A 
HETATM   36  C21 UNL     1      -5.393   3.608  12.321  1.00  0.00     0.048 A 
HETATM   37 CL1  UNL     1      -4.014   4.647  12.184  1.00  0.00    -0.083 Cl
ENDBRANCH  25  31
ENDBRANCH  22  23
ENDBRANCH  21  22
ENDBRANCH   1  21
TORSDOF 10
ENDMDL
