MODEL 1
REMARK minimizedAffinity -8.61872768
REMARK CNNscore 0.79672426
REMARK CNNaffinity 6.72026873
REMARK  7 active torsions:
REMARK  status: ('A' for Active; 'I' for Inactive)
REMARK    1  A    between atoms: C2_2  and  C4_4 
REMARK    2  A    between atoms: C4_4  and  O1_6 
REMARK    3  A    between atoms: C4_4  and  C6_7 
REMARK    4  A    between atoms: C7_9  and  C8_10 
REMARK    5  A    between atoms: C8_10  and  C9_11 
REMARK    6  A    between atoms: C12_14  and  O3_15 
REMARK    7  A    between atoms: C18_22  and  O5_23 
ROOT
HETATM    1  C9  UNL     1     -14.611  45.320 -26.658  1.00  0.00     0.034 C 
HETATM    2  C10 UNL     1     -13.944  44.741 -25.370  1.00  0.00     0.012 C 
HETATM    3  C11 UNL     1     -12.419  44.882 -25.548  1.00  0.00     0.044 C 
HETATM    4  C12 UNL     1     -12.272  45.856 -26.718  1.00  0.00     0.089 C 
HETATM    5  C13 UNL     1     -10.989  46.004 -27.496  1.00  0.00    -0.037 C 
HETATM    6  C14 UNL     1      -9.927  45.202 -27.329  1.00  0.00     0.057 C 
HETATM    7  C15 UNL     1      -8.785  45.237 -28.269  1.00  0.00     0.154 C 
HETATM    8  O4  UNL     1      -7.807  44.537 -28.017  1.00  0.00    -0.293 OA
HETATM    9  C16 UNL     1      -8.910  46.087 -29.535  1.00  0.00     0.071 C 
HETATM   10  C17 UNL     1      -7.524  46.345 -30.154  1.00  0.00     0.045 C 
HETATM   11  C18 UNL     1      -6.717  47.442 -29.450  1.00  0.00     0.119 C 
HETATM   12  C19 UNL     1      -7.351  47.957 -28.163  1.00  0.00     0.032 C 
HETATM   13  C20 UNL     1      -8.836  48.320 -28.299  1.00  0.00     0.013 C 
HETATM   14  C21 UNL     1      -9.679  47.399 -29.250  1.00  0.00    -0.026 C 
HETATM   15  C22 UNL     1      -9.909  48.178 -30.570  1.00  0.00     0.016 C 
HETATM   16  C23 UNL     1     -11.069  47.089 -28.574  1.00  0.00     0.026 C 
HETATM   17  C24 UNL     1     -12.237  46.742 -29.532  1.00  0.00     0.011 C 
HETATM   18  C25 UNL     1     -13.570  46.468 -28.792  1.00  0.00     0.014 C 
HETATM   19  C26 UNL     1     -13.425  45.404 -27.679  1.00  0.00    -0.002 C 
HETATM   20  C27 UNL     1     -13.130  44.039 -28.351  1.00  0.00     0.019 C 
ENDROOT
BRANCH   1  21
HETATM   21  C8  UNL     1     -16.016  44.689 -27.008  1.00  0.00     0.094 C 
HETATM   22  C28 UNL     1     -16.227  44.439 -28.536  1.00  0.00     0.045 C 
HETATM   23  C29 UNL     1     -16.932  43.145 -28.991  1.00  0.00    -0.014 C 
HETATM   24  C30 UNL     1     -18.170  43.409 -29.847  1.00  0.00     0.010 C 
HETATM   25  C31 UNL     1     -17.222  42.184 -27.848  1.00  0.00     0.030 C 
HETATM   26  C32 UNL     1     -16.072  42.240 -26.870  1.00  0.00     0.169 C 
HETATM   27  O6  UNL     1     -16.069  43.489 -26.204  1.00  0.00    -0.377 OA
BRANCH  21  28
HETATM   28  C7  UNL     1     -17.089  45.581 -26.385  1.00  0.00     0.189 A 
HETATM   29  C6  UNL     1     -18.143  45.082 -25.411  1.00  0.00     0.188 A 
HETATM   30  O2  UNL     1     -18.443  45.357 -26.791  1.00  0.00    -0.369 OA
BRANCH  29  31
HETATM   31  C4  UNL     1     -18.863  45.964 -24.406  1.00  0.00     0.086 C 
HETATM   32  C5  UNL     1     -20.168  45.255 -24.002  1.00  0.00     0.049 C 
BRANCH  31  33
HETATM   33  C2  UNL     1     -17.960  46.224 -23.157  1.00  0.00     0.014 C 
HETATM   34  C1  UNL     1     -16.880  45.150 -22.963  1.00  0.00     0.012 C 
HETATM   35  C3  UNL     1     -18.759  46.336 -21.849  1.00  0.00     0.012 C 
ENDBRANCH  31  33
BRANCH  31  36
HETATM   36  O1  UNL     1     -19.256  47.208 -24.993  1.00  0.00    -0.387 OA
HETATM   37  H11 UNL     1     -18.455  47.691 -25.248  1.00  0.00     0.210 HD
ENDBRANCH  31  36
ENDBRANCH  29  31
ENDBRANCH  21  28
ENDBRANCH   1  21
BRANCH   4  38
HETATM   38  O3  UNL     1     -12.550  47.157 -26.172  1.00  0.00    -0.384 OA
HETATM   39  H19 UNL     1     -11.828  47.370 -25.557  1.00  0.00     0.211 HD
ENDBRANCH   4  38
BRANCH  11  40
HETATM   40  O5  UNL     1      -6.553  48.536 -30.353  1.00  0.00    -0.396 OA
HETATM   41  H25 UNL     1      -5.916  49.152 -29.954  1.00  0.00     0.210 HD
ENDBRANCH  11  40
TORSDOF 7
ENDMDL
MODEL 2
REMARK minimizedAffinity -9.96091938
REMARK CNNscore 0.626511276
REMARK CNNaffinity 7.59095383
REMARK  7 active torsions:
REMARK  status: ('A' for Active; 'I' for Inactive)
REMARK    1  A    between atoms: C2_2  and  C4_4 
REMARK    2  A    between atoms: C4_4  and  O1_6 
REMARK    3  A    between atoms: C4_4  and  C6_7 
REMARK    4  A    between atoms: C7_9  and  C8_10 
REMARK    5  A    between atoms: C8_10  and  C9_11 
REMARK    6  A    between atoms: C12_14  and  O3_15 
REMARK    7  A    between atoms: C18_22  and  O5_23 
ROOT
HETATM    1  C9  UNL     1      -3.112  50.858 -20.806  1.00  0.00     0.034 C 
HETATM    2  C10 UNL     1      -4.352  50.140 -20.187  1.00  0.00     0.012 C 
HETATM    3  C11 UNL     1      -3.948  49.674 -18.774  1.00  0.00     0.044 C 
HETATM    4  C12 UNL     1      -2.663  50.452 -18.484  1.00  0.00     0.089 C 
HETATM    5  C13 UNL     1      -1.701  50.054 -17.392  1.00  0.00    -0.037 C 
HETATM    6  C14 UNL     1      -1.810  48.916 -16.690  1.00  0.00     0.057 C 
HETATM    7  C15 UNL     1      -0.722  48.459 -15.798  1.00  0.00     0.154 C 
HETATM    8  O4  UNL     1      -0.915  47.452 -15.121  1.00  0.00    -0.293 OA
HETATM    9  C16 UNL     1       0.604  49.220 -15.819  1.00  0.00     0.071 C 
HETATM   10  C17 UNL     1       1.437  48.892 -14.566  1.00  0.00     0.045 C 
HETATM   11  C18 UNL     1       0.986  49.634 -13.302  1.00  0.00     0.119 C 
HETATM   12  C19 UNL     1      -0.307  50.422 -13.466  1.00  0.00     0.032 C 
HETATM   13  C20 UNL     1      -0.339  51.319 -14.712  1.00  0.00     0.013 C 
HETATM   14  C21 UNL     1       0.370  50.740 -15.986  1.00  0.00    -0.026 C 
HETATM   15  C22 UNL     1       1.727  51.474 -16.139  1.00  0.00     0.016 C 
HETATM   16  C23 UNL     1      -0.525  51.025 -17.252  1.00  0.00     0.026 C 
HETATM   17  C24 UNL     1       0.213  51.100 -18.613  1.00  0.00     0.011 C 
HETATM   18  C25 UNL     1      -0.733  51.400 -19.803  1.00  0.00     0.014 C 
HETATM   19  C26 UNL     1      -1.932  50.425 -19.870  1.00  0.00    -0.002 C 
HETATM   20  C27 UNL     1      -1.389  49.016 -20.222  1.00  0.00     0.019 C 
ENDROOT
BRANCH   1  21
HETATM   21  C8  UNL     1      -3.038  50.796 -22.383  1.00  0.00     0.094 C 
HETATM   22  C28 UNL     1      -3.100  49.343 -22.955  1.00  0.00     0.045 C 
HETATM   23  C29 UNL     1      -3.925  49.078 -24.231  1.00  0.00    -0.014 C 
HETATM   24  C30 UNL     1      -3.102  48.451 -25.355  1.00  0.00     0.010 C 
HETATM   25  C31 UNL     1      -4.708  50.293 -24.705  1.00  0.00     0.030 C 
HETATM   26  C32 UNL     1      -5.212  51.043 -23.494  1.00  0.00     0.169 C 
HETATM   27  O6  UNL     1      -4.124  51.645 -22.816  1.00  0.00    -0.377 OA
BRANCH  21  28
HETATM   28  C7  UNL     1      -1.791  51.566 -22.816  1.00  0.00     0.189 A 
HETATM   29  C6  UNL     1      -1.171  51.464 -24.199  1.00  0.00     0.188 A 
HETATM   30  O2  UNL     1      -0.602  50.806 -23.053  1.00  0.00    -0.369 OA
BRANCH  29  31
HETATM   31  C4  UNL     1      -0.299  52.539 -24.825  1.00  0.00     0.086 C 
HETATM   32  C5  UNL     1       0.811  52.893 -23.819  1.00  0.00     0.049 C 
BRANCH  31  33
HETATM   33  C2  UNL     1       0.310  52.036 -26.174  1.00  0.00     0.014 C 
HETATM   34  C1  UNL     1      -0.422  50.813 -26.744  1.00  0.00     0.012 C 
HETATM   35  C3  UNL     1       1.803  51.689 -26.068  1.00  0.00     0.012 C 
ENDBRANCH  31  33
BRANCH  31  36
HETATM   36  O1  UNL     1      -1.035  53.747 -25.041  1.00  0.00    -0.387 OA
HETATM   37  H11 UNL     1      -1.737  53.565 -25.683  1.00  0.00     0.210 HD
ENDBRANCH  31  36
ENDBRANCH  29  31
ENDBRANCH  21  28
ENDBRANCH   1  21
BRANCH   4  38
HETATM   38  O3  UNL     1      -3.086  51.788 -18.161  1.00  0.00    -0.384 OA
HETATM   39  H19 UNL     1      -3.565  51.742 -17.317  1.00  0.00     0.211 HD
ENDBRANCH   4  38
BRANCH  11  40
HETATM   40  O5  UNL     1       2.025  50.529 -12.905  1.00  0.00    -0.396 OA
HETATM   41  H25 UNL     1       1.794  50.875 -12.026  1.00  0.00     0.210 HD
ENDBRANCH  11  40
TORSDOF 7
ENDMDL
MODEL 3
REMARK minimizedAffinity -7.87411499
REMARK CNNscore 0.494319618
REMARK CNNaffinity 6.24609756
REMARK  7 active torsions:
REMARK  status: ('A' for Active; 'I' for Inactive)
REMARK    1  A    between atoms: C2_2  and  C4_4 
REMARK    2  A    between atoms: C4_4  and  O1_6 
REMARK    3  A    between atoms: C4_4  and  C6_7 
REMARK    4  A    between atoms: C7_9  and  C8_10 
REMARK    5  A    between atoms: C8_10  and  C9_11 
REMARK    6  A    between atoms: C12_14  and  O3_15 
REMARK    7  A    between atoms: C18_22  and  O5_23 
ROOT
HETATM    1  C9  UNL     1      -9.744  43.841 -34.030  1.00  0.00     0.034 C 
HETATM    2  C10 UNL     1     -11.133  43.128 -33.989  1.00  0.00     0.012 C 
HETATM    3  C11 UNL     1     -12.061  43.889 -34.958  1.00  0.00     0.044 C 
HETATM    4  C12 UNL     1     -11.103  44.745 -35.789  1.00  0.00     0.089 C 
HETATM    5  C13 UNL     1     -11.568  45.929 -36.599  1.00  0.00    -0.037 C 
HETATM    6  C14 UNL     1     -12.816  46.418 -36.545  1.00  0.00     0.057 C 
HETATM    7  C15 UNL     1     -13.160  47.711 -37.176  1.00  0.00     0.154 C 
HETATM    8  O4  UNL     1     -14.337  48.066 -37.162  1.00  0.00    -0.293 OA
HETATM    9  C16 UNL     1     -12.028  48.567 -37.746  1.00  0.00     0.071 C 
HETATM   10  C17 UNL     1     -12.585  49.629 -38.712  1.00  0.00     0.045 C 
HETATM   11  C18 UNL     1     -12.931  49.089 -40.105  1.00  0.00     0.119 C 
HETATM   12  C19 UNL     1     -12.831  47.574 -40.232  1.00  0.00     0.032 C 
HETATM   13  C20 UNL     1     -11.523  46.986 -39.685  1.00  0.00     0.013 C 
HETATM   14  C21 UNL     1     -10.943  47.684 -38.406  1.00  0.00    -0.026 C 
HETATM   15  C22 UNL     1      -9.746  48.561 -38.856  1.00  0.00     0.016 C 
HETATM   16  C23 UNL     1     -10.437  46.584 -37.398  1.00  0.00     0.026 C 
HETATM   17  C24 UNL     1      -9.325  47.017 -36.408  1.00  0.00     0.011 C 
HETATM   18  C25 UNL     1      -8.872  45.875 -35.464  1.00  0.00     0.014 C 
HETATM   19  C26 UNL     1     -10.056  45.212 -34.721  1.00  0.00    -0.002 C 
HETATM   20  C27 UNL     1     -10.646  46.249 -33.731  1.00  0.00     0.019 C 
ENDROOT
BRANCH   1  21
HETATM   21  C8  UNL     1      -8.902  43.709 -32.700  1.00  0.00     0.094 C 
HETATM   22  C28 UNL     1      -8.132  45.014 -32.315  1.00  0.00     0.045 C 
HETATM   23  C29 UNL     1      -8.071  45.435 -30.833  1.00  0.00    -0.014 C 
HETATM   24  C30 UNL     1      -6.642  45.591 -30.314  1.00  0.00     0.010 C 
HETATM   25  C31 UNL     1      -8.917  44.557 -29.922  1.00  0.00     0.030 C 
HETATM   26  C32 UNL     1     -10.180  44.178 -30.658  1.00  0.00     0.169 C 
HETATM   27  O6  UNL     1      -9.871  43.287 -31.714  1.00  0.00    -0.377 OA
BRANCH  21  28
HETATM   28  C7  UNL     1      -7.994  42.490 -32.850  1.00  0.00     0.189 A 
HETATM   29  C6  UNL     1      -6.800  42.434 -33.789  1.00  0.00     0.188 A 
HETATM   30  O2  UNL     1      -8.047  41.784 -34.094  1.00  0.00    -0.369 OA
BRANCH  29  31
HETATM   31  C4  UNL     1      -5.614  41.503 -33.607  1.00  0.00     0.086 C 
HETATM   32  C5  UNL     1      -6.006  40.123 -34.166  1.00  0.00     0.049 C 
BRANCH  31  33
HETATM   33  C2  UNL     1      -4.355  42.066 -34.344  1.00  0.00     0.014 C 
HETATM   34  C1  UNL     1      -4.283  41.643 -35.818  1.00  0.00     0.012 C 
HETATM   35  C3  UNL     1      -3.034  41.667 -33.669  1.00  0.00     0.012 C 
ENDBRANCH  31  33
BRANCH  31  36
HETATM   36  O1  UNL     1      -5.320  41.297 -32.223  1.00  0.00    -0.387 OA
HETATM   37  H11 UNL     1      -5.054  42.147 -31.838  1.00  0.00     0.210 HD
ENDBRANCH  31  36
ENDBRANCH  29  31
ENDBRANCH  21  28
ENDBRANCH   1  21
BRANCH   4  38
HETATM   38  O3  UNL     1     -10.498  43.842 -36.730  1.00  0.00    -0.384 OA
HETATM   39  H19 UNL     1     -11.196  43.555 -37.342  1.00  0.00     0.211 HD
ENDBRANCH   4  38
BRANCH  11  40
HETATM   40  O5  UNL     1     -12.053  49.691 -41.056  1.00  0.00    -0.396 OA
HETATM   41  H25 UNL     1     -12.381  49.461 -41.943  1.00  0.00     0.210 HD
ENDBRANCH  11  40
TORSDOF 7
ENDMDL
MODEL 4
REMARK minimizedAffinity -8.96381092
REMARK CNNscore 0.489233315
REMARK CNNaffinity 7.31142044
REMARK  7 active torsions:
REMARK  status: ('A' for Active; 'I' for Inactive)
REMARK    1  A    between atoms: C2_2  and  C4_4 
REMARK    2  A    between atoms: C4_4  and  O1_6 
REMARK    3  A    between atoms: C4_4  and  C6_7 
REMARK    4  A    between atoms: C7_9  and  C8_10 
REMARK    5  A    between atoms: C8_10  and  C9_11 
REMARK    6  A    between atoms: C12_14  and  O3_15 
REMARK    7  A    between atoms: C18_22  and  O5_23 
ROOT
HETATM    1  C9  UNL     1      -1.546  50.618 -21.556  1.00  0.00     0.034 C 
HETATM    2  C10 UNL     1      -1.072  52.041 -21.121  1.00  0.00     0.012 C 
HETATM    3  C11 UNL     1      -1.088  52.071 -19.579  1.00  0.00     0.044 C 
HETATM    4  C12 UNL     1      -1.192  50.597 -19.182  1.00  0.00     0.089 C 
HETATM    5  C13 UNL     1      -1.618  50.155 -17.805  1.00  0.00    -0.037 C 
HETATM    6  C14 UNL     1      -2.079  50.997 -16.868  1.00  0.00     0.057 C 
HETATM    7  C15 UNL     1      -2.699  50.493 -15.623  1.00  0.00     0.154 C 
HETATM    8  O4  UNL     1      -3.027  51.313 -14.768  1.00  0.00    -0.293 OA
HETATM    9  C16 UNL     1      -2.961  48.991 -15.496  1.00  0.00     0.071 C 
HETATM   10  C17 UNL     1      -3.198  48.604 -14.025  1.00  0.00     0.045 C 
HETATM   11  C18 UNL     1      -1.915  48.490 -13.193  1.00  0.00     0.119 C 
HETATM   12  C19 UNL     1      -0.656  48.950 -13.917  1.00  0.00     0.032 C 
HETATM   13  C20 UNL     1      -0.493  48.360 -15.324  1.00  0.00     0.013 C 
HETATM   14  C21 UNL     1      -1.819  48.172 -16.143  1.00  0.00    -0.026 C 
HETATM   15  C22 UNL     1      -2.170  46.662 -16.121  1.00  0.00     0.016 C 
HETATM   16  C23 UNL     1      -1.580  48.634 -17.630  1.00  0.00     0.026 C 
HETATM   17  C24 UNL     1      -2.498  47.994 -18.704  1.00  0.00     0.011 C 
HETATM   18  C25 UNL     1      -2.189  48.487 -20.140  1.00  0.00     0.014 C 
HETATM   19  C26 UNL     1      -2.187  50.030 -20.252  1.00  0.00    -0.002 C 
HETATM   20  C27 UNL     1      -3.637  50.532 -20.032  1.00  0.00     0.019 C 
ENDROOT
BRANCH   1  21
HETATM   21  C8  UNL     1      -2.249  50.567 -22.970  1.00  0.00     0.094 C 
HETATM   22  C28 UNL     1      -3.043  49.245 -23.226  1.00  0.00     0.045 C 
HETATM   23  C29 UNL     1      -4.406  49.319 -23.943  1.00  0.00    -0.014 C 
HETATM   24  C30 UNL     1      -4.465  48.463 -25.207  1.00  0.00     0.010 C 
HETATM   25  C31 UNL     1      -4.876  50.744 -24.194  1.00  0.00     0.030 C 
HETATM   26  C32 UNL     1      -4.475  51.598 -23.015  1.00  0.00     0.169 C 
HETATM   27  O6  UNL     1      -3.068  51.757 -22.995  1.00  0.00    -0.377 OA
BRANCH  21  28
HETATM   28  C7  UNL     1      -1.181  50.849 -24.025  1.00  0.00     0.189 A 
HETATM   29  C6  UNL     1      -1.326  51.895 -25.117  1.00  0.00     0.188 A 
HETATM   30  O2  UNL     1      -1.485  50.488 -25.377  1.00  0.00    -0.369 OA
BRANCH  29  31
HETATM   31  C4  UNL     1      -0.157  52.554 -25.829  1.00  0.00     0.086 C 
HETATM   32  C5  UNL     1       0.753  53.186 -24.759  1.00  0.00     0.049 C 
BRANCH  31  33
HETATM   33  C2  UNL     1       0.629  51.506 -26.682  1.00  0.00     0.014 C 
HETATM   34  C1  UNL     1       2.115  51.419 -26.306  1.00  0.00     0.012 C 
HETATM   35  C3  UNL     1       0.534  51.767 -28.193  1.00  0.00     0.012 C 
ENDBRANCH  31  33
BRANCH  31  36
HETATM   36  O1  UNL     1      -0.594  53.633 -26.660  1.00  0.00    -0.387 OA
HETATM   37  H11 UNL     1      -1.161  53.270 -27.357  1.00  0.00     0.210 HD
ENDBRANCH  31  36
ENDBRANCH  29  31
ENDBRANCH  21  28
ENDBRANCH   1  21
BRANCH   4  38
HETATM   38  O3  UNL     1       0.124  50.052 -19.377  1.00  0.00    -0.384 OA
HETATM   39  H19 UNL     1       0.706  50.464 -18.716  1.00  0.00     0.211 HD
ENDBRANCH   4  38
BRANCH  11  40
HETATM   40  O5  UNL     1      -1.750  47.128 -12.798  1.00  0.00    -0.396 OA
HETATM   41  H25 UNL     1      -1.026  47.098 -12.149  1.00  0.00     0.210 HD
ENDBRANCH  11  40
TORSDOF 7
ENDMDL
MODEL 5
REMARK minimizedAffinity -8.10774326
REMARK CNNscore 0.45648852
REMARK CNNaffinity 7.34281731
REMARK  7 active torsions:
REMARK  status: ('A' for Active; 'I' for Inactive)
REMARK    1  A    between atoms: C2_2  and  C4_4 
REMARK    2  A    between atoms: C4_4  and  O1_6 
REMARK    3  A    between atoms: C4_4  and  C6_7 
REMARK    4  A    between atoms: C7_9  and  C8_10 
REMARK    5  A    between atoms: C8_10  and  C9_11 
REMARK    6  A    between atoms: C12_14  and  O3_15 
REMARK    7  A    between atoms: C18_22  and  O5_23 
ROOT
HETATM    1  C9  UNL     1      -0.669  51.413 -20.166  1.00  0.00     0.034 C 
HETATM    2  C10 UNL     1      -0.385  52.902 -19.790  1.00  0.00     0.012 C 
HETATM    3  C11 UNL     1      -0.196  52.954 -18.260  1.00  0.00     0.044 C 
HETATM    4  C12 UNL     1       0.003  51.489 -17.864  1.00  0.00     0.089 C 
HETATM    5  C13 UNL     1      -0.152  51.004 -16.444  1.00  0.00    -0.037 C 
HETATM    6  C14 UNL     1      -0.615  51.773 -15.447  1.00  0.00     0.057 C 
HETATM    7  C15 UNL     1      -0.967  51.192 -14.132  1.00  0.00     0.154 C 
HETATM    8  O4  UNL     1      -1.309  51.959 -13.235  1.00  0.00    -0.293 OA
HETATM    9  C16 UNL     1      -0.954  49.670 -13.982  1.00  0.00     0.071 C 
HETATM   10  C17 UNL     1      -0.921  49.272 -12.495  1.00  0.00     0.045 C 
HETATM   11  C18 UNL     1       0.464  49.388 -11.846  1.00  0.00     0.119 C 
HETATM   12  C19 UNL     1       1.518  50.039 -12.733  1.00  0.00     0.032 C 
HETATM   13  C20 UNL     1       1.584  49.462 -14.153  1.00  0.00     0.013 C 
HETATM   14  C21 UNL     1       0.210  49.042 -14.784  1.00  0.00    -0.026 C 
HETATM   15  C22 UNL     1       0.123  47.496 -14.726  1.00  0.00     0.016 C 
HETATM   16  C23 UNL     1       0.164  49.514 -16.287  1.00  0.00     0.026 C 
HETATM   17  C24 UNL     1      -0.771  48.713 -17.230  1.00  0.00     0.011 C 
HETATM   18  C25 UNL     1      -0.747  49.228 -18.691  1.00  0.00     0.014 C 
HETATM   19  C26 UNL     1      -1.019  50.747 -18.791  1.00  0.00    -0.002 C 
HETATM   20  C27 UNL     1      -2.489  51.004 -18.372  1.00  0.00     0.019 C 
ENDROOT
BRANCH   1  21
HETATM   21  C8  UNL     1      -1.539  51.222 -21.471  1.00  0.00     0.094 C 
HETATM   22  C28 UNL     1      -1.641  49.736 -21.944  1.00  0.00     0.045 C 
HETATM   23  C29 UNL     1      -2.991  49.213 -22.475  1.00  0.00    -0.014 C 
HETATM   24  C30 UNL     1      -2.897  48.645 -23.890  1.00  0.00     0.010 C 
HETATM   25  C31 UNL     1      -4.123  50.220 -22.337  1.00  0.00     0.030 C 
HETATM   26  C32 UNL     1      -3.942  50.973 -21.040  1.00  0.00     0.169 C 
HETATM   27  O6  UNL     1      -2.811  51.819 -21.132  1.00  0.00    -0.377 OA
BRANCH  21  28
HETATM   28  C7  UNL     1      -0.980  52.162 -22.538  1.00  0.00     0.189 A 
HETATM   29  C6  UNL     1      -0.550  51.709 -23.923  1.00  0.00     0.188 A 
HETATM   30  O2  UNL     1       0.401  52.009 -22.885  1.00  0.00    -0.369 OA
BRANCH  29  31
HETATM   31  C4  UNL     1      -0.488  52.620 -25.138  1.00  0.00     0.086 C 
HETATM   32  C5  UNL     1       0.387  53.834 -24.775  1.00  0.00     0.049 C 
BRANCH  31  33
HETATM   33  C2  UNL     1       0.101  51.856 -26.368  1.00  0.00     0.014 C 
HETATM   34  C1  UNL     1      -0.620  50.531 -26.653  1.00  0.00     0.012 C 
HETATM   35  C3  UNL     1       1.603  51.560 -26.230  1.00  0.00     0.012 C 
ENDBRANCH  31  33
BRANCH  31  36
HETATM   36  O1  UNL     1      -1.778  53.147 -25.461  1.00  0.00    -0.387 OA
HETATM   37  H11 UNL     1      -2.355  52.409 -25.709  1.00  0.00     0.210 HD
ENDBRANCH  31  36
ENDBRANCH  29  31
ENDBRANCH  21  28
ENDBRANCH   1  21
BRANCH   4  38
HETATM   38  O3  UNL     1       1.353  51.168 -18.240  1.00  0.00    -0.384 OA
HETATM   39  H19 UNL     1       1.942  51.682 -17.662  1.00  0.00     0.211 HD
ENDBRANCH   4  38
BRANCH  11  40
HETATM   40  O5  UNL     1       0.907  48.079 -11.488  1.00  0.00    -0.396 OA
HETATM   41  H25 UNL     1       1.708  48.180 -10.944  1.00  0.00     0.210 HD
ENDBRANCH  11  40
TORSDOF 7
ENDMDL
MODEL 6
REMARK minimizedAffinity -8.66926289
REMARK CNNscore 0.45121929
REMARK CNNaffinity 6.36311722
REMARK  7 active torsions:
REMARK  status: ('A' for Active; 'I' for Inactive)
REMARK    1  A    between atoms: C2_2  and  C4_4 
REMARK    2  A    between atoms: C4_4  and  O1_6 
REMARK    3  A    between atoms: C4_4  and  C6_7 
REMARK    4  A    between atoms: C7_9  and  C8_10 
REMARK    5  A    between atoms: C8_10  and  C9_11 
REMARK    6  A    between atoms: C12_14  and  O3_15 
REMARK    7  A    between atoms: C18_22  and  O5_23 
ROOT
HETATM    1  C9  UNL     1      -9.038  47.111 -29.054  1.00  0.00     0.034 C 
HETATM    2  C10 UNL     1     -10.489  47.093 -28.475  1.00  0.00     0.012 C 
HETATM    3  C11 UNL     1     -10.369  47.285 -26.949  1.00  0.00     0.044 C 
HETATM    4  C12 UNL     1      -8.935  47.779 -26.751  1.00  0.00     0.089 C 
HETATM    5  C13 UNL     1      -8.240  47.740 -25.413  1.00  0.00    -0.037 C 
HETATM    6  C14 UNL     1      -8.757  47.142 -24.329  1.00  0.00     0.057 C 
HETATM    7  C15 UNL     1      -7.944  46.929 -23.111  1.00  0.00     0.154 C 
HETATM    8  O4  UNL     1      -8.498  46.450 -22.124  1.00  0.00    -0.293 OA
HETATM    9  C16 UNL     1      -6.450  47.250 -23.168  1.00  0.00     0.071 C 
HETATM   10  C17 UNL     1      -5.869  47.379 -21.748  1.00  0.00     0.045 C 
HETATM   11  C18 UNL     1      -6.171  48.719 -21.067  1.00  0.00     0.119 C 
HETATM   12  C19 UNL     1      -7.136  49.611 -21.839  1.00  0.00     0.032 C 
HETATM   13  C20 UNL     1      -6.782  49.777 -23.323  1.00  0.00     0.013 C 
HETATM   14  C21 UNL     1      -6.184  48.509 -24.028  1.00  0.00    -0.026 C 
HETATM   15  C22 UNL     1      -4.658  48.736 -24.181  1.00  0.00     0.016 C 
HETATM   16  C23 UNL     1      -6.837  48.351 -25.454  1.00  0.00     0.026 C 
HETATM   17  C24 UNL     1      -6.000  47.587 -26.512  1.00  0.00     0.011 C 
HETATM   18  C25 UNL     1      -6.702  47.491 -27.890  1.00  0.00     0.014 C 
HETATM   19  C26 UNL     1      -8.135  46.917 -27.788  1.00  0.00    -0.002 C 
HETATM   20  C27 UNL     1      -8.031  45.430 -27.362  1.00  0.00     0.019 C 
ENDROOT
BRANCH   1  21
HETATM   21  C8  UNL     1      -8.856  46.283 -30.387  1.00  0.00     0.094 C 
HETATM   22  C28 UNL     1      -9.631  44.926 -30.391  1.00  0.00     0.045 C 
HETATM   23  C29 UNL     1     -10.340  44.475 -31.684  1.00  0.00    -0.014 C 
HETATM   24  C30 UNL     1      -9.876  43.104 -32.174  1.00  0.00     0.010 C 
HETATM   25  C31 UNL     1     -10.299  45.520 -32.788  1.00  0.00     0.030 C 
HETATM   26  C32 UNL     1     -10.439  46.887 -32.162  1.00  0.00     0.169 C 
HETATM   27  O6  UNL     1      -9.270  47.198 -31.425  1.00  0.00    -0.377 OA
BRANCH  21  28
HETATM   28  C7  UNL     1      -7.356  46.127 -30.629  1.00  0.00     0.189 A 
HETATM   29  C6  UNL     1      -6.651  46.583 -31.896  1.00  0.00     0.188 A 
HETATM   30  O2  UNL     1      -6.949  45.198 -31.640  1.00  0.00    -0.369 OA
BRANCH  29  31
HETATM   31  C4  UNL     1      -5.172  46.920 -31.976  1.00  0.00     0.086 C 
HETATM   32  C5  UNL     1      -4.395  45.603 -32.153  1.00  0.00     0.049 C 
BRANCH  31  33
HETATM   33  C2  UNL     1      -4.895  47.895 -33.167  1.00  0.00     0.014 C 
HETATM   34  C1  UNL     1      -5.938  47.787 -34.288  1.00  0.00     0.012 C 
HETATM   35  C3  UNL     1      -3.504  47.703 -33.791  1.00  0.00     0.012 C 
ENDBRANCH  31  33
BRANCH  31  36
HETATM   36  O1  UNL     1      -4.702  47.495 -30.754  1.00  0.00    -0.387 OA
HETATM   37  H11 UNL     1      -5.161  48.337 -30.616  1.00  0.00     0.210 HD
ENDBRANCH  31  36
ENDBRANCH  29  31
ENDBRANCH  21  28
ENDBRANCH   1  21
BRANCH   4  38
HETATM   38  O3  UNL     1      -8.946  49.162 -27.145  1.00  0.00    -0.384 OA
HETATM   39  H19 UNL     1      -9.485  49.641 -26.493  1.00  0.00     0.211 HD
ENDBRANCH   4  38
BRANCH  11  40
HETATM   40  O5  UNL     1      -4.941  49.421 -20.881  1.00  0.00    -0.396 OA
HETATM   41  H25 UNL     1      -5.127  50.190 -20.315  1.00  0.00     0.210 HD
ENDBRANCH  11  40
TORSDOF 7
ENDMDL
MODEL 7
REMARK minimizedAffinity -9.97532749
REMARK CNNscore 0.422962725
REMARK CNNaffinity 7.19040298
REMARK  7 active torsions:
REMARK  status: ('A' for Active; 'I' for Inactive)
REMARK    1  A    between atoms: C2_2  and  C4_4 
REMARK    2  A    between atoms: C4_4  and  O1_6 
REMARK    3  A    between atoms: C4_4  and  C6_7 
REMARK    4  A    between atoms: C7_9  and  C8_10 
REMARK    5  A    between atoms: C8_10  and  C9_11 
REMARK    6  A    between atoms: C12_14  and  O3_15 
REMARK    7  A    between atoms: C18_22  and  O5_23 
ROOT
HETATM    1  C9  UNL     1      -2.426  50.592 -25.242  1.00  0.00     0.034 C 
HETATM    2  C10 UNL     1      -2.541  49.311 -26.128  1.00  0.00     0.012 C 
HETATM    3  C11 UNL     1      -3.506  48.348 -25.408  1.00  0.00     0.044 C 
HETATM    4  C12 UNL     1      -4.195  49.230 -24.364  1.00  0.00     0.089 C 
HETATM    5  C13 UNL     1      -4.937  48.659 -23.181  1.00  0.00    -0.037 C 
HETATM    6  C14 UNL     1      -4.930  47.355 -22.864  1.00  0.00     0.057 C 
HETATM    7  C15 UNL     1      -5.475  46.878 -21.574  1.00  0.00     0.154 C 
HETATM    8  O4  UNL     1      -5.515  45.666 -21.377  1.00  0.00    -0.293 OA
HETATM    9  C16 UNL     1      -5.893  47.916 -20.532  1.00  0.00     0.071 C 
HETATM   10  C17 UNL     1      -6.805  47.280 -19.467  1.00  0.00     0.045 C 
HETATM   11  C18 UNL     1      -8.258  47.092 -19.919  1.00  0.00     0.119 C 
HETATM   12  C19 UNL     1      -8.501  47.401 -21.391  1.00  0.00     0.032 C 
HETATM   13  C20 UNL     1      -7.915  48.742 -21.853  1.00  0.00     0.013 C 
HETATM   14  C21 UNL     1      -6.545  49.148 -21.204  1.00  0.00    -0.026 C 
HETATM   15  C22 UNL     1      -6.837  50.240 -20.144  1.00  0.00     0.016 C 
HETATM   16  C23 UNL     1      -5.598  49.736 -22.317  1.00  0.00     0.026 C 
HETATM   17  C24 UNL     1      -4.500  50.720 -21.836  1.00  0.00     0.011 C 
HETATM   18  C25 UNL     1      -3.623  51.266 -22.990  1.00  0.00     0.014 C 
HETATM   19  C26 UNL     1      -3.022  50.140 -23.865  1.00  0.00    -0.002 C 
HETATM   20  C27 UNL     1      -1.994  49.359 -23.007  1.00  0.00     0.019 C 
ENDROOT
BRANCH   1  21
HETATM   21  C8  UNL     1      -1.055  51.365 -25.384  1.00  0.00     0.094 C 
HETATM   22  C28 UNL     1      -0.147  50.823 -26.535  1.00  0.00     0.045 C 
HETATM   23  C29 UNL     1       0.631  51.828 -27.408  1.00  0.00    -0.014 C 
HETATM   24  C30 UNL     1       2.138  51.579 -27.408  1.00  0.00     0.010 C 
HETATM   25  C31 UNL     1       0.292  53.280 -27.102  1.00  0.00     0.030 C 
HETATM   26  C32 UNL     1      -1.183  53.373 -26.788  1.00  0.00     0.169 C 
HETATM   27  O6  UNL     1      -1.449  52.746 -25.547  1.00  0.00    -0.377 OA
BRANCH  21  28
HETATM   28  C7  UNL     1      -0.375  51.350 -24.015  1.00  0.00     0.189 A 
HETATM   29  C6  UNL     1      -0.277  52.563 -23.105  1.00  0.00     0.188 A 
HETATM   30  O2  UNL     1       0.841  52.093 -23.881  1.00  0.00    -0.369 OA
BRANCH  29  31
HETATM   31  C4  UNL     1      -0.095  52.488 -21.599  1.00  0.00     0.086 C 
HETATM   32  C5  UNL     1       0.928  51.376 -21.301  1.00  0.00     0.049 C 
BRANCH  31  33
HETATM   33  C2  UNL     1       0.395  53.861 -21.036  1.00  0.00     0.014 C 
HETATM   34  C1  UNL     1       1.827  54.211 -21.465  1.00  0.00     0.012 C 
HETATM   35  C3  UNL     1       0.324  53.942 -19.503  1.00  0.00     0.012 C 
ENDBRANCH  31  33
BRANCH  31  36
HETATM   36  O1  UNL     1      -1.305  52.094 -20.947  1.00  0.00    -0.387 OA
HETATM   37  H11 UNL     1      -1.972  52.781 -21.102  1.00  0.00     0.210 HD
ENDBRANCH  31  36
ENDBRANCH  29  31
ENDBRANCH  21  28
ENDBRANCH   1  21
BRANCH   4  38
HETATM   38  O3  UNL     1      -5.163  50.005 -25.093  1.00  0.00    -0.384 OA
HETATM   39  H19 UNL     1      -5.844  49.389 -25.411  1.00  0.00     0.211 HD
ENDBRANCH   4  38
BRANCH  11  40
HETATM   40  O5  UNL     1      -9.093  47.935 -19.126  1.00  0.00    -0.396 OA
HETATM   41  H25 UNL     1     -10.016  47.694 -19.315  1.00  0.00     0.210 HD
ENDBRANCH  11  40
TORSDOF 7
ENDMDL
MODEL 8
REMARK minimizedAffinity -9.63377285
REMARK CNNscore 0.414087266
REMARK CNNaffinity 7.09918547
REMARK  7 active torsions:
REMARK  status: ('A' for Active; 'I' for Inactive)
REMARK    1  A    between atoms: C2_2  and  C4_4 
REMARK    2  A    between atoms: C4_4  and  O1_6 
REMARK    3  A    between atoms: C4_4  and  C6_7 
REMARK    4  A    between atoms: C7_9  and  C8_10 
REMARK    5  A    between atoms: C8_10  and  C9_11 
REMARK    6  A    between atoms: C12_14  and  O3_15 
REMARK    7  A    between atoms: C18_22  and  O5_23 
ROOT
HETATM    1  C9  UNL     1      -3.576  51.118 -22.276  1.00  0.00     0.034 C 
HETATM    2  C10 UNL     1      -4.222  52.084 -23.319  1.00  0.00     0.012 C 
HETATM    3  C11 UNL     1      -5.400  51.328 -23.966  1.00  0.00     0.044 C 
HETATM    4  C12 UNL     1      -5.630  50.137 -23.033  1.00  0.00     0.089 C 
HETATM    5  C13 UNL     1      -6.418  48.920 -23.450  1.00  0.00    -0.037 C 
HETATM    6  C14 UNL     1      -6.852  48.713 -24.702  1.00  0.00     0.057 C 
HETATM    7  C15 UNL     1      -7.413  47.407 -25.112  1.00  0.00     0.154 C 
HETATM    8  O4  UNL     1      -7.868  47.306 -26.249  1.00  0.00    -0.293 OA
HETATM    9  C16 UNL     1      -7.335  46.240 -24.127  1.00  0.00     0.071 C 
HETATM   10  C17 UNL     1      -8.316  45.123 -24.531  1.00  0.00     0.045 C 
HETATM   11  C18 UNL     1      -9.774  45.401 -24.146  1.00  0.00     0.119 C 
HETATM   12  C19 UNL     1     -10.021  46.801 -23.596  1.00  0.00     0.032 C 
HETATM   13  C20 UNL     1      -9.036  47.223 -22.497  1.00  0.00     0.013 C 
HETATM   14  C21 UNL     1      -7.560  46.722 -22.674  1.00  0.00    -0.026 C 
HETATM   15  C22 UNL     1      -7.343  45.548 -21.685  1.00  0.00     0.016 C 
HETATM   16  C23 UNL     1      -6.568  47.895 -22.322  1.00  0.00     0.026 C 
HETATM   17  C24 UNL     1      -5.151  47.478 -21.848  1.00  0.00     0.011 C 
HETATM   18  C25 UNL     1      -4.244  48.686 -21.505  1.00  0.00     0.014 C 
HETATM   19  C26 UNL     1      -4.169  49.718 -22.655  1.00  0.00    -0.002 C 
HETATM   20  C27 UNL     1      -3.417  49.063 -23.842  1.00  0.00     0.019 C 
ENDROOT
BRANCH   1  21
HETATM   21  C8  UNL     1      -2.037  51.370 -22.017  1.00  0.00     0.094 C 
HETATM   22  C28 UNL     1      -1.729  51.955 -20.601  1.00  0.00     0.045 C 
HETATM   23  C29 UNL     1      -0.495  51.441 -19.832  1.00  0.00    -0.014 C 
HETATM   24  C30 UNL     1       0.475  52.555 -19.443  1.00  0.00     0.010 C 
HETATM   25  C31 UNL     1       0.210  50.287 -20.530  1.00  0.00     0.030 C 
HETATM   26  C32 UNL     1      -0.833  49.405 -21.174  1.00  0.00     0.169 C 
HETATM   27  O6  UNL     1      -1.427  50.084 -22.265  1.00  0.00    -0.377 OA
BRANCH  21  28
HETATM   28  C7  UNL     1      -1.514  52.237 -23.160  1.00  0.00     0.189 A 
HETATM   29  C6  UNL     1      -0.639  51.715 -24.287  1.00  0.00     0.188 A 
HETATM   30  O2  UNL     1      -0.106  52.490 -23.199  1.00  0.00    -0.369 OA
BRANCH  29  31
HETATM   31  C4  UNL     1      -0.531  52.365 -25.656  1.00  0.00     0.086 C 
HETATM   32  C5  UNL     1       0.192  53.713 -25.484  1.00  0.00     0.049 C 
BRANCH  31  33
HETATM   33  C2  UNL     1       0.245  51.437 -26.645  1.00  0.00     0.014 C 
HETATM   34  C1  UNL     1       1.739  51.321 -26.313  1.00  0.00     0.012 C 
HETATM   35  C3  UNL     1       0.116  51.878 -28.111  1.00  0.00     0.012 C 
ENDBRANCH  31  33
BRANCH  31  36
HETATM   36  O1  UNL     1      -1.822  52.676 -26.188  1.00  0.00    -0.387 OA
HETATM   37  H11 UNL     1      -2.304  51.847 -26.323  1.00  0.00     0.210 HD
ENDBRANCH  31  36
ENDBRANCH  29  31
ENDBRANCH  21  28
ENDBRANCH   1  21
BRANCH   4  38
HETATM   38  O3  UNL     1      -6.316  50.672 -21.888  1.00  0.00    -0.384 OA
HETATM   39  H19 UNL     1      -7.198  50.951 -22.186  1.00  0.00     0.211 HD
ENDBRANCH   4  38
BRANCH  11  40
HETATM   40  O5  UNL     1     -10.176  44.443 -23.167  1.00  0.00    -0.396 OA
HETATM   41  H25 UNL     1     -11.137  44.532 -23.047  1.00  0.00     0.210 HD
ENDBRANCH  11  40
TORSDOF 7
ENDMDL
MODEL 9
REMARK minimizedAffinity -8.86205292
REMARK CNNscore 0.384036303
REMARK CNNaffinity 6.78459501
REMARK  7 active torsions:
REMARK  status: ('A' for Active; 'I' for Inactive)
REMARK    1  A    between atoms: C2_2  and  C4_4 
REMARK    2  A    between atoms: C4_4  and  O1_6 
REMARK    3  A    between atoms: C4_4  and  C6_7 
REMARK    4  A    between atoms: C7_9  and  C8_10 
REMARK    5  A    between atoms: C8_10  and  C9_11 
REMARK    6  A    between atoms: C12_14  and  O3_15 
REMARK    7  A    between atoms: C18_22  and  O5_23 
ROOT
HETATM    1  C9  UNL     1      -2.735  51.027 -23.139  1.00  0.00     0.034 C 
HETATM    2  C10 UNL     1      -4.099  51.714 -23.462  1.00  0.00     0.012 C 
HETATM    3  C11 UNL     1      -5.210  50.715 -23.080  1.00  0.00     0.044 C 
HETATM    4  C12 UNL     1      -4.491  49.675 -22.219  1.00  0.00     0.089 C 
HETATM    5  C13 UNL     1      -5.074  48.314 -21.933  1.00  0.00    -0.037 C 
HETATM    6  C14 UNL     1      -6.187  47.848 -22.520  1.00  0.00     0.057 C 
HETATM    7  C15 UNL     1      -6.589  46.431 -22.385  1.00  0.00     0.154 C 
HETATM    8  O4  UNL     1      -7.660  46.085 -22.877  1.00  0.00    -0.293 OA
HETATM    9  C16 UNL     1      -5.621  45.462 -21.702  1.00  0.00     0.071 C 
HETATM   10  C17 UNL     1      -6.353  44.177 -21.275  1.00  0.00     0.045 C 
HETATM   11  C18 UNL     1      -7.176  44.322 -19.989  1.00  0.00     0.119 C 
HETATM   12  C19 UNL     1      -7.268  45.749 -19.462  1.00  0.00     0.032 C 
HETATM   13  C20 UNL     1      -5.916  46.472 -19.376  1.00  0.00     0.013 C 
HETATM   14  C21 UNL     1      -4.893  46.145 -20.519  1.00  0.00    -0.026 C 
HETATM   15  C22 UNL     1      -3.825  45.189 -19.930  1.00  0.00     0.016 C 
HETATM   16  C23 UNL     1      -4.200  47.478 -20.993  1.00  0.00     0.026 C 
HETATM   17  C24 UNL     1      -2.794  47.334 -21.631  1.00  0.00     0.011 C 
HETATM   18  C25 UNL     1      -2.175  48.690 -22.053  1.00  0.00     0.014 C 
HETATM   19  C26 UNL     1      -3.118  49.518 -22.957  1.00  0.00    -0.002 C 
HETATM   20  C27 UNL     1      -3.259  48.780 -24.313  1.00  0.00     0.019 C 
ENDROOT
BRANCH   1  21
HETATM   21  C8  UNL     1      -1.528  51.516 -24.035  1.00  0.00     0.094 C 
HETATM   22  C28 UNL     1      -1.155  50.519 -25.180  1.00  0.00     0.045 C 
HETATM   23  C29 UNL     1      -0.781  51.082 -26.566  1.00  0.00    -0.014 C 
HETATM   24  C30 UNL     1       0.601  50.634 -27.040  1.00  0.00     0.010 C 
HETATM   25  C31 UNL     1      -0.962  52.588 -26.673  1.00  0.00     0.030 C 
HETATM   26  C32 UNL     1      -2.190  52.982 -25.887  1.00  0.00     0.169 C 
HETATM   27  O6  UNL     1      -1.946  52.817 -24.502  1.00  0.00    -0.377 OA
BRANCH  21  28
HETATM   28  C7  UNL     1      -0.361  51.832 -23.101  1.00  0.00     0.189 A 
HETATM   29  C6  UNL     1      -0.477  52.718 -21.872  1.00  0.00     0.188 A 
HETATM   30  O2  UNL     1       0.126  53.178 -23.095  1.00  0.00    -0.369 OA
BRANCH  29  31
HETATM   31  C4  UNL     1       0.459  52.649 -20.678  1.00  0.00     0.086 C 
HETATM   32  C5  UNL     1       0.582  54.066 -20.089  1.00  0.00     0.049 C 
BRANCH  31  33
HETATM   33  C2  UNL     1      -0.087  51.646 -19.609  1.00  0.00     0.014 C 
HETATM   34  C1  UNL     1      -1.620  51.556 -19.599  1.00  0.00     0.012 C 
HETATM   35  C3  UNL     1       0.380  51.973 -18.183  1.00  0.00     0.012 C 
ENDBRANCH  31  33
BRANCH  31  36
HETATM   36  O1  UNL     1       1.780  52.271 -21.073  1.00  0.00    -0.387 OA
HETATM   37  H11 UNL     1       1.745  51.373 -21.437  1.00  0.00     0.210 HD
ENDBRANCH  31  36
ENDBRANCH  29  31
ENDBRANCH  21  28
ENDBRANCH   1  21
BRANCH   4  38
HETATM   38  O3  UNL     1      -4.307  50.298 -20.936  1.00  0.00    -0.384 OA
HETATM   39  H19 UNL     1      -5.188  50.407 -20.541  1.00  0.00     0.211 HD
ENDBRANCH   4  38
BRANCH  11  40
HETATM   40  O5  UNL     1      -6.594  43.495 -18.981  1.00  0.00    -0.396 OA
HETATM   41  H25 UNL     1      -7.208  43.477 -18.227  1.00  0.00     0.210 HD
ENDBRANCH  11  40
TORSDOF 7
ENDMDL
