MODEL 1
REMARK minimizedAffinity -9.60194874
REMARK CNNscore 0.592115223
REMARK CNNaffinity 7.04494858
REMARK  12 active torsions:
REMARK  status: ('A' for Active; 'I' for Inactive)
REMARK    1  A    between atoms: O1_2  and  C2_3 
REMARK    2  A    between atoms: C4_5  and  O2_6 
REMARK    3  A    between atoms: O2_6  and  C5_7 
REMARK    4  A    between atoms: C8_10  and  C9_11 
REMARK    5  A    between atoms: N1_12  and  C10_14 
REMARK    6  A    between atoms: C10_14  and  C11_15 
REMARK    7  A    between atoms: C11_15  and  C12_16 
REMARK    8  A    between atoms: C12_16  and  O3_17 
REMARK    9  A    between atoms: C18_23  and  C19_24 
REMARK   10  A    between atoms: C25_32  and  O6_33 
REMARK   11  A    between atoms: C29_37  and  O7_38 
REMARK   12  A    between atoms: C33_43  and  O9_44 
ROOT
HETATM    1  C5  UNL     1      -5.850   7.306  14.382  1.00  0.00     0.127 C 
HETATM    2  C6  UNL     1      -5.264   7.881  13.108  1.00  0.00     0.033 C 
HETATM    3  C7  UNL     1      -3.956   8.590  13.385  1.00  0.00     0.021 C 
HETATM    4  C8  UNL     1      -2.909   7.759  14.208  1.00  0.00     0.026 C 
HETATM    5  C13 UNL     1      -1.619   7.618  13.274  1.00  0.00     0.009 C 
HETATM    6  C14 UNL     1      -0.767   8.890  13.216  1.00  0.00     0.007 C 
HETATM    7  C15 UNL     1       0.236   8.762  12.087  1.00  0.00     0.013 C 
HETATM    8  C16 UNL     1       1.280   7.665  12.354  1.00  0.00    -0.005 C 
HETATM    9  C17 UNL     1       2.346   8.304  13.299  1.00  0.00     0.019 C 
HETATM   10  C18 UNL     1       2.034   7.213  11.036  1.00  0.00     0.028 C 
HETATM   11  C23 UNL     1       2.228   5.703  11.234  1.00  0.00     0.013 C 
HETATM   12  C24 UNL     1       0.946   5.247  11.916  1.00  0.00     0.040 C 
HETATM   13  C25 UNL     1       0.683   6.332  12.980  1.00  0.00     0.070 C 
HETATM   14  C26 UNL     1      -0.752   6.395  13.624  1.00  0.00     0.026 C 
HETATM   15  C27 UNL     1      -1.574   5.102  13.423  1.00  0.00     0.011 C 
HETATM   16  C28 UNL     1      -3.089   5.285  13.599  1.00  0.00     0.039 C 
HETATM   17  C29 UNL     1      -3.437   6.337  14.667  1.00  0.00     0.073 C 
HETATM   18  C30 UNL     1      -4.944   6.257  15.026  1.00  0.00     0.071 C 
ENDROOT
BRANCH   1  19
HETATM   19  O2  UNL     1      -7.093   6.710  14.015  1.00  0.00    -0.356 OA
BRANCH  19  20
HETATM   20  C4  UNL     1      -8.240   7.532  14.221  1.00  0.00     0.263 C 
HETATM   21  C3  UNL     1      -9.468   6.667  13.969  1.00  0.00     0.095 C 
HETATM   22  C2  UNL     1     -10.760   7.426  14.282  1.00  0.00     0.156 C 
HETATM   23  C33 UNL     1     -10.697   7.992  15.717  1.00  0.00     0.175 C 
HETATM   24  C31 UNL     1      -9.370   8.752  15.962  1.00  0.00     0.151 C 
HETATM   25  O8  UNL     1      -8.224   7.997  15.569  1.00  0.00    -0.354 OA
HETATM   26  C32 UNL     1      -9.324  10.160  15.361  1.00  0.00     0.042 C 
BRANCH  22  27
HETATM   27  O1  UNL     1     -11.825   6.479  14.091  1.00  0.00    -0.388 OA
HETATM   28  C1  UNL     1     -12.907   6.946  13.308  1.00  0.00     0.202 C 
ENDBRANCH  22  27
BRANCH  23  29
HETATM   29  O9  UNL     1     -11.820   8.826  16.017  1.00  0.00    -0.390 OA
HETATM   30  H51 UNL     1     -11.865   9.569  15.381  1.00  0.00     0.210 HD
ENDBRANCH  23  29
ENDBRANCH  19  20
ENDBRANCH   1  19
BRANCH  17  31
HETATM   31  O7  UNL     1      -2.731   5.854  15.838  1.00  0.00    -0.389 OA
HETATM   32  H43 UNL     1      -2.786   6.566  16.506  1.00  0.00     0.210 HD
ENDBRANCH  17  31
BRANCH   4  33
HETATM   33  C9  UNL     1      -2.627   8.659  15.424  1.00  0.00     0.068 C 
HETATM   34  N1  UNL     1      -3.560   9.026  16.238  1.00  0.00    -0.401 N 
ATOM     35  H1  UNL     1      -4.506   8.651  16.190  1.00  0.00     0.158 HD
BRANCH  34  36
HETATM   36  C10 UNL     1      -3.158  10.022  17.235  1.00  0.00     0.121 C 
BRANCH  36  37
HETATM   37  C11 UNL     1      -3.963  11.304  17.030  1.00  0.00     0.045 C 
BRANCH  37  38
HETATM   38  C12 UNL     1      -3.619  11.978  15.709  1.00  0.00     0.165 C 
BRANCH  38  39
HETATM   39  O3  UNL     1      -4.655  12.873  15.306  1.00  0.00    -0.401 OA
HETATM   40  H20 UNL     1      -4.770  13.513  16.029  1.00  0.00     0.209 HD
ENDBRANCH  38  39
ENDBRANCH  37  38
ENDBRANCH  36  37
ENDBRANCH  34  36
ENDBRANCH   4  33
BRANCH  13  41
HETATM   41  O6  UNL     1       1.548   5.928  14.074  1.00  0.00    -0.389 OA
HETATM   42  H37 UNL     1       1.161   5.127  14.480  1.00  0.00     0.210 HD
ENDBRANCH  13  41
BRANCH  10  43
HETATM   43  C19 UNL     1       1.396   7.520   9.695  1.00  0.00    -0.045 A 
HETATM   44  C20 UNL     1       1.871   7.147   8.501  1.00  0.00     0.087 A 
HETATM   45  C21 UNL     1       0.959   7.673   7.487  1.00  0.00     0.283 A 
HETATM   46  O4  UNL     1       1.100   7.528   6.288  1.00  0.00    -0.260 OA
HETATM   47  O5  UNL     1      -0.049   8.355   8.098  1.00  0.00    -0.314 OA
HETATM   48  C22 UNL     1       0.127   8.276   9.511  1.00  0.00     0.213 A 
ENDBRANCH  10  43
TORSDOF 12
ENDMDL
MODEL 2
REMARK minimizedAffinity -9.56808186
REMARK CNNscore 0.566417336
REMARK CNNaffinity 7.03621435
REMARK  12 active torsions:
REMARK  status: ('A' for Active; 'I' for Inactive)
REMARK    1  A    between atoms: O1_2  and  C2_3 
REMARK    2  A    between atoms: C4_5  and  O2_6 
REMARK    3  A    between atoms: O2_6  and  C5_7 
REMARK    4  A    between atoms: C8_10  and  C9_11 
REMARK    5  A    between atoms: N1_12  and  C10_14 
REMARK    6  A    between atoms: C10_14  and  C11_15 
REMARK    7  A    between atoms: C11_15  and  C12_16 
REMARK    8  A    between atoms: C12_16  and  O3_17 
REMARK    9  A    between atoms: C18_23  and  C19_24 
REMARK   10  A    between atoms: C25_32  and  O6_33 
REMARK   11  A    between atoms: C29_37  and  O7_38 
REMARK   12  A    between atoms: C33_43  and  O9_44 
ROOT
HETATM    1  C5  UNL     1      -6.563   7.131  14.528  1.00  0.00     0.127 C 
HETATM    2  C6  UNL     1      -5.921   7.691  13.274  1.00  0.00     0.033 C 
HETATM    3  C7  UNL     1      -4.751   8.588  13.619  1.00  0.00     0.021 C 
HETATM    4  C8  UNL     1      -3.702   7.962  14.605  1.00  0.00     0.026 C 
HETATM    5  C13 UNL     1      -2.311   7.933  13.815  1.00  0.00     0.009 C 
HETATM    6  C14 UNL     1      -1.626   9.302  13.738  1.00  0.00     0.007 C 
HETATM    7  C15 UNL     1      -0.500   9.234  12.725  1.00  0.00     0.013 C 
HETATM    8  C16 UNL     1       0.641   8.307  13.181  1.00  0.00    -0.005 C 
HETATM    9  C17 UNL     1       1.509   9.147  14.170  1.00  0.00     0.019 C 
HETATM   10  C18 UNL     1       1.582   7.872  11.985  1.00  0.00     0.028 C 
HETATM   11  C23 UNL     1       1.944   6.419  12.323  1.00  0.00     0.013 C 
HETATM   12  C24 UNL     1       0.665   5.842  12.912  1.00  0.00     0.040 C 
HETATM   13  C25 UNL     1       0.153   6.952  13.853  1.00  0.00     0.070 C 
HETATM   14  C26 UNL     1      -1.339   6.865  14.347  1.00  0.00     0.026 C 
HETATM   15  C27 UNL     1      -1.963   5.462  14.173  1.00  0.00     0.011 C 
HETATM   16  C28 UNL     1      -3.500   5.452  14.185  1.00  0.00     0.039 C 
HETATM   17  C29 UNL     1      -4.091   6.518  15.125  1.00  0.00     0.073 C 
HETATM   18  C30 UNL     1      -5.606   6.259  15.340  1.00  0.00     0.071 C 
ENDROOT
BRANCH   1  19
HETATM   19  O2  UNL     1      -7.673   6.349  14.090  1.00  0.00    -0.356 OA
BRANCH  19  20
HETATM   20  C4  UNL     1      -8.949   6.816  14.528  1.00  0.00     0.263 C 
HETATM   21  C3  UNL     1      -8.728   8.157  15.215  1.00  0.00     0.095 C 
HETATM   22  C2  UNL     1     -10.056   8.804  15.618  1.00  0.00     0.156 C 
HETATM   23  C33 UNL     1     -10.985   8.894  14.388  1.00  0.00     0.175 C 
HETATM   24  C31 UNL     1     -11.072   7.536  13.649  1.00  0.00     0.151 C 
HETATM   25  O8  UNL     1      -9.787   6.972  13.385  1.00  0.00    -0.354 OA
HETATM   26  C32 UNL     1     -11.988   6.506  14.318  1.00  0.00     0.042 C 
BRANCH  22  27
HETATM   27  O1  UNL     1      -9.714  10.087  16.167  1.00  0.00    -0.388 OA
HETATM   28  C1  UNL     1      -9.636  11.140  15.225  1.00  0.00     0.202 C 
ENDBRANCH  22  27
BRANCH  23  29
HETATM   29  O9  UNL     1     -12.291   9.366  14.733  1.00  0.00    -0.390 OA
HETATM   30  H51 UNL     1     -12.696   8.773  15.398  1.00  0.00     0.210 HD
ENDBRANCH  23  29
ENDBRANCH  19  20
ENDBRANCH   1  19
BRANCH  17  31
HETATM   31  O7  UNL     1      -3.459   6.214  16.394  1.00  0.00    -0.389 OA
HETATM   32  H43 UNL     1      -3.676   6.957  16.993  1.00  0.00     0.210 HD
ENDBRANCH  17  31
BRANCH   4  33
HETATM   33  C9  UNL     1      -3.669   8.974  15.765  1.00  0.00     0.068 C 
HETATM   34  N1  UNL     1      -4.282  10.108  15.705  1.00  0.00    -0.401 N 
ATOM     35  H1  UNL     1      -4.913  10.349  14.941  1.00  0.00     0.158 HD
BRANCH  34  36
HETATM   36  C10 UNL     1      -4.004  11.024  16.815  1.00  0.00     0.121 C 
BRANCH  36  37
HETATM   37  C11 UNL     1      -2.509  11.009  17.127  1.00  0.00     0.045 C 
BRANCH  37  38
HETATM   38  C12 UNL     1      -2.244  10.707  18.595  1.00  0.00     0.165 C 
BRANCH  38  39
HETATM   39  O3  UNL     1      -3.250   9.849  19.131  1.00  0.00    -0.401 OA
HETATM   40  H20 UNL     1      -3.256   9.046  18.583  1.00  0.00     0.209 HD
ENDBRANCH  38  39
ENDBRANCH  37  38
ENDBRANCH  36  37
ENDBRANCH  34  36
ENDBRANCH   4  33
BRANCH  13  41
HETATM   41  O6  UNL     1       0.940   6.743  15.056  1.00  0.00    -0.389 OA
HETATM   42  H37 UNL     1       0.616   5.927  15.486  1.00  0.00     0.210 HD
ENDBRANCH  13  41
BRANCH  10  43
HETATM   43  C19 UNL     1       1.059   7.999  10.567  1.00  0.00    -0.045 A 
HETATM   44  C20 UNL     1       1.701   7.610   9.460  1.00  0.00     0.087 A 
HETATM   45  C21 UNL     1       0.844   7.939   8.322  1.00  0.00     0.283 A 
HETATM   46  O4  UNL     1       1.130   7.731   7.159  1.00  0.00    -0.260 OA
HETATM   47  O5  UNL     1      -0.300   8.523   8.774  1.00  0.00    -0.314 OA
HETATM   48  C22 UNL     1      -0.268   8.566  10.199  1.00  0.00     0.213 A 
ENDBRANCH  10  43
TORSDOF 12
ENDMDL
MODEL 3
REMARK minimizedAffinity -6.92936659
REMARK CNNscore 0.439430952
REMARK CNNaffinity 7.25751162
REMARK  12 active torsions:
REMARK  status: ('A' for Active; 'I' for Inactive)
REMARK    1  A    between atoms: O1_2  and  C2_3 
REMARK    2  A    between atoms: C4_5  and  O2_6 
REMARK    3  A    between atoms: O2_6  and  C5_7 
REMARK    4  A    between atoms: C8_10  and  C9_11 
REMARK    5  A    between atoms: N1_12  and  C10_14 
REMARK    6  A    between atoms: C10_14  and  C11_15 
REMARK    7  A    between atoms: C11_15  and  C12_16 
REMARK    8  A    between atoms: C12_16  and  O3_17 
REMARK    9  A    between atoms: C18_23  and  C19_24 
REMARK   10  A    between atoms: C25_32  and  O6_33 
REMARK   11  A    between atoms: C29_37  and  O7_38 
REMARK   12  A    between atoms: C33_43  and  O9_44 
ROOT
HETATM    1  C5  UNL     1     -10.603   6.734  13.524  1.00  0.00     0.127 C 
HETATM    2  C6  UNL     1     -11.169   7.661  12.466  1.00  0.00     0.033 C 
HETATM    3  C7  UNL     1     -12.539   8.167  12.864  1.00  0.00     0.021 C 
HETATM    4  C8  UNL     1     -12.629   8.776  14.308  1.00  0.00     0.026 C 
HETATM    5  C13 UNL     1     -13.091  10.295  14.122  1.00  0.00     0.009 C 
HETATM    6  C14 UNL     1     -14.586  10.444  13.818  1.00  0.00     0.007 C 
HETATM    7  C15 UNL     1     -14.858  11.864  13.359  1.00  0.00     0.013 C 
HETATM    8  C16 UNL     1     -14.634  12.893  14.480  1.00  0.00    -0.005 C 
HETATM    9  C17 UNL     1     -15.929  12.870  15.352  1.00  0.00     0.019 C 
HETATM   10  C18 UNL     1     -14.470  14.367  13.924  1.00  0.00     0.028 C 
HETATM   11  C23 UNL     1     -13.415  14.985  14.853  1.00  0.00     0.013 C 
HETATM   12  C24 UNL     1     -12.436  13.849  15.115  1.00  0.00     0.040 C 
HETATM   13  C25 UNL     1     -13.342  12.626  15.365  1.00  0.00     0.070 C 
HETATM   14  C26 UNL     1     -12.681  11.198  15.299  1.00  0.00     0.026 C 
HETATM   15  C27 UNL     1     -11.140  11.228  15.418  1.00  0.00     0.011 C 
HETATM   16  C28 UNL     1     -10.445   9.963  14.891  1.00  0.00     0.039 C 
HETATM   17  C29 UNL     1     -11.276   8.689  15.127  1.00  0.00     0.073 C 
HETATM   18  C30 UNL     1     -10.407   7.429  14.871  1.00  0.00     0.071 C 
ENDROOT
BRANCH   1  19
HETATM   19  O2  UNL     1      -9.346   6.283  13.026  1.00  0.00    -0.356 OA
BRANCH  19  20
HETATM   20  C4  UNL     1      -8.295   6.242  13.991  1.00  0.00     0.263 C 
HETATM   21  C3  UNL     1      -7.044   5.749  13.276  1.00  0.00     0.095 C 
HETATM   22  C2  UNL     1      -5.823   5.782  14.199  1.00  0.00     0.156 C 
HETATM   23  C33 UNL     1      -5.664   7.195  14.800  1.00  0.00     0.175 C 
HETATM   24  C31 UNL     1      -6.999   7.704  15.398  1.00  0.00     0.151 C 
HETATM   25  O8  UNL     1      -8.095   7.561  14.494  1.00  0.00    -0.354 OA
HETATM   26  C32 UNL     1      -7.346   7.115  16.768  1.00  0.00     0.042 C 
BRANCH  22  27
HETATM   27  O1  UNL     1      -4.708   5.382  13.385  1.00  0.00    -0.388 OA
HETATM   28  C1  UNL     1      -3.608   4.848  14.098  1.00  0.00     0.202 C 
ENDBRANCH  22  27
BRANCH  23  29
HETATM   29  O9  UNL     1      -4.619   7.252  15.775  1.00  0.00    -0.390 OA
HETATM   30  H51 UNL     1      -4.800   6.615  16.497  1.00  0.00     0.210 HD
ENDBRANCH  23  29
ENDBRANCH  19  20
ENDBRANCH   1  19
BRANCH  17  31
HETATM   31  O7  UNL     1     -11.510   8.718  16.557  1.00  0.00    -0.389 OA
HETATM   32  H43 UNL     1     -12.166   8.016  16.742  1.00  0.00     0.210 HD
ENDBRANCH  17  31
BRANCH   4  33
HETATM   33  C9  UNL     1     -13.729   7.930  14.974  1.00  0.00     0.068 C 
HETATM   34  N1  UNL     1     -13.983   8.005  16.238  1.00  0.00    -0.401 N 
ATOM     35  H1  UNL     1     -13.552   8.705  16.841  1.00  0.00     0.158 HD
BRANCH  34  36
HETATM   36  C10 UNL     1     -14.934   7.010  16.741  1.00  0.00     0.121 C 
BRANCH  36  37
HETATM   37  C11 UNL     1     -15.328   6.063  15.609  1.00  0.00     0.045 C 
BRANCH  37  38
HETATM   38  C12 UNL     1     -16.447   5.120  16.029  1.00  0.00     0.165 C 
BRANCH  38  39
HETATM   39  O3  UNL     1     -17.351   4.885  14.951  1.00  0.00    -0.401 OA
HETATM   40  H20 UNL     1     -16.824   4.530  14.215  1.00  0.00     0.209 HD
ENDBRANCH  38  39
ENDBRANCH  37  38
ENDBRANCH  36  37
ENDBRANCH  34  36
ENDBRANCH   4  33
BRANCH  13  41
HETATM   41  O6  UNL     1     -13.716  12.781  16.760  1.00  0.00    -0.389 OA
HETATM   42  H37 UNL     1     -12.929  12.584  17.304  1.00  0.00     0.210 HD
ENDBRANCH  13  41
BRANCH  10  43
HETATM   43  C19 UNL     1     -14.104  14.555  12.465  1.00  0.00    -0.045 A 
HETATM   44  C20 UNL     1     -14.960  14.818  11.472  1.00  0.00     0.087 A 
HETATM   45  C21 UNL     1     -14.184  14.897  10.237  1.00  0.00     0.283 A 
HETATM   46  O4  UNL     1     -14.655  15.111   9.137  1.00  0.00    -0.260 OA
HETATM   47  O5  UNL     1     -12.870  14.676  10.516  1.00  0.00    -0.314 OA
HETATM   48  C22 UNL     1     -12.719  14.488  11.922  1.00  0.00     0.213 A 
ENDBRANCH  10  43
TORSDOF 12
ENDMDL
MODEL 4
REMARK minimizedAffinity -8.72504711
REMARK CNNscore 0.329077482
REMARK CNNaffinity 6.57465887
REMARK  12 active torsions:
REMARK  status: ('A' for Active; 'I' for Inactive)
REMARK    1  A    between atoms: O1_2  and  C2_3 
REMARK    2  A    between atoms: C4_5  and  O2_6 
REMARK    3  A    between atoms: O2_6  and  C5_7 
REMARK    4  A    between atoms: C8_10  and  C9_11 
REMARK    5  A    between atoms: N1_12  and  C10_14 
REMARK    6  A    between atoms: C10_14  and  C11_15 
REMARK    7  A    between atoms: C11_15  and  C12_16 
REMARK    8  A    between atoms: C12_16  and  O3_17 
REMARK    9  A    between atoms: C18_23  and  C19_24 
REMARK   10  A    between atoms: C25_32  and  O6_33 
REMARK   11  A    between atoms: C29_37  and  O7_38 
REMARK   12  A    between atoms: C33_43  and  O9_44 
ROOT
HETATM    1  C5  UNL     1      -2.514   6.705  13.326  1.00  0.00     0.127 C 
HETATM    2  C6  UNL     1      -2.517   8.126  12.801  1.00  0.00     0.033 C 
HETATM    3  C7  UNL     1      -3.538   8.973  13.532  1.00  0.00     0.021 C 
HETATM    4  C8  UNL     1      -3.454   8.909  15.098  1.00  0.00     0.026 C 
HETATM    5  C13 UNL     1      -3.165  10.404  15.589  1.00  0.00     0.009 C 
HETATM    6  C14 UNL     1      -4.404  11.306  15.555  1.00  0.00     0.007 C 
HETATM    7  C15 UNL     1      -3.969  12.748  15.735  1.00  0.00     0.013 C 
HETATM    8  C16 UNL     1      -3.392  13.014  17.135  1.00  0.00    -0.005 C 
HETATM    9  C17 UNL     1      -4.621  13.210  18.078  1.00  0.00     0.019 C 
HETATM   10  C18 UNL     1      -2.538  14.346  17.195  1.00  0.00     0.028 C 
HETATM   11  C23 UNL     1      -1.393  13.995  18.156  1.00  0.00     0.013 C 
HETATM   12  C24 UNL     1      -1.056  12.549  17.823  1.00  0.00     0.040 C 
HETATM   13  C25 UNL     1      -2.432  11.869  17.675  1.00  0.00     0.070 C 
HETATM   14  C26 UNL     1      -2.484  10.464  16.967  1.00  0.00     0.026 C 
HETATM   15  C27 UNL     1      -1.110   9.759  16.898  1.00  0.00     0.011 C 
HETATM   16  C28 UNL     1      -1.022   8.656  15.832  1.00  0.00     0.039 C 
HETATM   17  C29 UNL     1      -2.353   7.909  15.642  1.00  0.00     0.073 C 
HETATM   18  C30 UNL     1      -2.130   6.623  14.802  1.00  0.00     0.071 C 
ENDROOT
BRANCH   1  19
HETATM   19  O2  UNL     1      -1.562   5.992  12.539  1.00  0.00    -0.356 OA
BRANCH  19  20
HETATM   20  C4  UNL     1      -2.084   4.869  11.830  1.00  0.00     0.263 C 
HETATM   21  C3  UNL     1      -0.954   3.859  11.688  1.00  0.00     0.095 C 
HETATM   22  C2  UNL     1      -1.443   2.560  11.042  1.00  0.00     0.156 C 
HETATM   23  C33 UNL     1      -2.655   2.014  11.827  1.00  0.00     0.175 C 
HETATM   24  C31 UNL     1      -3.718   3.116  12.059  1.00  0.00     0.151 C 
HETATM   25  O8  UNL     1      -3.156   4.316  12.590  1.00  0.00    -0.354 OA
HETATM   26  C32 UNL     1      -4.593   3.420  10.839  1.00  0.00     0.042 C 
BRANCH  22  27
HETATM   27  O1  UNL     1      -0.314   1.671  11.048  1.00  0.00    -0.388 OA
HETATM   28  C1  UNL     1      -0.560   0.387  10.507  1.00  0.00     0.202 C 
ENDBRANCH  22  27
BRANCH  23  29
HETATM   29  O9  UNL     1      -3.240   0.873  11.191  1.00  0.00    -0.390 OA
HETATM   30  H51 UNL     1      -3.524   1.106  10.283  1.00  0.00     0.210 HD
ENDBRANCH  23  29
ENDBRANCH  19  20
ENDBRANCH   1  19
BRANCH  17  31
HETATM   31  O7  UNL     1      -2.659   7.451  16.984  1.00  0.00    -0.389 OA
HETATM   32  H43 UNL     1      -3.573   7.104  16.954  1.00  0.00     0.210 HD
ENDBRANCH  17  31
BRANCH   4  33
HETATM   33  C9  UNL     1      -4.866   8.447  15.503  1.00  0.00     0.068 C 
HETATM   34  N1  UNL     1      -5.798   8.247  14.634  1.00  0.00    -0.401 N 
ATOM     35  H1  UNL     1      -5.625   8.270  13.630  1.00  0.00     0.158 HD
BRANCH  34  36
HETATM   36  C10 UNL     1      -7.126   7.983  15.197  1.00  0.00     0.121 C 
BRANCH  36  37
HETATM   37  C11 UNL     1      -7.049   6.792  16.149  1.00  0.00     0.045 C 
BRANCH  37  38
HETATM   38  C12 UNL     1      -7.162   5.468  15.404  1.00  0.00     0.165 C 
BRANCH  38  39
HETATM   39  O3  UNL     1      -8.128   4.616  16.018  1.00  0.00    -0.401 OA
HETATM   40  H20 UNL     1      -8.968   5.106  16.031  1.00  0.00     0.209 HD
ENDBRANCH  38  39
ENDBRANCH  37  38
ENDBRANCH  36  37
ENDBRANCH  34  36
ENDBRANCH   4  33
BRANCH  13  41
HETATM   41  O6  UNL     1      -2.803  11.588  19.052  1.00  0.00    -0.389 OA
HETATM   42  H37 UNL     1      -2.234  10.861  19.372  1.00  0.00     0.210 HD
ENDBRANCH  13  41
BRANCH  10  43
HETATM   43  C19 UNL     1      -2.015  14.931  15.897  1.00  0.00    -0.045 A 
HETATM   44  C20 UNL     1      -2.547  15.965  15.236  1.00  0.00     0.087 A 
HETATM   45  C21 UNL     1      -1.741  16.174  14.035  1.00  0.00     0.283 A 
HETATM   46  O4  UNL     1      -1.956  17.030  13.199  1.00  0.00    -0.260 OA
HETATM   47  O5  UNL     1      -0.739  15.253  14.000  1.00  0.00    -0.314 OA
HETATM   48  C22 UNL     1      -0.811  14.443  15.171  1.00  0.00     0.213 A 
ENDBRANCH  10  43
TORSDOF 12
ENDMDL
MODEL 5
REMARK minimizedAffinity -8.50052452
REMARK CNNscore 0.322433889
REMARK CNNaffinity 6.8101325
REMARK  12 active torsions:
REMARK  status: ('A' for Active; 'I' for Inactive)
REMARK    1  A    between atoms: O1_2  and  C2_3 
REMARK    2  A    between atoms: C4_5  and  O2_6 
REMARK    3  A    between atoms: O2_6  and  C5_7 
REMARK    4  A    between atoms: C8_10  and  C9_11 
REMARK    5  A    between atoms: N1_12  and  C10_14 
REMARK    6  A    between atoms: C10_14  and  C11_15 
REMARK    7  A    between atoms: C11_15  and  C12_16 
REMARK    8  A    between atoms: C12_16  and  O3_17 
REMARK    9  A    between atoms: C18_23  and  C19_24 
REMARK   10  A    between atoms: C25_32  and  O6_33 
REMARK   11  A    between atoms: C29_37  and  O7_38 
REMARK   12  A    between atoms: C33_43  and  O9_44 
ROOT
HETATM    1  C5  UNL     1      -1.929   6.611  14.506  1.00  0.00     0.127 C 
HETATM    2  C6  UNL     1      -0.905   6.399  15.603  1.00  0.00     0.033 C 
HETATM    3  C7  UNL     1       0.244   7.375  15.468  1.00  0.00     0.021 C 
HETATM    4  C8  UNL     1      -0.175   8.880  15.318  1.00  0.00     0.026 C 
HETATM    5  C13 UNL     1       0.474   9.649  16.561  1.00  0.00     0.009 C 
HETATM    6  C14 UNL     1       1.976   9.909  16.399  1.00  0.00     0.007 C 
HETATM    7  C15 UNL     1       2.547  10.352  17.732  1.00  0.00     0.013 C 
HETATM    8  C16 UNL     1       2.009  11.724  18.172  1.00  0.00    -0.005 C 
HETATM    9  C17 UNL     1       2.851  12.786  17.398  1.00  0.00     0.019 C 
HETATM   10  C18 UNL     1       2.225  11.991  19.718  1.00  0.00     0.028 C 
HETATM   11  C23 UNL     1       0.959  12.757  20.129  1.00  0.00     0.013 C 
HETATM   12  C24 UNL     1      -0.154  12.100  19.325  1.00  0.00     0.040 C 
HETATM   13  C25 UNL     1       0.454  11.928  17.918  1.00  0.00     0.070 C 
HETATM   14  C26 UNL     1      -0.269  10.947  16.922  1.00  0.00     0.026 C 
HETATM   15  C27 UNL     1      -1.722  10.617  17.330  1.00  0.00     0.011 C 
HETATM   16  C28 UNL     1      -2.281   9.338  16.687  1.00  0.00     0.039 C 
HETATM   17  C29 UNL     1      -1.742   9.108  15.264  1.00  0.00     0.073 C 
HETATM   18  C30 UNL     1      -2.564   8.000  14.553  1.00  0.00     0.071 C 
ENDROOT
BRANCH   1  19
HETATM   19  O2  UNL     1      -2.932   5.615  14.700  1.00  0.00    -0.356 OA
BRANCH  19  20
HETATM   20  C4  UNL     1      -4.273   6.067  14.520  1.00  0.00     0.263 C 
HETATM   21  C3  UNL     1      -4.938   5.127  13.524  1.00  0.00     0.095 C 
HETATM   22  C2  UNL     1      -6.423   5.454  13.350  1.00  0.00     0.156 C 
HETATM   23  C33 UNL     1      -7.116   5.470  14.730  1.00  0.00     0.175 C 
HETATM   24  C31 UNL     1      -6.329   6.336  15.744  1.00  0.00     0.151 C 
HETATM   25  O8  UNL     1      -4.939   6.012  15.780  1.00  0.00    -0.354 OA
HETATM   26  C32 UNL     1      -6.530   7.846  15.580  1.00  0.00     0.042 C 
BRANCH  22  27
HETATM   27  O1  UNL     1      -6.943   4.449  12.464  1.00  0.00    -0.388 OA
HETATM   28  C1  UNL     1      -7.148   3.179  13.054  1.00  0.00     0.202 C 
ENDBRANCH  22  27
BRANCH  23  29
HETATM   29  O9  UNL     1      -8.477   5.903  14.644  1.00  0.00    -0.390 OA
HETATM   30  H51 UNL     1      -8.518   6.800  14.254  1.00  0.00     0.210 HD
ENDBRANCH  23  29
ENDBRANCH  19  20
ENDBRANCH   1  19
BRANCH  17  31
HETATM   31  O7  UNL     1      -2.083  10.343  14.586  1.00  0.00    -0.389 OA
HETATM   32  H43 UNL     1      -1.625  10.317  13.722  1.00  0.00     0.210 HD
ENDBRANCH  17  31
BRANCH   4  33
HETATM   33  C9  UNL     1       0.487   9.295  13.992  1.00  0.00     0.068 C 
HETATM   34  N1  UNL     1       0.765   8.440  13.066  1.00  0.00    -0.401 N 
ATOM     35  H1  UNL     1       0.461   7.468  13.110  1.00  0.00     0.158 HD
BRANCH  34  36
HETATM   36  C10 UNL     1       1.551   8.969  11.947  1.00  0.00     0.121 C 
BRANCH  36  37
HETATM   37  C11 UNL     1       1.681   7.900  10.864  1.00  0.00     0.045 C 
BRANCH  37  38
HETATM   38  C12 UNL     1       0.726   8.154   9.706  1.00  0.00     0.165 C 
BRANCH  38  39
HETATM   39  O3  UNL     1      -0.392   8.934  10.125  1.00  0.00    -0.401 OA
HETATM   40  H20 UNL     1      -0.036   9.758  10.499  1.00  0.00     0.209 HD
ENDBRANCH  38  39
ENDBRANCH  37  38
ENDBRANCH  36  37
ENDBRANCH  34  36
ENDBRANCH   4  33
BRANCH  13  41
HETATM   41  O6  UNL     1       0.268  13.241  17.324  1.00  0.00    -0.389 OA
HETATM   42  H37 UNL     1      -0.685  13.352  17.137  1.00  0.00     0.210 HD
ENDBRANCH  13  41
BRANCH  10  43
HETATM   43  C19 UNL     1       2.478  10.807  20.630  1.00  0.00    -0.045 A 
HETATM   44  C20 UNL     1       1.566   9.905  21.012  1.00  0.00     0.087 A 
HETATM   45  C21 UNL     1       2.236   8.959  21.902  1.00  0.00     0.283 A 
HETATM   46  O4  UNL     1       1.693   8.015  22.441  1.00  0.00    -0.260 OA
HETATM   47  O5  UNL     1       3.543   9.316  22.037  1.00  0.00    -0.314 OA
HETATM   48  C22 UNL     1       3.798  10.462  21.228  1.00  0.00     0.213 A 
ENDBRANCH  10  43
TORSDOF 12
ENDMDL
MODEL 6
REMARK minimizedAffinity -8.65433121
REMARK CNNscore 0.293385059
REMARK CNNaffinity 6.90229368
REMARK  12 active torsions:
REMARK  status: ('A' for Active; 'I' for Inactive)
REMARK    1  A    between atoms: O1_2  and  C2_3 
REMARK    2  A    between atoms: C4_5  and  O2_6 
REMARK    3  A    between atoms: O2_6  and  C5_7 
REMARK    4  A    between atoms: C8_10  and  C9_11 
REMARK    5  A    between atoms: N1_12  and  C10_14 
REMARK    6  A    between atoms: C10_14  and  C11_15 
REMARK    7  A    between atoms: C11_15  and  C12_16 
REMARK    8  A    between atoms: C12_16  and  O3_17 
REMARK    9  A    between atoms: C18_23  and  C19_24 
REMARK   10  A    between atoms: C25_32  and  O6_33 
REMARK   11  A    between atoms: C29_37  and  O7_38 
REMARK   12  A    between atoms: C33_43  and  O9_44 
ROOT
HETATM    1  C5  UNL     1       0.451   8.537  13.194  1.00  0.00     0.127 C 
HETATM    2  C6  UNL     1      -0.082   7.129  13.018  1.00  0.00     0.033 C 
HETATM    3  C7  UNL     1      -0.952   6.727  14.189  1.00  0.00     0.021 C 
HETATM    4  C8  UNL     1      -2.078   7.754  14.565  1.00  0.00     0.026 C 
HETATM    5  C13 UNL     1      -3.464   6.974  14.402  1.00  0.00     0.009 C 
HETATM    6  C14 UNL     1      -3.763   6.015  15.559  1.00  0.00     0.007 C 
HETATM    7  C15 UNL     1      -4.917   5.113  15.168  1.00  0.00     0.013 C 
HETATM    8  C16 UNL     1      -6.238   5.887  15.017  1.00  0.00    -0.005 C 
HETATM    9  C17 UNL     1      -6.800   6.069  16.462  1.00  0.00     0.019 C 
HETATM   10  C18 UNL     1      -7.322   5.079  14.191  1.00  0.00     0.028 C 
HETATM   11  C23 UNL     1      -8.040   6.167  13.381  1.00  0.00     0.013 C 
HETATM   12  C24 UNL     1      -6.932   7.134  12.989  1.00  0.00     0.040 C 
HETATM   13  C25 UNL     1      -6.096   7.286  14.276  1.00  0.00     0.070 C 
HETATM   14  C26 UNL     1      -4.657   7.912  14.148  1.00  0.00     0.026 C 
HETATM   15  C27 UNL     1      -4.439   8.684  12.827  1.00  0.00     0.011 C 
HETATM   16  C28 UNL     1      -2.962   8.888  12.454  1.00  0.00     0.039 C 
HETATM   17  C29 UNL     1      -2.061   9.073  13.688  1.00  0.00     0.073 C 
HETATM   18  C30 UNL     1      -0.661   9.584  13.256  1.00  0.00     0.071 C 
ENDROOT
BRANCH   1  19
HETATM   19  O2  UNL     1       1.289   8.789  12.068  1.00  0.00    -0.356 OA
BRANCH  19  20
HETATM   20  C4  UNL     1       2.508   8.046  12.045  1.00  0.00     0.263 C 
HETATM   21  C3  UNL     1       2.518   7.234  10.757  1.00  0.00     0.095 C 
HETATM   22  C2  UNL     1       3.842   6.489  10.577  1.00  0.00     0.156 C 
HETATM   23  C33 UNL     1       5.017   7.485  10.678  1.00  0.00     0.175 C 
HETATM   24  C31 UNL     1       4.890   8.377  11.937  1.00  0.00     0.151 C 
HETATM   25  O8  UNL     1       3.596   8.968  12.063  1.00  0.00    -0.354 OA
HETATM   26  C32 UNL     1       5.303   7.693  13.244  1.00  0.00     0.042 C 
BRANCH  22  27
HETATM   27  O1  UNL     1       3.755   5.841   9.296  1.00  0.00    -0.388 OA
HETATM   28  C1  UNL     1       2.702   6.296   8.467  1.00  0.00     0.202 C 
ENDBRANCH  22  27
BRANCH  23  29
HETATM   29  O9  UNL     1       6.287   6.826  10.652  1.00  0.00    -0.390 OA
HETATM   30  H51 UNL     1       6.346   6.184  11.389  1.00  0.00     0.210 HD
ENDBRANCH  23  29
ENDBRANCH  19  20
ENDBRANCH   1  19
BRANCH  17  31
HETATM   31  O7  UNL     1      -2.686  10.186  14.378  1.00  0.00    -0.389 OA
HETATM   32  H43 UNL     1      -2.248  10.247  15.251  1.00  0.00     0.210 HD
ENDBRANCH  17  31
BRANCH   4  33
HETATM   33  C9  UNL     1      -1.781   8.072  16.041  1.00  0.00     0.068 C 
HETATM   34  N1  UNL     1      -2.567   8.804  16.757  1.00  0.00    -0.401 N 
ATOM     35  H1  UNL     1      -3.478   9.116  16.424  1.00  0.00     0.158 HD
BRANCH  34  36
HETATM   36  C10 UNL     1      -2.052   9.154  18.084  1.00  0.00     0.121 C 
BRANCH  36  37
HETATM   37  C11 UNL     1      -1.802  10.659  18.154  1.00  0.00     0.045 C 
BRANCH  37  38
HETATM   38  C12 UNL     1      -0.339  10.974  18.437  1.00  0.00     0.165 C 
BRANCH  38  39
HETATM   39  O3  UNL     1      -0.075  10.962  19.838  1.00  0.00    -0.401 OA
HETATM   40  H20 UNL     1      -0.334  10.084  20.166  1.00  0.00     0.209 HD
ENDBRANCH  38  39
ENDBRANCH  37  38
ENDBRANCH  36  37
ENDBRANCH  34  36
ENDBRANCH   4  33
BRANCH  13  41
HETATM   41  O6  UNL     1      -6.847   8.270  15.035  1.00  0.00    -0.389 OA
HETATM   42  H37 UNL     1      -6.731   9.136  14.597  1.00  0.00     0.210 HD
ENDBRANCH  13  41
BRANCH  10  43
HETATM   43  C19 UNL     1      -6.857   3.941  13.304  1.00  0.00    -0.045 A 
HETATM   44  C20 UNL     1      -5.748   3.937  12.555  1.00  0.00     0.087 A 
HETATM   45  C21 UNL     1      -5.704   2.658  11.850  1.00  0.00     0.283 A 
HETATM   46  O4  UNL     1      -4.831   2.328  11.071  1.00  0.00    -0.260 OA
HETATM   47  O5  UNL     1      -6.795   1.918  12.191  1.00  0.00    -0.314 OA
HETATM   48  C22 UNL     1      -7.567   2.641  13.147  1.00  0.00     0.213 A 
ENDBRANCH  10  43
TORSDOF 12
ENDMDL
MODEL 7
REMARK minimizedAffinity -8.40718651
REMARK CNNscore 0.285177588
REMARK CNNaffinity 6.19954491
REMARK  12 active torsions:
REMARK  status: ('A' for Active; 'I' for Inactive)
REMARK    1  A    between atoms: O1_2  and  C2_3 
REMARK    2  A    between atoms: C4_5  and  O2_6 
REMARK    3  A    between atoms: O2_6  and  C5_7 
REMARK    4  A    between atoms: C8_10  and  C9_11 
REMARK    5  A    between atoms: N1_12  and  C10_14 
REMARK    6  A    between atoms: C10_14  and  C11_15 
REMARK    7  A    between atoms: C11_15  and  C12_16 
REMARK    8  A    between atoms: C12_16  and  O3_17 
REMARK    9  A    between atoms: C18_23  and  C19_24 
REMARK   10  A    between atoms: C25_32  and  O6_33 
REMARK   11  A    between atoms: C29_37  and  O7_38 
REMARK   12  A    between atoms: C33_43  and  O9_44 
ROOT
HETATM    1  C5  UNL     1      -1.431   6.937  14.316  1.00  0.00     0.127 C 
HETATM    2  C6  UNL     1      -0.493   6.656  15.473  1.00  0.00     0.033 C 
HETATM    3  C7  UNL     1       0.689   7.601  15.456  1.00  0.00     0.021 C 
HETATM    4  C8  UNL     1       0.322   9.123  15.334  1.00  0.00     0.026 C 
HETATM    5  C13 UNL     1       0.903   9.827  16.647  1.00  0.00     0.009 C 
HETATM    6  C14 UNL     1       2.419  10.048  16.600  1.00  0.00     0.007 C 
HETATM    7  C15 UNL     1       2.906  10.425  17.985  1.00  0.00     0.013 C 
HETATM    8  C16 UNL     1       2.376  11.796  18.438  1.00  0.00    -0.005 C 
HETATM    9  C17 UNL     1       3.299  12.859  17.765  1.00  0.00     0.019 C 
HETATM   10  C18 UNL     1       2.489  12.001  20.004  1.00  0.00     0.028 C 
HETATM   11  C23 UNL     1       1.219  12.789  20.355  1.00  0.00     0.013 C 
HETATM   12  C24 UNL     1       0.148  12.195  19.451  1.00  0.00     0.040 C 
HETATM   13  C25 UNL     1       0.849  12.056  18.084  1.00  0.00     0.070 C 
HETATM   14  C26 UNL     1       0.171  11.133  17.004  1.00  0.00     0.026 C 
HETATM   15  C27 UNL     1      -1.316  10.831  17.298  1.00  0.00     0.011 C 
HETATM   16  C28 UNL     1      -1.862   9.594  16.569  1.00  0.00     0.039 C 
HETATM   17  C29 UNL     1      -1.230   9.398  15.180  1.00  0.00     0.073 C 
HETATM   18  C30 UNL     1      -2.030   8.342  14.372  1.00  0.00     0.071 C 
ENDROOT
BRANCH   1  19
HETATM   19  O2  UNL     1      -2.472   5.966  14.402  1.00  0.00    -0.356 OA
BRANCH  19  20
HETATM   20  C4  UNL     1      -2.363   4.883  13.479  1.00  0.00     0.263 C 
HETATM   21  C3  UNL     1      -3.765   4.586  12.963  1.00  0.00     0.095 C 
HETATM   22  C2  UNL     1      -3.743   3.513  11.872  1.00  0.00     0.156 C 
HETATM   23  C33 UNL     1      -2.758   3.925  10.757  1.00  0.00     0.175 C 
HETATM   24  C31 UNL     1      -1.388   4.343  11.345  1.00  0.00     0.151 C 
HETATM   25  O8  UNL     1      -1.512   5.287  12.409  1.00  0.00    -0.354 OA
HETATM   26  C32 UNL     1      -0.492   3.173  11.761  1.00  0.00     0.042 C 
BRANCH  22  27
HETATM   27  O1  UNL     1      -5.101   3.394  11.415  1.00  0.00    -0.388 OA
HETATM   28  C1  UNL     1      -5.606   2.072  11.377  1.00  0.00     0.202 C 
ENDBRANCH  22  27
BRANCH  23  29
HETATM   29  O9  UNL     1      -2.594   2.898   9.775  1.00  0.00    -0.390 OA
HETATM   30  H51 UNL     1      -2.272   2.077  10.201  1.00  0.00     0.210 HD
ENDBRANCH  23  29
ENDBRANCH  19  20
ENDBRANCH   1  19
BRANCH  17  31
HETATM   31  O7  UNL     1      -1.489  10.667  14.527  1.00  0.00    -0.389 OA
HETATM   32  H43 UNL     1      -0.972  10.658  13.696  1.00  0.00     0.210 HD
ENDBRANCH  17  31
BRANCH   4  33
HETATM   33  C9  UNL     1       1.087   9.565  14.073  1.00  0.00     0.068 C 
HETATM   34  N1  UNL     1       1.656   8.718  13.283  1.00  0.00    -0.401 N 
ATOM     35  H1  UNL     1       1.536   7.711  13.382  1.00  0.00     0.158 HD
BRANCH  34  36
HETATM   36  C10 UNL     1       2.489   9.311  12.232  1.00  0.00     0.121 C 
BRANCH  36  37
HETATM   37  C11 UNL     1       3.526   8.292  11.767  1.00  0.00     0.045 C 
BRANCH  37  38
HETATM   38  C12 UNL     1       3.208   7.761  10.376  1.00  0.00     0.165 C 
BRANCH  38  39
HETATM   39  O3  UNL     1       4.394   7.338   9.706  1.00  0.00    -0.401 OA
HETATM   40  H20 UNL     1       4.813   6.667  10.271  1.00  0.00     0.209 HD
ENDBRANCH  38  39
ENDBRANCH  37  38
ENDBRANCH  36  37
ENDBRANCH  34  36
ENDBRANCH   4  33
BRANCH  13  41
HETATM   41  O6  UNL     1       0.742  13.393  17.529  1.00  0.00    -0.389 OA
HETATM   42  H37 UNL     1      -0.193  13.540  17.281  1.00  0.00     0.210 HD
ENDBRANCH  13  41
BRANCH  10  43
HETATM   43  C19 UNL     1       2.645  10.778  20.886  1.00  0.00    -0.045 A 
HETATM   44  C20 UNL     1       1.692   9.876  21.148  1.00  0.00     0.087 A 
HETATM   45  C21 UNL     1       2.267   8.885  22.055  1.00  0.00     0.283 A 
HETATM   46  O4  UNL     1       1.667   7.929  22.504  1.00  0.00    -0.260 OA
HETATM   47  O5  UNL     1       3.561   9.216  22.321  1.00  0.00    -0.314 OA
HETATM   48  C22 UNL     1       3.901  10.389  21.585  1.00  0.00     0.213 A 
ENDBRANCH  10  43
TORSDOF 12
ENDMDL
MODEL 8
REMARK minimizedAffinity -8.895648
REMARK CNNscore 0.260328233
REMARK CNNaffinity 6.38618612
REMARK  12 active torsions:
REMARK  status: ('A' for Active; 'I' for Inactive)
REMARK    1  A    between atoms: O1_2  and  C2_3 
REMARK    2  A    between atoms: C4_5  and  O2_6 
REMARK    3  A    between atoms: O2_6  and  C5_7 
REMARK    4  A    between atoms: C8_10  and  C9_11 
REMARK    5  A    between atoms: N1_12  and  C10_14 
REMARK    6  A    between atoms: C10_14  and  C11_15 
REMARK    7  A    between atoms: C11_15  and  C12_16 
REMARK    8  A    between atoms: C12_16  and  O3_17 
REMARK    9  A    between atoms: C18_23  and  C19_24 
REMARK   10  A    between atoms: C25_32  and  O6_33 
REMARK   11  A    between atoms: C29_37  and  O7_38 
REMARK   12  A    between atoms: C33_43  and  O9_44 
ROOT
HETATM    1  C5  UNL     1       2.439   7.624  11.857  1.00  0.00     0.127 C 
HETATM    2  C6  UNL     1       1.587   6.371  11.862  1.00  0.00     0.033 C 
HETATM    3  C7  UNL     1       0.838   6.229  13.170  1.00  0.00     0.021 C 
HETATM    4  C8  UNL     1       0.038   7.503  13.620  1.00  0.00     0.026 C 
HETATM    5  C13 UNL     1      -1.495   7.057  13.709  1.00  0.00     0.009 C 
HETATM    6  C14 UNL     1      -1.819   6.242  14.966  1.00  0.00     0.007 C 
HETATM    7  C15 UNL     1      -3.191   5.615  14.807  1.00  0.00     0.013 C 
HETATM    8  C16 UNL     1      -4.314   6.665  14.782  1.00  0.00    -0.005 C 
HETATM    9  C17 UNL     1      -4.596   7.031  16.274  1.00  0.00     0.019 C 
HETATM   10  C18 UNL     1      -5.662   6.094  14.178  1.00  0.00     0.028 C 
HETATM   11  C23 UNL     1      -6.236   7.284  13.395  1.00  0.00     0.013 C 
HETATM   12  C24 UNL     1      -5.014   7.953  12.782  1.00  0.00     0.040 C 
HETATM   13  C25 UNL     1      -3.979   7.961  13.927  1.00  0.00     0.070 C 
HETATM   14  C26 UNL     1      -2.475   8.233  13.553  1.00  0.00     0.026 C 
HETATM   15  C27 UNL     1      -2.294   8.878  12.160  1.00  0.00     0.011 C 
HETATM   16  C28 UNL     1      -0.883   8.721  11.573  1.00  0.00     0.039 C 
HETATM   17  C29 UNL     1       0.214   8.745  12.652  1.00  0.00     0.073 C 
HETATM   18  C30 UNL     1       1.610   8.900  11.993  1.00  0.00     0.071 C 
ENDROOT
BRANCH   1  19
HETATM   19  O2  UNL     1       3.131   7.629  10.610  1.00  0.00    -0.356 OA
BRANCH  19  20
HETATM   20  C4  UNL     1       4.550   7.510  10.707  1.00  0.00     0.263 C 
HETATM   21  C3  UNL     1       5.106   8.906  10.953  1.00  0.00     0.095 C 
HETATM   22  C2  UNL     1       6.617   8.872  11.193  1.00  0.00     0.156 C 
HETATM   23  C33 UNL     1       6.942   7.878  12.329  1.00  0.00     0.175 C 
HETATM   24  C31 UNL     1       6.246   6.514  12.097  1.00  0.00     0.151 C 
HETATM   25  O8  UNL     1       4.855   6.651  11.804  1.00  0.00    -0.354 OA
HETATM   26  C32 UNL     1       6.933   5.619  11.061  1.00  0.00     0.042 C 
BRANCH  22  27
HETATM   27  O1  UNL     1       6.995  10.225  11.497  1.00  0.00    -0.388 OA
HETATM   28  C1  UNL     1       6.097  10.922  12.341  1.00  0.00     0.202 C 
ENDBRANCH  22  27
BRANCH  23  29
HETATM   29  O9  UNL     1       8.350   7.703  12.506  1.00  0.00    -0.390 OA
HETATM   30  H51 UNL     1       8.755   7.382  11.674  1.00  0.00     0.210 HD
ENDBRANCH  23  29
ENDBRANCH  19  20
ENDBRANCH   1  19
BRANCH  17  31
HETATM   31  O7  UNL     1      -0.037   9.999  13.337  1.00  0.00    -0.389 OA
HETATM   32  H43 UNL     1       0.531   9.994  14.134  1.00  0.00     0.210 HD
ENDBRANCH  17  31
BRANCH   4  33
HETATM   33  C9  UNL     1       0.619   7.805  15.013  1.00  0.00     0.068 C 
HETATM   34  N1  UNL     1       1.355   8.840  15.240  1.00  0.00    -0.401 N 
ATOM     35  H1  UNL     1       1.499   9.573  14.546  1.00  0.00     0.158 HD
BRANCH  34  36
HETATM   36  C10 UNL     1       1.971   8.884  16.570  1.00  0.00     0.121 C 
BRANCH  36  37
HETATM   37  C11 UNL     1       1.464  10.111  17.326  1.00  0.00     0.045 C 
BRANCH  37  38
HETATM   38  C12 UNL     1       2.466  10.581  18.371  1.00  0.00     0.165 C 
BRANCH  38  39
HETATM   39  O3  UNL     1       2.525   9.672  19.469  1.00  0.00    -0.401 OA
HETATM   40  H20 UNL     1       2.754   8.802  19.102  1.00  0.00     0.209 HD
ENDBRANCH  38  39
ENDBRANCH  37  38
ENDBRANCH  36  37
ENDBRANCH  34  36
ENDBRANCH   4  33
BRANCH  13  41
HETATM   41  O6  UNL     1      -4.370   9.123  14.706  1.00  0.00    -0.389 OA
HETATM   42  H37 UNL     1      -4.132   9.920  14.193  1.00  0.00     0.210 HD
ENDBRANCH  13  41
BRANCH  10  43
HETATM   43  C19 UNL     1      -5.602   4.844  13.323  1.00  0.00    -0.045 A 
HETATM   44  C20 UNL     1      -4.591   4.496  12.518  1.00  0.00     0.087 A 
HETATM   45  C21 UNL     1      -4.962   3.238  11.873  1.00  0.00     0.283 A 
HETATM   46  O4  UNL     1      -4.272   2.645  11.067  1.00  0.00    -0.260 OA
HETATM   47  O5  UNL     1      -6.195   2.857  12.305  1.00  0.00    -0.314 OA
HETATM   48  C22 UNL     1      -6.664   3.802  13.265  1.00  0.00     0.213 A 
ENDBRANCH  10  43
TORSDOF 12
ENDMDL
MODEL 9
REMARK minimizedAffinity -7.28764296
REMARK CNNscore 0.232349202
REMARK CNNaffinity 5.50729132
REMARK  12 active torsions:
REMARK  status: ('A' for Active; 'I' for Inactive)
REMARK    1  A    between atoms: O1_2  and  C2_3 
REMARK    2  A    between atoms: C4_5  and  O2_6 
REMARK    3  A    between atoms: O2_6  and  C5_7 
REMARK    4  A    between atoms: C8_10  and  C9_11 
REMARK    5  A    between atoms: N1_12  and  C10_14 
REMARK    6  A    between atoms: C10_14  and  C11_15 
REMARK    7  A    between atoms: C11_15  and  C12_16 
REMARK    8  A    between atoms: C12_16  and  O3_17 
REMARK    9  A    between atoms: C18_23  and  C19_24 
REMARK   10  A    between atoms: C25_32  and  O6_33 
REMARK   11  A    between atoms: C29_37  and  O7_38 
REMARK   12  A    between atoms: C33_43  and  O9_44 
ROOT
HETATM    1  C5  UNL     1       3.594   8.052  13.716  1.00  0.00     0.127 C 
HETATM    2  C6  UNL     1       2.738   9.125  13.073  1.00  0.00     0.033 C 
HETATM    3  C7  UNL     1       1.276   8.735  13.088  1.00  0.00     0.021 C 
HETATM    4  C8  UNL     1       0.723   8.282  14.485  1.00  0.00     0.026 C 
HETATM    5  C13 UNL     1      -0.454   9.302  14.851  1.00  0.00     0.009 C 
HETATM    6  C14 UNL     1      -1.756   9.025  14.092  1.00  0.00     0.007 C 
HETATM    7  C15 UNL     1      -2.690  10.206  14.268  1.00  0.00     0.013 C 
HETATM    8  C16 UNL     1      -3.169  10.362  15.722  1.00  0.00    -0.005 C 
HETATM    9  C17 UNL     1      -4.337   9.343  15.904  1.00  0.00     0.019 C 
HETATM   10  C18 UNL     1      -3.755  11.804  16.015  1.00  0.00     0.028 C 
HETATM   11  C23 UNL     1      -3.295  12.093  17.451  1.00  0.00     0.013 C 
HETATM   12  C24 UNL     1      -1.897  11.496  17.524  1.00  0.00     0.040 C 
HETATM   13  C25 UNL     1      -2.034  10.135  16.811  1.00  0.00     0.070 C 
HETATM   14  C26 UNL     1      -0.713   9.405  16.364  1.00  0.00     0.026 C 
HETATM   15  C27 UNL     1       0.553   9.936  17.073  1.00  0.00     0.011 C 
HETATM   16  C28 UNL     1       1.866   9.607  16.345  1.00  0.00     0.039 C 
HETATM   17  C29 UNL     1       1.819   8.246  15.628  1.00  0.00     0.073 C 
HETATM   18  C30 UNL     1       3.246   7.825  15.187  1.00  0.00     0.071 C 
ENDROOT
BRANCH   1  19
HETATM   19  O2  UNL     1       4.944   8.498  13.602  1.00  0.00    -0.356 OA
BRANCH  19  20
HETATM   20  C4  UNL     1       5.467   9.141  14.763  1.00  0.00     0.263 C 
HETATM   21  C3  UNL     1       6.932   8.742  14.880  1.00  0.00     0.095 C 
HETATM   22  C2  UNL     1       7.620   9.476  16.033  1.00  0.00     0.156 C 
HETATM   23  C33 UNL     1       7.414  10.998  15.877  1.00  0.00     0.175 C 
HETATM   24  C31 UNL     1       5.924  11.340  15.629  1.00  0.00     0.151 C 
HETATM   25  O8  UNL     1       5.345  10.551  14.590  1.00  0.00    -0.354 OA
HETATM   26  C32 UNL     1       5.048  11.308  16.886  1.00  0.00     0.042 C 
BRANCH  22  27
HETATM   27  O1  UNL     1       9.001   9.081  15.977  1.00  0.00    -0.388 OA
HETATM   28  C1  UNL     1       9.255   7.739  16.345  1.00  0.00     0.202 C 
ENDBRANCH  22  27
BRANCH  23  29
HETATM   29  O9  UNL     1       7.921  11.729  16.998  1.00  0.00    -0.390 OA
HETATM   30  H51 UNL     1       7.481  11.428  17.820  1.00  0.00     0.210 HD
ENDBRANCH  23  29
ENDBRANCH  19  20
ENDBRANCH   1  19
BRANCH  17  31
HETATM   31  O7  UNL     1       1.456   7.333  16.694  1.00  0.00    -0.389 OA
HETATM   32  H43 UNL     1       1.257   6.476  16.265  1.00  0.00     0.210 HD
ENDBRANCH  17  31
BRANCH   4  33
HETATM   33  C9  UNL     1       0.177   6.871  14.203  1.00  0.00     0.068 C 
HETATM   34  N1  UNL     1       0.224   6.339  13.028  1.00  0.00    -0.401 N 
ATOM     35  H1  UNL     1       0.726   6.770  12.252  1.00  0.00     0.158 HD
BRANCH  34  36
HETATM   36  C10 UNL     1      -0.495   5.069  12.891  1.00  0.00     0.121 C 
BRANCH  36  37
HETATM   37  C11 UNL     1       0.154   4.231  11.792  1.00  0.00     0.045 C 
BRANCH  37  38
HETATM   38  C12 UNL     1       1.412   4.893  11.248  1.00  0.00     0.165 C 
BRANCH  38  39
HETATM   39  O3  UNL     1       2.226   3.952  10.550  1.00  0.00    -0.401 OA
HETATM   40  H20 UNL     1       1.674   3.571   9.845  1.00  0.00     0.209 HD
ENDBRANCH  38  39
ENDBRANCH  37  38
ENDBRANCH  36  37
ENDBRANCH  34  36
ENDBRANCH   4  33
BRANCH  13  41
HETATM   41  O6  UNL     1      -2.580   9.280  17.851  1.00  0.00    -0.389 OA
HETATM   42  H37 UNL     1      -1.871   9.114  18.503  1.00  0.00     0.210 HD
ENDBRANCH  13  41
BRANCH  10  43
HETATM   43  C19 UNL     1      -3.392  12.939  15.077  1.00  0.00    -0.045 A 
HETATM   44  C20 UNL     1      -2.194  13.135  14.515  1.00  0.00     0.087 A 
HETATM   45  C21 UNL     1      -2.286  14.351  13.709  1.00  0.00     0.283 A 
HETATM   46  O4  UNL     1      -1.369  14.827  13.069  1.00  0.00    -0.260 OA
HETATM   47  O5  UNL     1      -3.545  14.861  13.805  1.00  0.00    -0.314 OA
HETATM   48  C22 UNL     1      -4.333  14.002  14.627  1.00  0.00     0.213 A 
ENDBRANCH  10  43
TORSDOF 12
ENDMDL
