MODEL 1
REMARK minimizedAffinity -6.4052763
REMARK CNNscore 0.62928915
REMARK CNNaffinity 6.83322191
REMARK  5 active torsions:
REMARK  status: ('A' for Active; 'I' for Inactive)
REMARK    1  A    between atoms: C2_2  and  C3_3 
REMARK    2  A    between atoms: C4_5  and  C5_6 
REMARK    3  A    between atoms: C5_6  and  C6_7 
REMARK    4  A    between atoms: C6_7  and  C7_8 
REMARK    5  A    between atoms: C7_8  and  C9_10 
ROOT
HETATM    1  C9  UNL     1      -2.180  14.958   4.103  1.00  0.00    -0.001 C 
HETATM    2  C10 UNL     1      -2.903  14.836   2.731  1.00  0.00     0.007 C 
HETATM    3  C11 UNL     1      -1.820  14.682   1.650  1.00  0.00     0.015 C 
HETATM    4  C12 UNL     1      -0.526  14.363   2.423  1.00  0.00    -0.004 C 
HETATM    5  C13 UNL     1      -0.532  12.833   2.718  1.00  0.00     0.021 C 
HETATM    6  C14 UNL     1       0.831  14.647   1.800  1.00  0.00     0.007 C 
HETATM    7  C15 UNL     1       1.940  14.897   2.540  1.00  0.00     0.007 C 
HETATM    8  C16 UNL     1       1.767  14.969   4.052  1.00  0.00     0.157 C 
HETATM    9  O2  UNL     1       2.749  15.045   4.790  1.00  0.00    -0.293 OA
HETATM   10  C17 UNL     1       0.379  14.941   4.682  1.00  0.00     0.094 C 
HETATM   11  C18 UNL     1      -0.716  15.292   3.677  1.00  0.00    -0.022 C 
HETATM   12  C19 UNL     1      -0.608  16.815   3.339  1.00  0.00     0.017 C 
HETATM   13  C20 UNL     1       3.359  15.134   1.959  1.00  0.00    -0.007 C 
HETATM   14  C21 UNL     1       3.651  16.645   2.129  1.00  0.00     0.021 C 
HETATM   15  C22 UNL     1       4.453  14.317   2.721  1.00  0.00     0.022 C 
HETATM   16  C23 UNL     1       5.674  13.900   1.904  1.00  0.00     0.080 C 
HETATM   17  C24 UNL     1       5.913  14.817   0.732  1.00  0.00     0.135 C 
HETATM   18  O3  UNL     1       6.999  15.373   0.574  1.00  0.00    -0.297 OA
HETATM   19  C25 UNL     1       4.767  14.942  -0.279  1.00  0.00     0.018 C 
HETATM   20  C26 UNL     1       4.842  16.308  -0.988  1.00  0.00     0.023 C 
HETATM   21  C27 UNL     1       5.005  13.854  -1.348  1.00  0.00     0.023 C 
HETATM   22  C28 UNL     1       3.410  14.674   0.457  1.00  0.00     0.021 C 
HETATM   23  C29 UNL     1       2.194  15.178  -0.315  1.00  0.00     0.090 C 
HETATM   24  C30 UNL     1       0.947  14.613   0.310  1.00  0.00     0.157 C 
HETATM   25  O4  UNL     1       0.045  14.165  -0.392  1.00  0.00    -0.293 OA
ENDROOT
BRANCH   1  26
HETATM   26  C7  UNL     1      -2.941  15.906   5.079  1.00  0.00    -0.014 C 
HETATM   27  C8  UNL     1      -3.093  17.319   4.499  1.00  0.00     0.010 C 
BRANCH  26  28
HETATM   28  C6  UNL     1      -2.211  15.995   6.450  1.00  0.00     0.008 C 
BRANCH  28  29
HETATM   29  C5  UNL     1      -2.049  17.425   6.990  1.00  0.00     0.028 C 
BRANCH  29  30
HETATM   30  C4  UNL     1      -2.797  17.701   8.261  1.00  0.00    -0.017 C 
HETATM   31  C2  UNL     1      -3.957  18.375   8.388  1.00  0.00    -0.028 C 
HETATM   32  C1  UNL     1      -4.782  18.959   7.286  1.00  0.00     0.051 C 
BRANCH  31  33
HETATM   33  C3  UNL     1      -4.518  18.545   9.763  1.00  0.00     0.265 C 
HETATM   34  O1  UNL     1      -3.951  18.178  10.785  1.00  0.00    -0.302 OA
ENDBRANCH  31  33
ENDBRANCH  29  30
ENDBRANCH  28  29
ENDBRANCH  26  28
ENDBRANCH   1  26
TORSDOF 5
ENDMDL
MODEL 2
REMARK minimizedAffinity -7.10725832
REMARK CNNscore 0.487487018
REMARK CNNaffinity 6.18655539
REMARK  5 active torsions:
REMARK  status: ('A' for Active; 'I' for Inactive)
REMARK    1  A    between atoms: C2_2  and  C3_3 
REMARK    2  A    between atoms: C4_5  and  C5_6 
REMARK    3  A    between atoms: C5_6  and  C6_7 
REMARK    4  A    between atoms: C6_7  and  C7_8 
REMARK    5  A    between atoms: C7_8  and  C9_10 
ROOT
HETATM    1  C9  UNL     1       1.551  11.120  17.596  1.00  0.00    -0.001 C 
HETATM    2  C10 UNL     1       3.061  11.494  17.590  1.00  0.00     0.007 C 
HETATM    3  C11 UNL     1       3.643  11.045  16.238  1.00  0.00     0.015 C 
HETATM    4  C12 UNL     1       2.417  10.746  15.355  1.00  0.00    -0.004 C 
HETATM    5  C13 UNL     1       1.935  12.105  14.761  1.00  0.00     0.021 C 
HETATM    6  C14 UNL     1       2.538   9.809  14.164  1.00  0.00     0.007 C 
HETATM    7  C15 UNL     1       1.488   9.099  13.680  1.00  0.00     0.007 C 
HETATM    8  C16 UNL     1       0.168   9.207  14.432  1.00  0.00     0.157 C 
HETATM    9  O2  UNL     1      -0.858   8.713  13.967  1.00  0.00    -0.293 OA
HETATM   10  C17 UNL     1       0.087   9.937  15.768  1.00  0.00     0.094 C 
HETATM   11  C18 UNL     1       1.459  10.098  16.419  1.00  0.00    -0.022 C 
HETATM   12  C19 UNL     1       1.941   8.694  16.910  1.00  0.00     0.017 C 
HETATM   13  C20 UNL     1       1.541   8.176  12.434  1.00  0.00    -0.007 C 
HETATM   14  C21 UNL     1       1.487   6.723  12.968  1.00  0.00     0.021 C 
HETATM   15  C22 UNL     1       0.329   8.409  11.474  1.00  0.00     0.022 C 
HETATM   16  C23 UNL     1       0.581   8.138   9.992  1.00  0.00     0.080 C 
HETATM   17  C24 UNL     1       1.702   7.152   9.778  1.00  0.00     0.135 C 
HETATM   18  O3  UNL     1       1.530   6.134   9.109  1.00  0.00    -0.297 OA
HETATM   19  C25 UNL     1       3.066   7.536  10.362  1.00  0.00     0.018 C 
HETATM   20  C26 UNL     1       3.881   6.263  10.664  1.00  0.00     0.023 C 
HETATM   21  C27 UNL     1       3.815   8.311   9.256  1.00  0.00     0.023 C 
HETATM   22  C28 UNL     1       2.843   8.466  11.603  1.00  0.00     0.021 C 
HETATM   23  C29 UNL     1       4.066   8.565  12.512  1.00  0.00     0.090 C 
HETATM   24  C30 UNL     1       3.865   9.696  13.484  1.00  0.00     0.157 C 
HETATM   25  O4  UNL     1       4.776  10.481  13.726  1.00  0.00    -0.293 OA
ENDROOT
BRANCH   1  26
HETATM   26  C7  UNL     1       1.059  10.714  19.019  1.00  0.00    -0.014 C 
HETATM   27  C8  UNL     1       0.067  11.735  19.592  1.00  0.00     0.010 C 
BRANCH  26  28
HETATM   28  C6  UNL     1       2.257  10.565  20.000  1.00  0.00     0.008 C 
BRANCH  28  29
HETATM   29  C5  UNL     1       2.215  11.521  21.201  1.00  0.00     0.028 C 
BRANCH  29  30
HETATM   30  C4  UNL     1       3.562  11.915  21.734  1.00  0.00    -0.017 C 
HETATM   31  C2  UNL     1       4.322  11.222  22.604  1.00  0.00    -0.028 C 
HETATM   32  C1  UNL     1       4.015   9.886  23.200  1.00  0.00     0.051 C 
BRANCH  31  33
HETATM   33  C3  UNL     1       5.632  11.816  23.013  1.00  0.00     0.265 C 
HETATM   34  O1  UNL     1       6.421  12.336  22.233  1.00  0.00    -0.302 OA
ENDBRANCH  31  33
ENDBRANCH  29  30
ENDBRANCH  28  29
ENDBRANCH  26  28
ENDBRANCH   1  26
TORSDOF 5
ENDMDL
MODEL 3
REMARK minimizedAffinity -6.4655652
REMARK CNNscore 0.483371347
REMARK CNNaffinity 6.61873055
REMARK  5 active torsions:
REMARK  status: ('A' for Active; 'I' for Inactive)
REMARK    1  A    between atoms: C2_2  and  C3_3 
REMARK    2  A    between atoms: C4_5  and  C5_6 
REMARK    3  A    between atoms: C5_6  and  C6_7 
REMARK    4  A    between atoms: C6_7  and  C7_8 
REMARK    5  A    between atoms: C7_8  and  C9_10 
ROOT
HETATM    1  C9  UNL     1      -2.186  15.023   4.073  1.00  0.00    -0.001 C 
HETATM    2  C10 UNL     1      -2.902  14.869   2.700  1.00  0.00     0.007 C 
HETATM    3  C11 UNL     1      -1.814  14.677   1.630  1.00  0.00     0.015 C 
HETATM    4  C12 UNL     1      -0.527  14.369   2.420  1.00  0.00    -0.004 C 
HETATM    5  C13 UNL     1      -0.547  12.848   2.756  1.00  0.00     0.021 C 
HETATM    6  C14 UNL     1       0.836  14.625   1.797  1.00  0.00     0.007 C 
HETATM    7  C15 UNL     1       1.942  14.886   2.537  1.00  0.00     0.007 C 
HETATM    8  C16 UNL     1       1.761  15.001   4.045  1.00  0.00     0.157 C 
HETATM    9  O2  UNL     1       2.739  15.089   4.787  1.00  0.00    -0.293 OA
HETATM   10  C17 UNL     1       0.370  15.002   4.667  1.00  0.00     0.094 C 
HETATM   11  C18 UNL     1      -0.717  15.333   3.646  1.00  0.00    -0.022 C 
HETATM   12  C19 UNL     1      -0.594  16.846   3.268  1.00  0.00     0.017 C 
HETATM   13  C20 UNL     1       3.367  15.096   1.958  1.00  0.00    -0.007 C 
HETATM   14  C21 UNL     1       3.670  16.609   2.089  1.00  0.00     0.021 C 
HETATM   15  C22 UNL     1       4.450  14.291   2.749  1.00  0.00     0.022 C 
HETATM   16  C23 UNL     1       5.672  13.842   1.951  1.00  0.00     0.080 C 
HETATM   17  C24 UNL     1       5.925  14.725   0.756  1.00  0.00     0.135 C 
HETATM   18  O3  UNL     1       7.016  15.268   0.589  1.00  0.00    -0.297 OA
HETATM   19  C25 UNL     1       4.787  14.831  -0.265  1.00  0.00     0.018 C 
HETATM   20  C26 UNL     1       4.877  16.177  -1.010  1.00  0.00     0.023 C 
HETATM   21  C27 UNL     1       5.022  13.712  -1.303  1.00  0.00     0.023 C 
HETATM   22  C28 UNL     1       3.423  14.594   0.470  1.00  0.00     0.021 C 
HETATM   23  C29 UNL     1       2.215  15.087  -0.323  1.00  0.00     0.090 C 
HETATM   24  C30 UNL     1       0.960  14.550   0.309  1.00  0.00     0.157 C 
HETATM   25  O4  UNL     1       0.059  14.089  -0.385  1.00  0.00    -0.293 OA
ENDROOT
BRANCH   1  26
HETATM   26  C7  UNL     1      -2.946  16.003   5.018  1.00  0.00    -0.014 C 
HETATM   27  C8  UNL     1      -2.896  17.447   4.500  1.00  0.00     0.010 C 
BRANCH  26  28
HETATM   28  C6  UNL     1      -2.354  15.960   6.456  1.00  0.00     0.008 C 
BRANCH  28  29
HETATM   29  C5  UNL     1      -1.726  17.282   6.924  1.00  0.00     0.028 C 
BRANCH  29  30
HETATM   30  C4  UNL     1      -1.781  17.509   8.406  1.00  0.00    -0.017 C 
HETATM   31  C2  UNL     1      -0.748  17.466   9.270  1.00  0.00    -0.028 C 
HETATM   32  C1  UNL     1       0.690  17.224   8.940  1.00  0.00     0.051 C 
BRANCH  31  33
HETATM   33  C3  UNL     1      -1.038  17.710  10.717  1.00  0.00     0.265 C 
HETATM   34  O1  UNL     1      -1.808  17.031  11.385  1.00  0.00    -0.302 OA
ENDBRANCH  31  33
ENDBRANCH  29  30
ENDBRANCH  28  29
ENDBRANCH  26  28
ENDBRANCH   1  26
TORSDOF 5
ENDMDL
MODEL 4
REMARK minimizedAffinity -6.70616531
REMARK CNNscore 0.42517525
REMARK CNNaffinity 6.17723227
REMARK  5 active torsions:
REMARK  status: ('A' for Active; 'I' for Inactive)
REMARK    1  A    between atoms: C2_2  and  C3_3 
REMARK    2  A    between atoms: C4_5  and  C5_6 
REMARK    3  A    between atoms: C5_6  and  C6_7 
REMARK    4  A    between atoms: C6_7  and  C7_8 
REMARK    5  A    between atoms: C7_8  and  C9_10 
ROOT
HETATM    1  C9  UNL     1       3.485  12.015  17.455  1.00  0.00    -0.001 C 
HETATM    2  C10 UNL     1       4.729  11.210  16.980  1.00  0.00     0.007 C 
HETATM    3  C11 UNL     1       4.241  10.163  15.963  1.00  0.00     0.015 C 
HETATM    4  C12 UNL     1       2.809  10.598  15.598  1.00  0.00    -0.004 C 
HETATM    5  C13 UNL     1       2.927  11.696  14.499  1.00  0.00     0.021 C 
HETATM    6  C14 UNL     1       1.815   9.587  15.050  1.00  0.00     0.007 C 
HETATM    7  C15 UNL     1       0.473   9.723  15.197  1.00  0.00     0.007 C 
HETATM    8  C16 UNL     1      -0.021  10.906  16.019  1.00  0.00     0.157 C 
HETATM    9  O2  UNL     1      -1.220  11.175  16.069  1.00  0.00    -0.293 OA
HETATM   10  C17 UNL     1       0.958  11.786  16.789  1.00  0.00     0.094 C 
HETATM   11  C18 UNL     1       2.305  11.100  17.000  1.00  0.00    -0.022 C 
HETATM   12  C19 UNL     1       2.114   9.945  18.037  1.00  0.00     0.017 C 
HETATM   13  C20 UNL     1      -0.586   8.755  14.608  1.00  0.00    -0.007 C 
HETATM   14  C21 UNL     1      -1.154   7.953  15.805  1.00  0.00     0.021 C 
HETATM   15  C22 UNL     1      -1.758   9.517  13.906  1.00  0.00     0.022 C 
HETATM   16  C23 UNL     1      -2.439   8.788  12.750  1.00  0.00     0.080 C 
HETATM   17  C24 UNL     1      -2.301   7.291  12.862  1.00  0.00     0.135 C 
HETATM   18  O3  UNL     1      -3.291   6.561  12.848  1.00  0.00    -0.297 OA
HETATM   19  C25 UNL     1      -0.871   6.742  12.906  1.00  0.00     0.018 C 
HETATM   20  C26 UNL     1      -0.852   5.395  13.656  1.00  0.00     0.023 C 
HETATM   21  C27 UNL     1      -0.463   6.461  11.444  1.00  0.00     0.023 C 
HETATM   22  C28 UNL     1       0.073   7.832  13.520  1.00  0.00     0.021 C 
HETATM   23  C29 UNL     1       1.407   7.272  14.008  1.00  0.00     0.090 C 
HETATM   24  C30 UNL     1       2.345   8.414  14.289  1.00  0.00     0.157 C 
HETATM   25  O4  UNL     1       3.516   8.364  13.925  1.00  0.00    -0.293 OA
ENDROOT
BRANCH   1  26
HETATM   26  C7  UNL     1       3.606  12.443  18.949  1.00  0.00    -0.014 C 
HETATM   27  C8  UNL     1       3.752  13.964  19.097  1.00  0.00     0.010 C 
BRANCH  26  28
HETATM   28  C6  UNL     1       4.821  11.748  19.630  1.00  0.00     0.008 C 
BRANCH  28  29
HETATM   29  C5  UNL     1       4.632  11.466  21.128  1.00  0.00     0.028 C 
BRANCH  29  30
HETATM   30  C4  UNL     1       3.944  10.169  21.437  1.00  0.00    -0.017 C 
HETATM   31  C2  UNL     1       3.281   9.852  22.567  1.00  0.00    -0.028 C 
HETATM   32  C1  UNL     1       3.045  10.738  23.748  1.00  0.00     0.051 C 
BRANCH  31  33
HETATM   33  C3  UNL     1       2.683   8.485  22.666  1.00  0.00     0.265 C 
HETATM   34  O1  UNL     1       1.585   8.184  22.214  1.00  0.00    -0.302 OA
ENDBRANCH  31  33
ENDBRANCH  29  30
ENDBRANCH  28  29
ENDBRANCH  26  28
ENDBRANCH   1  26
TORSDOF 5
ENDMDL
MODEL 5
REMARK minimizedAffinity -6.92710638
REMARK CNNscore 0.410652876
REMARK CNNaffinity 5.92375374
REMARK  5 active torsions:
REMARK  status: ('A' for Active; 'I' for Inactive)
REMARK    1  A    between atoms: C2_2  and  C3_3 
REMARK    2  A    between atoms: C4_5  and  C5_6 
REMARK    3  A    between atoms: C5_6  and  C6_7 
REMARK    4  A    between atoms: C6_7  and  C7_8 
REMARK    5  A    between atoms: C7_8  and  C9_10 
ROOT
HETATM    1  C9  UNL     1     -16.971   3.504  14.922  1.00  0.00    -0.001 C 
HETATM    2  C10 UNL     1     -17.219   3.527  13.386  1.00  0.00     0.007 C 
HETATM    3  C11 UNL     1     -17.179   2.071  12.889  1.00  0.00     0.015 C 
HETATM    4  C12 UNL     1     -17.263   1.212  14.164  1.00  0.00    -0.004 C 
HETATM    5  C13 UNL     1     -18.770   1.101  14.546  1.00  0.00     0.021 C 
HETATM    6  C14 UNL     1     -16.744  -0.217  14.163  1.00  0.00     0.007 C 
HETATM    7  C15 UNL     1     -16.300  -0.837  15.285  1.00  0.00     0.007 C 
HETATM    8  C16 UNL     1     -16.259  -0.014  16.566  1.00  0.00     0.157 C 
HETATM    9  O2  UNL     1     -16.010  -0.550  17.645  1.00  0.00    -0.293 OA
HETATM   10  C17 UNL     1     -16.532   1.485  16.541  1.00  0.00     0.094 C 
HETATM   11  C18 UNL     1     -16.382   2.074  15.139  1.00  0.00    -0.022 C 
HETATM   12  C19 UNL     1     -14.864   2.074  14.763  1.00  0.00     0.017 C 
HETATM   13  C20 UNL     1     -15.815  -2.309  15.352  1.00  0.00    -0.007 C 
HETATM   14  C21 UNL     1     -14.276  -2.253  15.513  1.00  0.00     0.021 C 
HETATM   15  C22 UNL     1     -16.425  -3.078  16.570  1.00  0.00     0.022 C 
HETATM   16  C23 UNL     1     -16.620  -4.581  16.390  1.00  0.00     0.080 C 
HETATM   17  C24 UNL     1     -15.674  -5.157  15.366  1.00  0.00     0.135 C 
HETATM   18  O3  UNL     1     -14.935  -6.099  15.646  1.00  0.00    -0.297 OA
HETATM   19  C25 UNL     1     -15.756  -4.563  13.956  1.00  0.00     0.018 C 
HETATM   20  C26 UNL     1     -14.398  -4.720  13.244  1.00  0.00     0.023 C 
HETATM   21  C27 UNL     1     -16.785  -5.413  13.180  1.00  0.00     0.023 C 
HETATM   22  C28 UNL     1     -16.260  -3.082  14.058  1.00  0.00     0.021 C 
HETATM   23  C29 UNL     1     -15.979  -2.261  12.802  1.00  0.00     0.090 C 
HETATM   24  C30 UNL     1     -16.757  -0.974  12.874  1.00  0.00     0.157 C 
HETATM   25  O4  UNL     1     -17.358  -0.552  11.891  1.00  0.00    -0.293 OA
ENDROOT
BRANCH   1  26
HETATM   26  C7  UNL     1     -16.172   4.754  15.400  1.00  0.00    -0.014 C 
HETATM   27  C8  UNL     1     -17.027   5.672  16.286  1.00  0.00     0.010 C 
BRANCH  26  28
HETATM   28  C6  UNL     1     -15.640   5.571  14.188  1.00  0.00     0.008 C 
BRANCH  28  29
HETATM   29  C5  UNL     1     -14.130   5.856  14.229  1.00  0.00     0.028 C 
BRANCH  29  30
HETATM   30  C4  UNL     1     -13.728   7.177  13.643  1.00  0.00    -0.017 C 
HETATM   31  C2  UNL     1     -12.476   7.658  13.513  1.00  0.00    -0.028 C 
HETATM   32  C1  UNL     1     -11.204   6.964  13.884  1.00  0.00     0.051 C 
BRANCH  31  33
HETATM   33  C3  UNL     1     -12.308   9.016  12.910  1.00  0.00     0.265 C 
HETATM   34  O1  UNL     1     -11.928   9.213  11.763  1.00  0.00    -0.302 OA
ENDBRANCH  31  33
ENDBRANCH  29  30
ENDBRANCH  28  29
ENDBRANCH  26  28
ENDBRANCH   1  26
TORSDOF 5
ENDMDL
MODEL 6
REMARK minimizedAffinity -7.63969517
REMARK CNNscore 0.405456603
REMARK CNNaffinity 6.66173792
REMARK  5 active torsions:
REMARK  status: ('A' for Active; 'I' for Inactive)
REMARK    1  A    between atoms: C2_2  and  C3_3 
REMARK    2  A    between atoms: C4_5  and  C5_6 
REMARK    3  A    between atoms: C5_6  and  C6_7 
REMARK    4  A    between atoms: C6_7  and  C7_8 
REMARK    5  A    between atoms: C7_8  and  C9_10 
ROOT
HETATM    1  C9  UNL     1      -1.532   9.572  15.117  1.00  0.00    -0.001 C 
HETATM    2  C10 UNL     1      -0.390   8.733  14.475  1.00  0.00     0.007 C 
HETATM    3  C11 UNL     1      -1.043   7.556  13.730  1.00  0.00     0.015 C 
HETATM    4  C12 UNL     1      -2.539   7.915  13.649  1.00  0.00    -0.004 C 
HETATM    5  C13 UNL     1      -2.718   8.864  12.426  1.00  0.00     0.021 C 
HETATM    6  C14 UNL     1      -3.582   6.825  13.467  1.00  0.00     0.007 C 
HETATM    7  C15 UNL     1      -4.862   6.956  13.897  1.00  0.00     0.007 C 
HETATM    8  C16 UNL     1      -5.215   8.227  14.659  1.00  0.00     0.157 C 
HETATM    9  O2  UNL     1      -6.384   8.479  14.946  1.00  0.00    -0.293 OA
HETATM   10  C17 UNL     1      -4.131   9.215  15.073  1.00  0.00     0.094 C 
HETATM   11  C18 UNL     1      -2.740   8.585  15.057  1.00  0.00    -0.022 C 
HETATM   12  C19 UNL     1      -2.643   7.570  16.242  1.00  0.00     0.017 C 
HETATM   13  C20 UNL     1      -5.981   5.901  13.685  1.00  0.00    -0.007 C 
HETATM   14  C21 UNL     1      -6.231   5.251  15.068  1.00  0.00     0.021 C 
HETATM   15  C22 UNL     1      -7.313   6.546  13.179  1.00  0.00     0.022 C 
HETATM   16  C23 UNL     1      -8.200   5.663  12.305  1.00  0.00     0.080 C 
HETATM   17  C24 UNL     1      -7.972   4.195  12.565  1.00  0.00     0.135 C 
HETATM   18  O3  UNL     1      -8.905   3.453  12.864  1.00  0.00    -0.297 OA
HETATM   19  C25 UNL     1      -6.544   3.681  12.351  1.00  0.00     0.018 C 
HETATM   20  C26 UNL     1      -6.297   2.443  13.235  1.00  0.00     0.023 C 
HETATM   21  C27 UNL     1      -6.459   3.221  10.880  1.00  0.00     0.023 C 
HETATM   22  C28 UNL     1      -5.538   4.857  12.597  1.00  0.00     0.021 C 
HETATM   23  C29 UNL     1      -4.105   4.387  12.835  1.00  0.00     0.090 C 
HETATM   24  C30 UNL     1      -3.181   5.573  12.755  1.00  0.00     0.157 C 
HETATM   25  O4  UNL     1      -2.119   5.497  12.144  1.00  0.00    -0.293 OA
ENDROOT
BRANCH   1  26
HETATM   26  C7  UNL     1      -1.101  10.191  16.482  1.00  0.00    -0.014 C 
HETATM   27  C8  UNL     1      -1.135  11.725  16.447  1.00  0.00     0.010 C 
BRANCH  26  28
HETATM   28  C6  UNL     1       0.328   9.723  16.878  1.00  0.00     0.008 C 
BRANCH  28  29
HETATM   29  C5  UNL     1       1.309  10.867  17.178  1.00  0.00     0.028 C 
BRANCH  29  30
HETATM   30  C4  UNL     1       2.122  10.682  18.426  1.00  0.00    -0.017 C 
HETATM   31  C2  UNL     1       1.706  10.854  19.696  1.00  0.00    -0.028 C 
HETATM   32  C1  UNL     1       0.330  11.225  20.148  1.00  0.00     0.051 C 
BRANCH  31  33
HETATM   33  C3  UNL     1       2.698  10.629  20.792  1.00  0.00     0.265 C 
HETATM   34  O1  UNL     1       3.679   9.904  20.689  1.00  0.00    -0.302 OA
ENDBRANCH  31  33
ENDBRANCH  29  30
ENDBRANCH  28  29
ENDBRANCH  26  28
ENDBRANCH   1  26
TORSDOF 5
ENDMDL
MODEL 7
REMARK minimizedAffinity -8.4311533
REMARK CNNscore 0.404209912
REMARK CNNaffinity 6.70755243
REMARK  5 active torsions:
REMARK  status: ('A' for Active; 'I' for Inactive)
REMARK    1  A    between atoms: C2_2  and  C3_3 
REMARK    2  A    between atoms: C4_5  and  C5_6 
REMARK    3  A    between atoms: C5_6  and  C6_7 
REMARK    4  A    between atoms: C6_7  and  C7_8 
REMARK    5  A    between atoms: C7_8  and  C9_10 
ROOT
HETATM    1  C9  UNL     1      -5.405   6.457  14.887  1.00  0.00    -0.001 C 
HETATM    2  C10 UNL     1      -5.744   5.232  13.991  1.00  0.00     0.007 C 
HETATM    3  C11 UNL     1      -4.497   4.918  13.146  1.00  0.00     0.015 C 
HETATM    4  C12 UNL     1      -3.357   5.719  13.804  1.00  0.00    -0.004 C 
HETATM    5  C13 UNL     1      -2.831   4.872  15.001  1.00  0.00     0.021 C 
HETATM    6  C14 UNL     1      -2.120   6.094  13.004  1.00  0.00     0.007 C 
HETATM    7  C15 UNL     1      -1.360   7.179  13.294  1.00  0.00     0.007 C 
HETATM    8  C16 UNL     1      -1.837   8.082  14.423  1.00  0.00     0.157 C 
HETATM    9  O2  UNL     1      -1.124   8.995  14.837  1.00  0.00    -0.293 OA
HETATM   10  C17 UNL     1      -3.201   7.870  15.070  1.00  0.00     0.094 C 
HETATM   11  C18 UNL     1      -4.130   7.031  14.194  1.00  0.00    -0.022 C 
HETATM   12  C19 UNL     1      -4.552   7.890  12.957  1.00  0.00     0.017 C 
HETATM   13  C20 UNL     1      -0.057   7.573  12.549  1.00  0.00    -0.007 C 
HETATM   14  C21 UNL     1      -0.408   8.813  11.689  1.00  0.00     0.021 C 
HETATM   15  C22 UNL     1       1.096   7.950  13.535  1.00  0.00     0.022 C 
HETATM   16  C23 UNL     1       2.517   7.679  13.045  1.00  0.00     0.080 C 
HETATM   17  C24 UNL     1       2.608   7.675  11.541  1.00  0.00     0.135 C 
HETATM   18  O3  UNL     1       3.404   8.404  10.952  1.00  0.00    -0.297 OA
HETATM   19  C25 UNL     1       1.722   6.660  10.809  1.00  0.00     0.018 C 
HETATM   20  C26 UNL     1       1.403   7.172   9.391  1.00  0.00     0.023 C 
HETATM   21  C27 UNL     1       2.563   5.374  10.656  1.00  0.00     0.023 C 
HETATM   22  C28 UNL     1       0.458   6.365  11.686  1.00  0.00     0.021 C 
HETATM   23  C29 UNL     1      -0.684   5.722  10.903  1.00  0.00     0.090 C 
HETATM   24  C30 UNL     1      -1.714   5.205  11.872  1.00  0.00     0.157 C 
HETATM   25  O4  UNL     1      -2.219   4.098  11.715  1.00  0.00    -0.293 OA
ENDROOT
BRANCH   1  26
HETATM   26  C7  UNL     1      -6.646   7.374  15.113  1.00  0.00    -0.014 C 
HETATM   27  C8  UNL     1      -6.238   8.812  15.459  1.00  0.00     0.010 C 
BRANCH  26  28
HETATM   28  C6  UNL     1      -7.550   6.815  16.249  1.00  0.00     0.008 C 
BRANCH  28  29
HETATM   29  C5  UNL     1      -8.983   7.371  16.250  1.00  0.00     0.028 C 
BRANCH  29  30
HETATM   30  C4  UNL     1      -9.757   7.105  14.993  1.00  0.00    -0.017 C 
HETATM   31  C2  UNL     1     -10.466   7.997  14.274  1.00  0.00    -0.028 C 
HETATM   32  C1  UNL     1     -10.605   9.461  14.544  1.00  0.00     0.051 C 
BRANCH  31  33
HETATM   33  C3  UNL     1     -11.177   7.504  13.054  1.00  0.00     0.265 C 
HETATM   34  O1  UNL     1     -12.350   7.155  13.040  1.00  0.00    -0.302 OA
ENDBRANCH  31  33
ENDBRANCH  29  30
ENDBRANCH  28  29
ENDBRANCH  26  28
ENDBRANCH   1  26
TORSDOF 5
ENDMDL
MODEL 8
REMARK minimizedAffinity -6.54086494
REMARK CNNscore 0.401759773
REMARK CNNaffinity 5.74087906
REMARK  5 active torsions:
REMARK  status: ('A' for Active; 'I' for Inactive)
REMARK    1  A    between atoms: C2_2  and  C3_3 
REMARK    2  A    between atoms: C4_5  and  C5_6 
REMARK    3  A    between atoms: C5_6  and  C6_7 
REMARK    4  A    between atoms: C6_7  and  C7_8 
REMARK    5  A    between atoms: C7_8  and  C9_10 
ROOT
HETATM    1  C9  UNL     1     -16.912   2.063  14.862  1.00  0.00    -0.001 C 
HETATM    2  C10 UNL     1     -17.339   1.863  16.344  1.00  0.00     0.007 C 
HETATM    3  C11 UNL     1     -16.961   0.425  16.744  1.00  0.00     0.015 C 
HETATM    4  C12 UNL     1     -16.018  -0.064  15.629  1.00  0.00    -0.004 C 
HETATM    5  C13 UNL     1     -14.592   0.466  15.966  1.00  0.00     0.021 C 
HETATM    6  C14 UNL     1     -15.841  -1.552  15.370  1.00  0.00     0.007 C 
HETATM    7  C15 UNL     1     -15.490  -2.049  14.157  1.00  0.00     0.007 C 
HETATM    8  C16 UNL     1     -15.352  -1.056  13.011  1.00  0.00     0.157 C 
HETATM    9  O2  UNL     1     -14.894  -1.413  11.926  1.00  0.00    -0.293 OA
HETATM   10  C17 UNL     1     -15.769   0.400  13.184  1.00  0.00     0.094 C 
HETATM   11  C18 UNL     1     -16.703   0.594  14.376  1.00  0.00    -0.022 C 
HETATM   12  C19 UNL     1     -18.089  -0.040  14.027  1.00  0.00     0.017 C 
HETATM   13  C20 UNL     1     -15.239  -3.549  13.853  1.00  0.00    -0.007 C 
HETATM   14  C21 UNL     1     -16.449  -4.030  13.016  1.00  0.00     0.021 C 
HETATM   15  C22 UNL     1     -13.930  -3.774  13.028  1.00  0.00     0.022 C 
HETATM   16  C23 UNL     1     -13.213  -5.104  13.250  1.00  0.00     0.080 C 
HETATM   17  C24 UNL     1     -14.153  -6.183  13.726  1.00  0.00     0.135 C 
HETATM   18  O3  UNL     1     -14.247  -7.252  13.126  1.00  0.00    -0.297 OA
HETATM   19  C25 UNL     1     -14.905  -5.901  15.032  1.00  0.00     0.018 C 
HETATM   20  C26 UNL     1     -16.230  -6.687  15.051  1.00  0.00     0.023 C 
HETATM   21  C27 UNL     1     -14.025  -6.453  16.173  1.00  0.00     0.023 C 
HETATM   22  C28 UNL     1     -15.075  -4.351  15.195  1.00  0.00     0.021 C 
HETATM   23  C29 UNL     1     -16.154  -3.965  16.203  1.00  0.00     0.090 C 
HETATM   24  C30 UNL     1     -16.033  -2.497  16.512  1.00  0.00     0.157 C 
HETATM   25  O4  UNL     1     -16.117  -2.093  17.669  1.00  0.00    -0.293 OA
ENDROOT
BRANCH   1  26
HETATM   26  C7  UNL     1     -17.893   3.003  14.096  1.00  0.00    -0.014 C 
HETATM   27  C8  UNL     1     -17.730   2.880  12.575  1.00  0.00     0.010 C 
BRANCH  26  28
HETATM   28  C6  UNL     1     -17.679   4.486  14.512  1.00  0.00     0.008 C 
BRANCH  28  29
HETATM   29  C5  UNL     1     -16.206   4.896  14.662  1.00  0.00     0.028 C 
BRANCH  29  30
HETATM   30  C4  UNL     1     -15.846   6.192  13.995  1.00  0.00    -0.017 C 
HETATM   31  C2  UNL     1     -14.609   6.695  13.817  1.00  0.00    -0.028 C 
HETATM   32  C1  UNL     1     -13.315   6.056  14.206  1.00  0.00     0.051 C 
BRANCH  31  33
HETATM   33  C3  UNL     1     -14.487   8.021  13.136  1.00  0.00     0.265 C 
HETATM   34  O1  UNL     1     -14.925   8.259  12.017  1.00  0.00    -0.302 OA
ENDBRANCH  31  33
ENDBRANCH  29  30
ENDBRANCH  28  29
ENDBRANCH  26  28
ENDBRANCH   1  26
TORSDOF 5
ENDMDL
MODEL 9
REMARK minimizedAffinity -7.40738916
REMARK CNNscore 0.334399074
REMARK CNNaffinity 6.6904521
REMARK  5 active torsions:
REMARK  status: ('A' for Active; 'I' for Inactive)
REMARK    1  A    between atoms: C2_2  and  C3_3 
REMARK    2  A    between atoms: C4_5  and  C5_6 
REMARK    3  A    between atoms: C5_6  and  C6_7 
REMARK    4  A    between atoms: C6_7  and  C7_8 
REMARK    5  A    between atoms: C7_8  and  C9_10 
ROOT
HETATM    1  C9  UNL     1      -8.487   6.236  14.184  1.00  0.00    -0.001 C 
HETATM    2  C10 UNL     1      -8.861   5.349  12.962  1.00  0.00     0.007 C 
HETATM    3  C11 UNL     1      -7.553   4.776  12.389  1.00  0.00     0.015 C 
HETATM    4  C12 UNL     1      -6.492   5.041  13.475  1.00  0.00    -0.004 C 
HETATM    5  C13 UNL     1      -6.606   3.891  14.520  1.00  0.00     0.021 C 
HETATM    6  C14 UNL     1      -5.018   5.106  13.109  1.00  0.00     0.007 C 
HETATM    7  C15 UNL     1      -4.115   5.819  13.828  1.00  0.00     0.007 C 
HETATM    8  C16 UNL     1      -4.645   6.640  14.995  1.00  0.00     0.157 C 
HETATM    9  O2  UNL     1      -3.869   7.189  15.777  1.00  0.00    -0.293 OA
HETATM   10  C17 UNL     1      -6.144   6.793  15.226  1.00  0.00     0.094 C 
HETATM   11  C18 UNL     1      -6.956   6.457  13.977  1.00  0.00    -0.022 C 
HETATM   12  C19 UNL     1      -6.732   7.590  12.922  1.00  0.00     0.017 C 
HETATM   13  C20 UNL     1      -2.592   5.872  13.534  1.00  0.00    -0.007 C 
HETATM   14  C21 UNL     1      -2.313   7.276  12.944  1.00  0.00     0.021 C 
HETATM   15  C22 UNL     1      -1.734   5.686  14.828  1.00  0.00     0.022 C 
HETATM   16  C23 UNL     1      -0.363   5.040  14.641  1.00  0.00     0.080 C 
HETATM   17  C24 UNL     1       0.174   5.243  13.247  1.00  0.00     0.135 C 
HETATM   18  O3  UNL     1       1.279   5.750  13.062  1.00  0.00    -0.297 OA
HETATM   19  C25 UNL     1      -0.691   4.706  12.101  1.00  0.00     0.018 C 
HETATM   20  C26 UNL     1      -0.413   5.511  10.817  1.00  0.00     0.023 C 
HETATM   21  C27 UNL     1      -0.229   3.255  11.845  1.00  0.00     0.023 C 
HETATM   22  C28 UNL     1      -2.192   4.713  12.552  1.00  0.00     0.021 C 
HETATM   23  C29 UNL     1      -3.173   4.614  11.386  1.00  0.00     0.090 C 
HETATM   24  C30 UNL     1      -4.547   4.323  11.925  1.00  0.00     0.157 C 
HETATM   25  O4  UNL     1      -5.264   3.484  11.388  1.00  0.00    -0.293 OA
ENDROOT
BRANCH   1  26
HETATM   26  C7  UNL     1      -9.438   7.464  14.323  1.00  0.00    -0.014 C 
HETATM   27  C8  UNL     1      -9.763   7.770  15.792  1.00  0.00     0.010 C 
BRANCH  26  28
HETATM   28  C6  UNL     1     -10.767   7.229  13.548  1.00  0.00     0.008 C 
BRANCH  28  29
HETATM   29  C5  UNL     1     -11.956   6.830  14.435  1.00  0.00     0.028 C 
BRANCH  29  30
HETATM   30  C4  UNL     1     -13.063   7.842  14.488  1.00  0.00    -0.017 C 
HETATM   31  C2  UNL     1     -14.191   7.848  13.751  1.00  0.00    -0.028 C 
HETATM   32  C1  UNL     1     -14.612   6.824  12.746  1.00  0.00     0.051 C 
BRANCH  31  33
HETATM   33  C3  UNL     1     -15.155   8.971  13.960  1.00  0.00     0.265 C 
HETATM   34  O1  UNL     1     -15.124  10.026  13.338  1.00  0.00    -0.302 OA
ENDBRANCH  31  33
ENDBRANCH  29  30
ENDBRANCH  28  29
ENDBRANCH  26  28
ENDBRANCH   1  26
TORSDOF 5
ENDMDL
