MODEL 1
REMARK minimizedAffinity -9.89087772
REMARK  6 active torsions:
REMARK  status: ('A' for Active; 'I' for Inactive)
REMARK    1  A    between atoms: C2_2  and  C3_3 
REMARK    2  A    between atoms: C4_5  and  C5_6 
REMARK    3  A    between atoms: C5_6  and  C6_7 
REMARK    4  A    between atoms: C6_7  and  C7_8 
REMARK    5  A    between atoms: C7_8  and  C9_10 
REMARK    6  A    between atoms: C30_32  and  O3_33 
ROOT
HETATM    1  C9  UNL     1      -0.813  49.592 -18.950  1.00  0.00    -0.002 C 
HETATM    2  C10 UNL     1      -1.962  48.670 -18.457  1.00  0.00     0.007 C 
HETATM    3  C11 UNL     1      -2.918  48.446 -19.643  1.00  0.00     0.015 C 
HETATM    4  C12 UNL     1      -2.157  48.954 -20.882  1.00  0.00    -0.010 C 
HETATM    5  C13 UNL     1      -1.217  47.800 -21.354  1.00  0.00     0.021 C 
HETATM    6  C14 UNL     1      -2.925  49.375 -22.137  1.00  0.00    -0.039 C 
HETATM    7  C15 UNL     1      -2.418  50.342 -22.950  1.00  0.00    -0.066 C 
HETATM    8  C16 UNL     1      -1.106  51.060 -22.625  1.00  0.00     0.036 C 
HETATM    9  C17 UNL     1      -0.410  50.710 -21.295  1.00  0.00     0.015 C 
HETATM   10  C18 UNL     1      -1.413  50.202 -20.254  1.00  0.00    -0.029 C 
HETATM   11  C19 UNL     1      -2.378  51.371 -19.875  1.00  0.00     0.016 C 
HETATM   12  C20 UNL     1      -3.233  50.866 -24.154  1.00  0.00    -0.015 C 
HETATM   13  C21 UNL     1      -4.232  51.911 -23.564  1.00  0.00     0.020 C 
HETATM   14  C22 UNL     1      -2.357  51.632 -25.188  1.00  0.00     0.021 C 
HETATM   15  C23 UNL     1      -3.044  51.812 -26.528  1.00  0.00     0.080 C 
HETATM   16  C24 UNL     1      -3.270  50.472 -27.175  1.00  0.00     0.135 C 
HETATM   17  O2  UNL     1      -3.273  50.377 -28.405  1.00  0.00    -0.297 OA
HETATM   18  C25 UNL     1      -3.503  49.258 -26.261  1.00  0.00     0.018 C 
HETATM   19  C26 UNL     1      -4.539  48.355 -26.974  1.00  0.00     0.023 C 
HETATM   20  C27 UNL     1      -2.177  48.481 -26.159  1.00  0.00     0.023 C 
HETATM   21  C28 UNL     1      -4.073  49.734 -24.871  1.00  0.00     0.016 C 
HETATM   22  C29 UNL     1      -4.412  48.530 -23.965  1.00  0.00     0.043 C 
HETATM   23  C30 UNL     1      -4.253  48.736 -22.463  1.00  0.00     0.148 C 
ENDROOT
BRANCH   1  24
HETATM   24  C7  UNL     1      -0.296  50.531 -17.822  1.00  0.00    -0.014 C 
HETATM   25  C8  UNL     1      -1.297  50.684 -16.671  1.00  0.00     0.010 C 
BRANCH  24  26
HETATM   26  C6  UNL     1       0.118  51.932 -18.344  1.00  0.00     0.008 C 
BRANCH  26  27
HETATM   27  C5  UNL     1       1.415  52.493 -17.751  1.00  0.00     0.028 C 
BRANCH  27  28
HETATM   28  C4  UNL     1       1.670  51.925 -16.383  1.00  0.00    -0.017 C 
HETATM   29  C2  UNL     1       2.836  51.910 -15.711  1.00  0.00    -0.028 C 
HETATM   30  C1  UNL     1       4.138  52.497 -16.154  1.00  0.00     0.051 C 
BRANCH  29  31
HETATM   31  C3  UNL     1       2.858  51.264 -14.363  1.00  0.00     0.265 C 
HETATM   32  O1  UNL     1       2.600  50.083 -14.163  1.00  0.00    -0.302 OA
ENDBRANCH  29  31
ENDBRANCH  27  28
ENDBRANCH  26  27
ENDBRANCH  24  26
ENDBRANCH   1  24
BRANCH  23  33
HETATM   33  O3  UNL     1      -4.367  47.448 -21.868  1.00  0.00    -0.391 OA
HETATM   34  H46 UNL     1      -5.264  47.123 -22.049  1.00  0.00     0.210 HD
ENDBRANCH  23  33
TORSDOF 6
ENDMDL
MODEL 2
REMARK minimizedAffinity -9.4215765
REMARK  6 active torsions:
REMARK  status: ('A' for Active; 'I' for Inactive)
REMARK    1  A    between atoms: C2_2  and  C3_3 
REMARK    2  A    between atoms: C4_5  and  C5_6 
REMARK    3  A    between atoms: C5_6  and  C6_7 
REMARK    4  A    between atoms: C6_7  and  C7_8 
REMARK    5  A    between atoms: C7_8  and  C9_10 
REMARK    6  A    between atoms: C30_32  and  O3_33 
ROOT
HETATM    1  C9  UNL     1      -1.543  48.709 -19.197  1.00  0.00    -0.002 C 
HETATM    2  C10 UNL     1      -2.805  47.870 -18.852  1.00  0.00     0.007 C 
HETATM    3  C11 UNL     1      -3.690  47.826 -20.112  1.00  0.00     0.015 C 
HETATM    4  C12 UNL     1      -2.799  48.345 -21.256  1.00  0.00    -0.010 C 
HETATM    5  C13 UNL     1      -1.938  47.143 -21.756  1.00  0.00     0.021 C 
HETATM    6  C14 UNL     1      -3.435  48.929 -22.519  1.00  0.00    -0.039 C 
HETATM    7  C15 UNL     1      -2.784  49.898 -23.221  1.00  0.00    -0.066 C 
HETATM    8  C16 UNL     1      -1.438  50.460 -22.756  1.00  0.00     0.036 C 
HETATM    9  C17 UNL     1      -0.874  49.949 -21.417  1.00  0.00     0.015 C 
HETATM   10  C18 UNL     1      -1.990  49.466 -20.485  1.00  0.00    -0.029 C 
HETATM   11  C19 UNL     1      -2.868  50.693 -20.078  1.00  0.00     0.016 C 
HETATM   12  C20 UNL     1      -3.460  50.585 -24.429  1.00  0.00    -0.015 C 
HETATM   13  C21 UNL     1      -4.398  51.676 -23.823  1.00  0.00     0.020 C 
HETATM   14  C22 UNL     1      -2.445  51.335 -25.341  1.00  0.00     0.021 C 
HETATM   15  C23 UNL     1      -3.016  51.677 -26.705  1.00  0.00     0.080 C 
HETATM   16  C24 UNL     1      -3.318  50.415 -27.468  1.00  0.00     0.135 C 
HETATM   17  O2  UNL     1      -3.242  50.410 -28.699  1.00  0.00    -0.297 OA
HETATM   18  C25 UNL     1      -3.726  49.167 -26.668  1.00  0.00     0.018 C 
HETATM   19  C26 UNL     1      -4.787  48.422 -27.515  1.00  0.00     0.023 C 
HETATM   20  C27 UNL     1      -2.488  48.259 -26.544  1.00  0.00     0.023 C 
HETATM   21  C28 UNL     1      -4.347  49.594 -25.285  1.00  0.00     0.016 C 
HETATM   22  C29 UNL     1      -4.859  48.366 -24.500  1.00  0.00     0.043 C 
HETATM   23  C30 UNL     1      -4.789  48.447 -22.979  1.00  0.00     0.148 C 
ENDROOT
BRANCH   1  24
HETATM   24  C7  UNL     1      -1.024  49.509 -17.968  1.00  0.00    -0.014 C 
HETATM   25  C8  UNL     1      -1.817  49.216 -16.690  1.00  0.00     0.010 C 
BRANCH  24  26
HETATM   26  C6  UNL     1      -0.983  51.040 -18.217  1.00  0.00     0.008 C 
BRANCH  26  27
HETATM   27  C5  UNL     1       0.415  51.669 -18.188  1.00  0.00     0.028 C 
BRANCH  27  28
HETATM   28  C4  UNL     1       0.475  52.884 -19.073  1.00  0.00    -0.017 C 
HETATM   29  C2  UNL     1       1.004  52.967 -20.308  1.00  0.00    -0.028 C 
HETATM   30  C1  UNL     1       1.615  51.856 -21.102  1.00  0.00     0.051 C 
BRANCH  29  31
HETATM   31  C3  UNL     1       0.972  54.295 -20.995  1.00  0.00     0.265 C 
HETATM   32  O1  UNL     1       1.944  54.814 -21.530  1.00  0.00    -0.302 OA
ENDBRANCH  29  31
ENDBRANCH  27  28
ENDBRANCH  26  27
ENDBRANCH  24  26
ENDBRANCH   1  24
BRANCH  23  33
HETATM   33  O3  UNL     1      -5.063  47.137 -22.496  1.00  0.00    -0.391 OA
HETATM   34  H46 UNL     1      -5.971  46.914 -22.759  1.00  0.00     0.210 HD
ENDBRANCH  23  33
TORSDOF 6
ENDMDL
MODEL 3
REMARK minimizedAffinity -9.38395691
REMARK  6 active torsions:
REMARK  status: ('A' for Active; 'I' for Inactive)
REMARK    1  A    between atoms: C2_2  and  C3_3 
REMARK    2  A    between atoms: C4_5  and  C5_6 
REMARK    3  A    between atoms: C5_6  and  C6_7 
REMARK    4  A    between atoms: C6_7  and  C7_8 
REMARK    5  A    between atoms: C7_8  and  C9_10 
REMARK    6  A    between atoms: C30_32  and  O3_33 
ROOT
HETATM    1  C9  UNL     1      -0.019  51.426 -21.330  1.00  0.00    -0.002 C 
HETATM    2  C10 UNL     1      -0.392  51.940 -19.911  1.00  0.00     0.007 C 
HETATM    3  C11 UNL     1      -1.782  51.373 -19.565  1.00  0.00     0.015 C 
HETATM    4  C12 UNL     1      -2.054  50.286 -20.621  1.00  0.00    -0.010 C 
HETATM    5  C13 UNL     1      -1.345  48.982 -20.138  1.00  0.00     0.021 C 
HETATM    6  C14 UNL     1      -3.491  49.861 -20.932  1.00  0.00    -0.039 C 
HETATM    7  C15 UNL     1      -3.813  49.420 -22.179  1.00  0.00    -0.066 C 
HETATM    8  C16 UNL     1      -2.779  49.373 -23.307  1.00  0.00     0.036 C 
HETATM    9  C17 UNL     1      -1.370  49.920 -23.009  1.00  0.00     0.015 C 
HETATM   10  C18 UNL     1      -1.400  50.968 -21.890  1.00  0.00    -0.029 C 
HETATM   11  C19 UNL     1      -2.188  52.218 -22.396  1.00  0.00     0.016 C 
HETATM   12  C20 UNL     1      -5.280  49.101 -22.548  1.00  0.00    -0.015 C 
HETATM   13  C21 UNL     1      -5.938  50.476 -22.884  1.00  0.00     0.020 C 
HETATM   14  C22 UNL     1      -5.402  48.231 -23.833  1.00  0.00     0.021 C 
HETATM   15  C23 UNL     1      -6.772  47.597 -23.990  1.00  0.00     0.080 C 
HETATM   16  C24 UNL     1      -7.018  46.619 -22.872  1.00  0.00     0.135 C 
HETATM   17  O2  UNL     1      -7.732  45.633 -23.067  1.00  0.00    -0.297 OA
HETATM   18  C25 UNL     1      -6.368  46.903 -21.508  1.00  0.00     0.018 C 
HETATM   19  C26 UNL     1      -7.377  46.443 -20.428  1.00  0.00     0.023 C 
HETATM   20  C27 UNL     1      -5.107  46.025 -21.393  1.00  0.00     0.023 C 
HETATM   21  C28 UNL     1      -6.087  48.446 -21.357  1.00  0.00     0.016 C 
HETATM   22  C29 UNL     1      -5.526  48.777 -19.957  1.00  0.00     0.043 C 
HETATM   23  C30 UNL     1      -4.556  49.950 -19.866  1.00  0.00     0.148 C 
ENDROOT
BRANCH   1  24
HETATM   24  C7  UNL     1       0.832  52.464 -22.118  1.00  0.00    -0.014 C 
HETATM   25  C8  UNL     1       1.264  53.655 -21.257  1.00  0.00     0.010 C 
BRANCH  24  26
HETATM   26  C6  UNL     1       0.124  52.976 -23.401  1.00  0.00     0.008 C 
BRANCH  26  27
HETATM   27  C5  UNL     1       0.687  52.433 -24.719  1.00  0.00     0.028 C 
BRANCH  27  28
HETATM   28  C4  UNL     1       0.046  53.112 -25.897  1.00  0.00    -0.017 C 
HETATM   29  C2  UNL     1       0.306  52.899 -27.200  1.00  0.00    -0.028 C 
HETATM   30  C1  UNL     1       1.261  51.904 -27.777  1.00  0.00     0.051 C 
BRANCH  29  31
HETATM   31  C3  UNL     1      -0.445  53.714 -28.205  1.00  0.00     0.265 C 
HETATM   32  O1  UNL     1      -1.591  54.114 -28.046  1.00  0.00    -0.302 OA
ENDBRANCH  29  31
ENDBRANCH  27  28
ENDBRANCH  26  27
ENDBRANCH  24  26
ENDBRANCH   1  24
BRANCH  23  33
HETATM   33  O3  UNL     1      -3.988  49.900 -18.563  1.00  0.00    -0.391 OA
HETATM   34  H46 UNL     1      -4.709  50.036 -17.926  1.00  0.00     0.210 HD
ENDBRANCH  23  33
TORSDOF 6
ENDMDL
MODEL 4
REMARK minimizedAffinity -9.00959206
REMARK  6 active torsions:
REMARK  status: ('A' for Active; 'I' for Inactive)
REMARK    1  A    between atoms: C2_2  and  C3_3 
REMARK    2  A    between atoms: C4_5  and  C5_6 
REMARK    3  A    between atoms: C5_6  and  C6_7 
REMARK    4  A    between atoms: C6_7  and  C7_8 
REMARK    5  A    between atoms: C7_8  and  C9_10 
REMARK    6  A    between atoms: C30_32  and  O3_33 
ROOT
HETATM    1  C9  UNL     1      -0.779  52.523 -21.735  1.00  0.00    -0.002 C 
HETATM    2  C10 UNL     1      -0.097  52.195 -23.092  1.00  0.00     0.007 C 
HETATM    3  C11 UNL     1      -0.951  51.121 -23.792  1.00  0.00     0.015 C 
HETATM    4  C12 UNL     1      -2.276  51.079 -23.008  1.00  0.00    -0.010 C 
HETATM    5  C13 UNL     1      -3.177  52.229 -23.556  1.00  0.00     0.021 C 
HETATM    6  C14 UNL     1      -3.157  49.828 -23.057  1.00  0.00    -0.039 C 
HETATM    7  C15 UNL     1      -3.937  49.505 -21.989  1.00  0.00    -0.066 C 
HETATM    8  C16 UNL     1      -3.929  50.340 -20.706  1.00  0.00     0.036 C 
HETATM    9  C17 UNL     1      -2.944  51.523 -20.629  1.00  0.00     0.015 C 
HETATM   10  C18 UNL     1      -1.731  51.304 -21.539  1.00  0.00    -0.029 C 
HETATM   11  C19 UNL     1      -0.908  50.094 -20.992  1.00  0.00     0.016 C 
HETATM   12  C20 UNL     1      -4.741  48.185 -21.971  1.00  0.00    -0.015 C 
HETATM   13  C21 UNL     1      -3.726  47.079 -21.543  1.00  0.00     0.020 C 
HETATM   14  C22 UNL     1      -5.870  48.183 -20.899  1.00  0.00     0.021 C 
HETATM   15  C23 UNL     1      -6.893  47.084 -21.120  1.00  0.00     0.080 C 
HETATM   16  C24 UNL     1      -7.628  47.317 -22.413  1.00  0.00     0.135 C 
HETATM   17  O2  UNL     1      -8.797  46.941 -22.530  1.00  0.00    -0.297 OA
HETATM   18  C25 UNL     1      -6.874  48.014 -23.558  1.00  0.00     0.018 C 
HETATM   19  C26 UNL     1      -7.357  47.359 -24.874  1.00  0.00     0.023 C 
HETATM   20  C27 UNL     1      -7.300  49.494 -23.572  1.00  0.00     0.023 C 
HETATM   21  C28 UNL     1      -5.322  47.798 -23.389  1.00  0.00     0.016 C 
HETATM   22  C29 UNL     1      -4.542  48.401 -24.578  1.00  0.00     0.043 C 
HETATM   23  C30 UNL     1      -3.149  48.942 -24.279  1.00  0.00     0.148 C 
ENDROOT
BRANCH   1  24
HETATM   24  C7  UNL     1       0.260  52.881 -20.634  1.00  0.00    -0.014 C 
HETATM   25  C8  UNL     1       1.641  53.216 -21.206  1.00  0.00     0.010 C 
BRANCH  24  26
HETATM   26  C6  UNL     1       0.397  51.777 -19.551  1.00  0.00     0.008 C 
BRANCH  26  27
HETATM   27  C5  UNL     1       0.366  52.276 -18.102  1.00  0.00     0.028 C 
BRANCH  27  28
HETATM   28  C4  UNL     1       1.752  52.602 -17.618  1.00  0.00    -0.017 C 
HETATM   29  C2  UNL     1       2.244  52.423 -16.377  1.00  0.00    -0.028 C 
HETATM   30  C1  UNL     1       1.538  51.817 -15.207  1.00  0.00     0.051 C 
BRANCH  29  31
HETATM   31  C3  UNL     1       3.655  52.846 -16.118  1.00  0.00     0.265 C 
HETATM   32  O1  UNL     1       4.608  52.076 -16.090  1.00  0.00    -0.302 OA
ENDBRANCH  29  31
ENDBRANCH  27  28
ENDBRANCH  26  27
ENDBRANCH  24  26
ENDBRANCH   1  24
BRANCH  23  33
HETATM   33  O3  UNL     1      -2.743  49.663 -25.437  1.00  0.00    -0.391 OA
HETATM   34  H46 UNL     1      -2.685  49.027 -26.169  1.00  0.00     0.210 HD
ENDBRANCH  23  33
TORSDOF 6
ENDMDL
MODEL 5
REMARK minimizedAffinity -8.82241154
REMARK  6 active torsions:
REMARK  status: ('A' for Active; 'I' for Inactive)
REMARK    1  A    between atoms: C2_2  and  C3_3 
REMARK    2  A    between atoms: C4_5  and  C5_6 
REMARK    3  A    between atoms: C5_6  and  C6_7 
REMARK    4  A    between atoms: C6_7  and  C7_8 
REMARK    5  A    between atoms: C7_8  and  C9_10 
REMARK    6  A    between atoms: C30_32  and  O3_33 
ROOT
HETATM    1  C9  UNL     1      -0.694  52.555 -21.631  1.00  0.00    -0.002 C 
HETATM    2  C10 UNL     1      -0.149  52.285 -23.060  1.00  0.00     0.007 C 
HETATM    3  C11 UNL     1      -1.027  51.187 -23.690  1.00  0.00     0.015 C 
HETATM    4  C12 UNL     1      -2.255  51.068 -22.769  1.00  0.00    -0.010 C 
HETATM    5  C13 UNL     1      -3.261  52.186 -23.189  1.00  0.00     0.021 C 
HETATM    6  C14 UNL     1      -3.081  49.779 -22.753  1.00  0.00    -0.039 C 
HETATM    7  C15 UNL     1      -3.725  49.400 -21.615  1.00  0.00    -0.066 C 
HETATM    8  C16 UNL     1      -3.614  50.210 -20.320  1.00  0.00     0.036 C 
HETATM    9  C17 UNL     1      -2.680  51.435 -20.321  1.00  0.00     0.015 C 
HETATM   10  C18 UNL     1      -1.564  51.289 -21.362  1.00  0.00    -0.029 C 
HETATM   11  C19 UNL     1      -0.634  50.109 -20.937  1.00  0.00     0.016 C 
HETATM   12  C20 UNL     1      -4.464  48.045 -21.542  1.00  0.00    -0.015 C 
HETATM   13  C21 UNL     1      -3.361  46.978 -21.253  1.00  0.00     0.020 C 
HETATM   14  C22 UNL     1      -5.469  47.970 -20.355  1.00  0.00     0.021 C 
HETATM   15  C23 UNL     1      -6.460  46.829 -20.491  1.00  0.00     0.080 C 
HETATM   16  C24 UNL     1      -7.341  47.053 -21.691  1.00  0.00     0.135 C 
HETATM   17  O2  UNL     1      -8.499  46.626 -21.690  1.00  0.00    -0.297 OA
HETATM   18  C25 UNL     1      -6.747  47.806 -22.893  1.00  0.00     0.018 C 
HETATM   19  C26 UNL     1      -7.343  47.155 -24.166  1.00  0.00     0.023 C 
HETATM   20  C27 UNL     1      -7.237  49.265 -22.826  1.00  0.00     0.023 C 
HETATM   21  C28 UNL     1      -5.179  47.658 -22.898  1.00  0.00     0.016 C 
HETATM   22  C29 UNL     1      -4.560  48.320 -24.149  1.00  0.00     0.043 C 
HETATM   23  C30 UNL     1      -3.168  48.918 -23.990  1.00  0.00     0.148 C 
ENDROOT
BRANCH   1  24
HETATM   24  C7  UNL     1       0.443  52.939 -20.639  1.00  0.00    -0.014 C 
HETATM   25  C8  UNL     1       1.841  52.686 -21.212  1.00  0.00     0.010 C 
BRANCH  24  26
HETATM   26  C6  UNL     1       0.307  52.234 -19.263  1.00  0.00     0.008 C 
BRANCH  26  27
HETATM   27  C5  UNL     1       1.129  52.855 -18.127  1.00  0.00     0.028 C 
BRANCH  27  28
HETATM   28  C4  UNL     1       1.065  52.003 -16.891  1.00  0.00    -0.017 C 
HETATM   29  C2  UNL     1       2.056  51.771 -16.010  1.00  0.00    -0.028 C 
HETATM   30  C1  UNL     1       3.437  52.345 -16.035  1.00  0.00     0.051 C 
BRANCH  29  31
HETATM   31  C3  UNL     1       1.768  50.863 -14.856  1.00  0.00     0.265 C 
HETATM   32  O1  UNL     1       2.629  50.380 -14.132  1.00  0.00    -0.302 OA
ENDBRANCH  29  31
ENDBRANCH  27  28
ENDBRANCH  26  27
ENDBRANCH  24  26
ENDBRANCH   1  24
BRANCH  23  33
HETATM   33  O3  UNL     1      -2.922  49.679 -25.167  1.00  0.00    -0.391 OA
HETATM   34  H46 UNL     1      -2.916  49.062 -25.916  1.00  0.00     0.210 HD
ENDBRANCH  23  33
TORSDOF 6
ENDMDL
MODEL 6
REMARK minimizedAffinity -8.81764984
REMARK  6 active torsions:
REMARK  status: ('A' for Active; 'I' for Inactive)
REMARK    1  A    between atoms: C2_2  and  C3_3 
REMARK    2  A    between atoms: C4_5  and  C5_6 
REMARK    3  A    between atoms: C5_6  and  C6_7 
REMARK    4  A    between atoms: C6_7  and  C7_8 
REMARK    5  A    between atoms: C7_8  and  C9_10 
REMARK    6  A    between atoms: C30_32  and  O3_33 
ROOT
HETATM    1  C9  UNL     1      -1.853  51.674 -22.141  1.00  0.00    -0.002 C 
HETATM    2  C10 UNL     1      -2.656  52.285 -23.322  1.00  0.00     0.007 C 
HETATM    3  C11 UNL     1      -4.053  51.638 -23.316  1.00  0.00     0.015 C 
HETATM    4  C12 UNL     1      -4.164  50.918 -21.959  1.00  0.00    -0.010 C 
HETATM    5  C13 UNL     1      -4.596  51.983 -20.903  1.00  0.00     0.021 C 
HETATM    6  C14 UNL     1      -5.151  49.762 -21.782  1.00  0.00    -0.039 C 
HETATM    7  C15 UNL     1      -4.873  48.762 -20.900  1.00  0.00    -0.066 C 
HETATM    8  C16 UNL     1      -3.568  48.734 -20.102  1.00  0.00     0.036 C 
HETATM    9  C17 UNL     1      -2.532  49.839 -20.385  1.00  0.00     0.015 C 
HETATM   10  C18 UNL     1      -2.678  50.394 -21.806  1.00  0.00    -0.029 C 
HETATM   11  C19 UNL     1      -2.311  49.267 -22.823  1.00  0.00     0.016 C 
HETATM   12  C20 UNL     1      -5.796  47.527 -20.794  1.00  0.00    -0.015 C 
HETATM   13  C21 UNL     1      -5.380  46.586 -21.967  1.00  0.00     0.020 C 
HETATM   14  C22 UNL     1      -5.572  46.719 -19.482  1.00  0.00     0.021 C 
HETATM   15  C23 UNL     1      -6.703  45.754 -19.181  1.00  0.00     0.080 C 
HETATM   16  C24 UNL     1      -7.975  46.517 -18.917  1.00  0.00     0.135 C 
HETATM   17  O2  UNL     1      -8.819  46.053 -18.146  1.00  0.00    -0.297 OA
HETATM   18  C25 UNL     1      -8.176  47.857 -19.642  1.00  0.00     0.018 C 
HETATM   19  C26 UNL     1      -9.684  47.960 -19.979  1.00  0.00     0.023 C 
HETATM   20  C27 UNL     1      -7.827  48.986 -18.654  1.00  0.00     0.023 C 
HETATM   21  C28 UNL     1      -7.327  47.884 -20.969  1.00  0.00     0.016 C 
HETATM   22  C29 UNL     1      -7.585  49.178 -21.771  1.00  0.00     0.043 C 
HETATM   23  C30 UNL     1      -6.422  49.718 -22.595  1.00  0.00     0.148 C 
ENDROOT
BRANCH   1  24
HETATM   24  C7  UNL     1      -0.336  51.554 -22.469  1.00  0.00    -0.014 C 
HETATM   25  C8  UNL     1       0.544  51.534 -21.215  1.00  0.00     0.010 C 
BRANCH  24  26
HETATM   26  C6  UNL     1       0.161  52.660 -23.438  1.00  0.00     0.008 C 
BRANCH  26  27
HETATM   27  C5  UNL     1       0.565  52.172 -24.834  1.00  0.00     0.028 C 
BRANCH  27  28
HETATM   28  C4  UNL     1      -0.037  53.041 -25.902  1.00  0.00    -0.017 C 
HETATM   29  C2  UNL     1       0.112  52.916 -27.234  1.00  0.00    -0.028 C 
HETATM   30  C1  UNL     1       0.875  51.855 -27.960  1.00  0.00     0.051 C 
BRANCH  29  31
HETATM   31  C3  UNL     1      -0.568  53.920 -28.111  1.00  0.00     0.265 C 
HETATM   32  O1  UNL     1      -1.773  54.142 -28.094  1.00  0.00    -0.302 OA
ENDBRANCH  29  31
ENDBRANCH  27  28
ENDBRANCH  26  27
ENDBRANCH  24  26
ENDBRANCH   1  24
BRANCH  23  33
HETATM   33  O3  UNL     1      -6.806  51.019 -23.024  1.00  0.00    -0.391 OA
HETATM   34  H46 UNL     1      -7.580  50.918 -23.601  1.00  0.00     0.210 HD
ENDBRANCH  23  33
TORSDOF 6
ENDMDL
MODEL 7
REMARK minimizedAffinity -8.66713619
REMARK  6 active torsions:
REMARK  status: ('A' for Active; 'I' for Inactive)
REMARK    1  A    between atoms: C2_2  and  C3_3 
REMARK    2  A    between atoms: C4_5  and  C5_6 
REMARK    3  A    between atoms: C5_6  and  C6_7 
REMARK    4  A    between atoms: C6_7  and  C7_8 
REMARK    5  A    between atoms: C7_8  and  C9_10 
REMARK    6  A    between atoms: C30_32  and  O3_33 
ROOT
HETATM    1  C9  UNL     1      -1.996  49.981 -18.752  1.00  0.00    -0.002 C 
HETATM    2  C10 UNL     1      -3.413  50.613 -18.683  1.00  0.00     0.007 C 
HETATM    3  C11 UNL     1      -3.705  51.247 -20.056  1.00  0.00     0.015 C 
HETATM    4  C12 UNL     1      -2.617  50.699 -20.998  1.00  0.00    -0.010 C 
HETATM    5  C13 UNL     1      -3.092  49.295 -21.487  1.00  0.00     0.021 C 
HETATM    6  C14 UNL     1      -2.253  51.460 -22.275  1.00  0.00    -0.039 C 
HETATM    7  C15 UNL     1      -0.987  51.385 -22.771  1.00  0.00    -0.066 C 
HETATM    8  C16 UNL     1       0.110  50.589 -22.060  1.00  0.00     0.036 C 
HETATM    9  C17 UNL     1      -0.244  49.932 -20.712  1.00  0.00     0.015 C 
HETATM   10  C18 UNL     1      -1.383  50.675 -20.007  1.00  0.00    -0.029 C 
HETATM   11  C19 UNL     1      -0.881  52.100 -19.610  1.00  0.00     0.016 C 
HETATM   12  C20 UNL     1      -0.567  52.239 -23.989  1.00  0.00    -0.015 C 
HETATM   13  C21 UNL     1      -0.242  53.656 -23.419  1.00  0.00     0.020 C 
HETATM   14  C22 UNL     1       0.740  51.727 -24.662  1.00  0.00     0.021 C 
HETATM   15  C23 UNL     1       0.953  52.297 -26.052  1.00  0.00     0.080 C 
HETATM   16  C24 UNL     1      -0.136  51.819 -26.976  1.00  0.00     0.135 C 
HETATM   17  O2  UNL     1       0.102  51.668 -28.177  1.00  0.00    -0.297 OA
HETATM   18  C25 UNL     1      -1.525  51.546 -26.376  1.00  0.00     0.018 C 
HETATM   19  C26 UNL     1      -2.563  51.979 -27.440  1.00  0.00     0.023 C 
HETATM   20  C27 UNL     1      -1.659  50.026 -26.165  1.00  0.00     0.023 C 
HETATM   21  C28 UNL     1      -1.718  52.393 -25.062  1.00  0.00     0.016 C 
HETATM   22  C29 UNL     1      -3.142  52.217 -24.489  1.00  0.00     0.043 C 
HETATM   23  C30 UNL     1      -3.288  52.307 -22.975  1.00  0.00     0.148 C 
ENDROOT
BRANCH   1  24
HETATM   24  C7  UNL     1      -1.257  50.059 -17.385  1.00  0.00    -0.014 C 
HETATM   25  C8  UNL     1      -1.954  50.987 -16.385  1.00  0.00     0.010 C 
BRANCH  24  26
HETATM   26  C6  UNL     1       0.234  50.468 -17.527  1.00  0.00     0.008 C 
BRANCH  26  27
HETATM   27  C5  UNL     1       0.678  51.634 -16.636  1.00  0.00     0.028 C 
BRANCH  27  28
HETATM   28  C4  UNL     1       1.628  51.163 -15.570  1.00  0.00    -0.017 C 
HETATM   29  C2  UNL     1       2.880  51.603 -15.343  1.00  0.00    -0.028 C 
HETATM   30  C1  UNL     1       3.598  52.693 -16.073  1.00  0.00     0.051 C 
BRANCH  29  31
HETATM   31  C3  UNL     1       3.654  50.966 -14.233  1.00  0.00     0.265 C 
HETATM   32  O1  UNL     1       3.407  49.859 -13.771  1.00  0.00    -0.302 OA
ENDBRANCH  29  31
ENDBRANCH  27  28
ENDBRANCH  26  27
ENDBRANCH  24  26
ENDBRANCH   1  24
BRANCH  23  33
HETATM   33  O3  UNL     1      -4.607  51.866 -22.673  1.00  0.00    -0.391 OA
HETATM   34  H46 UNL     1      -5.224  52.491 -23.087  1.00  0.00     0.210 HD
ENDBRANCH  23  33
TORSDOF 6
ENDMDL
MODEL 8
REMARK minimizedAffinity -8.53056145
REMARK  6 active torsions:
REMARK  status: ('A' for Active; 'I' for Inactive)
REMARK    1  A    between atoms: C2_2  and  C3_3 
REMARK    2  A    between atoms: C4_5  and  C5_6 
REMARK    3  A    between atoms: C5_6  and  C6_7 
REMARK    4  A    between atoms: C6_7  and  C7_8 
REMARK    5  A    between atoms: C7_8  and  C9_10 
REMARK    6  A    between atoms: C30_32  and  O3_33 
ROOT
HETATM    1  C9  UNL     1      -1.108  50.662 -21.955  1.00  0.00    -0.002 C 
HETATM    2  C10 UNL     1      -1.340  51.137 -20.494  1.00  0.00     0.007 C 
HETATM    3  C11 UNL     1      -2.699  50.575 -20.035  1.00  0.00     0.015 C 
HETATM    4  C12 UNL     1      -3.084  49.523 -21.092  1.00  0.00    -0.010 C 
HETATM    5  C13 UNL     1      -2.350  48.198 -20.715  1.00  0.00     0.021 C 
HETATM    6  C14 UNL     1      -4.549  49.124 -21.280  1.00  0.00    -0.039 C 
HETATM    7  C15 UNL     1      -4.991  48.723 -22.503  1.00  0.00    -0.066 C 
HETATM    8  C16 UNL     1      -4.068  48.699 -23.724  1.00  0.00     0.036 C 
HETATM    9  C17 UNL     1      -2.630  49.222 -23.543  1.00  0.00     0.015 C 
HETATM   10  C18 UNL     1      -2.541  50.235 -22.397  1.00  0.00    -0.029 C 
HETATM   11  C19 UNL     1      -3.356  51.508 -22.791  1.00  0.00     0.016 C 
HETATM   12  C20 UNL     1      -6.490  48.431 -22.743  1.00  0.00    -0.015 C 
HETATM   13  C21 UNL     1      -7.159  49.823 -22.975  1.00  0.00     0.020 C 
HETATM   14  C22 UNL     1      -6.743  47.601 -24.035  1.00  0.00     0.021 C 
HETATM   15  C23 UNL     1      -8.130  46.987 -24.082  1.00  0.00     0.080 C 
HETATM   16  C24 UNL     1      -8.284  45.979 -22.974  1.00  0.00     0.135 C 
HETATM   17  O2  UNL     1      -9.026  45.006 -23.129  1.00  0.00    -0.297 OA
HETATM   18  C25 UNL     1      -7.506  46.215 -21.669  1.00  0.00     0.018 C 
HETATM   19  C26 UNL     1      -8.417  45.733 -20.513  1.00  0.00     0.023 C 
HETATM   20  C27 UNL     1      -6.252  45.320 -21.697  1.00  0.00     0.023 C 
HETATM   21  C28 UNL     1      -7.192  47.750 -21.501  1.00  0.00     0.016 C 
HETATM   22  C29 UNL     1      -6.498  48.033 -20.150  1.00  0.00     0.043 C 
HETATM   23  C30 UNL     1      -5.509  49.192 -20.117  1.00  0.00     0.148 C 
ENDROOT
BRANCH   1  24
HETATM   24  C7  UNL     1      -0.321  51.714 -22.789  1.00  0.00    -0.014 C 
HETATM   25  C8  UNL     1       0.253  52.845 -21.930  1.00  0.00     0.010 C 
BRANCH  24  26
HETATM   26  C6  UNL     1      -1.158  52.313 -23.951  1.00  0.00     0.008 C 
BRANCH  26  27
HETATM   27  C5  UNL     1      -0.389  53.241 -24.899  1.00  0.00     0.028 C 
BRANCH  27  28
HETATM   28  C4  UNL     1       0.677  52.486 -25.642  1.00  0.00    -0.017 C 
HETATM   29  C2  UNL     1       0.839  52.406 -26.976  1.00  0.00    -0.028 C 
HETATM   30  C1  UNL     1       0.020  53.089 -28.025  1.00  0.00     0.051 C 
BRANCH  29  31
HETATM   31  C3  UNL     1       1.965  51.570 -27.495  1.00  0.00     0.265 C 
HETATM   32  O1  UNL     1       2.989  51.332 -26.867  1.00  0.00    -0.302 OA
ENDBRANCH  29  31
ENDBRANCH  27  28
ENDBRANCH  26  27
ENDBRANCH  24  26
ENDBRANCH   1  24
BRANCH  23  33
HETATM   33  O3  UNL     1      -4.822  49.096 -18.874  1.00  0.00    -0.391 OA
HETATM   34  H46 UNL     1      -5.479  49.221 -18.169  1.00  0.00     0.210 HD
ENDBRANCH  23  33
TORSDOF 6
ENDMDL
MODEL 9
REMARK minimizedAffinity -8.38897228
REMARK  6 active torsions:
REMARK  status: ('A' for Active; 'I' for Inactive)
REMARK    1  A    between atoms: C2_2  and  C3_3 
REMARK    2  A    between atoms: C4_5  and  C5_6 
REMARK    3  A    between atoms: C5_6  and  C6_7 
REMARK    4  A    between atoms: C6_7  and  C7_8 
REMARK    5  A    between atoms: C7_8  and  C9_10 
REMARK    6  A    between atoms: C30_32  and  O3_33 
ROOT
HETATM    1  C9  UNL     1      -1.854  51.259 -22.539  1.00  0.00    -0.002 C 
HETATM    2  C10 UNL     1      -3.110  52.138 -22.790  1.00  0.00     0.007 C 
HETATM    3  C11 UNL     1      -4.309  51.434 -22.127  1.00  0.00     0.015 C 
HETATM    4  C12 UNL     1      -3.695  50.344 -21.227  1.00  0.00    -0.010 C 
HETATM    5  C13 UNL     1      -3.287  51.028 -19.884  1.00  0.00     0.021 C 
HETATM    6  C14 UNL     1      -4.529  49.130 -20.815  1.00  0.00    -0.039 C 
HETATM    7  C15 UNL     1      -3.919  47.935 -20.582  1.00  0.00    -0.066 C 
HETATM    8  C16 UNL     1      -2.410  47.754 -20.763  1.00  0.00     0.036 C 
HETATM    9  C17 UNL     1      -1.605  48.954 -21.298  1.00  0.00     0.015 C 
HETATM   10  C18 UNL     1      -2.483  49.889 -22.137  1.00  0.00    -0.029 C 
HETATM   11  C19 UNL     1      -2.928  49.132 -23.428  1.00  0.00     0.016 C 
HETATM   12  C20 UNL     1      -4.754  46.669 -20.282  1.00  0.00    -0.015 C 
HETATM   13  C21 UNL     1      -5.227  46.138 -21.672  1.00  0.00     0.020 C 
HETATM   14  C22 UNL     1      -3.910  45.529 -19.641  1.00  0.00     0.021 C 
HETATM   15  C23 UNL     1      -4.763  44.451 -18.998  1.00  0.00     0.080 C 
HETATM   16  C24 UNL     1      -5.529  45.026 -17.836  1.00  0.00     0.135 C 
HETATM   17  O2  UNL     1      -5.813  44.309 -16.874  1.00  0.00    -0.297 OA
HETATM   18  C25 UNL     1      -5.943  46.505 -17.904  1.00  0.00     0.018 C 
HETATM   19  C26 UNL     1      -7.334  46.610 -17.233  1.00  0.00     0.023 C 
HETATM   20  C27 UNL     1      -4.940  47.317 -17.062  1.00  0.00     0.023 C 
HETATM   21  C28 UNL     1      -6.036  46.968 -19.407  1.00  0.00     0.016 C 
HETATM   22  C29 UNL     1      -6.547  48.422 -19.513  1.00  0.00     0.043 C 
HETATM   23  C30 UNL     1      -6.028  49.248 -20.684  1.00  0.00     0.148 C 
ENDROOT
BRANCH   1  24
HETATM   24  C7  UNL     1      -0.848  51.332 -23.724  1.00  0.00    -0.014 C 
HETATM   25  C8  UNL     1       0.368  52.212 -23.417  1.00  0.00     0.010 C 
BRANCH  24  26
HETATM   26  C6  UNL     1      -1.508  51.796 -25.049  1.00  0.00     0.008 C 
BRANCH  26  27
HETATM   27  C5  UNL     1      -1.287  50.868 -26.249  1.00  0.00     0.028 C 
BRANCH  27  28
HETATM   28  C4  UNL     1       0.137  50.936 -26.725  1.00  0.00    -0.017 C 
HETATM   29  C2  UNL     1       0.675  51.847 -27.557  1.00  0.00    -0.028 C 
HETATM   30  C1  UNL     1      -0.011  53.029 -28.164  1.00  0.00     0.051 C 
BRANCH  29  31
HETATM   31  C3  UNL     1       2.121  51.701 -27.913  1.00  0.00     0.265 C 
HETATM   32  O1  UNL     1       3.044  51.959 -27.151  1.00  0.00    -0.302 OA
ENDBRANCH  29  31
ENDBRANCH  27  28
ENDBRANCH  26  27
ENDBRANCH  24  26
ENDBRANCH   1  24
BRANCH  23  33
HETATM   33  O3  UNL     1      -6.421  50.592 -20.431  1.00  0.00    -0.391 OA
HETATM   34  H46 UNL     1      -7.391  50.617 -20.433  1.00  0.00     0.210 HD
ENDBRANCH  23  33
TORSDOF 6
ENDMDL
