MODEL 1
REMARK minimizedAffinity -8.43991184
REMARK CNNscore 0.407959312
REMARK CNNaffinity 7.29767227
REMARK  9 active torsions:
REMARK  status: ('A' for Active; 'I' for Inactive)
REMARK    1  A    between atoms: C3_3  and  O1_4 
REMARK    2  A    between atoms: N1_14  and  O2_16 
REMARK    3  A    between atoms: O2_16  and  C13_17 
REMARK    4  A    between atoms: C13_17  and  C14_18 
REMARK       I    between atoms: C14_18  and  N2_20 
REMARK    5  A    between atoms: N2_20  and  C15_21 
REMARK    6  A    between atoms: C15_21  and  C16_22 
REMARK    7  A    between atoms: C15_21  and  C18_26 
REMARK    8  A    between atoms: C16_22  and  C17_23 
REMARK    9  A    between atoms: C17_23  and  O5_25 
ROOT
HETATM    1  C1  UNL     1      -2.629   8.859  12.178  1.00  0.00     0.015 C 
HETATM    2  C2  UNL     1      -2.441   7.924  12.910  1.00  0.00    -0.078 C 
HETATM    3  C3  UNL     1      -2.157   6.763  13.779  1.00  0.00     0.128 C 
HETATM    4  C4  UNL     1      -2.003   5.501  12.925  1.00  0.00     0.052 C 
HETATM    5  C5  UNL     1      -3.423   4.962  12.753  1.00  0.00     0.010 C 
HETATM    6  C6  UNL     1      -4.297   5.573  13.884  1.00  0.00     0.002 C 
HETATM    7  C7  UNL     1      -5.490   6.372  13.297  1.00  0.00    -0.004 C 
HETATM    8  C8  UNL     1      -6.528   5.442  12.627  1.00  0.00     0.010 C 
HETATM    9  C9  UNL     1      -7.517   4.814  13.606  1.00  0.00     0.035 C 
HETATM   10  C10 UNL     1      -8.188   5.919  14.380  1.00  0.00    -0.069 C 
HETATM   11  C11 UNL     1      -9.498   6.164  14.192  1.00  0.00     0.030 C 
HETATM   12  C12 UNL     1     -10.127   7.389  14.760  1.00  0.00     0.032 C 
HETATM   13  N1  UNL     1     -11.398   7.605  14.910  1.00  0.00    -0.271 N 
ATOM     14  H1  UNL     1     -11.792   8.463  15.296  1.00  0.00     0.194 HD
HETATM   15  C25 UNL     1      -9.175   8.493  15.154  1.00  0.00     0.060 C 
HETATM   16  C26 UNL     1      -8.062   7.888  15.990  1.00  0.00     0.020 C 
HETATM   17  C27 UNL     1      -7.251   6.773  15.250  1.00  0.00    -0.016 C 
HETATM   18  C28 UNL     1      -6.671   5.899  16.382  1.00  0.00     0.020 C 
HETATM   19  C29 UNL     1      -6.164   7.380  14.277  1.00  0.00     0.002 C 
HETATM   20  C30 UNL     1      -5.084   8.283  14.893  1.00  0.00     0.007 C 
HETATM   21  C31 UNL     1      -3.912   7.564  15.547  1.00  0.00     0.014 C 
HETATM   22  C32 UNL     1      -3.302   6.375  14.772  1.00  0.00     0.003 C 
HETATM   23  C33 UNL     1      -2.737   5.411  15.866  1.00  0.00     0.020 C 
ENDROOT
BRANCH   3  24
HETATM   24  O1  UNL     1      -0.932   7.012  14.459  1.00  0.00    -0.377 OA
HETATM   25  H2  UNL     1      -0.966   7.931  14.778  1.00  0.00     0.211 HD
ENDBRANCH   3  24
BRANCH  13  26
HETATM   26  O2  UNL     1     -12.164   6.510  14.474  1.00  0.00    -0.271 OA
BRANCH  26  27
HETATM   27  C13 UNL     1     -12.829   6.857  13.274  1.00  0.00     0.303 C 
BRANCH  27  28
HETATM   28  C14 UNL     1     -13.731   8.090  13.388  1.00  0.00     0.244 C 
HETATM   29  O3  UNL     1     -14.566   8.262  14.270  1.00  0.00    -0.271 OA
HETATM   30  N2  UNL     1     -13.506   9.019  12.378  1.00  0.00    -0.354 N 
HETATM   31  H16 UNL     1     -12.681   8.898  11.801  1.00  0.00     0.162 HD
BRANCH  30  32
HETATM   32  C15 UNL     1     -14.221  10.295  12.329  1.00  0.00     0.098 C 
BRANCH  32  33
HETATM   33  C16 UNL     1     -15.728  10.100  12.568  1.00  0.00     0.135 C 
BRANCH  33  34
HETATM   34  C17 UNL     1     -16.461   9.640  11.341  1.00  0.00     0.141 C 
HETATM   35  O4  UNL     1     -17.269  10.298  10.706  1.00  0.00    -0.650 OA
BRANCH  34  36
HETATM   36  O5  UNL     1     -16.081   8.420  10.924  1.00  0.00    -0.776 OA
HETATM   37  H20 UNL     1     -16.710   8.213  10.202  1.00  0.00     0.167 HD
ENDBRANCH  34  36
ENDBRANCH  33  34
ENDBRANCH  32  33
BRANCH  32  38
HETATM   38  C18 UNL     1     -13.629  11.318  13.334  1.00  0.00     0.014 C 
HETATM   39  C19 UNL     1     -14.536  11.653  14.521  1.00  0.00     0.033 C 
HETATM   40  C20 UNL     1     -13.924  12.761  15.376  1.00  0.00     0.169 C 
HETATM   41  O6  UNL     1     -12.529  12.944  15.151  1.00  0.00    -0.381 OA
HETATM   42  C21 UNL     1     -11.750  11.746  15.040  1.00  0.00     0.054 C 
HETATM   43  C22 UNL     1     -10.309  12.206  14.764  1.00  0.00     0.045 C 
HETATM   44  C23 UNL     1     -11.765  10.976  16.369  1.00  0.00     0.045 C 
HETATM   45  C24 UNL     1     -12.252  10.873  13.864  1.00  0.00     0.044 C 
ENDBRANCH  32  38
ENDBRANCH  30  32
ENDBRANCH  27  28
ENDBRANCH  26  27
ENDBRANCH  13  26
TORSDOF 9
ENDMDL
MODEL 2
REMARK minimizedAffinity -8.37962055
REMARK CNNscore 0.348780066
REMARK CNNaffinity 6.26952171
REMARK  9 active torsions:
REMARK  status: ('A' for Active; 'I' for Inactive)
REMARK    1  A    between atoms: C3_3  and  O1_4 
REMARK    2  A    between atoms: N1_14  and  O2_16 
REMARK    3  A    between atoms: O2_16  and  C13_17 
REMARK    4  A    between atoms: C13_17  and  C14_18 
REMARK       I    between atoms: C14_18  and  N2_20 
REMARK    5  A    between atoms: N2_20  and  C15_21 
REMARK    6  A    between atoms: C15_21  and  C16_22 
REMARK    7  A    between atoms: C15_21  and  C18_26 
REMARK    8  A    between atoms: C16_22  and  C17_23 
REMARK    9  A    between atoms: C17_23  and  O5_25 
ROOT
HETATM    1  C1  UNL     1       0.065   8.337   9.734  1.00  0.00     0.015 C 
HETATM    2  C2  UNL     1      -0.180   7.540  10.600  1.00  0.00    -0.078 C 
HETATM    3  C3  UNL     1      -0.535   6.547  11.636  1.00  0.00     0.128 C 
HETATM    4  C4  UNL     1      -1.890   6.904  12.254  1.00  0.00     0.052 C 
HETATM    5  C5  UNL     1      -1.568   7.887  13.378  1.00  0.00     0.010 C 
HETATM    6  C6  UNL     1      -0.067   7.708  13.744  1.00  0.00     0.002 C 
HETATM    7  C7  UNL     1       0.712   9.037  13.569  1.00  0.00    -0.004 C 
HETATM    8  C8  UNL     1       0.301  10.086  14.629  1.00  0.00     0.010 C 
HETATM    9  C9  UNL     1       1.013   9.921  15.969  1.00  0.00     0.035 C 
HETATM   10  C10 UNL     1       2.500   9.941  15.724  1.00  0.00    -0.069 C 
HETATM   11  C11 UNL     1       3.235  10.974  16.175  1.00  0.00     0.030 C 
HETATM   12  C12 UNL     1       4.652  11.137  15.746  1.00  0.00     0.032 C 
HETATM   13  N1  UNL     1       5.547  11.890  16.310  1.00  0.00    -0.271 N 
ATOM     14  H1  UNL     1       6.509  11.982  15.981  1.00  0.00     0.194 HD
HETATM   15  C25 UNL     1       5.055  10.374  14.507  1.00  0.00     0.060 C 
HETATM   16  C26 UNL     1       4.582   8.939  14.656  1.00  0.00     0.020 C 
HETATM   17  C27 UNL     1       3.035   8.801  14.844  1.00  0.00    -0.016 C 
HETATM   18  C28 UNL     1       2.853   7.458  15.584  1.00  0.00     0.020 C 
HETATM   19  C29 UNL     1       2.261   8.893  13.470  1.00  0.00     0.002 C 
HETATM   20  C30 UNL     1       2.603   7.853  12.391  1.00  0.00     0.007 C 
HETATM   21  C31 UNL     1       1.922   6.499  12.536  1.00  0.00     0.014 C 
HETATM   22  C32 UNL     1       0.415   6.508  12.878  1.00  0.00     0.003 C 
HETATM   23  C33 UNL     1       0.164   5.191  13.684  1.00  0.00     0.020 C 
ENDROOT
BRANCH   3  24
HETATM   24  O1  UNL     1      -0.635   5.274  11.009  1.00  0.00    -0.377 OA
HETATM   25  H2  UNL     1       0.134   5.188  10.418  1.00  0.00     0.211 HD
ENDBRANCH   3  24
BRANCH  13  26
HETATM   26  O2  UNL     1       5.027  12.563  17.429  1.00  0.00    -0.271 OA
BRANCH  26  27
HETATM   27  C13 UNL     1       6.094  12.942  18.278  1.00  0.00     0.303 C 
BRANCH  27  28
HETATM   28  C14 UNL     1       6.325  11.996  19.460  1.00  0.00     0.244 C 
HETATM   29  O3  UNL     1       6.633  10.813  19.355  1.00  0.00    -0.271 OA
HETATM   30  N2  UNL     1       6.154  12.619  20.692  1.00  0.00    -0.354 N 
HETATM   31  H16 UNL     1       6.087  13.630  20.703  1.00  0.00     0.162 HD
BRANCH  30  32
HETATM   32  C15 UNL     1       6.381  11.912  21.953  1.00  0.00     0.098 C 
BRANCH  32  33
HETATM   33  C16 UNL     1       7.249  12.746  22.912  1.00  0.00     0.135 C 
BRANCH  33  34
HETATM   34  C17 UNL     1       8.692  12.329  22.908  1.00  0.00     0.141 C 
HETATM   35  O4  UNL     1       9.636  13.034  22.589  1.00  0.00    -0.650 OA
BRANCH  34  36
HETATM   36  O5  UNL     1       8.886  11.088  23.388  1.00  0.00    -0.776 OA
HETATM   37  H20 UNL     1       9.836  10.918  23.221  1.00  0.00     0.167 HD
ENDBRANCH  34  36
ENDBRANCH  33  34
ENDBRANCH  32  33
BRANCH  32  38
HETATM   38  C18 UNL     1       5.045  11.507  22.628  1.00  0.00     0.014 C 
HETATM   39  C19 UNL     1       3.962  12.589  22.613  1.00  0.00     0.033 C 
HETATM   40  C20 UNL     1       2.739  12.145  23.413  1.00  0.00     0.169 C 
HETATM   41  O6  UNL     1       2.689  10.737  23.635  1.00  0.00    -0.381 OA
HETATM   42  C21 UNL     1       3.026   9.915  22.511  1.00  0.00     0.054 C 
HETATM   43  C22 UNL     1       2.937   8.464  23.013  1.00  0.00     0.045 C 
HETATM   44  C23 UNL     1       1.998  10.101  21.385  1.00  0.00     0.045 C 
HETATM   45  C24 UNL     1       4.467  10.210  22.028  1.00  0.00     0.044 C 
ENDBRANCH  32  38
ENDBRANCH  30  32
ENDBRANCH  27  28
ENDBRANCH  26  27
ENDBRANCH  13  26
TORSDOF 9
ENDMDL
MODEL 3
REMARK minimizedAffinity -7.23084068
REMARK CNNscore 0.328211337
REMARK CNNaffinity 6.04252243
REMARK  9 active torsions:
REMARK  status: ('A' for Active; 'I' for Inactive)
REMARK    1  A    between atoms: C3_3  and  O1_4 
REMARK    2  A    between atoms: N1_14  and  O2_16 
REMARK    3  A    between atoms: O2_16  and  C13_17 
REMARK    4  A    between atoms: C13_17  and  C14_18 
REMARK       I    between atoms: C14_18  and  N2_20 
REMARK    5  A    between atoms: N2_20  and  C15_21 
REMARK    6  A    between atoms: C15_21  and  C16_22 
REMARK    7  A    between atoms: C15_21  and  C18_26 
REMARK    8  A    between atoms: C16_22  and  C17_23 
REMARK    9  A    between atoms: C17_23  and  O5_25 
ROOT
HETATM    1  C1  UNL     1      -5.665  17.648  17.728  1.00  0.00     0.015 C 
HETATM    2  C2  UNL     1      -6.402  16.720  17.525  1.00  0.00    -0.078 C 
HETATM    3  C3  UNL     1      -7.353  15.612  17.303  1.00  0.00     0.128 C 
HETATM    4  C4  UNL     1      -7.958  15.171  18.638  1.00  0.00     0.052 C 
HETATM    5  C5  UNL     1      -6.974  14.147  19.201  1.00  0.00     0.010 C 
HETATM    6  C6  UNL     1      -6.113  13.622  18.018  1.00  0.00     0.002 C 
HETATM    7  C7  UNL     1      -4.604  13.880  18.270  1.00  0.00    -0.004 C 
HETATM    8  C8  UNL     1      -4.055  12.996  19.414  1.00  0.00     0.010 C 
HETATM    9  C9  UNL     1      -3.673  11.584  18.974  1.00  0.00     0.035 C 
HETATM   10  C10 UNL     1      -2.688  11.688  17.839  1.00  0.00    -0.069 C 
HETATM   11  C11 UNL     1      -1.414  11.296  18.026  1.00  0.00     0.030 C 
HETATM   12  C12 UNL     1      -0.372  11.606  17.007  1.00  0.00     0.032 C 
HETATM   13  N1  UNL     1       0.799  11.055  16.910  1.00  0.00    -0.271 N 
ATOM     14  H1  UNL     1       1.491  11.300  16.201  1.00  0.00     0.194 HD
HETATM   15  C25 UNL     1      -0.716  12.703  16.028  1.00  0.00     0.060 C 
HETATM   16  C26 UNL     1      -2.103  12.429  15.475  1.00  0.00     0.020 C 
HETATM   17  C27 UNL     1      -3.219  12.372  16.570  1.00  0.00    -0.016 C 
HETATM   18  C28 UNL     1      -4.329  11.498  15.948  1.00  0.00     0.020 C 
HETATM   19  C29 UNL     1      -3.697  13.815  17.004  1.00  0.00     0.002 C 
HETATM   20  C30 UNL     1      -4.286  14.725  15.914  1.00  0.00     0.007 C 
HETATM   21  C31 UNL     1      -5.749  14.485  15.569  1.00  0.00     0.014 C 
HETATM   22  C32 UNL     1      -6.723  14.290  16.752  1.00  0.00     0.003 C 
HETATM   23  C33 UNL     1      -7.857  13.360  16.208  1.00  0.00     0.020 C 
ENDROOT
BRANCH   3  24
HETATM   24  O1  UNL     1      -8.395  16.089  16.459  1.00  0.00    -0.377 OA
HETATM   25  H2  UNL     1      -7.971  16.591  15.741  1.00  0.00     0.211 HD
ENDBRANCH   3  24
BRANCH  13  26
HETATM   26  O2  UNL     1       0.996  10.078  17.901  1.00  0.00    -0.271 OA
BRANCH  26  27
HETATM   27  C13 UNL     1       2.194  10.360  18.599  1.00  0.00     0.303 C 
BRANCH  27  28
HETATM   28  C14 UNL     1       1.995  10.694  20.081  1.00  0.00     0.244 C 
HETATM   29  O3  UNL     1       0.930  11.049  20.578  1.00  0.00    -0.271 OA
HETATM   30  N2  UNL     1       3.158  10.548  20.828  1.00  0.00    -0.354 N 
HETATM   31  H16 UNL     1       3.942  10.075  20.393  1.00  0.00     0.162 HD
BRANCH  30  32
HETATM   32  C15 UNL     1       3.178  10.761  22.276  1.00  0.00     0.098 C 
BRANCH  32  33
HETATM   33  C16 UNL     1       3.544   9.468  23.026  1.00  0.00     0.135 C 
BRANCH  33  34
HETATM   34  C17 UNL     1       2.388   8.519  23.155  1.00  0.00     0.141 C 
HETATM   35  O4  UNL     1       1.938   7.818  22.263  1.00  0.00    -0.650 OA
BRANCH  34  36
HETATM   36  O5  UNL     1       1.914   8.430  24.410  1.00  0.00    -0.776 OA
HETATM   37  H20 UNL     1       1.111   7.876  24.320  1.00  0.00     0.167 HD
ENDBRANCH  34  36
ENDBRANCH  33  34
ENDBRANCH  32  33
BRANCH  32  38
HETATM   38  C18 UNL     1       4.135  11.917  22.668  1.00  0.00     0.014 C 
HETATM   39  C19 UNL     1       5.458  11.947  21.899  1.00  0.00     0.033 C 
HETATM   40  C20 UNL     1       6.381  13.034  22.447  1.00  0.00     0.169 C 
HETATM   41  O6  UNL     1       5.699  14.014  23.226  1.00  0.00    -0.381 OA
HETATM   42  C21 UNL     1       4.447  14.471  22.700  1.00  0.00     0.054 C 
HETATM   43  C22 UNL     1       3.903  15.477  23.728  1.00  0.00     0.045 C 
HETATM   44  C23 UNL     1       4.665  15.209  21.370  1.00  0.00     0.045 C 
HETATM   45  C24 UNL     1       3.453  13.294  22.548  1.00  0.00     0.044 C 
ENDBRANCH  32  38
ENDBRANCH  30  32
ENDBRANCH  27  28
ENDBRANCH  26  27
ENDBRANCH  13  26
TORSDOF 9
ENDMDL
MODEL 4
REMARK minimizedAffinity -7.69611788
REMARK CNNscore 0.306109846
REMARK CNNaffinity 6.68300772
REMARK  9 active torsions:
REMARK  status: ('A' for Active; 'I' for Inactive)
REMARK    1  A    between atoms: C3_3  and  O1_4 
REMARK    2  A    between atoms: N1_14  and  O2_16 
REMARK    3  A    between atoms: O2_16  and  C13_17 
REMARK    4  A    between atoms: C13_17  and  C14_18 
REMARK       I    between atoms: C14_18  and  N2_20 
REMARK    5  A    between atoms: N2_20  and  C15_21 
REMARK    6  A    between atoms: C15_21  and  C16_22 
REMARK    7  A    between atoms: C15_21  and  C18_26 
REMARK    8  A    between atoms: C16_22  and  C17_23 
REMARK    9  A    between atoms: C17_23  and  O5_25 
ROOT
HETATM    1  C1  UNL     1      -3.134  10.446  18.491  1.00  0.00     0.015 C 
HETATM    2  C2  UNL     1      -2.409  11.145  17.836  1.00  0.00    -0.078 C 
HETATM    3  C3  UNL     1      -1.547  12.055  17.052  1.00  0.00     0.128 C 
HETATM    4  C4  UNL     1      -2.412  12.954  16.165  1.00  0.00     0.052 C 
HETATM    5  C5  UNL     1      -2.640  12.150  14.886  1.00  0.00     0.010 C 
HETATM    6  C6  UNL     1      -1.532  11.063  14.811  1.00  0.00     0.002 C 
HETATM    7  C7  UNL     1      -2.149   9.641  14.750  1.00  0.00    -0.004 C 
HETATM    8  C8  UNL     1      -2.867   9.386  13.404  1.00  0.00     0.010 C 
HETATM    9  C9  UNL     1      -1.931   8.957  12.277  1.00  0.00     0.035 C 
HETATM   10  C10 UNL     1      -1.165   7.741  12.730  1.00  0.00    -0.069 C 
HETATM   11  C11 UNL     1      -1.395   6.552  12.142  1.00  0.00     0.030 C 
HETATM   12  C12 UNL     1      -0.832   5.301  12.723  1.00  0.00     0.032 C 
HETATM   13  N1  UNL     1      -0.723   4.154  12.125  1.00  0.00    -0.271 N 
ATOM     14  H1  UNL     1      -0.339   3.315  12.560  1.00  0.00     0.194 HD
HETATM   15  C25 UNL     1      -0.390   5.388  14.165  1.00  0.00     0.060 C 
HETATM   16  C26 UNL     1       0.475   6.624  14.324  1.00  0.00     0.020 C 
HETATM   17  C27 UNL     1      -0.252   7.957  13.947  1.00  0.00    -0.016 C 
HETATM   18  C28 UNL     1       0.887   8.925  13.563  1.00  0.00     0.020 C 
HETATM   19  C29 UNL     1      -1.178   8.477  15.116  1.00  0.00     0.002 C 
HETATM   20  C30 UNL     1      -0.513   8.783  16.467  1.00  0.00     0.007 C 
HETATM   21  C31 UNL     1       0.171  10.139  16.578  1.00  0.00     0.014 C 
HETATM   22  C32 UNL     1      -0.599  11.357  16.022  1.00  0.00     0.003 C 
HETATM   23  C33 UNL     1       0.500  12.368  15.557  1.00  0.00     0.020 C 
ENDROOT
BRANCH   3  24
HETATM   24  O1  UNL     1      -0.822  12.869  17.966  1.00  0.00    -0.377 OA
HETATM   25  H2  UNL     1      -0.491  12.282  18.669  1.00  0.00     0.211 HD
ENDBRANCH   3  24
BRANCH  13  26
HETATM   26  O2  UNL     1      -1.200   4.211  10.805  1.00  0.00    -0.271 OA
BRANCH  26  27
HETATM   27  C13 UNL     1      -2.096   3.137  10.588  1.00  0.00     0.303 C 
BRANCH  27  28
HETATM   28  C14 UNL     1      -3.575   3.528  10.651  1.00  0.00     0.244 C 
HETATM   29  O3  UNL     1      -4.285   3.727   9.669  1.00  0.00    -0.271 OA
HETATM   30  N2  UNL     1      -4.051   3.635  11.952  1.00  0.00    -0.354 N 
HETATM   31  H16 UNL     1      -3.467   3.277  12.698  1.00  0.00     0.162 HD
BRANCH  30  32
HETATM   32  C15 UNL     1      -5.453   3.944  12.240  1.00  0.00     0.098 C 
BRANCH  32  33
HETATM   33  C16 UNL     1      -6.118   2.818  13.050  1.00  0.00     0.135 C 
BRANCH  33  34
HETATM   34  C17 UNL     1      -7.609   2.968  13.148  1.00  0.00     0.141 C 
HETATM   35  O4  UNL     1      -8.406   2.761  12.247  1.00  0.00    -0.650 OA
BRANCH  34  36
HETATM   36  O5  UNL     1      -8.029   3.280  14.386  1.00  0.00    -0.776 OA
HETATM   37  H20 UNL     1      -8.987   3.453  14.273  1.00  0.00     0.167 HD
ENDBRANCH  34  36
ENDBRANCH  33  34
ENDBRANCH  32  33
BRANCH  32  38
HETATM   38  C18 UNL     1      -5.599   5.307  12.965  1.00  0.00     0.014 C 
HETATM   39  C19 UNL     1      -7.016   5.886  12.969  1.00  0.00     0.033 C 
HETATM   40  C20 UNL     1      -7.030   7.284  13.586  1.00  0.00     0.169 C 
HETATM   41  O6  UNL     1      -5.873   7.567  14.369  1.00  0.00    -0.381 OA
HETATM   42  C21 UNL     1      -5.427   6.514  15.232  1.00  0.00     0.054 C 
HETATM   43  C22 UNL     1      -4.163   7.047  15.925  1.00  0.00     0.045 C 
HETATM   44  C23 UNL     1      -6.484   6.223  16.309  1.00  0.00     0.045 C 
HETATM   45  C24 UNL     1      -5.077   5.247  14.414  1.00  0.00     0.044 C 
ENDBRANCH  32  38
ENDBRANCH  30  32
ENDBRANCH  27  28
ENDBRANCH  26  27
ENDBRANCH  13  26
TORSDOF 9
ENDMDL
MODEL 5
REMARK minimizedAffinity -7.33702755
REMARK CNNscore 0.258425415
REMARK CNNaffinity 5.72388315
REMARK  9 active torsions:
REMARK  status: ('A' for Active; 'I' for Inactive)
REMARK    1  A    between atoms: C3_3  and  O1_4 
REMARK    2  A    between atoms: N1_14  and  O2_16 
REMARK    3  A    between atoms: O2_16  and  C13_17 
REMARK    4  A    between atoms: C13_17  and  C14_18 
REMARK       I    between atoms: C14_18  and  N2_20 
REMARK    5  A    between atoms: N2_20  and  C15_21 
REMARK    6  A    between atoms: C15_21  and  C16_22 
REMARK    7  A    between atoms: C15_21  and  C18_26 
REMARK    8  A    between atoms: C16_22  and  C17_23 
REMARK    9  A    between atoms: C17_23  and  O5_25 
ROOT
HETATM    1  C1  UNL     1      -7.567  -9.178  -3.281  1.00  0.00     0.015 C 
HETATM    2  C2  UNL     1      -7.162 -10.304  -3.391  1.00  0.00    -0.078 C 
HETATM    3  C3  UNL     1      -6.706 -11.698  -3.573  1.00  0.00     0.128 C 
HETATM    4  C4  UNL     1      -7.891 -12.656  -3.421  1.00  0.00     0.052 C 
HETATM    5  C5  UNL     1      -7.986 -12.936  -1.922  1.00  0.00     0.010 C 
HETATM    6  C6  UNL     1      -6.610 -12.585  -1.290  1.00  0.00     0.002 C 
HETATM    7  C7  UNL     1      -6.761 -11.503  -0.189  1.00  0.00    -0.004 C 
HETATM    8  C8  UNL     1      -7.497 -12.052   1.056  1.00  0.00     0.010 C 
HETATM    9  C9  UNL     1      -6.591 -12.814   2.021  1.00  0.00     0.035 C 
HETATM   10  C10 UNL     1      -5.447 -11.915   2.411  1.00  0.00    -0.069 C 
HETATM   11  C11 UNL     1      -5.356 -11.462   3.675  1.00  0.00     0.030 C 
HETATM   12  C12 UNL     1      -4.380 -10.393   4.027  1.00  0.00     0.032 C 
HETATM   13  N1  UNL     1      -3.983 -10.073   5.221  1.00  0.00    -0.271 N 
ATOM     14  H1  UNL     1      -3.317  -9.327   5.423  1.00  0.00     0.194 HD
HETATM   15  C25 UNL     1      -3.845  -9.586   2.868  1.00  0.00     0.060 C 
HETATM   16  C26 UNL     1      -3.391 -10.549   1.786  1.00  0.00     0.020 C 
HETATM   17  C27 UNL     1      -4.528 -11.485   1.257  1.00  0.00    -0.016 C 
HETATM   18  C28 UNL     1      -3.787 -12.723   0.708  1.00  0.00     0.020 C 
HETATM   19  C29 UNL     1      -5.448 -10.758   0.198  1.00  0.00     0.002 C 
HETATM   20  C30 UNL     1      -4.777 -10.223  -1.078  1.00  0.00     0.007 C 
HETATM   21  C31 UNL     1      -4.537 -11.247  -2.180  1.00  0.00     0.014 C 
HETATM   22  C32 UNL     1      -5.697 -12.217  -2.496  1.00  0.00     0.003 C 
HETATM   23  C33 UNL     1      -5.015 -13.527  -3.010  1.00  0.00     0.020 C 
ENDROOT
BRANCH   3  24
HETATM   24  O1  UNL     1      -6.180 -11.820  -4.889  1.00  0.00    -0.377 OA
HETATM   25  H2  UNL     1      -5.615 -11.042  -5.043  1.00  0.00     0.211 HD
ENDBRANCH   3  24
BRANCH  13  26
HETATM   26  O2  UNL     1      -4.584 -10.882   6.200  1.00  0.00    -0.271 OA
BRANCH  26  27
HETATM   27  C13 UNL     1      -4.131 -10.476   7.478  1.00  0.00     0.303 C 
BRANCH  27  28
HETATM   28  C14 UNL     1      -5.251 -10.224   8.492  1.00  0.00     0.244 C 
HETATM   29  O3  UNL     1      -6.437 -10.093   8.201  1.00  0.00    -0.271 OA
HETATM   30  N2  UNL     1      -4.790 -10.161   9.802  1.00  0.00    -0.354 N 
HETATM   31  H16 UNL     1      -3.840 -10.462   9.982  1.00  0.00     0.162 HD
BRANCH  30  32
HETATM   32  C15 UNL     1      -5.701  -9.983  10.934  1.00  0.00     0.098 C 
BRANCH  32  33
HETATM   33  C16 UNL     1      -6.480  -8.661  10.820  1.00  0.00     0.135 C 
BRANCH  33  34
HETATM   34  C17 UNL     1      -6.698  -7.993  12.148  1.00  0.00     0.141 C 
HETATM   35  O4  UNL     1      -6.610  -8.533  13.239  1.00  0.00    -0.650 OA
BRANCH  34  36
HETATM   36  O5  UNL     1      -6.923  -6.672  12.045  1.00  0.00    -0.776 OA
HETATM   37  H20 UNL     1      -7.154  -6.401  12.958  1.00  0.00     0.167 HD
ENDBRANCH  34  36
ENDBRANCH  33  34
ENDBRANCH  32  33
BRANCH  32  38
HETATM   38  C18 UNL     1      -6.670 -11.185  11.080  1.00  0.00     0.014 C 
HETATM   39  C19 UNL     1      -6.581 -11.925  12.417  1.00  0.00     0.033 C 
HETATM   40  C20 UNL     1      -7.473 -13.166  12.411  1.00  0.00     0.169 C 
HETATM   41  O6  UNL     1      -8.466 -13.143  11.388  1.00  0.00    -0.381 OA
HETATM   42  C21 UNL     1      -9.141 -11.894  11.198  1.00  0.00     0.054 C 
HETATM   43  C22 UNL     1     -10.117 -12.119  10.032  1.00  0.00     0.045 C 
HETATM   44  C23 UNL     1      -9.957 -11.533  12.449  1.00  0.00     0.045 C 
HETATM   45  C24 UNL     1      -8.135 -10.778  10.827  1.00  0.00     0.044 C 
ENDBRANCH  32  38
ENDBRANCH  30  32
ENDBRANCH  27  28
ENDBRANCH  26  27
ENDBRANCH  13  26
TORSDOF 9
ENDMDL
MODEL 6
REMARK minimizedAffinity -8.72627735
REMARK CNNscore 0.241614252
REMARK CNNaffinity 6.75474405
REMARK  9 active torsions:
REMARK  status: ('A' for Active; 'I' for Inactive)
REMARK    1  A    between atoms: C3_3  and  O1_4 
REMARK    2  A    between atoms: N1_14  and  O2_16 
REMARK    3  A    between atoms: O2_16  and  C13_17 
REMARK    4  A    between atoms: C13_17  and  C14_18 
REMARK       I    between atoms: C14_18  and  N2_20 
REMARK    5  A    between atoms: N2_20  and  C15_21 
REMARK    6  A    between atoms: C15_21  and  C16_22 
REMARK    7  A    between atoms: C15_21  and  C18_26 
REMARK    8  A    between atoms: C16_22  and  C17_23 
REMARK    9  A    between atoms: C17_23  and  O5_25 
ROOT
HETATM    1  C1  UNL     1       0.396   8.091   9.036  1.00  0.00     0.015 C 
HETATM    2  C2  UNL     1       0.957   7.692  10.021  1.00  0.00    -0.078 C 
HETATM    3  C3  UNL     1       1.693   7.181  11.196  1.00  0.00     0.128 C 
HETATM    4  C4  UNL     1       1.997   5.692  11.011  1.00  0.00     0.052 C 
HETATM    5  C5  UNL     1       0.759   4.965  11.534  1.00  0.00     0.010 C 
HETATM    6  C6  UNL     1      -0.007   5.950  12.463  1.00  0.00     0.002 C 
HETATM    7  C7  UNL     1      -1.455   6.180  11.958  1.00  0.00    -0.004 C 
HETATM    8  C8  UNL     1      -2.329   4.915  12.128  1.00  0.00     0.010 C 
HETATM    9  C9  UNL     1      -2.913   4.753  13.529  1.00  0.00     0.035 C 
HETATM   10  C10 UNL     1      -3.682   6.003  13.873  1.00  0.00    -0.069 C 
HETATM   11  C11 UNL     1      -5.022   5.949  13.991  1.00  0.00     0.030 C 
HETATM   12  C12 UNL     1      -5.822   7.201  14.094  1.00  0.00     0.032 C 
HETATM   13  N1  UNL     1      -7.052   7.300  14.497  1.00  0.00    -0.271 N 
ATOM     14  H1  UNL     1      -7.571   8.177  14.546  1.00  0.00     0.194 HD
HETATM   15  C25 UNL     1      -5.128   8.463  13.638  1.00  0.00     0.060 C 
HETATM   16  C26 UNL     1      -3.757   8.514  14.286  1.00  0.00     0.020 C 
HETATM   17  C27 UNL     1      -2.847   7.291  13.935  1.00  0.00    -0.016 C 
HETATM   18  C28 UNL     1      -1.852   7.197  15.112  1.00  0.00     0.020 C 
HETATM   19  C29 UNL     1      -2.162   7.451  12.519  1.00  0.00     0.002 C 
HETATM   20  C30 UNL     1      -1.252   8.671  12.304  1.00  0.00     0.007 C 
HETATM   21  C31 UNL     1       0.169   8.539  12.834  1.00  0.00     0.014 C 
HETATM   22  C32 UNL     1       0.902   7.210  12.546  1.00  0.00     0.003 C 
HETATM   23  C33 UNL     1       1.897   7.017  13.737  1.00  0.00     0.020 C 
ENDROOT
BRANCH   3  24
HETATM   24  O1  UNL     1       2.920   7.894  11.290  1.00  0.00    -0.377 OA
HETATM   25  H2  UNL     1       2.714   8.835  11.148  1.00  0.00     0.211 HD
ENDBRANCH   3  24
BRANCH  13  26
HETATM   26  O2  UNL     1      -7.580   6.049  14.859  1.00  0.00    -0.271 OA
BRANCH  26  27
HETATM   27  C13 UNL     1      -8.806   6.242  15.538  1.00  0.00     0.303 C 
BRANCH  27  28
HETATM   28  C14 UNL     1      -9.824   7.092  14.771  1.00  0.00     0.244 C 
HETATM   29  O3  UNL     1      -9.922   7.124  13.548  1.00  0.00    -0.271 OA
HETATM   30  N2  UNL     1     -10.647   7.835  15.609  1.00  0.00    -0.354 N 
HETATM   31  H16 UNL     1     -10.634   7.616  16.598  1.00  0.00     0.162 HD
BRANCH  30  32
HETATM   32  C15 UNL     1     -11.727   8.674  15.085  1.00  0.00     0.098 C 
BRANCH  32  33
HETATM   33  C16 UNL     1     -12.990   7.842  14.799  1.00  0.00     0.135 C 
BRANCH  33  34
HETATM   34  C17 UNL     1     -13.364   7.828  13.344  1.00  0.00     0.141 C 
HETATM   35  O4  UNL     1     -13.431   8.805  12.617  1.00  0.00    -0.650 OA
BRANCH  34  36
HETATM   36  O5  UNL     1     -13.546   6.588  12.857  1.00  0.00    -0.776 OA
HETATM   37  H20 UNL     1     -13.888   6.740  11.951  1.00  0.00     0.167 HD
ENDBRANCH  34  36
ENDBRANCH  33  34
ENDBRANCH  32  33
BRANCH  32  38
HETATM   38  C18 UNL     1     -12.047   9.853  16.041  1.00  0.00     0.014 C 
HETATM   39  C19 UNL     1     -13.281   9.650  16.923  1.00  0.00     0.033 C 
HETATM   40  C20 UNL     1     -13.588  10.913  17.727  1.00  0.00     0.169 C 
HETATM   41  O6  UNL     1     -12.486  11.813  17.807  1.00  0.00    -0.381 OA
HETATM   42  C21 UNL     1     -11.207  11.217  18.055  1.00  0.00     0.054 C 
HETATM   43  C22 UNL     1     -10.197  12.376  18.056  1.00  0.00     0.045 C 
HETATM   44  C23 UNL     1     -11.186  10.556  19.442  1.00  0.00     0.045 C 
HETATM   45  C24 UNL     1     -10.844  10.212  16.934  1.00  0.00     0.044 C 
ENDBRANCH  32  38
ENDBRANCH  30  32
ENDBRANCH  27  28
ENDBRANCH  26  27
ENDBRANCH  13  26
TORSDOF 9
ENDMDL
MODEL 7
REMARK minimizedAffinity -7.60640764
REMARK CNNscore 0.236846134
REMARK CNNaffinity 5.47967291
REMARK  9 active torsions:
REMARK  status: ('A' for Active; 'I' for Inactive)
REMARK    1  A    between atoms: C3_3  and  O1_4 
REMARK    2  A    between atoms: N1_14  and  O2_16 
REMARK    3  A    between atoms: O2_16  and  C13_17 
REMARK    4  A    between atoms: C13_17  and  C14_18 
REMARK       I    between atoms: C14_18  and  N2_20 
REMARK    5  A    between atoms: N2_20  and  C15_21 
REMARK    6  A    between atoms: C15_21  and  C16_22 
REMARK    7  A    between atoms: C15_21  and  C18_26 
REMARK    8  A    between atoms: C16_22  and  C17_23 
REMARK    9  A    between atoms: C17_23  and  O5_25 
ROOT
HETATM    1  C1  UNL     1      -6.761  -6.972  12.023  1.00  0.00     0.015 C 
HETATM    2  C2  UNL     1      -6.686  -8.166  11.900  1.00  0.00    -0.078 C 
HETATM    3  C3  UNL     1      -6.542  -9.631  11.783  1.00  0.00     0.128 C 
HETATM    4  C4  UNL     1      -5.171  -9.973  11.192  1.00  0.00     0.052 C 
HETATM    5  C5  UNL     1      -5.368  -9.922   9.678  1.00  0.00     0.010 C 
HETATM    6  C6  UNL     1      -6.890 -10.066   9.396  1.00  0.00     0.002 C 
HETATM    7  C7  UNL     1      -7.430  -8.844   8.608  1.00  0.00    -0.004 C 
HETATM    8  C8  UNL     1      -6.891  -8.814   7.159  1.00  0.00     0.010 C 
HETATM    9  C9  UNL     1      -7.672  -9.700   6.191  1.00  0.00     0.035 C 
HETATM   10  C10 UNL     1      -9.124  -9.301   6.246  1.00  0.00    -0.069 C 
HETATM   11  C11 UNL     1      -9.693  -8.713   5.177  1.00  0.00     0.030 C 
HETATM   12  C12 UNL     1     -11.046  -8.098   5.285  1.00  0.00     0.032 C 
HETATM   13  N1  UNL     1     -11.824  -7.768   4.299  1.00  0.00    -0.271 N 
ATOM     14  H1  UNL     1     -12.743  -7.341   4.413  1.00  0.00     0.194 HD
HETATM   15  C25 UNL     1     -11.522  -7.800   6.687  1.00  0.00     0.060 C 
HETATM   16  C26 UNL     1     -11.301  -9.037   7.538  1.00  0.00     0.020 C 
HETATM   17  C27 UNL     1      -9.808  -9.497   7.608  1.00  0.00    -0.016 C 
HETATM   18  C28 UNL     1      -9.881 -11.006   7.928  1.00  0.00     0.020 C 
HETATM   19  C29 UNL     1      -8.976  -8.652   8.653  1.00  0.00     0.002 C 
HETATM   20  C30 UNL     1      -9.445  -8.674  10.117  1.00  0.00     0.007 C 
HETATM   21  C31 UNL     1      -9.005  -9.880  10.936  1.00  0.00     0.014 C 
HETATM   22  C32 UNL     1      -7.532 -10.324  10.790  1.00  0.00     0.003 C 
HETATM   23  C33 UNL     1      -7.535 -11.867  11.049  1.00  0.00     0.020 C 
ENDROOT
BRANCH   3  24
HETATM   24  O1  UNL     1      -6.632 -10.188  13.090  1.00  0.00    -0.377 OA
HETATM   25  H2  UNL     1      -7.381  -9.751  13.533  1.00  0.00     0.211 HD
ENDBRANCH   3  24
BRANCH  13  26
HETATM   26  O2  UNL     1     -11.243  -8.073   3.057  1.00  0.00    -0.271 OA
BRANCH  26  27
HETATM   27  C13 UNL     1     -11.454  -6.991   2.168  1.00  0.00     0.303 C 
BRANCH  27  28
HETATM   28  C14 UNL     1     -11.219  -7.333   0.694  1.00  0.00     0.244 C 
HETATM   29  O3  UNL     1     -12.049  -7.178  -0.197  1.00  0.00    -0.271 OA
HETATM   30  N2  UNL     1      -9.947  -7.840   0.453  1.00  0.00    -0.354 N 
HETATM   31  H16 UNL     1      -9.261  -7.763   1.195  1.00  0.00     0.162 HD
BRANCH  30  32
HETATM   32  C15 UNL     1      -9.493  -8.179  -0.897  1.00  0.00     0.098 C 
BRANCH  32  33
HETATM   33  C16 UNL     1      -8.879  -6.957  -1.602  1.00  0.00     0.135 C 
BRANCH  33  34
HETATM   34  C17 UNL     1      -9.543  -6.641  -2.911  1.00  0.00     0.141 C 
HETATM   35  O4  UNL     1     -10.096  -7.447  -3.642  1.00  0.00    -0.650 OA
BRANCH  34  36
HETATM   36  O5  UNL     1      -9.558  -5.327  -3.193  1.00  0.00    -0.776 OA
HETATM   37  H20 UNL     1      -9.912  -5.287  -4.106  1.00  0.00     0.167 HD
ENDBRANCH  34  36
ENDBRANCH  33  34
ENDBRANCH  32  33
BRANCH  32  38
HETATM   38  C18 UNL     1      -8.497  -9.367  -0.881  1.00  0.00     0.014 C 
HETATM   39  C19 UNL     1      -9.134 -10.744  -1.083  1.00  0.00     0.033 C 
HETATM   40  C20 UNL     1      -8.095 -11.853  -0.919  1.00  0.00     0.169 C 
HETATM   41  O6  UNL     1      -6.751 -11.389  -1.029  1.00  0.00    -0.381 OA
HETATM   42  C21 UNL     1      -6.497 -10.452  -2.083  1.00  0.00     0.054 C 
HETATM   43  C22 UNL     1      -5.009 -10.083  -1.965  1.00  0.00     0.045 C 
HETATM   44  C23 UNL     1      -6.723 -11.114  -3.451  1.00  0.00     0.045 C 
HETATM   45  C24 UNL     1      -7.363  -9.181  -1.909  1.00  0.00     0.044 C 
ENDBRANCH  32  38
ENDBRANCH  30  32
ENDBRANCH  27  28
ENDBRANCH  26  27
ENDBRANCH  13  26
TORSDOF 9
ENDMDL
MODEL 8
REMARK minimizedAffinity -9.21429443
REMARK CNNscore 0.225823149
REMARK CNNaffinity 6.6602807
REMARK  9 active torsions:
REMARK  status: ('A' for Active; 'I' for Inactive)
REMARK    1  A    between atoms: C3_3  and  O1_4 
REMARK    2  A    between atoms: N1_14  and  O2_16 
REMARK    3  A    between atoms: O2_16  and  C13_17 
REMARK    4  A    between atoms: C13_17  and  C14_18 
REMARK       I    between atoms: C14_18  and  N2_20 
REMARK    5  A    between atoms: N2_20  and  C15_21 
REMARK    6  A    between atoms: C15_21  and  C16_22 
REMARK    7  A    between atoms: C15_21  and  C18_26 
REMARK    8  A    between atoms: C16_22  and  C17_23 
REMARK    9  A    between atoms: C17_23  and  O5_25 
ROOT
HETATM    1  C1  UNL     1       1.189   8.092   8.024  1.00  0.00     0.015 C 
HETATM    2  C2  UNL     1       1.858   7.812   8.983  1.00  0.00    -0.078 C 
HETATM    3  C3  UNL     1       2.727   7.453  10.123  1.00  0.00     0.128 C 
HETATM    4  C4  UNL     1       3.252   6.026   9.947  1.00  0.00     0.052 C 
HETATM    5  C5  UNL     1       2.174   5.129  10.553  1.00  0.00     0.010 C 
HETATM    6  C6  UNL     1       1.313   6.005  11.506  1.00  0.00     0.002 C 
HETATM    7  C7  UNL     1      -0.178   5.993  11.080  1.00  0.00    -0.004 C 
HETATM    8  C8  UNL     1      -0.831   4.612  11.323  1.00  0.00     0.010 C 
HETATM    9  C9  UNL     1      -1.307   4.398  12.758  1.00  0.00     0.035 C 
HETATM   10  C10 UNL     1      -2.244   5.520  13.122  1.00  0.00    -0.069 C 
HETATM   11  C11 UNL     1      -3.550   5.260  13.318  1.00  0.00     0.030 C 
HETATM   12  C12 UNL     1      -4.531   6.374  13.443  1.00  0.00     0.032 C 
HETATM   13  N1  UNL     1      -5.737   6.290  13.915  1.00  0.00    -0.271 N 
ATOM     14  H1  UNL     1      -6.385   7.076  13.977  1.00  0.00     0.194 HD
HETATM   15  C25 UNL     1      -4.070   7.716  12.926  1.00  0.00     0.060 C 
HETATM   16  C26 UNL     1      -2.692   7.999  13.495  1.00  0.00     0.020 C 
HETATM   17  C27 UNL     1      -1.620   6.924  13.113  1.00  0.00    -0.016 C 
HETATM   18  C28 UNL     1      -0.561   7.018  14.233  1.00  0.00     0.020 C 
HETATM   19  C29 UNL     1      -1.046   7.151  11.659  1.00  0.00     0.002 C 
HETATM   20  C30 UNL     1      -0.353   8.493  11.370  1.00  0.00     0.007 C 
HETATM   21  C31 UNL     1       1.098   8.600  11.820  1.00  0.00     0.014 C 
HETATM   22  C32 UNL     1       2.015   7.394  11.514  1.00  0.00     0.003 C 
HETATM   23  C33 UNL     1       3.090   7.391  12.650  1.00  0.00     0.020 C 
ENDROOT
BRANCH   3  24
HETATM   24  O1  UNL     1       3.830   8.352  10.134  1.00  0.00    -0.377 OA
HETATM   25  H2  UNL     1       3.470   9.245   9.987  1.00  0.00     0.211 HD
ENDBRANCH   3  24
BRANCH  13  26
HETATM   26  O2  UNL     1      -6.041   4.982  14.328  1.00  0.00    -0.271 OA
BRANCH  26  27
HETATM   27  C13 UNL     1      -7.406   4.917  14.697  1.00  0.00     0.303 C 
BRANCH  27  28
HETATM   28  C14 UNL     1      -8.299   5.943  13.991  1.00  0.00     0.244 C 
HETATM   29  O3  UNL     1      -8.297   6.150  12.781  1.00  0.00    -0.271 OA
HETATM   30  N2  UNL     1      -9.132   6.628  14.867  1.00  0.00    -0.354 N 
HETATM   31  H16 UNL     1      -9.212   6.275  15.814  1.00  0.00     0.162 HD
BRANCH  30  32
HETATM   32  C15 UNL     1     -10.106   7.613  14.396  1.00  0.00     0.098 C 
BRANCH  32  33
HETATM   33  C16 UNL     1     -11.438   6.943  14.016  1.00  0.00     0.135 C 
BRANCH  33  34
HETATM   34  C17 UNL     1     -12.119   7.610  12.855  1.00  0.00     0.141 C 
HETATM   35  O4  UNL     1     -11.559   8.186  11.936  1.00  0.00    -0.650 OA
BRANCH  34  36
HETATM   36  O5  UNL     1     -13.453   7.444  12.857  1.00  0.00    -0.776 OA
HETATM   37  H20 UNL     1     -13.762   8.014  12.123  1.00  0.00     0.167 HD
ENDBRANCH  34  36
ENDBRANCH  33  34
ENDBRANCH  32  33
BRANCH  32  38
HETATM   38  C18 UNL     1     -10.331   8.737  15.441  1.00  0.00     0.014 C 
HETATM   39  C19 UNL     1      -9.750  10.100  15.055  1.00  0.00     0.033 C 
HETATM   40  C20 UNL     1      -9.906  11.100  16.200  1.00  0.00     0.169 C 
HETATM   41  O6  UNL     1     -10.878  10.707  17.166  1.00  0.00    -0.381 OA
HETATM   42  C21 UNL     1     -12.099  10.170  16.642  1.00  0.00     0.054 C 
HETATM   43  C22 UNL     1     -12.949   9.793  17.866  1.00  0.00     0.045 C 
HETATM   44  C23 UNL     1     -12.853  11.243  15.842  1.00  0.00     0.045 C 
HETATM   45  C24 UNL     1     -11.823   8.907  15.791  1.00  0.00     0.044 C 
ENDBRANCH  32  38
ENDBRANCH  30  32
ENDBRANCH  27  28
ENDBRANCH  26  27
ENDBRANCH  13  26
TORSDOF 9
ENDMDL
MODEL 9
REMARK minimizedAffinity -7.59178686
REMARK CNNscore 0.197564289
REMARK CNNaffinity 6.4954567
REMARK  9 active torsions:
REMARK  status: ('A' for Active; 'I' for Inactive)
REMARK    1  A    between atoms: C3_3  and  O1_4 
REMARK    2  A    between atoms: N1_14  and  O2_16 
REMARK    3  A    between atoms: O2_16  and  C13_17 
REMARK    4  A    between atoms: C13_17  and  C14_18 
REMARK       I    between atoms: C14_18  and  N2_20 
REMARK    5  A    between atoms: N2_20  and  C15_21 
REMARK    6  A    between atoms: C15_21  and  C16_22 
REMARK    7  A    between atoms: C15_21  and  C18_26 
REMARK    8  A    between atoms: C16_22  and  C17_23 
REMARK    9  A    between atoms: C17_23  and  O5_25 
ROOT
HETATM    1  C1  UNL     1      -5.426   3.840  12.010  1.00  0.00     0.015 C 
HETATM    2  C2  UNL     1      -5.856   4.526  12.898  1.00  0.00    -0.078 C 
HETATM    3  C3  UNL     1      -6.442   5.361  13.968  1.00  0.00     0.128 C 
HETATM    4  C4  UNL     1      -7.246   6.508  13.349  1.00  0.00     0.052 C 
HETATM    5  C5  UNL     1      -6.228   7.621  13.107  1.00  0.00     0.010 C 
HETATM    6  C6  UNL     1      -5.000   7.343  14.019  1.00  0.00     0.002 C 
HETATM    7  C7  UNL     1      -3.703   7.198  13.181  1.00  0.00    -0.004 C 
HETATM    8  C8  UNL     1      -3.273   8.545  12.554  1.00  0.00     0.010 C 
HETATM    9  C9  UNL     1      -2.481   9.441  13.503  1.00  0.00     0.035 C 
HETATM   10  C10 UNL     1      -1.292   8.666  14.010  1.00  0.00    -0.069 C 
HETATM   11  C11 UNL     1      -0.051   9.032  13.639  1.00  0.00     0.030 C 
HETATM   12  C12 UNL     1       1.114   8.150  13.928  1.00  0.00     0.032 C 
HETATM   13  N1  UNL     1       2.366   8.492  13.897  1.00  0.00    -0.271 N 
ATOM     14  H1  UNL     1       3.139   7.856  14.095  1.00  0.00     0.194 HD
HETATM   15  C25 UNL     1       0.786   6.710  14.246  1.00  0.00     0.060 C 
HETATM   16  C26 UNL     1      -0.317   6.692  15.289  1.00  0.00     0.020 C 
HETATM   17  C27 UNL     1      -1.629   7.412  14.833  1.00  0.00    -0.016 C 
HETATM   18  C28 UNL     1      -2.317   7.836  16.148  1.00  0.00     0.020 C 
HETATM   19  C29 UNL     1      -2.517   6.492  13.905  1.00  0.00     0.002 C 
HETATM   20  C30 UNL     1      -3.005   5.156  14.487  1.00  0.00     0.007 C 
HETATM   21  C31 UNL     1      -4.240   5.232  15.376  1.00  0.00     0.014 C 
HETATM   22  C32 UNL     1      -5.409   6.108  14.874  1.00  0.00     0.003 C 
HETATM   23  C33 UNL     1      -6.126   6.624  16.165  1.00  0.00     0.020 C 
ENDROOT
BRANCH   3  24
HETATM   24  O1  UNL     1      -7.319   4.543  14.733  1.00  0.00    -0.377 OA
HETATM   25  H2  UNL     1      -6.854   3.703  14.896  1.00  0.00     0.211 HD
ENDBRANCH   3  24
BRANCH  13  26
HETATM   26  O2  UNL     1       2.525   9.846  13.558  1.00  0.00    -0.271 OA
BRANCH  26  27
HETATM   27  C13 UNL     1       3.206  10.510  14.607  1.00  0.00     0.303 C 
BRANCH  27  28
HETATM   28  C14 UNL     1       4.707  10.692  14.366  1.00  0.00     0.244 C 
HETATM   29  O3  UNL     1       5.305  11.759  14.473  1.00  0.00    -0.271 OA
HETATM   30  N2  UNL     1       5.345   9.509  14.012  1.00  0.00    -0.354 N 
HETATM   31  H16 UNL     1       4.831   8.644  14.127  1.00  0.00     0.162 HD
BRANCH  30  32
HETATM   32  C15 UNL     1       6.791   9.447  13.791  1.00  0.00     0.098 C 
BRANCH  32  33
HETATM   33  C16 UNL     1       7.312  10.738  13.137  1.00  0.00     0.135 C 
BRANCH  33  34
HETATM   34  C17 UNL     1       6.992  10.824  11.673  1.00  0.00     0.141 C 
HETATM   35  O4  UNL     1       7.596  10.256  10.777  1.00  0.00    -0.650 OA
BRANCH  34  36
HETATM   36  O5  UNL     1       5.884  11.540  11.414  1.00  0.00    -0.776 OA
HETATM   37  H20 UNL     1       5.866  11.602  10.436  1.00  0.00     0.167 HD
ENDBRANCH  34  36
ENDBRANCH  33  34
ENDBRANCH  32  33
BRANCH  32  38
HETATM   38  C18 UNL     1       7.556   9.145  15.106  1.00  0.00     0.014 C 
HETATM   39  C19 UNL     1       8.758   8.211  14.953  1.00  0.00     0.033 C 
HETATM   40  C20 UNL     1       9.361   7.871  16.315  1.00  0.00     0.169 C 
HETATM   41  O6  UNL     1       8.971   8.775  17.346  1.00  0.00    -0.381 OA
HETATM   42  C21 UNL     1       8.975  10.164  16.996  1.00  0.00     0.054 C 
HETATM   43  C22 UNL     1       8.487  10.914  18.246  1.00  0.00     0.045 C 
HETATM   44  C23 UNL     1      10.405  10.630  16.681  1.00  0.00     0.045 C 
HETATM   45  C24 UNL     1       8.010  10.436  15.816  1.00  0.00     0.044 C 
ENDBRANCH  32  38
ENDBRANCH  30  32
ENDBRANCH  27  28
ENDBRANCH  26  27
ENDBRANCH  13  26
TORSDOF 9
ENDMDL
