MODEL 1
REMARK minimizedAffinity -8.72964668
REMARK CNNscore 0.595378041
REMARK CNNaffinity 7.26886702
REMARK  6 active torsions:
REMARK  status: ('A' for Active; 'I' for Inactive)
REMARK    1  A    between atoms: C3_3  and  O1_4 
REMARK    2  A    between atoms: N1_14  and  O2_16 
REMARK    3  A    between atoms: O2_16  and  C13_17 
REMARK    4  A    between atoms: C13_17  and  C14_18 
REMARK       I    between atoms: C14_18  and  N2_20 
REMARK    5  A    between atoms: N2_20  and  C15_21 
REMARK    6  A    between atoms: C15_21  and  C17_23 
ROOT
HETATM    1  C1  UNL     1       2.214  51.148 -27.331  1.00  0.00     0.015 C 
HETATM    2  C2  UNL     1       1.194  51.776 -27.254  1.00  0.00    -0.078 C 
HETATM    3  C3  UNL     1      -0.071  52.537 -27.160  1.00  0.00     0.128 C 
HETATM    4  C4  UNL     1       0.177  53.904 -26.466  1.00  0.00     0.052 C 
HETATM    5  C5  UNL     1      -0.276  53.744 -24.999  1.00  0.00     0.010 C 
HETATM    6  C6  UNL     1      -0.603  52.259 -24.853  1.00  0.00     0.002 C 
HETATM    7  C7  UNL     1      -1.518  51.813 -23.705  1.00  0.00    -0.004 C 
HETATM    8  C8  UNL     1      -0.956  52.246 -22.345  1.00  0.00     0.010 C 
HETATM    9  C9  UNL     1      -1.873  51.796 -21.215  1.00  0.00     0.035 C 
HETATM   10  C10 UNL     1      -2.113  50.306 -21.232  1.00  0.00    -0.069 C 
HETATM   11  C11 UNL     1      -1.993  49.608 -20.089  1.00  0.00     0.030 C 
HETATM   12  C12 UNL     1      -2.367  48.175 -19.994  1.00  0.00     0.032 C 
HETATM   13  N1  UNL     1      -2.310  47.616 -18.816  1.00  0.00    -0.271 N 
ATOM     14  H1  UNL     1      -1.999  48.096 -17.972  1.00  0.00     0.194 HD
HETATM   15  C23 UNL     1      -2.868  47.484 -21.244  1.00  0.00     0.060 C 
HETATM   16  C24 UNL     1      -2.322  48.144 -22.504  1.00  0.00     0.020 C 
HETATM   17  C25 UNL     1      -2.541  49.683 -22.565  1.00  0.00    -0.016 C 
HETATM   18  C26 UNL     1      -4.044  49.981 -22.770  1.00  0.00     0.020 C 
HETATM   19  C27 UNL     1      -1.666  50.259 -23.749  1.00  0.00     0.002 C 
HETATM   20  C28 UNL     1      -2.117  49.775 -25.154  1.00  0.00     0.007 C 
HETATM   21  C29 UNL     1      -1.259  50.334 -26.304  1.00  0.00     0.014 C 
HETATM   22  C30 UNL     1      -1.145  51.869 -26.247  1.00  0.00     0.003 C 
HETATM   23  C31 UNL     1      -2.543  52.480 -26.563  1.00  0.00     0.020 C 
ENDROOT
BRANCH   3  24
HETATM   24  O1  UNL     1      -0.559  52.745 -28.479  1.00  0.00    -0.377 OA
HETATM   25  H2  UNL     1       0.192  53.063 -29.008  1.00  0.00     0.211 HD
ENDBRANCH   3  24
BRANCH  13  26
HETATM   26  O2  UNL     1      -2.730  46.277 -18.849  1.00  0.00    -0.271 OA
BRANCH  26  27
HETATM   27  C13 UNL     1      -3.130  45.883 -17.539  1.00  0.00     0.303 C 
BRANCH  27  28
HETATM   28  C14 UNL     1      -3.033  44.373 -17.389  1.00  0.00     0.244 C 
HETATM   29  O3  UNL     1      -3.612  43.593 -18.138  1.00  0.00    -0.271 OA
HETATM   30  N2  UNL     1      -2.296  43.969 -16.294  1.00  0.00    -0.351 N 
HETATM   31  H16 UNL     1      -1.693  44.665 -15.864  1.00  0.00     0.163 HD
BRANCH  30  32
HETATM   32  C15 UNL     1      -2.050  42.567 -16.002  1.00  0.00     0.113 C 
HETATM   33  C16 UNL     1      -2.013  42.297 -14.494  1.00  0.00     0.037 C 
BRANCH  32  34
HETATM   34  C17 UNL     1      -0.757  42.110 -16.662  1.00  0.00    -0.036 A 
HETATM   35  C18 UNL     1      -0.747  41.090 -17.629  1.00  0.00     0.009 A 
HETATM   36  C19 UNL     1       0.447  40.698 -18.240  1.00  0.00     0.001 A 
HETATM   37  C20 UNL     1       1.645  41.323 -17.898  1.00  0.00     0.000 A 
HETATM   38  C21 UNL     1       1.652  42.330 -16.936  1.00  0.00     0.001 A 
HETATM   39  C22 UNL     1       0.461  42.717 -16.318  1.00  0.00     0.009 A 
ENDBRANCH  32  34
ENDBRANCH  30  32
ENDBRANCH  27  28
ENDBRANCH  26  27
ENDBRANCH  13  26
TORSDOF 6
ENDMDL
MODEL 2
REMARK minimizedAffinity -10.2840137
REMARK CNNscore 0.326905608
REMARK CNNaffinity 7.07136011
REMARK  6 active torsions:
REMARK  status: ('A' for Active; 'I' for Inactive)
REMARK    1  A    between atoms: C3_3  and  O1_4 
REMARK    2  A    between atoms: N1_14  and  O2_16 
REMARK    3  A    between atoms: O2_16  and  C13_17 
REMARK    4  A    between atoms: C13_17  and  C14_18 
REMARK       I    between atoms: C14_18  and  N2_20 
REMARK    5  A    between atoms: N2_20  and  C15_21 
REMARK    6  A    between atoms: C15_21  and  C17_23 
ROOT
HETATM    1  C1  UNL     1       2.047  50.846 -26.340  1.00  0.00     0.015 C 
HETATM    2  C2  UNL     1       1.125  51.580 -26.112  1.00  0.00    -0.078 C 
HETATM    3  C3  UNL     1      -0.019  52.475 -25.826  1.00  0.00     0.128 C 
HETATM    4  C4  UNL     1       0.487  53.909 -25.513  1.00  0.00     0.052 C 
HETATM    5  C5  UNL     1       0.472  54.058 -23.977  1.00  0.00     0.010 C 
HETATM    6  C6  UNL     1       0.128  52.664 -23.454  1.00  0.00     0.002 C 
HETATM    7  C7  UNL     1      -0.434  52.525 -22.034  1.00  0.00    -0.004 C 
HETATM    8  C8  UNL     1       0.518  53.130 -20.996  1.00  0.00     0.010 C 
HETATM    9  C9  UNL     1      -0.052  52.985 -19.591  1.00  0.00     0.035 C 
HETATM   10  C10 UNL     1      -0.360  51.548 -19.245  1.00  0.00    -0.069 C 
HETATM   11  C11 UNL     1       0.052  51.054 -18.064  1.00  0.00     0.030 C 
HETATM   12  C12 UNL     1      -0.349  49.707 -17.587  1.00  0.00     0.032 C 
HETATM   13  N1  UNL     1       0.020  49.361 -16.384  1.00  0.00    -0.271 N 
ATOM     14  H1  UNL     1       0.587  49.947 -15.770  1.00  0.00     0.194 HD
HETATM   15  C23 UNL     1      -1.224  48.862 -18.487  1.00  0.00     0.060 C 
HETATM   16  C24 UNL     1      -1.036  49.229 -19.954  1.00  0.00     0.020 C 
HETATM   17  C25 UNL     1      -1.187  50.748 -20.257  1.00  0.00    -0.016 C 
HETATM   18  C26 UNL     1      -2.668  51.160 -20.095  1.00  0.00     0.020 C 
HETATM   19  C27 UNL     1      -0.666  51.012 -21.726  1.00  0.00     0.002 C 
HETATM   20  C28 UNL     1      -1.529  50.338 -22.827  1.00  0.00     0.007 C 
HETATM   21  C29 UNL     1      -1.015  50.592 -24.256  1.00  0.00     0.014 C 
HETATM   22  C30 UNL     1      -0.813  52.093 -24.539  1.00  0.00     0.003 C 
HETATM   23  C31 UNL     1      -2.211  52.781 -24.572  1.00  0.00     0.020 C 
ENDROOT
BRANCH   3  24
HETATM   24  O1  UNL     1      -0.858  52.496 -26.974  1.00  0.00    -0.377 OA
HETATM   25  H2  UNL     1      -0.278  52.635 -27.741  1.00  0.00     0.211 HD
ENDBRANCH   3  24
BRANCH  13  26
HETATM   26  O2  UNL     1      -0.457  48.088 -16.033  1.00  0.00    -0.271 OA
BRANCH  26  27
HETATM   27  C13 UNL     1      -0.365  47.931 -14.620  1.00  0.00     0.303 C 
BRANCH  27  28
HETATM   28  C14 UNL     1       0.687  48.869 -14.051  1.00  0.00     0.244 C 
HETATM   29  O3  UNL     1       1.803  48.488 -13.715  1.00  0.00    -0.271 OA
HETATM   30  N2  UNL     1       0.244  50.165 -13.881  1.00  0.00    -0.351 N 
HETATM   31  H16 UNL     1      -0.606  50.428 -14.372  1.00  0.00     0.163 HD
BRANCH  30  32
HETATM   32  C15 UNL     1       1.113  51.222 -13.391  1.00  0.00     0.113 C 
HETATM   33  C16 UNL     1       0.313  52.420 -12.869  1.00  0.00     0.037 C 
BRANCH  32  34
HETATM   34  C17 UNL     1       2.082  51.655 -14.481  1.00  0.00    -0.036 A 
HETATM   35  C18 UNL     1       1.661  52.432 -15.573  1.00  0.00     0.009 A 
HETATM   36  C19 UNL     1       2.570  52.839 -16.553  1.00  0.00     0.001 A 
HETATM   37  C20 UNL     1       3.913  52.478 -16.453  1.00  0.00     0.000 A 
HETATM   38  C21 UNL     1       4.344  51.700 -15.380  1.00  0.00     0.001 A 
HETATM   39  C22 UNL     1       3.435  51.287 -14.404  1.00  0.00     0.009 A 
ENDBRANCH  32  34
ENDBRANCH  30  32
ENDBRANCH  27  28
ENDBRANCH  26  27
ENDBRANCH  13  26
TORSDOF 6
ENDMDL
MODEL 3
REMARK minimizedAffinity -8.19324112
REMARK CNNscore 0.305523425
REMARK CNNaffinity 6.10064077
REMARK  6 active torsions:
REMARK  status: ('A' for Active; 'I' for Inactive)
REMARK    1  A    between atoms: C3_3  and  O1_4 
REMARK    2  A    between atoms: N1_14  and  O2_16 
REMARK    3  A    between atoms: O2_16  and  C13_17 
REMARK    4  A    between atoms: C13_17  and  C14_18 
REMARK       I    between atoms: C14_18  and  N2_20 
REMARK    5  A    between atoms: N2_20  and  C15_21 
REMARK    6  A    between atoms: C15_21  and  C17_23 
ROOT
HETATM    1  C1  UNL     1      -6.549  47.728 -34.762  1.00  0.00     0.015 C 
HETATM    2  C2  UNL     1      -5.958  47.665 -33.719  1.00  0.00    -0.078 C 
HETATM    3  C3  UNL     1      -5.239  47.598 -32.427  1.00  0.00     0.128 C 
HETATM    4  C4  UNL     1      -4.578  46.203 -32.254  1.00  0.00     0.052 C 
HETATM    5  C5  UNL     1      -5.502  45.387 -31.326  1.00  0.00     0.010 C 
HETATM    6  C6  UNL     1      -6.738  46.266 -31.137  1.00  0.00     0.002 C 
HETATM    7  C7  UNL     1      -7.647  46.012 -29.928  1.00  0.00    -0.004 C 
HETATM    8  C8  UNL     1      -8.162  44.568 -29.912  1.00  0.00     0.010 C 
HETATM    9  C9  UNL     1      -9.063  44.330 -28.707  1.00  0.00     0.035 C 
HETATM   10  C10 UNL     1     -10.219  45.300 -28.658  1.00  0.00    -0.069 C 
HETATM   11  C11 UNL     1     -11.461  44.832 -28.437  1.00  0.00     0.030 C 
HETATM   12  C12 UNL     1     -12.619  45.734 -28.217  1.00  0.00     0.032 C 
HETATM   13  N1  UNL     1     -13.760  45.181 -27.910  1.00  0.00    -0.271 N 
ATOM     14  H1  UNL     1     -13.907  44.174 -27.842  1.00  0.00     0.194 HD
HETATM   15  C23 UNL     1     -12.382  47.227 -28.279  1.00  0.00     0.060 C 
HETATM   16  C24 UNL     1     -11.189  47.568 -29.164  1.00  0.00     0.020 C 
HETATM   17  C25 UNL     1      -9.889  46.789 -28.809  1.00  0.00    -0.016 C 
HETATM   18  C26 UNL     1      -9.338  47.295 -27.457  1.00  0.00     0.020 C 
HETATM   19  C27 UNL     1      -8.850  47.006 -29.981  1.00  0.00     0.002 C 
HETATM   20  C28 UNL     1      -8.362  48.474 -30.121  1.00  0.00     0.007 C 
HETATM   21  C29 UNL     1      -7.355  48.683 -31.266  1.00  0.00     0.014 C 
HETATM   22  C30 UNL     1      -6.170  47.702 -31.180  1.00  0.00     0.003 C 
HETATM   23  C31 UNL     1      -5.317  48.070 -29.929  1.00  0.00     0.020 C 
ENDROOT
BRANCH   3  24
HETATM   24  O1  UNL     1      -4.243  48.612 -32.425  1.00  0.00    -0.377 OA
HETATM   25  H2  UNL     1      -3.776  48.546 -33.275  1.00  0.00     0.211 HD
ENDBRANCH   3  24
BRANCH  13  26
HETATM   26  O2  UNL     1     -14.763  46.137 -27.683  1.00  0.00    -0.271 OA
BRANCH  26  27
HETATM   27  C13 UNL     1     -15.574  45.710 -26.592  1.00  0.00     0.303 C 
BRANCH  27  28
HETATM   28  C14 UNL     1     -15.047  46.282 -25.286  1.00  0.00     0.244 C 
HETATM   29  O3  UNL     1     -14.330  47.276 -25.238  1.00  0.00    -0.271 OA
HETATM   30  N2  UNL     1     -15.389  45.538 -24.175  1.00  0.00    -0.351 N 
HETATM   31  H16 UNL     1     -16.143  44.865 -24.286  1.00  0.00     0.163 HD
BRANCH  30  32
HETATM   32  C15 UNL     1     -15.019  45.942 -22.829  1.00  0.00     0.113 C 
HETATM   33  C16 UNL     1     -14.169  44.877 -22.129  1.00  0.00     0.037 C 
BRANCH  32  34
HETATM   34  C17 UNL     1     -16.262  46.262 -22.013  1.00  0.00    -0.036 A 
HETATM   35  C18 UNL     1     -17.552  46.094 -22.544  1.00  0.00     0.009 A 
HETATM   36  C19 UNL     1     -18.684  46.372 -21.773  1.00  0.00     0.001 A 
HETATM   37  C20 UNL     1     -18.541  46.817 -20.460  1.00  0.00     0.000 A 
HETATM   38  C21 UNL     1     -17.269  46.997 -19.922  1.00  0.00     0.001 A 
HETATM   39  C22 UNL     1     -16.137  46.727 -20.695  1.00  0.00     0.009 A 
ENDBRANCH  32  34
ENDBRANCH  30  32
ENDBRANCH  27  28
ENDBRANCH  26  27
ENDBRANCH  13  26
TORSDOF 6
ENDMDL
MODEL 4
REMARK minimizedAffinity -8.08182049
REMARK CNNscore 0.280440867
REMARK CNNaffinity 6.79960299
REMARK  6 active torsions:
REMARK  status: ('A' for Active; 'I' for Inactive)
REMARK    1  A    between atoms: C3_3  and  O1_4 
REMARK    2  A    between atoms: N1_14  and  O2_16 
REMARK    3  A    between atoms: O2_16  and  C13_17 
REMARK    4  A    between atoms: C13_17  and  C14_18 
REMARK       I    between atoms: C14_18  and  N2_20 
REMARK    5  A    between atoms: N2_20  and  C15_21 
REMARK    6  A    between atoms: C15_21  and  C17_23 
ROOT
HETATM    1  C1  UNL     1       2.251  50.962 -26.176  1.00  0.00     0.015 C 
HETATM    2  C2  UNL     1       1.387  51.736 -25.866  1.00  0.00    -0.078 C 
HETATM    3  C3  UNL     1       0.313  52.680 -25.485  1.00  0.00     0.128 C 
HETATM    4  C4  UNL     1       0.863  53.751 -24.505  1.00  0.00     0.052 C 
HETATM    5  C5  UNL     1       0.435  53.316 -23.088  1.00  0.00     0.010 C 
HETATM    6  C6  UNL     1      -0.190  51.935 -23.277  1.00  0.00     0.002 C 
HETATM    7  C7  UNL     1      -1.140  51.400 -22.198  1.00  0.00    -0.004 C 
HETATM    8  C8  UNL     1      -0.456  51.358 -20.826  1.00  0.00     0.010 C 
HETATM    9  C9  UNL     1      -1.409  50.823 -19.764  1.00  0.00     0.035 C 
HETATM   10  C10 UNL     1      -1.956  49.462 -20.120  1.00  0.00    -0.069 C 
HETATM   11  C11 UNL     1      -1.947  48.488 -19.192  1.00  0.00     0.030 C 
HETATM   12  C12 UNL     1      -2.609  47.178 -19.414  1.00  0.00     0.032 C 
HETATM   13  N1  UNL     1      -2.631  46.340 -18.415  1.00  0.00    -0.271 N 
ATOM     14  H1  UNL     1      -2.199  46.520 -17.509  1.00  0.00     0.194 HD
HETATM   15  C23 UNL     1      -3.283  46.936 -20.747  1.00  0.00     0.060 C 
HETATM   16  C24 UNL     1      -2.653  47.774 -21.853  1.00  0.00     0.020 C 
HETATM   17  C25 UNL     1      -2.548  49.292 -21.523  1.00  0.00    -0.016 C 
HETATM   18  C26 UNL     1      -3.961  49.917 -21.524  1.00  0.00     0.020 C 
HETATM   19  C27 UNL     1      -1.611  49.967 -22.602  1.00  0.00     0.002 C 
HETATM   20  C28 UNL     1      -2.198  49.951 -24.040  1.00  0.00     0.007 C 
HETATM   21  C29 UNL     1      -1.281  50.605 -25.089  1.00  0.00     0.014 C 
HETATM   22  C30 UNL     1      -0.846  52.024 -24.673  1.00  0.00     0.003 C 
HETATM   23  C31 UNL     1      -2.096  52.953 -24.715  1.00  0.00     0.020 C 
ENDROOT
BRANCH   3  24
HETATM   24  O1  UNL     1      -0.164  53.304 -26.670  1.00  0.00    -0.377 OA
HETATM   25  H2  UNL     1       0.619  53.594 -27.168  1.00  0.00     0.211 HD
ENDBRANCH   3  24
BRANCH  13  26
HETATM   26  O2  UNL     1      -3.322  45.160 -18.735  1.00  0.00    -0.271 OA
BRANCH  26  27
HETATM   27  C13 UNL     1      -4.638  45.231 -18.193  1.00  0.00     0.303 C 
BRANCH  27  28
HETATM   28  C14 UNL     1      -5.510  44.131 -18.775  1.00  0.00     0.244 C 
HETATM   29  O3  UNL     1      -5.051  43.077 -19.202  1.00  0.00    -0.271 OA
HETATM   30  N2  UNL     1      -6.849  44.459 -18.844  1.00  0.00    -0.351 N 
HETATM   31  H16 UNL     1      -7.157  45.250 -18.286  1.00  0.00     0.163 HD
BRANCH  30  32
HETATM   32  C15 UNL     1      -7.850  43.524 -19.329  1.00  0.00     0.113 C 
HETATM   33  C16 UNL     1      -7.788  42.186 -18.585  1.00  0.00     0.037 C 
BRANCH  32  34
HETATM   34  C17 UNL     1      -7.695  43.315 -20.828  1.00  0.00    -0.036 A 
HETATM   35  C18 UNL     1      -7.529  42.033 -21.377  1.00  0.00     0.009 A 
HETATM   36  C19 UNL     1      -7.409  41.857 -22.758  1.00  0.00     0.001 A 
HETATM   37  C20 UNL     1      -7.459  42.960 -23.609  1.00  0.00     0.000 A 
HETATM   38  C21 UNL     1      -7.615  44.239 -23.079  1.00  0.00     0.001 A 
HETATM   39  C22 UNL     1      -7.726  44.416 -21.698  1.00  0.00     0.009 A 
ENDBRANCH  32  34
ENDBRANCH  30  32
ENDBRANCH  27  28
ENDBRANCH  26  27
ENDBRANCH  13  26
TORSDOF 6
ENDMDL
MODEL 5
REMARK minimizedAffinity -7.92724705
REMARK CNNscore 0.249720365
REMARK CNNaffinity 6.21595812
REMARK  6 active torsions:
REMARK  status: ('A' for Active; 'I' for Inactive)
REMARK    1  A    between atoms: C3_3  and  O1_4 
REMARK    2  A    between atoms: N1_14  and  O2_16 
REMARK    3  A    between atoms: O2_16  and  C13_17 
REMARK    4  A    between atoms: C13_17  and  C14_18 
REMARK       I    between atoms: C14_18  and  N2_20 
REMARK    5  A    between atoms: N2_20  and  C15_21 
REMARK    6  A    between atoms: C15_21  and  C17_23 
ROOT
HETATM    1  C1  UNL     1      -1.202  47.732 -21.131  1.00  0.00     0.015 C 
HETATM    2  C2  UNL     1      -2.193  48.270 -20.719  1.00  0.00    -0.078 C 
HETATM    3  C3  UNL     1      -3.415  48.940 -20.223  1.00  0.00     0.128 C 
HETATM    4  C4  UNL     1      -4.107  48.063 -19.145  1.00  0.00     0.052 C 
HETATM    5  C5  UNL     1      -5.273  47.335 -19.847  1.00  0.00     0.010 C 
HETATM    6  C6  UNL     1      -5.109  47.678 -21.327  1.00  0.00     0.002 C 
HETATM    7  C7  UNL     1      -6.321  47.535 -22.257  1.00  0.00    -0.004 C 
HETATM    8  C8  UNL     1      -6.884  46.109 -22.224  1.00  0.00     0.010 C 
HETATM    9  C9  UNL     1      -8.086  45.982 -23.152  1.00  0.00     0.035 C 
HETATM   10  C10 UNL     1      -7.758  46.384 -24.570  1.00  0.00    -0.069 C 
HETATM   11  C11 UNL     1      -8.137  45.585 -25.583  1.00  0.00     0.030 C 
HETATM   12  C12 UNL     1      -7.994  45.988 -27.004  1.00  0.00     0.032 C 
HETATM   13  N1  UNL     1      -8.484  45.186 -27.909  1.00  0.00    -0.271 N 
ATOM     14  H1  UNL     1      -8.929  44.292 -27.698  1.00  0.00     0.194 HD
HETATM   15  C23 UNL     1      -7.369  47.333 -27.305  1.00  0.00     0.060 C 
HETATM   16  C24 UNL     1      -6.426  47.773 -26.192  1.00  0.00     0.020 C 
HETATM   17  C25 UNL     1      -7.054  47.730 -24.768  1.00  0.00    -0.016 C 
HETATM   18  C26 UNL     1      -8.114  48.848 -24.640  1.00  0.00     0.020 C 
HETATM   19  C27 UNL     1      -5.891  47.905 -23.712  1.00  0.00     0.002 C 
HETATM   20  C28 UNL     1      -5.205  49.297 -23.760  1.00  0.00     0.007 C 
HETATM   21  C29 UNL     1      -4.069  49.462 -22.733  1.00  0.00     0.014 C 
HETATM   22  C30 UNL     1      -4.526  49.109 -21.305  1.00  0.00     0.003 C 
HETATM   23  C31 UNL     1      -5.546  50.188 -20.833  1.00  0.00     0.020 C 
ENDROOT
BRANCH   3  24
HETATM   24  O1  UNL     1      -3.035  50.190 -19.662  1.00  0.00    -0.377 OA
HETATM   25  H2  UNL     1      -2.275  50.016 -19.081  1.00  0.00     0.211 HD
ENDBRANCH   3  24
BRANCH  13  26
HETATM   26  O2  UNL     1      -8.327  45.698 -29.206  1.00  0.00    -0.271 OA
BRANCH  26  27
HETATM   27  C13 UNL     1      -9.552  46.297 -29.620  1.00  0.00     0.303 C 
BRANCH  27  28
HETATM   28  C14 UNL     1      -9.500  46.635 -31.101  1.00  0.00     0.244 C 
HETATM   29  O3  UNL     1     -10.505  46.696 -31.803  1.00  0.00    -0.271 OA
HETATM   30  N2  UNL     1      -8.220  46.793 -31.592  1.00  0.00    -0.351 N 
HETATM   31  H16 UNL     1      -7.480  46.929 -30.910  1.00  0.00     0.163 HD
BRANCH  30  32
HETATM   32  C15 UNL     1      -7.961  47.161 -32.974  1.00  0.00     0.113 C 
HETATM   33  C16 UNL     1      -8.604  46.177 -33.956  1.00  0.00     0.037 C 
BRANCH  32  34
HETATM   34  C17 UNL     1      -6.464  47.267 -33.220  1.00  0.00    -0.036 A 
HETATM   35  C18 UNL     1      -5.949  47.956 -34.331  1.00  0.00     0.009 A 
HETATM   36  C19 UNL     1      -4.570  48.061 -34.530  1.00  0.00     0.001 A 
HETATM   37  C20 UNL     1      -3.687  47.484 -33.619  1.00  0.00     0.000 A 
HETATM   38  C21 UNL     1      -4.182  46.790 -32.517  1.00  0.00     0.001 A 
HETATM   39  C22 UNL     1      -5.561  46.678 -32.321  1.00  0.00     0.009 A 
ENDBRANCH  32  34
ENDBRANCH  30  32
ENDBRANCH  27  28
ENDBRANCH  26  27
ENDBRANCH  13  26
TORSDOF 6
ENDMDL
MODEL 6
REMARK minimizedAffinity -9.29032421
REMARK CNNscore 0.239479795
REMARK CNNaffinity 6.69281149
REMARK  6 active torsions:
REMARK  status: ('A' for Active; 'I' for Inactive)
REMARK    1  A    between atoms: C3_3  and  O1_4 
REMARK    2  A    between atoms: N1_14  and  O2_16 
REMARK    3  A    between atoms: O2_16  and  C13_17 
REMARK    4  A    between atoms: C13_17  and  C14_18 
REMARK       I    between atoms: C14_18  and  N2_20 
REMARK    5  A    between atoms: N2_20  and  C15_21 
REMARK    6  A    between atoms: C15_21  and  C17_23 
ROOT
HETATM    1  C1  UNL     1       1.917  50.860 -26.372  1.00  0.00     0.015 C 
HETATM    2  C2  UNL     1       0.986  51.575 -26.122  1.00  0.00    -0.078 C 
HETATM    3  C3  UNL     1      -0.169  52.446 -25.808  1.00  0.00     0.128 C 
HETATM    4  C4  UNL     1       0.308  53.907 -25.582  1.00  0.00     0.052 C 
HETATM    5  C5  UNL     1       0.373  54.120 -24.055  1.00  0.00     0.010 C 
HETATM    6  C6  UNL     1       0.104  52.740 -23.458  1.00  0.00     0.002 C 
HETATM    7  C7  UNL     1      -0.373  52.644 -22.003  1.00  0.00    -0.004 C 
HETATM    8  C8  UNL     1       0.615  53.321 -21.047  1.00  0.00     0.010 C 
HETATM    9  C9  UNL     1       0.129  53.218 -19.607  1.00  0.00     0.035 C 
HETATM   10  C10 UNL     1      -0.113  51.789 -19.186  1.00  0.00    -0.069 C 
HETATM   11  C11 UNL     1       0.380  51.357 -18.011  1.00  0.00     0.030 C 
HETATM   12  C12 UNL     1       0.050  50.020 -17.458  1.00  0.00     0.032 C 
HETATM   13  N1  UNL     1       0.496  49.738 -16.265  1.00  0.00    -0.271 N 
ATOM     14  H1  UNL     1       1.077  50.365 -15.709  1.00  0.00     0.194 HD
HETATM   15  C23 UNL     1      -0.846  49.113 -18.272  1.00  0.00     0.060 C 
HETATM   16  C24 UNL     1      -0.752  49.423 -19.761  1.00  0.00     0.020 C 
HETATM   17  C25 UNL     1      -0.969  50.923 -20.116  1.00  0.00    -0.016 C 
HETATM   18  C26 UNL     1      -2.451  51.296 -19.887  1.00  0.00     0.020 C 
HETATM   19  C27 UNL     1      -0.539  51.139 -21.622  1.00  0.00     0.002 C 
HETATM   20  C28 UNL     1      -1.439  50.394 -22.644  1.00  0.00     0.007 C 
HETATM   21  C29 UNL     1      -1.014  50.603 -24.109  1.00  0.00     0.014 C 
HETATM   22  C30 UNL     1      -0.877  52.096 -24.463  1.00  0.00     0.003 C 
HETATM   23  C31 UNL     1      -2.296  52.739 -24.445  1.00  0.00     0.020 C 
ENDROOT
BRANCH   3  24
HETATM   24  O1  UNL     1      -1.071  52.394 -26.906  1.00  0.00    -0.377 OA
HETATM   25  H2  UNL     1      -0.539  52.518 -27.710  1.00  0.00     0.211 HD
ENDBRANCH   3  24
BRANCH  13  26
HETATM   26  O2  UNL     1       0.081  48.467 -15.837  1.00  0.00    -0.271 OA
BRANCH  26  27
HETATM   27  C13 UNL     1       0.870  48.073 -14.717  1.00  0.00     0.303 C 
BRANCH  27  28
HETATM   28  C14 UNL     1       0.508  46.661 -14.285  1.00  0.00     0.244 C 
HETATM   29  O3  UNL     1      -0.349  46.425 -13.441  1.00  0.00    -0.271 OA
HETATM   30  N2  UNL     1       1.282  45.684 -14.877  1.00  0.00    -0.351 N 
HETATM   31  H16 UNL     1       1.812  45.952 -15.701  1.00  0.00     0.163 HD
BRANCH  30  32
HETATM   32  C15 UNL     1       1.063  44.268 -14.629  1.00  0.00     0.113 C 
HETATM   33  C16 UNL     1       0.055  44.038 -13.499  1.00  0.00     0.037 C 
BRANCH  32  34
HETATM   34  C17 UNL     1       2.383  43.576 -14.323  1.00  0.00    -0.036 A 
HETATM   35  C18 UNL     1       2.693  42.315 -14.860  1.00  0.00     0.009 A 
HETATM   36  C19 UNL     1       3.919  41.704 -14.585  1.00  0.00     0.001 A 
HETATM   37  C20 UNL     1       4.853  42.346 -13.774  1.00  0.00     0.000 A 
HETATM   38  C21 UNL     1       4.557  43.592 -13.227  1.00  0.00     0.001 A 
HETATM   39  C22 UNL     1       3.329  44.201 -13.494  1.00  0.00     0.009 A 
ENDBRANCH  32  34
ENDBRANCH  30  32
ENDBRANCH  27  28
ENDBRANCH  26  27
ENDBRANCH  13  26
TORSDOF 6
ENDMDL
MODEL 7
REMARK minimizedAffinity -8.76971054
REMARK CNNscore 0.23048906
REMARK CNNaffinity 5.66745043
REMARK  6 active torsions:
REMARK  status: ('A' for Active; 'I' for Inactive)
REMARK    1  A    between atoms: C3_3  and  O1_4 
REMARK    2  A    between atoms: N1_14  and  O2_16 
REMARK    3  A    between atoms: O2_16  and  C13_17 
REMARK    4  A    between atoms: C13_17  and  C14_18 
REMARK       I    between atoms: C14_18  and  N2_20 
REMARK    5  A    between atoms: N2_20  and  C15_21 
REMARK    6  A    between atoms: C15_21  and  C17_23 
ROOT
HETATM    1  C1  UNL     1      -0.141  70.183 -39.256  1.00  0.00     0.015 C 
HETATM    2  C2  UNL     1       0.914  70.709 -39.029  1.00  0.00    -0.078 C 
HETATM    3  C3  UNL     1       2.214  71.352 -38.736  1.00  0.00     0.128 C 
HETATM    4  C4  UNL     1       3.068  71.447 -40.030  1.00  0.00     0.052 C 
HETATM    5  C5  UNL     1       4.083  70.286 -39.976  1.00  0.00     0.010 C 
HETATM    6  C6  UNL     1       3.672  69.466 -38.754  1.00  0.00     0.002 C 
HETATM    7  C7  UNL     1       4.703  68.528 -38.113  1.00  0.00    -0.004 C 
HETATM    8  C8  UNL     1       5.240  67.513 -39.128  1.00  0.00     0.010 C 
HETATM    9  C9  UNL     1       6.262  66.588 -38.478  1.00  0.00     0.035 C 
HETATM   10  C10 UNL     1       5.701  65.876 -37.271  1.00  0.00    -0.069 C 
HETATM   11  C11 UNL     1       5.886  64.550 -37.145  1.00  0.00     0.030 C 
HETATM   12  C12 UNL     1       5.506  63.811 -35.916  1.00  0.00     0.032 C 
HETATM   13  N1  UNL     1       5.821  62.546 -35.854  1.00  0.00    -0.271 N 
ATOM     14  H1  UNL     1       6.282  62.035 -36.608  1.00  0.00     0.194 HD
HETATM   15  C23 UNL     1       4.861  64.586 -34.788  1.00  0.00     0.060 C 
HETATM   16  C24 UNL     1       4.131  65.820 -35.304  1.00  0.00     0.020 C 
HETATM   17  C25 UNL     1       4.994  66.737 -36.219  1.00  0.00    -0.016 C 
HETATM   18  C26 UNL     1       6.078  67.438 -35.368  1.00  0.00     0.020 C 
HETATM   19  C27 UNL     1       4.034  67.782 -36.916  1.00  0.00     0.002 C 
HETATM   20  C28 UNL     1       3.372  68.780 -35.928  1.00  0.00     0.007 C 
HETATM   21  C29 UNL     1       2.434  69.792 -36.610  1.00  0.00     0.014 C 
HETATM   22  C30 UNL     1       3.125  70.527 -37.775  1.00  0.00     0.003 C 
HETATM   23  C31 UNL     1       4.228  71.457 -37.185  1.00  0.00     0.020 C 
ENDROOT
BRANCH   3  24
HETATM   24  O1  UNL     1       1.956  72.654 -38.228  1.00  0.00    -0.377 OA
HETATM   25  H2  UNL     1       1.306  73.063 -38.823  1.00  0.00     0.211 HD
ENDBRANCH   3  24
BRANCH  13  26
HETATM   26  O2  UNL     1       5.450  61.972 -34.628  1.00  0.00    -0.271 OA
BRANCH  26  27
HETATM   27  C13 UNL     1       5.826  60.597 -34.626  1.00  0.00     0.303 C 
BRANCH  27  28
HETATM   28  C14 UNL     1       7.340  60.463 -34.652  1.00  0.00     0.244 C 
HETATM   29  O3  UNL     1       7.919  59.607 -35.312  1.00  0.00    -0.271 OA
HETATM   30  N2  UNL     1       7.991  61.344 -33.812  1.00  0.00    -0.351 N 
HETATM   31  H16 UNL     1       7.454  62.138 -33.473  1.00  0.00     0.163 HD
BRANCH  30  32
HETATM   32  C15 UNL     1       9.440  61.404 -33.727  1.00  0.00     0.113 C 
HETATM   33  C16 UNL     1       9.917  61.620 -32.287  1.00  0.00     0.037 C 
BRANCH  32  34
HETATM   34  C17 UNL     1       9.978  62.494 -34.642  1.00  0.00    -0.036 A 
HETATM   35  C18 UNL     1      11.354  62.763 -34.734  1.00  0.00     0.009 A 
HETATM   36  C19 UNL     1      11.831  63.754 -35.596  1.00  0.00     0.001 A 
HETATM   37  C20 UNL     1      10.941  64.485 -36.381  1.00  0.00     0.000 A 
HETATM   38  C21 UNL     1       9.573  64.235 -36.295  1.00  0.00     0.001 A 
HETATM   39  C22 UNL     1       9.094  63.251 -35.427  1.00  0.00     0.009 A 
ENDBRANCH  32  34
ENDBRANCH  30  32
ENDBRANCH  27  28
ENDBRANCH  26  27
ENDBRANCH  13  26
TORSDOF 6
ENDMDL
MODEL 8
REMARK minimizedAffinity -7.94058323
REMARK CNNscore 0.225325257
REMARK CNNaffinity 5.87435961
REMARK  6 active torsions:
REMARK  status: ('A' for Active; 'I' for Inactive)
REMARK    1  A    between atoms: C3_3  and  O1_4 
REMARK    2  A    between atoms: N1_14  and  O2_16 
REMARK    3  A    between atoms: O2_16  and  C13_17 
REMARK    4  A    between atoms: C13_17  and  C14_18 
REMARK       I    between atoms: C14_18  and  N2_20 
REMARK    5  A    between atoms: N2_20  and  C15_21 
REMARK    6  A    between atoms: C15_21  and  C17_23 
ROOT
HETATM    1  C1  UNL     1      -5.826  43.588 -31.945  1.00  0.00     0.015 C 
HETATM    2  C2  UNL     1      -6.000  44.771 -32.054  1.00  0.00    -0.078 C 
HETATM    3  C3  UNL     1      -6.227  46.227 -32.191  1.00  0.00     0.128 C 
HETATM    4  C4  UNL     1      -5.301  47.008 -31.219  1.00  0.00     0.052 C 
HETATM    5  C5  UNL     1      -6.165  47.393 -30.000  1.00  0.00     0.010 C 
HETATM    6  C6  UNL     1      -7.497  46.680 -30.226  1.00  0.00     0.002 C 
HETATM    7  C7  UNL     1      -8.743  47.191 -29.491  1.00  0.00    -0.004 C 
HETATM    8  C8  UNL     1      -8.531  47.195 -27.972  1.00  0.00     0.010 C 
HETATM    9  C9  UNL     1      -9.775  47.704 -27.255  1.00  0.00     0.035 C 
HETATM   10  C10 UNL     1     -11.006  46.906 -27.611  1.00  0.00    -0.069 C 
HETATM   11  C11 UNL     1     -11.818  46.477 -26.627  1.00  0.00     0.030 C 
HETATM   12  C12 UNL     1     -13.123  45.828 -26.906  1.00  0.00     0.032 C 
HETATM   13  N1  UNL     1     -13.881  45.541 -25.883  1.00  0.00    -0.271 N 
ATOM     14  H1  UNL     1     -13.617  45.709 -24.912  1.00  0.00     0.194 HD
HETATM   15  C23 UNL     1     -13.523  45.621 -28.350  1.00  0.00     0.060 C 
HETATM   16  C24 UNL     1     -12.304  45.515 -29.259  1.00  0.00     0.020 C 
HETATM   17  C25 UNL     1     -11.286  46.681 -29.100  1.00  0.00    -0.016 C 
HETATM   18  C26 UNL     1     -11.899  47.980 -29.672  1.00  0.00     0.020 C 
HETATM   19  C27 UNL     1      -9.957  46.281 -29.856  1.00  0.00     0.002 C 
HETATM   20  C28 UNL     1     -10.126  46.157 -31.395  1.00  0.00     0.007 C 
HETATM   21  C29 UNL     1      -8.831  45.761 -32.128  1.00  0.00     0.014 C 
HETATM   22  C30 UNL     1      -7.654  46.687 -31.763  1.00  0.00     0.003 C 
HETATM   23  C31 UNL     1      -7.939  48.101 -32.352  1.00  0.00     0.020 C 
ENDROOT
BRANCH   3  24
HETATM   24  O1  UNL     1      -5.938  46.592 -33.535  1.00  0.00    -0.377 OA
HETATM   25  H2  UNL     1      -5.085  46.183 -33.758  1.00  0.00     0.211 HD
ENDBRANCH   3  24
BRANCH  13  26
HETATM   26  O2  UNL     1     -15.103  44.975 -26.278  1.00  0.00    -0.271 OA
BRANCH  26  27
HETATM   27  C13 UNL     1     -15.416  43.891 -25.406  1.00  0.00     0.303 C 
BRANCH  27  28
HETATM   28  C14 UNL     1     -16.756  44.128 -24.728  1.00  0.00     0.244 C 
HETATM   29  O3  UNL     1     -17.615  43.258 -24.635  1.00  0.00    -0.271 OA
HETATM   30  N2  UNL     1     -16.939  45.426 -24.296  1.00  0.00    -0.351 N 
HETATM   31  H16 UNL     1     -16.109  46.009 -24.229  1.00  0.00     0.163 HD
BRANCH  30  32
HETATM   32  C15 UNL     1     -18.135  45.843 -23.585  1.00  0.00     0.113 C 
HETATM   33  C16 UNL     1     -18.858  46.984 -24.307  1.00  0.00     0.037 C 
BRANCH  32  34
HETATM   34  C17 UNL     1     -17.788  46.242 -22.158  1.00  0.00    -0.036 A 
HETATM   35  C18 UNL     1     -16.457  46.432 -21.752  1.00  0.00     0.009 A 
HETATM   36  C19 UNL     1     -16.158  46.820 -20.443  1.00  0.00     0.001 A 
HETATM   37  C20 UNL     1     -17.185  47.027 -19.524  1.00  0.00     0.000 A 
HETATM   38  C21 UNL     1     -18.510  46.835 -19.910  1.00  0.00     0.001 A 
HETATM   39  C22 UNL     1     -18.810  46.440 -21.216  1.00  0.00     0.009 A 
ENDBRANCH  32  34
ENDBRANCH  30  32
ENDBRANCH  27  28
ENDBRANCH  26  27
ENDBRANCH  13  26
TORSDOF 6
ENDMDL
MODEL 9
REMARK minimizedAffinity -8.45007229
REMARK CNNscore 0.224711403
REMARK CNNaffinity 5.80642128
REMARK  6 active torsions:
REMARK  status: ('A' for Active; 'I' for Inactive)
REMARK    1  A    between atoms: C3_3  and  O1_4 
REMARK    2  A    between atoms: N1_14  and  O2_16 
REMARK    3  A    between atoms: O2_16  and  C13_17 
REMARK    4  A    between atoms: C13_17  and  C14_18 
REMARK       I    between atoms: C14_18  and  N2_20 
REMARK    5  A    between atoms: N2_20  and  C15_21 
REMARK    6  A    between atoms: C15_21  and  C17_23 
ROOT
HETATM    1  C1  UNL     1      -3.500  52.655 -23.860  1.00  0.00     0.015 C 
HETATM    2  C2  UNL     1      -3.047  51.549 -23.748  1.00  0.00    -0.078 C 
HETATM    3  C3  UNL     1      -2.490  50.186 -23.596  1.00  0.00     0.128 C 
HETATM    4  C4  UNL     1      -2.716  49.367 -24.895  1.00  0.00     0.052 C 
HETATM    5  C5  UNL     1      -3.941  48.463 -24.640  1.00  0.00     0.010 C 
HETATM    6  C6  UNL     1      -4.479  48.910 -23.282  1.00  0.00     0.002 C 
HETATM    7  C7  UNL     1      -5.378  47.952 -22.491  1.00  0.00    -0.004 C 
HETATM    8  C8  UNL     1      -6.609  47.542 -23.307  1.00  0.00     0.010 C 
HETATM    9  C9  UNL     1      -7.493  46.591 -22.509  1.00  0.00     0.035 C 
HETATM   10  C10 UNL     1      -7.914  47.179 -21.183  1.00  0.00    -0.069 C 
HETATM   11  C11 UNL     1      -9.206  47.114 -20.816  1.00  0.00     0.030 C 
HETATM   12  C12 UNL     1      -9.667  47.523 -19.466  1.00  0.00     0.032 C 
HETATM   13  N1  UNL     1     -10.923  47.326 -19.175  1.00  0.00    -0.271 N 
ATOM     14  H1  UNL     1     -11.606  46.937 -19.826  1.00  0.00     0.194 HD
HETATM   15  C23 UNL     1      -8.639  48.060 -18.494  1.00  0.00     0.060 C 
HETATM   16  C24 UNL     1      -7.456  48.688 -19.221  1.00  0.00     0.020 C 
HETATM   17  C25 UNL     1      -6.810  47.771 -20.301  1.00  0.00    -0.016 C 
HETATM   18  C26 UNL     1      -6.073  46.602 -19.609  1.00  0.00     0.020 C 
HETATM   19  C27 UNL     1      -5.823  48.651 -21.168  1.00  0.00     0.002 C 
HETATM   20  C28 UNL     1      -4.601  49.188 -20.374  1.00  0.00     0.007 C 
HETATM   21  C29 UNL     1      -3.646  50.048 -21.220  1.00  0.00     0.014 C 
HETATM   22  C30 UNL     1      -3.207  49.328 -22.510  1.00  0.00     0.003 C 
HETATM   23  C31 UNL     1      -2.296  48.126 -22.117  1.00  0.00     0.020 C 
ENDROOT
BRANCH   3  24
HETATM   24  O1  UNL     1      -1.097  50.307 -23.335  1.00  0.00    -0.377 OA
HETATM   25  H2  UNL     1      -0.744  50.935 -23.988  1.00  0.00     0.211 HD
ENDBRANCH   3  24
BRANCH  13  26
HETATM   26  O2  UNL     1     -11.224  47.711 -17.859  1.00  0.00    -0.271 OA
BRANCH  26  27
HETATM   27  C13 UNL     1     -12.165  46.792 -17.310  1.00  0.00     0.303 C 
BRANCH  27  28
HETATM   28  C14 UNL     1     -13.572  47.359 -17.399  1.00  0.00     0.244 C 
HETATM   29  O3  UNL     1     -14.352  47.351 -16.453  1.00  0.00    -0.271 OA
HETATM   30  N2  UNL     1     -13.909  47.814 -18.658  1.00  0.00    -0.351 N 
HETATM   31  H16 UNL     1     -13.146  47.971 -19.310  1.00  0.00     0.163 HD
BRANCH  30  32
HETATM   32  C15 UNL     1     -15.194  48.433 -18.938  1.00  0.00     0.113 C 
HETATM   33  C16 UNL     1     -15.609  49.409 -17.832  1.00  0.00     0.037 C 
BRANCH  32  34
HETATM   34  C17 UNL     1     -16.260  47.367 -19.143  1.00  0.00    -0.036 A 
HETATM   35  C18 UNL     1     -15.921  46.017 -19.339  1.00  0.00     0.009 A 
HETATM   36  C19 UNL     1     -16.913  45.048 -19.505  1.00  0.00     0.001 A 
HETATM   37  C20 UNL     1     -18.258  45.413 -19.473  1.00  0.00     0.000 A 
HETATM   38  C21 UNL     1     -18.610  46.748 -19.288  1.00  0.00     0.001 A 
HETATM   39  C22 UNL     1     -17.618  47.719 -19.130  1.00  0.00     0.009 A 
ENDBRANCH  32  34
ENDBRANCH  30  32
ENDBRANCH  27  28
ENDBRANCH  26  27
ENDBRANCH  13  26
TORSDOF 6
ENDMDL
