MODEL 1
REMARK minimizedAffinity -9.86869812
REMARK CNNscore 0.678371787
REMARK CNNaffinity 7.25264883
REMARK  5 active torsions:
REMARK  status: ('A' for Active; 'I' for Inactive)
REMARK    1  A    between atoms: C5_5  and  C6_6 
REMARK    2  A    between atoms: C6_6  and  C7_8 
REMARK    3  A    between atoms: C7_8  and  O2_9 
REMARK    4  A    between atoms: O2_9  and  C8_10 
REMARK    5  A    between atoms: C14_17  and  C15_18 
ROOT
HETATM    1  C8  UNL     1      -1.641  50.229 -22.867  1.00  0.00     0.093 A 
HETATM    2  C9  UNL     1      -0.893  51.390 -23.061  1.00  0.00     0.076 A 
HETATM    3  C10 UNL     1      -0.223  51.969 -21.980  1.00  0.00     0.093 A 
HETATM    4  C11 UNL     1      -0.265  51.428 -20.697  1.00  0.00     0.011 A 
HETATM    5  C12 UNL     1      -1.015  50.265 -20.503  1.00  0.00     0.042 A 
HETATM    6  C13 UNL     1      -1.693  49.673 -21.576  1.00  0.00     0.068 A 
HETATM    7 CL1  UNL     1      -2.607  48.238 -21.255  1.00  0.00    -0.081 Cl
HETATM    8  C14 UNL     1       0.472  52.091 -19.611  1.00  0.00    -0.007 A 
HETATM    9  C21 UNL     1       1.158  53.206 -19.906  1.00  0.00     0.095 A 
HETATM   10  C22 UNL     1       1.206  53.796 -21.252  1.00  0.00     0.289 A 
HETATM   11  O3  UNL     1       1.839  54.825 -21.463  1.00  0.00    -0.260 OA
HETATM   12  O4  UNL     1       0.507  53.142 -22.251  1.00  0.00    -0.275 OA
ENDROOT
BRANCH   1  13
HETATM   13  O2  UNL     1      -2.333  49.569 -23.848  1.00  0.00    -0.342 OA
BRANCH  13  14
HETATM   14  C7  UNL     1      -2.860  50.298 -24.942  1.00  0.00     0.254 C 
BRANCH  14  15
HETATM   15  C6  UNL     1      -2.401  49.845 -26.334  1.00  0.00     0.155 C 
HETATM   16  O1  UNL     1      -2.712  48.754 -26.814  1.00  0.00    -0.295 OA
BRANCH  15  17
HETATM   17  C5  UNL     1      -1.535  50.836 -27.104  1.00  0.00     0.062 C 
HETATM   18  C4  UNL     1      -0.097  50.801 -26.573  1.00  0.00     0.049 C 
HETATM   19  C2  UNL     1       0.707  52.073 -26.923  1.00  0.00     0.054 C 
HETATM   20  C1  UNL     1       2.112  51.677 -27.402  1.00  0.00     0.045 C 
HETATM   21  C3  UNL     1       0.866  53.007 -25.713  1.00  0.00     0.045 C 
HETATM   22  O5  UNL     1       0.093  52.749 -28.026  1.00  0.00    -0.381 OA
HETATM   23  C24 UNL     1      -1.228  53.234 -27.792  1.00  0.00     0.169 C 
HETATM   24  C23 UNL     1      -2.104  52.249 -27.029  1.00  0.00     0.038 C 
ENDBRANCH  15  17
ENDBRANCH  14  15
ENDBRANCH  13  14
ENDBRANCH   1  13
BRANCH   8  25
HETATM   25  C15 UNL     1       0.539  51.634 -18.211  1.00  0.00    -0.025 A 
HETATM   26  C16 UNL     1       1.207  52.406 -17.251  1.00  0.00     0.012 A 
HETATM   27  C17 UNL     1       1.273  51.972 -15.926  1.00  0.00     0.001 A 
HETATM   28  C18 UNL     1       0.674  50.769 -15.553  1.00  0.00     0.000 A 
HETATM   29  C19 UNL     1       0.007  49.997 -16.505  1.00  0.00     0.001 A 
HETATM   30  C20 UNL     1      -0.061  50.427 -17.831  1.00  0.00     0.012 A 
ENDBRANCH   8  25
TORSDOF 5
ENDMDL
MODEL 2
REMARK minimizedAffinity -8.89301491
REMARK CNNscore 0.473294765
REMARK CNNaffinity 6.53080606
REMARK  5 active torsions:
REMARK  status: ('A' for Active; 'I' for Inactive)
REMARK    1  A    between atoms: C5_5  and  C6_6 
REMARK    2  A    between atoms: C6_6  and  C7_8 
REMARK    3  A    between atoms: C7_8  and  O2_9 
REMARK    4  A    between atoms: O2_9  and  C8_10 
REMARK    5  A    between atoms: C14_17  and  C15_18 
ROOT
HETATM    1  C8  UNL     1      -2.101  49.984 -21.488  1.00  0.00     0.093 A 
HETATM    2  C9  UNL     1      -1.323  51.004 -20.941  1.00  0.00     0.076 A 
HETATM    3  C10 UNL     1      -0.561  51.819 -21.784  1.00  0.00     0.093 A 
HETATM    4  C11 UNL     1      -0.546  51.658 -23.167  1.00  0.00     0.011 A 
HETATM    5  C12 UNL     1      -1.325  50.635 -23.714  1.00  0.00     0.042 A 
HETATM    6  C13 UNL     1      -2.093  49.809 -22.883  1.00  0.00     0.068 A 
HETATM    7 CL1  UNL     1      -3.026  48.559 -23.635  1.00  0.00    -0.081 Cl
HETATM    8  C14 UNL     1       0.276  52.559 -23.989  1.00  0.00    -0.007 A 
HETATM    9  C21 UNL     1       0.990  53.507 -23.361  1.00  0.00     0.095 A 
HETATM   10  C22 UNL     1       0.993  53.685 -21.902  1.00  0.00     0.289 A 
HETATM   11  O3  UNL     1       1.674  54.560 -21.379  1.00  0.00    -0.260 OA
HETATM   12  O4  UNL     1       0.202  52.825 -21.160  1.00  0.00    -0.275 OA
ENDROOT
BRANCH   1  13
HETATM   13  O2  UNL     1      -2.890  49.128 -20.766  1.00  0.00    -0.342 OA
BRANCH  13  14
HETATM   14  C7  UNL     1      -2.337  47.929 -20.255  1.00  0.00     0.254 C 
BRANCH  14  15
HETATM   15  C6  UNL     1      -2.508  47.699 -18.748  1.00  0.00     0.155 C 
HETATM   16  O1  UNL     1      -2.840  46.611 -18.276  1.00  0.00    -0.295 OA
BRANCH  15  17
HETATM   17  C5  UNL     1      -2.233  48.904 -17.856  1.00  0.00     0.062 C 
HETATM   18  C4  UNL     1      -0.729  49.196 -17.815  1.00  0.00     0.049 C 
HETATM   19  C2  UNL     1      -0.310  50.042 -16.592  1.00  0.00     0.054 C 
HETATM   20  C1  UNL     1       0.673  51.136 -17.036  1.00  0.00     0.045 C 
HETATM   21  C3  UNL     1       0.381  49.194 -15.512  1.00  0.00     0.045 C 
HETATM   22  O5  UNL     1      -1.449  50.729 -16.063  1.00  0.00    -0.381 OA
HETATM   23  C24 UNL     1      -2.493  49.896 -15.561  1.00  0.00     0.169 C 
HETATM   24  C23 UNL     1      -2.781  48.692 -16.448  1.00  0.00     0.038 C 
ENDBRANCH  15  17
ENDBRANCH  14  15
ENDBRANCH  13  14
ENDBRANCH   1  13
BRANCH   8  25
HETATM   25  C15 UNL     1       0.383  52.527 -25.459  1.00  0.00    -0.025 A 
HETATM   26  C16 UNL     1       1.068  51.481 -26.091  1.00  0.00     0.012 A 
HETATM   27  C17 UNL     1       1.173  51.452 -27.483  1.00  0.00     0.001 A 
HETATM   28  C18 UNL     1       0.595  52.464 -28.248  1.00  0.00     0.000 A 
HETATM   29  C19 UNL     1      -0.089  53.508 -27.624  1.00  0.00     0.001 A 
HETATM   30  C20 UNL     1      -0.195  53.540 -26.233  1.00  0.00     0.012 A 
ENDBRANCH   8  25
TORSDOF 5
ENDMDL
MODEL 3
REMARK minimizedAffinity -8.56507206
REMARK CNNscore 0.458595186
REMARK CNNaffinity 6.56486893
REMARK  5 active torsions:
REMARK  status: ('A' for Active; 'I' for Inactive)
REMARK    1  A    between atoms: C5_5  and  C6_6 
REMARK    2  A    between atoms: C6_6  and  C7_8 
REMARK    3  A    between atoms: C7_8  and  O2_9 
REMARK    4  A    between atoms: O2_9  and  C8_10 
REMARK    5  A    between atoms: C14_17  and  C15_18 
ROOT
HETATM    1  C8  UNL     1      -0.901  51.923 -21.063  1.00  0.00     0.093 A 
HETATM    2  C9  UNL     1      -1.895  51.108 -21.604  1.00  0.00     0.076 A 
HETATM    3  C10 UNL     1      -1.857  50.779 -22.961  1.00  0.00     0.093 A 
HETATM    4  C11 UNL     1      -0.853  51.233 -23.813  1.00  0.00     0.011 A 
HETATM    5  C12 UNL     1       0.143  52.050 -23.271  1.00  0.00     0.042 A 
HETATM    6  C13 UNL     1       0.119  52.389 -21.912  1.00  0.00     0.068 A 
HETATM    7 CL1  UNL     1       1.383  53.411 -21.317  1.00  0.00    -0.081 Cl
HETATM    8  C14 UNL     1      -0.877  50.840 -25.229  1.00  0.00    -0.007 A 
HETATM    9  C21 UNL     1      -1.882  50.054 -25.647  1.00  0.00     0.095 A 
HETATM   10  C22 UNL     1      -2.955  49.574 -24.765  1.00  0.00     0.289 A 
HETATM   11  O3  UNL     1      -3.857  48.868 -25.202  1.00  0.00    -0.260 OA
HETATM   12  O4  UNL     1      -2.897  49.957 -23.436  1.00  0.00    -0.275 OA
ENDROOT
BRANCH   1  13
HETATM   13  O2  UNL     1      -0.829  52.306 -19.750  1.00  0.00    -0.342 OA
BRANCH  13  14
HETATM   14  C7  UNL     1      -0.679  51.323 -18.742  1.00  0.00     0.254 C 
BRANCH  14  15
HETATM   15  C6  UNL     1      -1.979  50.767 -18.146  1.00  0.00     0.155 C 
HETATM   16  O1  UNL     1      -2.863  51.493 -17.690  1.00  0.00    -0.295 OA
BRANCH  15  17
HETATM   17  C5  UNL     1      -2.122  49.250 -18.159  1.00  0.00     0.062 C 
HETATM   18  C4  UNL     1      -2.938  48.808 -19.379  1.00  0.00     0.049 C 
HETATM   19  C2  UNL     1      -3.548  47.397 -19.220  1.00  0.00     0.054 C 
HETATM   20  C1  UNL     1      -3.353  46.603 -20.521  1.00  0.00     0.045 C 
HETATM   21  C3  UNL     1      -5.053  47.449 -18.916  1.00  0.00     0.045 C 
HETATM   22  O5  UNL     1      -2.839  46.672 -18.209  1.00  0.00    -0.381 OA
HETATM   23  C24 UNL     1      -2.905  47.223 -16.894  1.00  0.00     0.169 C 
HETATM   24  C23 UNL     1      -2.757  48.739 -16.869  1.00  0.00     0.038 C 
ENDBRANCH  15  17
ENDBRANCH  14  15
ENDBRANCH  13  14
ENDBRANCH   1  13
BRANCH   8  25
HETATM   25  C15 UNL     1       0.119  51.222 -26.247  1.00  0.00    -0.025 A 
HETATM   26  C16 UNL     1       1.488  51.133 -25.960  1.00  0.00     0.012 A 
HETATM   27  C17 UNL     1       2.431  51.498 -26.923  1.00  0.00     0.001 A 
HETATM   28  C18 UNL     1       2.013  51.952 -28.173  1.00  0.00     0.000 A 
HETATM   29  C19 UNL     1       0.652  52.041 -28.465  1.00  0.00     0.001 A 
HETATM   30  C20 UNL     1      -0.294  51.678 -27.505  1.00  0.00     0.012 A 
ENDBRANCH   8  25
TORSDOF 5
ENDMDL
MODEL 4
REMARK minimizedAffinity -8.17977047
REMARK CNNscore 0.458541512
REMARK CNNaffinity 6.51577139
REMARK  5 active torsions:
REMARK  status: ('A' for Active; 'I' for Inactive)
REMARK    1  A    between atoms: C5_5  and  C6_6 
REMARK    2  A    between atoms: C6_6  and  C7_8 
REMARK    3  A    between atoms: C7_8  and  O2_9 
REMARK    4  A    between atoms: O2_9  and  C8_10 
REMARK    5  A    between atoms: C14_17  and  C15_18 
ROOT
HETATM    1  C8  UNL     1      -2.380  50.324 -21.591  1.00  0.00     0.093 A 
HETATM    2  C9  UNL     1      -1.587  51.328 -21.036  1.00  0.00     0.076 A 
HETATM    3  C10 UNL     1      -0.699  52.037 -21.849  1.00  0.00     0.093 A 
HETATM    4  C11 UNL     1      -0.570  51.785 -23.213  1.00  0.00     0.011 A 
HETATM    5  C12 UNL     1      -1.363  50.777 -23.769  1.00  0.00     0.042 A 
HETATM    6  C13 UNL     1      -2.258  50.057 -22.966  1.00  0.00     0.068 A 
HETATM    7 CL1  UNL     1      -3.201  48.821 -23.726  1.00  0.00    -0.081 Cl
HETATM    8  C14 UNL     1       0.382  52.576 -24.005  1.00  0.00    -0.007 A 
HETATM    9  C21 UNL     1       1.099  53.518 -23.371  1.00  0.00     0.095 A 
HETATM   10  C22 UNL     1       0.982  53.791 -21.931  1.00  0.00     0.289 A 
HETATM   11  O3  UNL     1       1.671  54.655 -21.400  1.00  0.00    -0.260 OA
HETATM   12  O4  UNL     1       0.072  53.033 -21.218  1.00  0.00    -0.275 OA
ENDROOT
BRANCH   1  13
HETATM   13  O2  UNL     1      -3.287  49.569 -20.897  1.00  0.00    -0.342 OA
BRANCH  13  14
HETATM   14  C7  UNL     1      -4.046  50.165 -19.860  1.00  0.00     0.254 C 
BRANCH  14  15
HETATM   15  C6  UNL     1      -3.803  49.614 -18.449  1.00  0.00     0.155 C 
HETATM   16  O1  UNL     1      -3.144  50.221 -17.604  1.00  0.00    -0.295 OA
BRANCH  15  17
HETATM   17  C5  UNL     1      -4.438  48.262 -18.144  1.00  0.00     0.062 C 
HETATM   18  C4  UNL     1      -3.410  47.142 -18.339  1.00  0.00     0.049 C 
HETATM   19  C2  UNL     1      -4.059  45.755 -18.541  1.00  0.00     0.054 C 
HETATM   20  C1  UNL     1      -3.309  44.709 -17.702  1.00  0.00     0.045 C 
HETATM   21  C3  UNL     1      -4.014  45.304 -20.010  1.00  0.00     0.045 C 
HETATM   22  O5  UNL     1      -5.401  45.767 -18.043  1.00  0.00    -0.381 OA
HETATM   23  C24 UNL     1      -6.295  46.662 -18.702  1.00  0.00     0.169 C 
HETATM   24  C23 UNL     1      -5.672  48.019 -19.006  1.00  0.00     0.038 C 
ENDBRANCH  15  17
ENDBRANCH  14  15
ENDBRANCH  13  14
ENDBRANCH   1  13
BRANCH   8  25
HETATM   25  C15 UNL     1       0.620  52.441 -25.454  1.00  0.00    -0.025 A 
HETATM   26  C16 UNL     1       1.668  51.637 -25.923  1.00  0.00     0.012 A 
HETATM   27  C17 UNL     1       1.895  51.512 -27.294  1.00  0.00     0.001 A 
HETATM   28  C18 UNL     1       1.079  52.185 -28.202  1.00  0.00     0.000 A 
HETATM   29  C19 UNL     1       0.034  52.986 -27.742  1.00  0.00     0.001 A 
HETATM   30  C20 UNL     1      -0.196  53.114 -26.372  1.00  0.00     0.012 A 
ENDBRANCH   8  25
TORSDOF 5
ENDMDL
MODEL 5
REMARK minimizedAffinity -8.35035133
REMARK CNNscore 0.449567288
REMARK CNNaffinity 6.60834312
REMARK  5 active torsions:
REMARK  status: ('A' for Active; 'I' for Inactive)
REMARK    1  A    between atoms: C5_5  and  C6_6 
REMARK    2  A    between atoms: C6_6  and  C7_8 
REMARK    3  A    between atoms: C7_8  and  O2_9 
REMARK    4  A    between atoms: O2_9  and  C8_10 
REMARK    5  A    between atoms: C14_17  and  C15_18 
ROOT
HETATM    1  C8  UNL     1      -2.167  50.356 -21.360  1.00  0.00     0.093 A 
HETATM    2  C9  UNL     1      -1.369  51.386 -20.863  1.00  0.00     0.076 A 
HETATM    3  C10 UNL     1      -0.540  52.100 -21.734  1.00  0.00     0.093 A 
HETATM    4  C11 UNL     1      -0.477  51.827 -23.098  1.00  0.00     0.011 A 
HETATM    5  C12 UNL     1      -1.275  50.794 -23.595  1.00  0.00     0.042 A 
HETATM    6  C13 UNL     1      -2.111  50.068 -22.736  1.00  0.00     0.068 A 
HETATM    7 CL1  UNL     1      -3.064  48.799 -23.426  1.00  0.00    -0.081 Cl
HETATM    8  C14 UNL     1       0.415  52.625 -23.952  1.00  0.00    -0.007 A 
HETATM    9  C21 UNL     1       1.143  53.593 -23.371  1.00  0.00     0.095 A 
HETATM   10  C22 UNL     1       1.095  53.888 -21.931  1.00  0.00     0.289 A 
HETATM   11  O3  UNL     1       1.790  54.776 -21.451  1.00  0.00    -0.260 OA
HETATM   12  O4  UNL     1       0.240  53.122 -21.159  1.00  0.00    -0.275 OA
ENDROOT
BRANCH   1  13
HETATM   13  O2  UNL     1      -3.020  49.593 -20.608  1.00  0.00    -0.342 OA
BRANCH  13  14
HETATM   14  C7  UNL     1      -2.494  48.702 -19.641  1.00  0.00     0.254 C 
BRANCH  14  15
HETATM   15  C6  UNL     1      -2.981  48.911 -18.201  1.00  0.00     0.155 C 
HETATM   16  O1  UNL     1      -4.143  49.214 -17.930  1.00  0.00    -0.295 OA
BRANCH  15  17
HETATM   17  C5  UNL     1      -1.935  48.710 -17.110  1.00  0.00     0.062 C 
HETATM   18  C4  UNL     1      -2.508  49.122 -15.749  1.00  0.00     0.049 C 
HETATM   19  C2  UNL     1      -1.417  49.427 -14.700  1.00  0.00     0.054 C 
HETATM   20  C1  UNL     1      -1.798  48.782 -13.358  1.00  0.00     0.045 C 
HETATM   21  C3  UNL     1      -1.243  50.936 -14.468  1.00  0.00     0.045 C 
HETATM   22  O5  UNL     1      -0.182  48.816 -15.091  1.00  0.00    -0.381 OA
HETATM   23  C24 UNL     1       0.379  49.288 -16.314  1.00  0.00     0.169 C 
HETATM   24  C23 UNL     1      -0.657  49.485 -17.414  1.00  0.00     0.038 C 
ENDBRANCH  15  17
ENDBRANCH  14  15
ENDBRANCH  13  14
ENDBRANCH   1  13
BRANCH   8  25
HETATM   25  C15 UNL     1       0.581  52.470 -25.408  1.00  0.00    -0.025 A 
HETATM   26  C16 UNL     1       1.684  51.776 -25.921  1.00  0.00     0.012 A 
HETATM   27  C17 UNL     1       1.843  51.632 -27.301  1.00  0.00     0.001 A 
HETATM   28  C18 UNL     1       0.902  52.178 -28.173  1.00  0.00     0.000 A 
HETATM   29  C19 UNL     1      -0.199  52.869 -27.668  1.00  0.00     0.001 A 
HETATM   30  C20 UNL     1      -0.361  53.016 -26.290  1.00  0.00     0.012 A 
ENDBRANCH   8  25
TORSDOF 5
ENDMDL
MODEL 6
REMARK minimizedAffinity -8.02051353
REMARK CNNscore 0.446620345
REMARK CNNaffinity 4.50413132
REMARK  5 active torsions:
REMARK  status: ('A' for Active; 'I' for Inactive)
REMARK    1  A    between atoms: C5_5  and  C6_6 
REMARK    2  A    between atoms: C6_6  and  C7_8 
REMARK    3  A    between atoms: C7_8  and  O2_9 
REMARK    4  A    between atoms: O2_9  and  C8_10 
REMARK    5  A    between atoms: C14_17  and  C15_18 
ROOT
HETATM    1  C8  UNL     1     -15.722  45.809 -26.547  1.00  0.00     0.093 A 
HETATM    2  C9  UNL     1     -14.750  46.625 -25.966  1.00  0.00     0.076 A 
HETATM    3  C10 UNL     1     -13.560  46.878 -26.654  1.00  0.00     0.093 A 
HETATM    4  C11 UNL     1     -13.297  46.348 -27.915  1.00  0.00     0.011 A 
HETATM    5  C12 UNL     1     -14.270  45.530 -28.496  1.00  0.00     0.042 A 
HETATM    6  C13 UNL     1     -15.468  45.266 -27.819  1.00  0.00     0.068 A 
HETATM    7 CL1  UNL     1     -16.621  44.238 -28.600  1.00  0.00    -0.081 Cl
HETATM    8  C14 UNL     1     -12.024  46.665 -28.578  1.00  0.00    -0.007 A 
HETATM    9  C21 UNL     1     -11.157  47.458 -27.930  1.00  0.00     0.095 A 
HETATM   10  C22 UNL     1     -11.414  48.019 -26.595  1.00  0.00     0.289 A 
HETATM   11  O3  UNL     1     -10.581  48.729 -26.043  1.00  0.00    -0.260 OA
HETATM   12  O4  UNL     1     -12.625  47.706 -26.003  1.00  0.00    -0.275 OA
ENDROOT
BRANCH   1  13
HETATM   13  O2  UNL     1     -16.925  45.495 -25.974  1.00  0.00    -0.342 OA
BRANCH  13  14
HETATM   14  C7  UNL     1     -17.194  45.902 -24.644  1.00  0.00     0.254 C 
BRANCH  14  15
HETATM   15  C6  UNL     1     -18.628  46.371 -24.363  1.00  0.00     0.155 C 
HETATM   16  O1  UNL     1     -19.280  47.034 -25.170  1.00  0.00    -0.295 OA
BRANCH  15  17
HETATM   17  C5  UNL     1     -19.210  45.960 -23.015  1.00  0.00     0.062 C 
HETATM   18  C4  UNL     1     -18.521  46.735 -21.886  1.00  0.00     0.049 C 
HETATM   19  C2  UNL     1     -18.671  46.055 -20.507  1.00  0.00     0.054 C 
HETATM   20  C1  UNL     1     -19.015  47.112 -19.447  1.00  0.00     0.045 C 
HETATM   21  C3  UNL     1     -17.380  45.346 -20.067  1.00  0.00     0.045 C 
HETATM   22  O5  UNL     1     -19.779  45.148 -20.529  1.00  0.00    -0.381 OA
HETATM   23  C24 UNL     1     -19.662  44.055 -21.438  1.00  0.00     0.169 C 
HETATM   24  C23 UNL     1     -19.088  44.456 -22.791  1.00  0.00     0.038 C 
ENDBRANCH  15  17
ENDBRANCH  14  15
ENDBRANCH  13  14
ENDBRANCH   1  13
BRANCH   8  25
HETATM   25  C15 UNL     1     -11.608  46.197 -29.913  1.00  0.00    -0.025 A 
HETATM   26  C16 UNL     1     -11.457  44.827 -30.163  1.00  0.00     0.012 A 
HETATM   27  C17 UNL     1     -11.060  44.384 -31.425  1.00  0.00     0.001 A 
HETATM   28  C18 UNL     1     -10.813  45.304 -32.443  1.00  0.00     0.000 A 
HETATM   29  C19 UNL     1     -10.962  46.670 -32.201  1.00  0.00     0.001 A 
HETATM   30  C20 UNL     1     -11.359  47.117 -30.940  1.00  0.00     0.012 A 
ENDBRANCH   8  25
TORSDOF 5
ENDMDL
MODEL 7
REMARK minimizedAffinity -8.8609333
REMARK CNNscore 0.444193453
REMARK CNNaffinity 6.28455782
REMARK  5 active torsions:
REMARK  status: ('A' for Active; 'I' for Inactive)
REMARK    1  A    between atoms: C5_5  and  C6_6 
REMARK    2  A    between atoms: C6_6  and  C7_8 
REMARK    3  A    between atoms: C7_8  and  O2_9 
REMARK    4  A    between atoms: O2_9  and  C8_10 
REMARK    5  A    between atoms: C14_17  and  C15_18 
ROOT
HETATM    1  C8  UNL     1      -1.112  49.707 -19.954  1.00  0.00     0.093 A 
HETATM    2  C9  UNL     1      -0.354  50.869 -19.808  1.00  0.00     0.076 A 
HETATM    3  C10 UNL     1      -0.036  51.633 -20.934  1.00  0.00     0.093 A 
HETATM    4  C11 UNL     1      -0.451  51.283 -22.217  1.00  0.00     0.011 A 
HETATM    5  C12 UNL     1      -1.209  50.118 -22.363  1.00  0.00     0.042 A 
HETATM    6  C13 UNL     1      -1.536  49.341 -21.244  1.00  0.00     0.068 A 
HETATM    7 CL1  UNL     1      -2.472  47.908 -21.507  1.00  0.00    -0.081 Cl
HETATM    8  C14 UNL     1      -0.082  52.140 -23.353  1.00  0.00    -0.007 A 
HETATM    9  C21 UNL     1       0.653  53.236 -23.102  1.00  0.00     0.095 A 
HETATM   10  C22 UNL     1       1.107  53.615 -21.756  1.00  0.00     0.289 A 
HETATM   11  O3  UNL     1       1.787  54.620 -21.584  1.00  0.00    -0.260 OA
HETATM   12  O4  UNL     1       0.735  52.789 -20.709  1.00  0.00    -0.275 OA
ENDROOT
BRANCH   1  13
HETATM   13  O2  UNL     1      -1.490  48.883 -18.928  1.00  0.00    -0.342 OA
BRANCH  13  14
HETATM   14  C7  UNL     1      -2.081  49.439 -17.766  1.00  0.00     0.254 C 
BRANCH  14  15
HETATM   15  C6  UNL     1      -1.260  49.327 -16.475  1.00  0.00     0.155 C 
HETATM   16  O1  UNL     1      -1.094  48.259 -15.885  1.00  0.00    -0.295 OA
BRANCH  15  17
HETATM   17  C5  UNL     1      -0.645  50.625 -15.963  1.00  0.00     0.062 C 
HETATM   18  C4  UNL     1       0.814  50.733 -16.420  1.00  0.00     0.049 C 
HETATM   19  C2  UNL     1       1.644  51.718 -15.568  1.00  0.00     0.054 C 
HETATM   20  C1  UNL     1       2.510  52.592 -16.489  1.00  0.00     0.045 C 
HETATM   21  C3  UNL     1       2.578  50.991 -14.588  1.00  0.00     0.045 C 
HETATM   22  O5  UNL     1       0.770  52.621 -14.880  1.00  0.00    -0.381 OA
HETATM   23  C24 UNL     1      -0.119  52.021 -13.940  1.00  0.00     0.169 C 
HETATM   24  C23 UNL     1      -0.744  50.727 -14.444  1.00  0.00     0.038 C 
ENDBRANCH  15  17
ENDBRANCH  14  15
ENDBRANCH  13  14
ENDBRANCH   1  13
BRANCH   8  25
HETATM   25  C15 UNL     1      -0.458  51.915 -24.760  1.00  0.00    -0.025 A 
HETATM   26  C16 UNL     1       0.457  51.332 -25.648  1.00  0.00     0.012 A 
HETATM   27  C17 UNL     1       0.103  51.121 -26.981  1.00  0.00     0.001 A 
HETATM   28  C18 UNL     1      -1.163  51.491 -27.435  1.00  0.00     0.000 A 
HETATM   29  C19 UNL     1      -2.078  52.071 -26.556  1.00  0.00     0.001 A 
HETATM   30  C20 UNL     1      -1.727  52.284 -25.222  1.00  0.00     0.012 A 
ENDBRANCH   8  25
TORSDOF 5
ENDMDL
MODEL 8
REMARK minimizedAffinity -7.78845358
REMARK CNNscore 0.408924222
REMARK CNNaffinity 5.98851395
REMARK  5 active torsions:
REMARK  status: ('A' for Active; 'I' for Inactive)
REMARK    1  A    between atoms: C5_5  and  C6_6 
REMARK    2  A    between atoms: C6_6  and  C7_8 
REMARK    3  A    between atoms: C7_8  and  O2_9 
REMARK    4  A    between atoms: O2_9  and  C8_10 
REMARK    5  A    between atoms: C14_17  and  C15_18 
ROOT
HETATM    1  C8  UNL     1      -1.052  49.538 -20.012  1.00  0.00     0.093 A 
HETATM    2  C9  UNL     1      -0.305  50.703 -19.842  1.00  0.00     0.076 A 
HETATM    3  C10 UNL     1      -0.021  51.511 -20.947  1.00  0.00     0.093 A 
HETATM    4  C11 UNL     1      -0.462  51.202 -22.231  1.00  0.00     0.011 A 
HETATM    5  C12 UNL     1      -1.209  50.034 -22.402  1.00  0.00     0.042 A 
HETATM    6  C13 UNL     1      -1.501  49.213 -21.305  1.00  0.00     0.068 A 
HETATM    7 CL1  UNL     1      -2.427  47.780 -21.598  1.00  0.00    -0.081 Cl
HETATM    8  C14 UNL     1      -0.129  52.104 -23.343  1.00  0.00    -0.007 A 
HETATM    9  C21 UNL     1       0.599  53.198 -23.070  1.00  0.00     0.095 A 
HETATM   10  C22 UNL     1       1.080  53.535 -21.722  1.00  0.00     0.289 A 
HETATM   11  O3  UNL     1       1.752  54.542 -21.530  1.00  0.00    -0.260 OA
HETATM   12  O4  UNL     1       0.742  52.668 -20.698  1.00  0.00    -0.275 OA
ENDROOT
BRANCH   1  13
HETATM   13  O2  UNL     1      -1.397  48.674 -19.008  1.00  0.00    -0.342 OA
BRANCH  13  14
HETATM   14  C7  UNL     1      -2.245  49.118 -17.964  1.00  0.00     0.254 C 
BRANCH  14  15
HETATM   15  C6  UNL     1      -1.543  49.656 -16.711  1.00  0.00     0.155 C 
HETATM   16  O1  UNL     1      -1.779  50.772 -16.244  1.00  0.00    -0.295 OA
BRANCH  15  17
HETATM   17  C5  UNL     1      -0.530  48.720 -16.061  1.00  0.00     0.062 C 
HETATM   18  C4  UNL     1      -1.256  47.651 -15.236  1.00  0.00     0.049 C 
HETATM   19  C2  UNL     1      -0.351  46.990 -14.173  1.00  0.00     0.054 C 
HETATM   20  C1  UNL     1      -0.573  45.470 -14.181  1.00  0.00     0.045 C 
HETATM   21  C3  UNL     1      -0.651  47.505 -12.757  1.00  0.00     0.045 C 
HETATM   22  O5  UNL     1       1.026  47.186 -14.516  1.00  0.00    -0.381 OA
HETATM   23  C24 UNL     1       1.466  48.543 -14.544  1.00  0.00     0.169 C 
HETATM   24  C23 UNL     1       0.465  49.487 -15.197  1.00  0.00     0.038 C 
ENDBRANCH  15  17
ENDBRANCH  14  15
ENDBRANCH  13  14
ENDBRANCH   1  13
BRANCH   8  25
HETATM   25  C15 UNL     1      -0.534  51.925 -24.750  1.00  0.00    -0.025 A 
HETATM   26  C16 UNL     1       0.310  51.254 -25.645  1.00  0.00     0.012 A 
HETATM   27  C17 UNL     1      -0.072  51.087 -26.977  1.00  0.00     0.001 A 
HETATM   28  C18 UNL     1      -1.295  51.586 -27.421  1.00  0.00     0.000 A 
HETATM   29  C19 UNL     1      -2.140  52.254 -26.534  1.00  0.00     0.001 A 
HETATM   30  C20 UNL     1      -1.762  52.423 -25.202  1.00  0.00     0.012 A 
ENDBRANCH   8  25
TORSDOF 5
ENDMDL
MODEL 9
REMARK minimizedAffinity -7.88369131
REMARK CNNscore 0.371142119
REMARK CNNaffinity 4.43731642
REMARK  5 active torsions:
REMARK  status: ('A' for Active; 'I' for Inactive)
REMARK    1  A    between atoms: C5_5  and  C6_6 
REMARK    2  A    between atoms: C6_6  and  C7_8 
REMARK    3  A    between atoms: C7_8  and  O2_9 
REMARK    4  A    between atoms: O2_9  and  C8_10 
REMARK    5  A    between atoms: C14_17  and  C15_18 
ROOT
HETATM    1  C8  UNL     1     -14.373  47.012 -24.236  1.00  0.00     0.093 A 
HETATM    2  C9  UNL     1     -15.428  46.746 -25.109  1.00  0.00     0.076 A 
HETATM    3  C10 UNL     1     -16.690  46.436 -24.595  1.00  0.00     0.093 A 
HETATM    4  C11 UNL     1     -16.948  46.385 -23.228  1.00  0.00     0.011 A 
HETATM    5  C12 UNL     1     -15.892  46.650 -22.352  1.00  0.00     0.042 A 
HETATM    6  C13 UNL     1     -14.620  46.962 -22.852  1.00  0.00     0.068 A 
HETATM    7 CL1  UNL     1     -13.361  47.272 -21.705  1.00  0.00    -0.081 Cl
HETATM    8  C14 UNL     1     -18.304  46.058 -22.762  1.00  0.00    -0.007 A 
HETATM    9  C21 UNL     1     -19.246  45.815 -23.688  1.00  0.00     0.095 A 
HETATM   10  C22 UNL     1     -18.988  45.856 -25.135  1.00  0.00     0.289 A 
HETATM   11  O3  UNL     1     -19.883  45.615 -25.938  1.00  0.00    -0.260 OA
HETATM   12  O4  UNL     1     -17.703  46.175 -25.538  1.00  0.00    -0.275 OA
ENDROOT
BRANCH   1  13
HETATM   13  O2  UNL     1     -13.099  47.332 -24.620  1.00  0.00    -0.342 OA
BRANCH  13  14
HETATM   14  C7  UNL     1     -12.511  46.662 -25.721  1.00  0.00     0.254 C 
BRANCH  14  15
HETATM   15  C6  UNL     1     -12.220  47.525 -26.956  1.00  0.00     0.155 C 
HETATM   16  O1  UNL     1     -12.854  48.549 -27.214  1.00  0.00    -0.295 OA
BRANCH  15  17
HETATM   17  C5  UNL     1     -11.083  47.045 -27.850  1.00  0.00     0.062 C 
HETATM   18  C4  UNL     1     -10.974  47.940 -29.090  1.00  0.00     0.049 C 
HETATM   19  C2  UNL     1     -10.221  47.267 -30.258  1.00  0.00     0.054 C 
HETATM   20  C1  UNL     1      -9.239  48.269 -30.883  1.00  0.00     0.045 C 
HETATM   21  C3  UNL     1     -11.175  46.787 -31.362  1.00  0.00     0.045 C 
HETATM   22  O5  UNL     1      -9.417  46.189 -29.762  1.00  0.00    -0.381 OA
HETATM   23  C24 UNL     1     -10.134  45.116 -29.154  1.00  0.00     0.169 C 
HETATM   24  C23 UNL     1     -11.269  45.585 -28.252  1.00  0.00     0.038 C 
ENDBRANCH  15  17
ENDBRANCH  14  15
ENDBRANCH  13  14
ENDBRANCH   1  13
BRANCH   8  25
HETATM   25  C15 UNL     1     -18.738  45.981 -21.356  1.00  0.00    -0.025 A 
HETATM   26  C16 UNL     1     -18.866  47.150 -20.594  1.00  0.00     0.012 A 
HETATM   27  C17 UNL     1     -19.273  47.077 -19.261  1.00  0.00     0.001 A 
HETATM   28  C18 UNL     1     -19.555  45.840 -18.683  1.00  0.00     0.000 A 
HETATM   29  C19 UNL     1     -19.430  44.673 -19.436  1.00  0.00     0.001 A 
HETATM   30  C20 UNL     1     -19.022  44.741 -20.769  1.00  0.00     0.012 A 
ENDBRANCH   8  25
TORSDOF 5
ENDMDL
