MODEL 1
REMARK minimizedAffinity -7.22844648
REMARK CNNscore 0.703470469
REMARK CNNaffinity 6.97698641
REMARK  9 active torsions:
REMARK  status: ('A' for Active; 'I' for Inactive)
REMARK    1  A    between atoms: C2_2  and  O1_3 
REMARK    2  A    between atoms: O1_3  and  C3_4 
REMARK    3  A    between atoms: C3_4  and  C4_6 
REMARK    4  A    between atoms: C5_7  and  C6_8 
REMARK    5  A    between atoms: C12_16  and  C13_17 
REMARK    6  A    between atoms: C24_30  and  C25_31 
REMARK    7  A    between atoms: C25_31  and  O6_32 
REMARK    8  A    between atoms: C32_40  and  O8_42 
REMARK    9  A    between atoms: C35_44  and  O9_45 
ROOT
HETATM    1  C4  UNL     1       5.514  53.009  -7.158  1.00  0.00     0.165 C 
HETATM    2  C5  UNL     1       5.626  54.273  -7.625  1.00  0.00     0.053 C 
HETATM    3  C7  UNL     1       4.383  55.064  -7.637  1.00  0.00    -0.002 C 
HETATM    4  C8  UNL     1       4.266  56.328  -7.144  1.00  0.00    -0.066 C 
HETATM    5  C9  UNL     1       2.952  57.077  -6.988  1.00  0.00     0.042 C 
HETATM    6  C10 UNL     1       2.767  57.772  -5.641  1.00  0.00     0.083 C 
HETATM    7  C11 UNL     1       3.862  57.490  -4.636  1.00  0.00     0.136 C 
HETATM    8  O4  UNL     1       3.583  57.399  -3.437  1.00  0.00    -0.297 OA
HETATM    9  C12 UNL     1       5.307  57.425  -5.120  1.00  0.00     0.092 C 
HETATM   10  C21 UNL     1       5.404  57.192  -6.636  1.00  0.00     0.052 C 
HETATM   11  C22 UNL     1       3.196  54.257  -8.039  1.00  0.00     0.044 C 
HETATM   12  C23 UNL     1       3.167  52.955  -7.472  1.00  0.00     0.101 C 
HETATM   13  O5  UNL     1       4.261  52.509  -6.739  1.00  0.00    -0.302 OA
HETATM   14  C24 UNL     1       2.096  52.069  -7.667  1.00  0.00     0.034 C 
HETATM   15  C26 UNL     1       1.081  52.527  -8.490  1.00  0.00     0.090 C 
HETATM   16  O7  UNL     1      -0.064  51.806  -8.807  1.00  0.00    -0.341 OA
HETATM   17  C27 UNL     1      -0.935  52.870  -9.243  1.00  0.00     0.175 C 
HETATM   18  C28 UNL     1      -0.054  53.848 -10.033  1.00  0.00     0.079 C 
HETATM   19  C29 UNL     1      -0.819  55.104 -10.298  1.00  0.00    -0.019 C 
HETATM   20  C30 UNL     1      -2.159  55.068 -10.446  1.00  0.00    -0.027 C 
HETATM   21  C31 UNL     1      -2.998  53.806 -10.302  1.00  0.00     0.067 C 
HETATM   22  C32 UNL     1      -2.174  52.495 -10.077  1.00  0.00     0.085 C 
HETATM   23  C33 UNL     1      -3.018  51.428  -9.385  1.00  0.00     0.049 C 
HETATM   24  C34 UNL     1       1.121  53.782  -9.125  1.00  0.00     0.021 C 
HETATM   25  C35 UNL     1       2.202  54.628  -8.954  1.00  0.00     0.091 C 
ENDROOT
BRANCH   2  26
HETATM   26  C6  UNL     1       6.879  54.825  -8.202  1.00  0.00     0.273 C 
HETATM   27  O3  UNL     1       7.217  54.592  -9.358  1.00  0.00    -0.301 OA
ENDBRANCH   2  26
BRANCH   1  28
HETATM   28  C3  UNL     1       6.616  52.014  -7.062  1.00  0.00     0.318 C 
HETATM   29  O2  UNL     1       7.529  52.112  -6.256  1.00  0.00    -0.257 OA
BRANCH  28  30
HETATM   30  O1  UNL     1       6.412  50.963  -7.889  1.00  0.00    -0.316 OA
BRANCH  30  31
HETATM   31  C2  UNL     1       6.247  51.280  -9.284  1.00  0.00     0.175 C 
HETATM   32  C1  UNL     1       7.075  50.317 -10.116  1.00  0.00     0.034 C 
ENDBRANCH  30  31
ENDBRANCH  28  30
ENDBRANCH   1  28
BRANCH  25  33
HETATM   33  O9  UNL     1       2.239  55.797  -9.658  1.00  0.00    -0.354 OA
HETATM   34  C36 UNL     1       3.120  55.690 -10.778  1.00  0.00     0.210 C 
ENDBRANCH  25  33
BRANCH   9  35
HETATM   35  C13 UNL     1       6.147  58.633  -4.717  1.00  0.00    -0.046 A 
HETATM   36  C14 UNL     1       5.619  59.671  -3.931  1.00  0.00     0.010 A 
HETATM   37  C15 UNL     1       6.371  60.799  -3.591  1.00  0.00     0.031 A 
HETATM   38  C16 UNL     1       7.680  60.871  -4.079  1.00  0.00     0.042 A 
HETATM   39  N1  UNL     1       8.636  61.848  -3.910  1.00  0.00    -0.365 N 
HETATM   40  C19 UNL     1       8.242  59.878  -4.880  1.00  0.00    -0.008 A 
HETATM   41  C17 UNL     1       9.784  61.504  -4.580  1.00  0.00     0.089 A 
HETATM   42  H14 UNL     1       8.516  62.690  -3.364  1.00  0.00     0.165 HD
HETATM   43  C18 UNL     1       9.568  60.290  -5.191  1.00  0.00     0.030 A 
HETATM   44  C20 UNL     1       7.467  58.745  -5.201  1.00  0.00     0.021 A 
ENDBRANCH   9  35
BRANCH  14  45
HETATM   45  C25 UNL     1       2.041  50.714  -7.022  1.00  0.00     0.208 C 
BRANCH  45  46
HETATM   46  O6  UNL     1       1.825  49.708  -8.006  1.00  0.00    -0.396 OA
HETATM   47  H22 UNL     1       1.062  49.979  -8.542  1.00  0.00     0.209 HD
ENDBRANCH  45  46
ENDBRANCH  14  45
BRANCH  22  48
HETATM   48  O8  UNL     1      -1.814  51.943 -11.354  1.00  0.00    -0.387 OA
HETATM   49  H32 UNL     1      -1.532  52.663 -11.946  1.00  0.00     0.210 HD
ENDBRANCH  22  48
TORSDOF 9
ENDMDL
MODEL 2
REMARK minimizedAffinity -7.82107687
REMARK CNNscore 0.589268029
REMARK CNNaffinity 6.02820539
REMARK  9 active torsions:
REMARK  status: ('A' for Active; 'I' for Inactive)
REMARK    1  A    between atoms: C2_2  and  O1_3 
REMARK    2  A    between atoms: O1_3  and  C3_4 
REMARK    3  A    between atoms: C3_4  and  C4_6 
REMARK    4  A    between atoms: C5_7  and  C6_8 
REMARK    5  A    between atoms: C12_16  and  C13_17 
REMARK    6  A    between atoms: C24_30  and  C25_31 
REMARK    7  A    between atoms: C25_31  and  O6_32 
REMARK    8  A    between atoms: C32_40  and  O8_42 
REMARK    9  A    between atoms: C35_44  and  O9_45 
ROOT
HETATM    1  C4  UNL     1     -17.212  45.698 -23.251  1.00  0.00     0.165 C 
HETATM    2  C5  UNL     1     -17.452  46.161 -24.498  1.00  0.00     0.053 C 
HETATM    3  C7  UNL     1     -16.403  45.889 -25.497  1.00  0.00    -0.002 C 
HETATM    4  C8  UNL     1     -16.628  45.365 -26.732  1.00  0.00    -0.066 C 
HETATM    5  C9  UNL     1     -15.539  44.914 -27.692  1.00  0.00     0.042 C 
HETATM    6  C10 UNL     1     -15.777  43.549 -28.336  1.00  0.00     0.083 C 
HETATM    7  C11 UNL     1     -16.989  42.813 -27.811  1.00  0.00     0.136 C 
HETATM    8  O4  UNL     1     -16.961  41.583 -27.707  1.00  0.00    -0.297 OA
HETATM    9  C12 UNL     1     -18.261  43.603 -27.518  1.00  0.00     0.092 C 
HETATM   10  C21 UNL     1     -17.988  45.106 -27.353  1.00  0.00     0.052 C 
HETATM   11  C22 UNL     1     -15.030  46.032 -24.935  1.00  0.00     0.044 C 
HETATM   12  C23 UNL     1     -14.883  45.491 -23.630  1.00  0.00     0.101 C 
HETATM   13  O5  UNL     1     -16.007  45.022 -22.958  1.00  0.00    -0.302 OA
HETATM   14  C24 UNL     1     -13.650  45.459 -22.958  1.00  0.00     0.034 C 
HETATM   15  C26 UNL     1     -12.586  46.032 -23.633  1.00  0.00     0.090 C 
HETATM   16  O7  UNL     1     -11.287  46.101 -23.144  1.00  0.00    -0.341 OA
HETATM   17  C27 UNL     1     -10.554  46.320 -24.367  1.00  0.00     0.175 C 
HETATM   18  C28 UNL     1     -11.411  47.271 -25.214  1.00  0.00     0.079 C 
HETATM   19  C29 UNL     1     -10.852  47.344 -26.598  1.00  0.00    -0.019 C 
HETATM   20  C30 UNL     1      -9.528  47.195 -26.808  1.00  0.00    -0.027 C 
HETATM   21  C31 UNL     1      -8.521  46.888 -25.708  1.00  0.00     0.067 C 
HETATM   22  C32 UNL     1      -9.119  46.868 -24.262  1.00  0.00     0.085 C 
HETATM   23  C33 UNL     1      -8.260  46.023 -23.326  1.00  0.00     0.049 C 
HETATM   24  C34 UNL     1     -12.720  46.644 -24.893  1.00  0.00     0.021 C 
HETATM   25  C35 UNL     1     -13.950  46.701 -25.524  1.00  0.00     0.091 C 
ENDROOT
BRANCH   2  26
HETATM   26  C6  UNL     1     -18.634  46.991 -24.850  1.00  0.00     0.273 C 
HETATM   27  O3  UNL     1     -19.729  46.491 -25.084  1.00  0.00    -0.301 OA
ENDBRANCH   2  26
BRANCH   1  28
HETATM   28  C3  UNL     1     -18.107  45.860 -22.073  1.00  0.00     0.318 C 
HETATM   29  O2  UNL     1     -19.202  45.327 -21.995  1.00  0.00    -0.257 OA
BRANCH  28  30
HETATM   30  O1  UNL     1     -17.509  46.568 -21.087  1.00  0.00    -0.316 OA
BRANCH  30  31
HETATM   31  C2  UNL     1     -18.089  46.440 -19.776  1.00  0.00     0.175 C 
HETATM   32  C1  UNL     1     -18.960  47.652 -19.495  1.00  0.00     0.034 C 
ENDBRANCH  30  31
ENDBRANCH  28  30
ENDBRANCH   1  28
BRANCH  25  33
HETATM   33  O9  UNL     1     -14.051  47.381 -26.704  1.00  0.00    -0.354 OA
HETATM   34  C36 UNL     1     -13.446  46.646 -27.770  1.00  0.00     0.210 C 
ENDBRANCH  25  33
BRANCH   9  35
HETATM   35  C13 UNL     1     -19.375  43.377 -28.535  1.00  0.00    -0.046 A 
HETATM   36  C14 UNL     1     -20.589  42.765 -28.177  1.00  0.00     0.010 A 
HETATM   37  C15 UNL     1     -21.598  42.519 -29.112  1.00  0.00     0.031 A 
HETATM   38  C16 UNL     1     -21.353  42.892 -30.437  1.00  0.00     0.042 A 
HETATM   39  N1  UNL     1     -22.150  42.773 -31.555  1.00  0.00    -0.365 N 
HETATM   40  C19 UNL     1     -20.157  43.483 -30.846  1.00  0.00    -0.008 A 
HETATM   41  C17 UNL     1     -21.496  43.268 -32.656  1.00  0.00     0.089 A 
HETATM   42  H14 UNL     1     -23.085  42.387 -31.562  1.00  0.00     0.165 HD
HETATM   43  C18 UNL     1     -20.259  43.712 -32.247  1.00  0.00     0.030 A 
HETATM   44  C20 UNL     1     -19.158  43.729 -29.883  1.00  0.00     0.021 A 
ENDBRANCH   9  35
BRANCH  14  45
HETATM   45  C25 UNL     1     -13.485  44.837 -21.602  1.00  0.00     0.208 C 
BRANCH  45  46
HETATM   46  O6  UNL     1     -14.496  45.309 -20.717  1.00  0.00    -0.396 OA
HETATM   47  H22 UNL     1     -14.501  46.279 -20.767  1.00  0.00     0.209 HD
ENDBRANCH  45  46
ENDBRANCH  14  45
BRANCH  22  48
HETATM   48  O8  UNL     1      -9.091  48.201 -23.725  1.00  0.00    -0.387 OA
HETATM   49  H32 UNL     1      -9.368  48.829 -24.414  1.00  0.00     0.210 HD
ENDBRANCH  22  48
TORSDOF 9
ENDMDL
MODEL 3
REMARK minimizedAffinity -7.09064484
REMARK CNNscore 0.498984575
REMARK CNNaffinity 6.51230097
REMARK  9 active torsions:
REMARK  status: ('A' for Active; 'I' for Inactive)
REMARK    1  A    between atoms: C2_2  and  O1_3 
REMARK    2  A    between atoms: O1_3  and  C3_4 
REMARK    3  A    between atoms: C3_4  and  C4_6 
REMARK    4  A    between atoms: C5_7  and  C6_8 
REMARK    5  A    between atoms: C12_16  and  C13_17 
REMARK    6  A    between atoms: C24_30  and  C25_31 
REMARK    7  A    between atoms: C25_31  and  O6_32 
REMARK    8  A    between atoms: C32_40  and  O8_42 
REMARK    9  A    between atoms: C35_44  and  O9_45 
ROOT
HETATM    1  C4  UNL     1       4.204  54.296  -9.500  1.00  0.00     0.165 C 
HETATM    2  C5  UNL     1       3.274  55.270  -9.382  1.00  0.00     0.053 C 
HETATM    3  C7  UNL     1       1.873  54.817  -9.325  1.00  0.00    -0.002 C 
HETATM    4  C8  UNL     1       0.964  55.226  -8.399  1.00  0.00    -0.066 C 
HETATM    5  C9  UNL     1      -0.422  54.628  -8.224  1.00  0.00     0.042 C 
HETATM    6  C10 UNL     1      -0.810  54.318  -6.780  1.00  0.00     0.083 C 
HETATM    7  C11 UNL     1       0.300  54.532  -5.775  1.00  0.00     0.136 C 
HETATM    8  O4  UNL     1       0.396  53.780  -4.800  1.00  0.00    -0.297 OA
HETATM    9  C12 UNL     1       1.217  55.740  -5.937  1.00  0.00     0.092 C 
HETATM   10  C21 UNL     1       1.180  56.313  -7.362  1.00  0.00     0.052 C 
HETATM   11  C22 UNL     1       1.603  53.682 -10.253  1.00  0.00     0.044 C 
HETATM   12  C23 UNL     1       2.633  52.704 -10.282  1.00  0.00     0.101 C 
HETATM   13  O5  UNL     1       3.813  52.940  -9.585  1.00  0.00    -0.302 OA
HETATM   14  C24 UNL     1       2.534  51.522 -11.034  1.00  0.00     0.034 C 
HETATM   15  C26 UNL     1       1.381  51.388 -11.788  1.00  0.00     0.090 C 
HETATM   16  O7  UNL     1       1.091  50.295 -12.597  1.00  0.00    -0.341 OA
HETATM   17  C27 UNL     1      -0.338  50.438 -12.733  1.00  0.00     0.175 C 
HETATM   18  C28 UNL     1      -0.607  51.944 -12.861  1.00  0.00     0.079 C 
HETATM   19  C29 UNL     1      -2.076  52.198 -12.745  1.00  0.00    -0.019 C 
HETATM   20  C30 UNL     1      -2.963  51.274 -13.165  1.00  0.00    -0.027 C 
HETATM   21  C31 UNL     1      -2.574  49.910 -13.720  1.00  0.00     0.067 C 
HETATM   22  C32 UNL     1      -1.034  49.685 -13.882  1.00  0.00     0.085 C 
HETATM   23  C33 UNL     1      -0.693  48.198 -13.870  1.00  0.00     0.049 C 
HETATM   24  C34 UNL     1       0.381  52.376 -11.839  1.00  0.00     0.021 C 
HETATM   25  C35 UNL     1       0.511  53.552 -11.122  1.00  0.00     0.091 C 
ENDROOT
BRANCH   2  26
HETATM   26  C6  UNL     1       3.599  56.719  -9.416  1.00  0.00     0.273 C 
HETATM   27  O3  UNL     1       3.885  57.343  -8.399  1.00  0.00    -0.301 OA
ENDBRANCH   2  26
BRANCH   1  28
HETATM   28  C3  UNL     1       5.675  54.499  -9.592  1.00  0.00     0.318 C 
HETATM   29  O2  UNL     1       6.205  55.587  -9.426  1.00  0.00    -0.257 OA
BRANCH  28  30
HETATM   30  O1  UNL     1       6.329  53.329  -9.771  1.00  0.00    -0.316 OA
BRANCH  30  31
HETATM   31  C2  UNL     1       6.874  52.721  -8.585  1.00  0.00     0.175 C 
HETATM   32  C1  UNL     1       7.061  51.234  -8.826  1.00  0.00     0.034 C 
ENDBRANCH  30  31
ENDBRANCH  28  30
ENDBRANCH   1  28
BRANCH  25  33
HETATM   33  O9  UNL     1      -0.441  54.520 -11.268  1.00  0.00    -0.354 OA
HETATM   34  C36 UNL     1      -1.636  54.169 -10.571  1.00  0.00     0.210 C 
ENDBRANCH  25  33
BRANCH   9  35
HETATM   35  C13 UNL     1       0.967  56.845  -4.917  1.00  0.00    -0.046 A 
HETATM   36  C14 UNL     1       2.024  57.542  -4.308  1.00  0.00     0.010 A 
HETATM   37  C15 UNL     1       1.802  58.529  -3.343  1.00  0.00     0.031 A 
HETATM   38  C16 UNL     1       0.476  58.795  -2.987  1.00  0.00     0.042 A 
HETATM   39  N1  UNL     1      -0.035  59.696  -2.079  1.00  0.00    -0.365 N 
HETATM   40  C19 UNL     1      -0.606  58.115  -3.546  1.00  0.00    -0.008 A 
HETATM   41  C17 UNL     1      -1.405  59.608  -2.047  1.00  0.00     0.089 A 
HETATM   42  H14 UNL     1       0.516  60.338  -1.525  1.00  0.00     0.165 HD
HETATM   43  C18 UNL     1      -1.785  58.636  -2.943  1.00  0.00     0.030 A 
HETATM   44  C20 UNL     1      -0.357  57.131  -4.524  1.00  0.00     0.021 A 
ENDBRANCH   9  35
BRANCH  14  45
HETATM   45  C25 UNL     1       3.599  50.464 -11.019  1.00  0.00     0.208 C 
BRANCH  45  46
HETATM   46  O6  UNL     1       3.959  50.109 -12.350  1.00  0.00    -0.396 OA
HETATM   47  H22 UNL     1       3.141  49.913 -12.834  1.00  0.00     0.209 HD
ENDBRANCH  45  46
ENDBRANCH  14  45
BRANCH  22  48
HETATM   48  O8  UNL     1      -0.622  50.172 -15.170  1.00  0.00    -0.387 OA
HETATM   49  H32 UNL     1      -1.065  51.020 -15.347  1.00  0.00     0.210 HD
ENDBRANCH  22  48
TORSDOF 9
ENDMDL
MODEL 4
REMARK minimizedAffinity -8.36755753
REMARK CNNscore 0.379712343
REMARK CNNaffinity 7.57828665
REMARK  9 active torsions:
REMARK  status: ('A' for Active; 'I' for Inactive)
REMARK    1  A    between atoms: C2_2  and  O1_3 
REMARK    2  A    between atoms: O1_3  and  C3_4 
REMARK    3  A    between atoms: C3_4  and  C4_6 
REMARK    4  A    between atoms: C5_7  and  C6_8 
REMARK    5  A    between atoms: C12_16  and  C13_17 
REMARK    6  A    between atoms: C24_30  and  C25_31 
REMARK    7  A    between atoms: C25_31  and  O6_32 
REMARK    8  A    between atoms: C32_40  and  O8_42 
REMARK    9  A    between atoms: C35_44  and  O9_45 
ROOT
HETATM    1  C4  UNL     1      -3.512  50.195 -26.098  1.00  0.00     0.165 C 
HETATM    2  C5  UNL     1      -4.025  48.945 -26.131  1.00  0.00     0.053 C 
HETATM    3  C7  UNL     1      -4.775  48.527 -24.934  1.00  0.00    -0.002 C 
HETATM    4  C8  UNL     1      -6.008  47.951 -24.955  1.00  0.00    -0.066 C 
HETATM    5  C9  UNL     1      -6.860  47.686 -23.725  1.00  0.00     0.042 C 
HETATM    6  C10 UNL     1      -8.323  48.107 -23.855  1.00  0.00     0.083 C 
HETATM    7  C11 UNL     1      -8.651  48.840 -25.137  1.00  0.00     0.136 C 
HETATM    8  O4  UNL     1      -9.487  49.748 -25.126  1.00  0.00    -0.297 OA
HETATM    9  C12 UNL     1      -8.011  48.368 -26.439  1.00  0.00     0.092 C 
HETATM   10  C21 UNL     1      -6.761  47.509 -26.196  1.00  0.00     0.052 C 
HETATM   11  C22 UNL     1      -4.146  49.006 -23.670  1.00  0.00     0.044 C 
HETATM   12  C23 UNL     1      -3.662  50.339 -23.738  1.00  0.00     0.101 C 
HETATM   13  O5  UNL     1      -3.685  51.010 -24.956  1.00  0.00    -0.302 OA
HETATM   14  C24 UNL     1      -3.105  50.999 -22.631  1.00  0.00     0.034 C 
HETATM   15  C26 UNL     1      -3.013  50.249 -21.471  1.00  0.00     0.090 C 
HETATM   16  O7  UNL     1      -2.495  50.717 -20.269  1.00  0.00    -0.341 OA
HETATM   17  C27 UNL     1      -3.065  49.765 -19.347  1.00  0.00     0.175 C 
HETATM   18  C28 UNL     1      -3.020  48.404 -20.054  1.00  0.00     0.079 C 
HETATM   19  C29 UNL     1      -3.824  47.412 -19.277  1.00  0.00    -0.019 C 
HETATM   20  C30 UNL     1      -3.929  47.519 -17.937  1.00  0.00    -0.027 C 
HETATM   21  C31 UNL     1      -3.315  48.650 -17.122  1.00  0.00     0.067 C 
HETATM   22  C32 UNL     1      -2.434  49.646 -17.947  1.00  0.00     0.085 C 
HETATM   23  C33 UNL     1      -2.342  51.002 -17.253  1.00  0.00     0.049 C 
HETATM   24  C34 UNL     1      -3.413  48.902 -21.398  1.00  0.00     0.021 C 
HETATM   25  C35 UNL     1      -3.924  48.255 -22.508  1.00  0.00     0.091 C 
ENDROOT
BRANCH   2  26
HETATM   26  C6  UNL     1      -3.775  47.987 -27.239  1.00  0.00     0.273 C 
HETATM   27  O3  UNL     1      -4.200  48.183 -28.373  1.00  0.00    -0.301 OA
ENDBRANCH   2  26
BRANCH   1  28
HETATM   28  C3  UNL     1      -2.707  50.837 -27.172  1.00  0.00     0.318 C 
HETATM   29  O2  UNL     1      -3.208  51.486 -28.077  1.00  0.00    -0.257 OA
BRANCH  28  30
HETATM   30  O1  UNL     1      -1.380  50.698 -26.951  1.00  0.00    -0.316 OA
BRANCH  30  31
HETATM   31  C2  UNL     1      -0.594  51.901 -27.042  1.00  0.00     0.175 C 
HETATM   32  C1  UNL     1       0.856  51.532 -27.302  1.00  0.00     0.034 C 
ENDBRANCH  30  31
ENDBRANCH  28  30
ENDBRANCH   1  28
BRANCH  25  33
HETATM   33  O9  UNL     1      -4.218  46.925 -22.416  1.00  0.00    -0.354 OA
HETATM   34  C36 UNL     1      -5.397  46.715 -21.639  1.00  0.00     0.210 C 
ENDBRANCH  25  33
BRANCH   9  35
HETATM   35  C13 UNL     1      -8.975  47.645 -27.373  1.00  0.00    -0.046 A 
HETATM   36  C14 UNL     1      -8.519  46.763 -28.368  1.00  0.00     0.010 A 
HETATM   37  C15 UNL     1      -9.395  46.128 -29.253  1.00  0.00     0.031 A 
HETATM   38  C16 UNL     1     -10.758  46.412 -29.125  1.00  0.00     0.042 A 
HETATM   39  N1  UNL     1     -11.834  45.943 -29.846  1.00  0.00    -0.365 N 
HETATM   40  C19 UNL     1     -11.258  47.296 -28.168  1.00  0.00    -0.008 A 
HETATM   41  C17 UNL     1     -12.997  46.502 -29.377  1.00  0.00     0.089 A 
HETATM   42  H14 UNL     1     -11.777  45.275 -30.604  1.00  0.00     0.165 HD
HETATM   43  C18 UNL     1     -12.670  47.345 -28.340  1.00  0.00     0.030 A 
HETATM   44  C20 UNL     1     -10.356  47.917 -27.281  1.00  0.00     0.021 A 
ENDBRANCH   9  35
BRANCH  14  45
HETATM   45  C25 UNL     1      -2.645  52.427 -22.690  1.00  0.00     0.208 C 
BRANCH  45  46
HETATM   46  O6  UNL     1      -1.610  52.573 -23.656  1.00  0.00    -0.396 OA
HETATM   47  H22 UNL     1      -0.939  51.894 -23.475  1.00  0.00     0.209 HD
ENDBRANCH  45  46
ENDBRANCH  14  45
BRANCH  22  48
HETATM   48  O8  UNL     1      -1.089  49.143 -18.006  1.00  0.00    -0.387 OA
HETATM   49  H32 UNL     1      -1.113  48.184 -18.168  1.00  0.00     0.210 HD
ENDBRANCH  22  48
TORSDOF 9
ENDMDL
MODEL 5
REMARK minimizedAffinity -6.98415375
REMARK CNNscore 0.354755998
REMARK CNNaffinity 6.12336493
REMARK  9 active torsions:
REMARK  status: ('A' for Active; 'I' for Inactive)
REMARK    1  A    between atoms: C2_2  and  O1_3 
REMARK    2  A    between atoms: O1_3  and  C3_4 
REMARK    3  A    between atoms: C3_4  and  C4_6 
REMARK    4  A    between atoms: C5_7  and  C6_8 
REMARK    5  A    between atoms: C12_16  and  C13_17 
REMARK    6  A    between atoms: C24_30  and  C25_31 
REMARK    7  A    between atoms: C25_31  and  O6_32 
REMARK    8  A    between atoms: C32_40  and  O8_42 
REMARK    9  A    between atoms: C35_44  and  O9_45 
ROOT
HETATM    1  C4  UNL     1      -6.855  45.625 -31.793  1.00  0.00     0.165 C 
HETATM    2  C5  UNL     1      -8.187  45.590 -32.019  1.00  0.00     0.053 C 
HETATM    3  C7  UNL     1      -8.784  44.248 -32.130  1.00  0.00    -0.002 C 
HETATM    4  C8  UNL     1      -9.900  43.840 -31.468  1.00  0.00    -0.066 C 
HETATM    5  C9  UNL     1     -10.414  42.409 -31.437  1.00  0.00     0.042 C 
HETATM    6  C10 UNL     1     -10.806  41.899 -30.052  1.00  0.00     0.083 C 
HETATM    7  C11 UNL     1     -10.494  42.854 -28.922  1.00  0.00     0.136 C 
HETATM    8  O4  UNL     1     -10.137  42.410 -27.827  1.00  0.00    -0.297 OA
HETATM    9  C12 UNL     1     -10.726  44.346 -29.134  1.00  0.00     0.092 C 
HETATM   10  C21 UNL     1     -10.803  44.719 -30.622  1.00  0.00     0.052 C 
HETATM   11  C22 UNL     1      -7.909  43.295 -32.872  1.00  0.00     0.044 C 
HETATM   12  C23 UNL     1      -6.532  43.401 -32.542  1.00  0.00     0.101 C 
HETATM   13  O5  UNL     1      -6.112  44.427 -31.701  1.00  0.00    -0.302 OA
HETATM   14  C24 UNL     1      -5.558  42.542 -33.074  1.00  0.00     0.034 C 
HETATM   15  C26 UNL     1      -6.018  41.605 -33.984  1.00  0.00     0.090 C 
HETATM   16  O7  UNL     1      -5.217  40.665 -34.621  1.00  0.00    -0.341 OA
HETATM   17  C27 UNL     1      -6.212  39.704 -35.031  1.00  0.00     0.175 C 
HETATM   18  C28 UNL     1      -7.436  40.518 -35.474  1.00  0.00     0.079 C 
HETATM   19  C29 UNL     1      -8.600  39.599 -35.667  1.00  0.00    -0.019 C 
HETATM   20  C30 UNL     1      -8.405  38.326 -36.064  1.00  0.00    -0.027 C 
HETATM   21  C31 UNL     1      -7.033  37.703 -36.287  1.00  0.00     0.067 C 
HETATM   22  C32 UNL     1      -5.833  38.695 -36.131  1.00  0.00     0.085 C 
HETATM   23  C33 UNL     1      -4.546  37.948 -35.791  1.00  0.00     0.049 C 
HETATM   24  C34 UNL     1      -7.364  41.530 -34.387  1.00  0.00     0.021 C 
HETATM   25  C35 UNL     1      -8.305  42.408 -33.882  1.00  0.00     0.091 C 
ENDROOT
BRANCH   2  26
HETATM   26  C6  UNL     1      -9.009  46.805 -32.255  1.00  0.00     0.273 C 
HETATM   27  O3  UNL     1      -9.442  47.484 -31.329  1.00  0.00    -0.301 OA
ENDBRANCH   2  26
BRANCH   1  28
HETATM   28  C3  UNL     1      -6.024  46.853 -31.659  1.00  0.00     0.318 C 
HETATM   29  O2  UNL     1      -6.316  47.772 -30.909  1.00  0.00    -0.257 OA
BRANCH  28  30
HETATM   30  O1  UNL     1      -4.882  46.762 -32.377  1.00  0.00    -0.316 OA
BRANCH  30  31
HETATM   31  C2  UNL     1      -4.790  47.621 -33.530  1.00  0.00     0.175 C 
HETATM   32  C1  UNL     1      -3.330  47.787 -33.913  1.00  0.00     0.034 C 
ENDBRANCH  30  31
ENDBRANCH  28  30
ENDBRANCH   1  28
BRANCH  25  33
HETATM   33  O9  UNL     1      -9.580  42.355 -34.366  1.00  0.00    -0.354 OA
HETATM   34  C36 UNL     1      -9.754  43.272 -35.448  1.00  0.00     0.210 C 
ENDBRANCH  25  33
BRANCH   9  35
HETATM   35  C13 UNL     1     -11.940  44.893 -28.390  1.00  0.00    -0.046 A 
HETATM   36  C14 UNL     1     -13.192  45.025 -29.015  1.00  0.00     0.010 A 
HETATM   37  C15 UNL     1     -14.299  45.562 -28.351  1.00  0.00     0.031 A 
HETATM   38  C16 UNL     1     -14.115  45.984 -27.031  1.00  0.00     0.042 A 
HETATM   39  N1  UNL     1     -15.010  46.544 -26.146  1.00  0.00    -0.365 N 
HETATM   40  C19 UNL     1     -12.888  45.893 -26.373  1.00  0.00    -0.008 A 
HETATM   41  C17 UNL     1     -14.388  46.811 -24.952  1.00  0.00     0.089 A 
HETATM   42  H14 UNL     1     -15.986  46.723 -26.342  1.00  0.00     0.165 HD
HETATM   43  C18 UNL     1     -13.073  46.421 -25.065  1.00  0.00     0.030 A 
HETATM   44  C20 UNL     1     -11.789  45.340 -27.061  1.00  0.00     0.021 A 
ENDBRANCH   9  35
BRANCH  14  45
HETATM   45  C25 UNL     1      -4.111  42.620 -32.681  1.00  0.00     0.208 C 
BRANCH  45  46
HETATM   46  O6  UNL     1      -3.624  41.327 -32.336  1.00  0.00    -0.396 OA
HETATM   47  H22 UNL     1      -4.241  40.941 -31.694  1.00  0.00     0.209 HD
ENDBRANCH  45  46
ENDBRANCH  14  45
BRANCH  22  48
HETATM   48  O8  UNL     1      -5.591  39.340 -37.392  1.00  0.00    -0.387 OA
HETATM   49  H32 UNL     1      -6.443  39.584 -37.795  1.00  0.00     0.210 HD
ENDBRANCH  22  48
TORSDOF 9
ENDMDL
MODEL 6
REMARK minimizedAffinity -7.35587215
REMARK CNNscore 0.346805751
REMARK CNNaffinity 6.16101027
REMARK  9 active torsions:
REMARK  status: ('A' for Active; 'I' for Inactive)
REMARK    1  A    between atoms: C2_2  and  O1_3 
REMARK    2  A    between atoms: O1_3  and  C3_4 
REMARK    3  A    between atoms: C3_4  and  C4_6 
REMARK    4  A    between atoms: C5_7  and  C6_8 
REMARK    5  A    between atoms: C12_16  and  C13_17 
REMARK    6  A    between atoms: C24_30  and  C25_31 
REMARK    7  A    between atoms: C25_31  and  O6_32 
REMARK    8  A    between atoms: C32_40  and  O8_42 
REMARK    9  A    between atoms: C35_44  and  O9_45 
ROOT
HETATM    1  C4  UNL     1     -15.731  46.097 -23.165  1.00  0.00     0.165 C 
HETATM    2  C5  UNL     1     -14.660  45.381 -23.573  1.00  0.00     0.053 C 
HETATM    3  C7  UNL     1     -14.658  44.979 -24.990  1.00  0.00    -0.002 C 
HETATM    4  C8  UNL     1     -13.609  45.145 -25.841  1.00  0.00    -0.066 C 
HETATM    5  C9  UNL     1     -13.663  44.902 -27.340  1.00  0.00     0.042 C 
HETATM    6  C10 UNL     1     -13.037  46.004 -28.191  1.00  0.00     0.083 C 
HETATM    7  C11 UNL     1     -12.586  47.217 -27.410  1.00  0.00     0.136 C 
HETATM    8  O4  UNL     1     -12.685  48.341 -27.912  1.00  0.00    -0.297 OA
HETATM    9  C12 UNL     1     -11.921  47.014 -26.052  1.00  0.00     0.092 C 
HETATM   10  C21 UNL     1     -12.223  45.630 -25.457  1.00  0.00     0.052 C 
HETATM   11  C22 UNL     1     -16.011  44.576 -25.470  1.00  0.00     0.044 C 
HETATM   12  C23 UNL     1     -17.060  45.409 -25.001  1.00  0.00     0.101 C 
HETATM   13  O5  UNL     1     -16.775  46.400 -24.067  1.00  0.00    -0.302 OA
HETATM   14  C24 UNL     1     -18.396  45.242 -25.400  1.00  0.00     0.034 C 
HETATM   15  C26 UNL     1     -18.637  44.177 -26.251  1.00  0.00     0.090 C 
HETATM   16  O7  UNL     1     -19.886  43.842 -26.760  1.00  0.00    -0.341 OA
HETATM   17  C27 UNL     1     -19.503  43.034 -27.892  1.00  0.00     0.175 C 
HETATM   18  C28 UNL     1     -18.295  42.204 -27.436  1.00  0.00     0.079 C 
HETATM   19  C29 UNL     1     -17.676  41.534 -28.620  1.00  0.00    -0.019 C 
HETATM   20  C30 UNL     1     -18.435  41.173 -29.675  1.00  0.00    -0.027 C 
HETATM   21  C31 UNL     1     -19.927  41.455 -29.785  1.00  0.00     0.067 C 
HETATM   22  C32 UNL     1     -20.565  42.109 -28.515  1.00  0.00     0.085 C 
HETATM   23  C33 UNL     1     -21.838  42.871 -28.870  1.00  0.00     0.049 C 
HETATM   24  C34 UNL     1     -17.629  43.289 -26.668  1.00  0.00     0.021 C 
HETATM   25  C35 UNL     1     -16.325  43.445 -26.236  1.00  0.00     0.091 C 
ENDROOT
BRANCH   2  26
HETATM   26  C6  UNL     1     -13.588  44.915 -22.654  1.00  0.00     0.273 C 
HETATM   27  O3  UNL     1     -12.694  45.662 -22.272  1.00  0.00    -0.301 OA
ENDBRANCH   2  26
BRANCH   1  28
HETATM   28  C3  UNL     1     -15.970  46.602 -21.785  1.00  0.00     0.318 C 
HETATM   29  O2  UNL     1     -15.211  47.377 -21.223  1.00  0.00    -0.257 OA
BRANCH  28  30
HETATM   30  O1  UNL     1     -17.161  46.183 -21.301  1.00  0.00    -0.316 OA
BRANCH  30  31
HETATM   31  C2  UNL     1     -17.430  46.503 -19.923  1.00  0.00     0.175 C 
HETATM   32  C1  UNL     1     -18.873  46.957 -19.789  1.00  0.00     0.034 C 
ENDBRANCH  30  31
ENDBRANCH  28  30
ENDBRANCH   1  28
BRANCH  25  33
HETATM   33  O9  UNL     1     -15.397  42.510 -26.596  1.00  0.00    -0.354 OA
HETATM   34  C36 UNL     1     -15.061  42.630 -27.978  1.00  0.00     0.210 C 
ENDBRANCH  25  33
BRANCH   9  35
HETATM   35  C13 UNL     1     -10.417  47.268 -26.058  1.00  0.00    -0.046 A 
HETATM   36  C14 UNL     1      -9.750  47.780 -24.932  1.00  0.00     0.010 A 
HETATM   37  C15 UNL     1      -8.379  48.054 -24.944  1.00  0.00     0.031 A 
HETATM   38  C16 UNL     1      -7.685  47.812 -26.133  1.00  0.00     0.042 A 
HETATM   39  N1  UNL     1      -6.352  47.987 -26.434  1.00  0.00    -0.365 N 
HETATM   40  C19 UNL     1      -8.305  47.325 -27.284  1.00  0.00    -0.008 A 
HETATM   41  C17 UNL     1      -6.110  47.627 -27.736  1.00  0.00     0.089 A 
HETATM   42  H14 UNL     1      -5.650  48.321 -25.786  1.00  0.00     0.165 HD
HETATM   43  C18 UNL     1      -7.302  47.216 -28.287  1.00  0.00     0.030 A 
HETATM   44  C20 UNL     1      -9.687  47.049 -27.244  1.00  0.00     0.021 A 
ENDBRANCH   9  35
BRANCH  14  45
HETATM   45  C25 UNL     1     -19.495  46.159 -24.947  1.00  0.00     0.208 C 
BRANCH  45  46
HETATM   46  O6  UNL     1     -19.044  47.509 -24.950  1.00  0.00    -0.396 OA
HETATM   47  H22 UNL     1     -18.205  47.541 -24.461  1.00  0.00     0.209 HD
ENDBRANCH  45  46
ENDBRANCH  14  45
BRANCH  22  48
HETATM   48  O8  UNL     1     -20.970  41.070 -27.607  1.00  0.00    -0.387 OA
HETATM   49  H32 UNL     1     -20.277  40.388 -27.572  1.00  0.00     0.210 HD
ENDBRANCH  22  48
TORSDOF 9
ENDMDL
MODEL 7
REMARK minimizedAffinity -7.23994541
REMARK CNNscore 0.328953296
REMARK CNNaffinity 6.27755022
REMARK  9 active torsions:
REMARK  status: ('A' for Active; 'I' for Inactive)
REMARK    1  A    between atoms: C2_2  and  O1_3 
REMARK    2  A    between atoms: O1_3  and  C3_4 
REMARK    3  A    between atoms: C3_4  and  C4_6 
REMARK    4  A    between atoms: C5_7  and  C6_8 
REMARK    5  A    between atoms: C12_16  and  C13_17 
REMARK    6  A    between atoms: C24_30  and  C25_31 
REMARK    7  A    between atoms: C25_31  and  O6_32 
REMARK    8  A    between atoms: C32_40  and  O8_42 
REMARK    9  A    between atoms: C35_44  and  O9_45 
ROOT
HETATM    1  C4  UNL     1       4.485  55.916  -7.539  1.00  0.00     0.165 C 
HETATM    2  C5  UNL     1       3.307  56.571  -7.642  1.00  0.00     0.053 C 
HETATM    3  C7  UNL     1       2.139  55.741  -7.985  1.00  0.00    -0.002 C 
HETATM    4  C8  UNL     1       0.949  55.769  -7.326  1.00  0.00    -0.066 C 
HETATM    5  C9  UNL     1      -0.192  54.792  -7.557  1.00  0.00     0.042 C 
HETATM    6  C10 UNL     1      -0.815  54.222  -6.284  1.00  0.00     0.083 C 
HETATM    7  C11 UNL     1      -0.107  54.620  -5.008  1.00  0.00     0.136 C 
HETATM    8  O4  UNL     1      -0.035  53.818  -4.072  1.00  0.00    -0.297 OA
HETATM    9  C12 UNL     1       0.416  56.046  -4.871  1.00  0.00     0.092 C 
HETATM   10  C21 UNL     1       0.564  56.746  -6.231  1.00  0.00     0.052 C 
HETATM   11  C22 UNL     1       2.462  54.690  -8.992  1.00  0.00     0.044 C 
HETATM   12  C23 UNL     1       3.711  54.049  -8.776  1.00  0.00     0.101 C 
HETATM   13  O5  UNL     1       4.554  54.524  -7.777  1.00  0.00    -0.302 OA
HETATM   14  C24 UNL     1       4.161  52.982  -9.569  1.00  0.00     0.034 C 
HETATM   15  C26 UNL     1       3.327  52.618 -10.613  1.00  0.00     0.090 C 
HETATM   16  O7  UNL     1       3.590  51.589 -11.510  1.00  0.00    -0.341 OA
HETATM   17  C27 UNL     1       2.264  51.341 -12.023  1.00  0.00     0.175 C 
HETATM   18  C28 UNL     1       1.596  52.716 -12.164  1.00  0.00     0.079 C 
HETATM   19  C29 UNL     1       0.139  52.534 -12.442  1.00  0.00    -0.019 C 
HETATM   20  C30 UNL     1      -0.297  51.453 -13.121  1.00  0.00    -0.027 C 
HETATM   21  C31 UNL     1       0.609  50.326 -13.599  1.00  0.00     0.067 C 
HETATM   22  C32 UNL     1       2.134  50.562 -13.344  1.00  0.00     0.085 C 
HETATM   23  C33 UNL     1       2.893  49.238 -13.295  1.00  0.00     0.049 C 
HETATM   24  C34 UNL     1       2.122  53.287 -10.897  1.00  0.00     0.021 C 
HETATM   25  C35 UNL     1       1.711  54.361 -10.129  1.00  0.00     0.091 C 
ENDROOT
BRANCH   2  26
HETATM   26  C6  UNL     1       3.180  58.047  -7.534  1.00  0.00     0.273 C 
HETATM   27  O3  UNL     1       2.911  58.597  -6.471  1.00  0.00    -0.301 OA
ENDBRANCH   2  26
BRANCH   1  28
HETATM   28  C3  UNL     1       5.802  56.532  -7.221  1.00  0.00     0.318 C 
HETATM   29  O2  UNL     1       5.911  57.646  -6.734  1.00  0.00    -0.257 OA
BRANCH  28  30
HETATM   30  O1  UNL     1       6.821  55.669  -7.439  1.00  0.00    -0.316 OA
BRANCH  30  31
HETATM   31  C2  UNL     1       7.447  55.121  -6.263  1.00  0.00     0.175 C 
HETATM   32  C1  UNL     1       8.614  56.004  -5.861  1.00  0.00     0.034 C 
ENDBRANCH  30  31
ENDBRANCH  28  30
ENDBRANCH   1  28
BRANCH  25  33
HETATM   33  O9  UNL     1       0.580  55.034 -10.493  1.00  0.00    -0.354 OA
HETATM   34  C36 UNL     1      -0.586  54.253 -10.228  1.00  0.00     0.210 C 
ENDBRANCH  25  33
BRANCH   9  35
HETATM   35  C13 UNL     1      -0.401  56.913  -3.917  1.00  0.00    -0.046 A 
HETATM   36  C14 UNL     1      -1.645  56.491  -3.418  1.00  0.00     0.010 A 
HETATM   37  C15 UNL     1      -2.417  57.297  -2.576  1.00  0.00     0.031 A 
HETATM   38  C16 UNL     1      -1.911  58.560  -2.253  1.00  0.00     0.042 A 
HETATM   39  N1  UNL     1      -2.444  59.553  -1.460  1.00  0.00    -0.365 N 
HETATM   40  C19 UNL     1      -0.692  59.033  -2.740  1.00  0.00    -0.008 A 
HETATM   41  C17 UNL     1      -1.602  60.637  -1.432  1.00  0.00     0.089 A 
HETATM   42  H14 UNL     1      -3.322  59.489  -0.962  1.00  0.00     0.165 HD
HETATM   43  C18 UNL     1      -0.511  60.344  -2.217  1.00  0.00     0.030 A 
HETATM   44  C20 UNL     1       0.072  58.198  -3.580  1.00  0.00     0.021 A 
ENDBRANCH   9  35
BRANCH  14  45
HETATM   45  C25 UNL     1       5.456  52.270  -9.305  1.00  0.00     0.208 C 
BRANCH  45  46
HETATM   46  O6  UNL     1       6.534  53.200  -9.278  1.00  0.00    -0.396 OA
HETATM   47  H22 UNL     1       6.477  53.740 -10.084  1.00  0.00     0.209 HD
ENDBRANCH  45  46
ENDBRANCH  14  45
BRANCH  22  48
HETATM   48  O8  UNL     1       2.688  51.289 -14.454  1.00  0.00    -0.387 OA
HETATM   49  H32 UNL     1       2.069  51.994 -14.714  1.00  0.00     0.210 HD
ENDBRANCH  22  48
TORSDOF 9
ENDMDL
MODEL 8
REMARK minimizedAffinity -9.07952881
REMARK CNNscore 0.322882235
REMARK CNNaffinity 7.55371332
REMARK  9 active torsions:
REMARK  status: ('A' for Active; 'I' for Inactive)
REMARK    1  A    between atoms: C2_2  and  O1_3 
REMARK    2  A    between atoms: O1_3  and  C3_4 
REMARK    3  A    between atoms: C3_4  and  C4_6 
REMARK    4  A    between atoms: C5_7  and  C6_8 
REMARK    5  A    between atoms: C12_16  and  C13_17 
REMARK    6  A    between atoms: C24_30  and  C25_31 
REMARK    7  A    between atoms: C25_31  and  O6_32 
REMARK    8  A    between atoms: C32_40  and  O8_42 
REMARK    9  A    between atoms: C35_44  and  O9_45 
ROOT
HETATM    1  C4  UNL     1      -1.447  51.017 -25.121  1.00  0.00     0.165 C 
HETATM    2  C5  UNL     1      -1.939  51.610 -24.010  1.00  0.00     0.053 C 
HETATM    3  C7  UNL     1      -2.892  50.809 -23.223  1.00  0.00    -0.002 C 
HETATM    4  C8  UNL     1      -2.821  50.626 -21.876  1.00  0.00    -0.066 C 
HETATM    5  C9  UNL     1      -3.689  49.658 -21.087  1.00  0.00     0.042 C 
HETATM    6  C10 UNL     1      -2.932  48.791 -20.083  1.00  0.00     0.083 C 
HETATM    7  C11 UNL     1      -1.428  48.943 -20.134  1.00  0.00     0.136 C 
HETATM    8  O4  UNL     1      -0.707  47.963 -19.927  1.00  0.00    -0.297 OA
HETATM    9  C12 UNL     1      -0.835  50.334 -20.340  1.00  0.00     0.092 C 
HETATM   10  C21 UNL     1      -1.853  51.319 -20.935  1.00  0.00     0.052 C 
HETATM   11  C22 UNL     1      -3.822  50.022 -24.081  1.00  0.00     0.044 C 
HETATM   12  C23 UNL     1      -3.197  49.422 -25.207  1.00  0.00     0.101 C 
HETATM   13  O5  UNL     1      -1.866  49.716 -25.482  1.00  0.00    -0.302 OA
HETATM   14  C24 UNL     1      -3.885  48.579 -26.095  1.00  0.00     0.034 C 
HETATM   15  C26 UNL     1      -5.233  48.403 -25.830  1.00  0.00     0.090 C 
HETATM   16  O7  UNL     1      -6.087  47.610 -26.586  1.00  0.00    -0.341 OA
HETATM   17  C27 UNL     1      -7.160  47.404 -25.643  1.00  0.00     0.175 C 
HETATM   18  C28 UNL     1      -7.340  48.736 -24.902  1.00  0.00     0.079 C 
HETATM   19  C29 UNL     1      -8.250  48.535 -23.734  1.00  0.00    -0.019 C 
HETATM   20  C30 UNL     1      -9.225  47.604 -23.780  1.00  0.00    -0.027 C 
HETATM   21  C31 UNL     1      -9.447  46.661 -24.955  1.00  0.00     0.067 C 
HETATM   22  C32 UNL     1      -8.518  46.923 -26.186  1.00  0.00     0.085 C 
HETATM   23  C33 UNL     1      -8.371  45.665 -27.039  1.00  0.00     0.049 C 
HETATM   24  C34 UNL     1      -5.893  49.047 -24.768  1.00  0.00     0.021 C 
HETATM   25  C35 UNL     1      -5.209  49.904 -23.925  1.00  0.00     0.091 C 
ENDROOT
BRANCH   2  26
HETATM   26  C6  UNL     1      -1.645  53.018 -23.637  1.00  0.00     0.273 C 
HETATM   27  O3  UNL     1      -1.387  53.871 -24.480  1.00  0.00    -0.301 OA
ENDBRANCH   2  26
BRANCH   1  28
HETATM   28  C3  UNL     1      -0.488  51.623 -26.083  1.00  0.00     0.318 C 
HETATM   29  O2  UNL     1       0.714  51.675 -25.876  1.00  0.00    -0.257 OA
BRANCH  28  30
HETATM   30  O1  UNL     1      -1.102  51.997 -27.229  1.00  0.00    -0.316 OA
BRANCH  30  31
HETATM   31  C2  UNL     1      -0.291  52.724 -28.172  1.00  0.00     0.175 C 
HETATM   32  C1  UNL     1      -0.394  54.209 -27.878  1.00  0.00     0.034 C 
ENDBRANCH  30  31
ENDBRANCH  28  30
ENDBRANCH   1  28
BRANCH  25  33
HETATM   33  O9  UNL     1      -5.907  50.575 -22.962  1.00  0.00    -0.354 OA
HETATM   34  C36 UNL     1      -6.301  49.693 -21.910  1.00  0.00     0.210 C 
ENDBRANCH  25  33
BRANCH   9  35
HETATM   35  C13 UNL     1      -0.199  50.925 -19.086  1.00  0.00    -0.046 A 
HETATM   36  C14 UNL     1       0.397  52.197 -19.090  1.00  0.00     0.010 A 
HETATM   37  C15 UNL     1       1.017  52.728 -17.955  1.00  0.00     0.031 A 
HETATM   38  C16 UNL     1       1.039  51.935 -16.803  1.00  0.00     0.042 A 
HETATM   39  N1  UNL     1       1.572  52.192 -15.559  1.00  0.00    -0.365 N 
HETATM   40  C19 UNL     1       0.480  50.658 -16.755  1.00  0.00    -0.008 A 
HETATM   41  C17 UNL     1       1.369  51.119 -14.728  1.00  0.00     0.089 A 
HETATM   42  H14 UNL     1       2.035  53.051 -15.293  1.00  0.00     0.165 HD
HETATM   43  C18 UNL     1       0.698  50.154 -15.443  1.00  0.00     0.030 A 
HETATM   44  C20 UNL     1      -0.147  50.148 -17.910  1.00  0.00     0.021 A 
ENDBRANCH   9  35
BRANCH  14  45
HETATM   45  C25 UNL     1      -3.210  47.902 -27.252  1.00  0.00     0.208 C 
BRANCH  45  46
HETATM   46  O6  UNL     1      -3.923  48.158 -28.457  1.00  0.00    -0.396 OA
HETATM   47  H22 UNL     1      -4.857  47.945 -28.298  1.00  0.00     0.209 HD
ENDBRANCH  45  46
ENDBRANCH  14  45
BRANCH  22  48
HETATM   48  O8  UNL     1      -9.134  47.904 -27.038  1.00  0.00    -0.387 OA
HETATM   49  H32 UNL     1      -9.512  48.612 -26.487  1.00  0.00     0.210 HD
ENDBRANCH  22  48
TORSDOF 9
ENDMDL
MODEL 9
REMARK minimizedAffinity -10.1369247
REMARK CNNscore 0.288079977
REMARK CNNaffinity 7.52265024
REMARK  9 active torsions:
REMARK  status: ('A' for Active; 'I' for Inactive)
REMARK    1  A    between atoms: C2_2  and  O1_3 
REMARK    2  A    between atoms: O1_3  and  C3_4 
REMARK    3  A    between atoms: C3_4  and  C4_6 
REMARK    4  A    between atoms: C5_7  and  C6_8 
REMARK    5  A    between atoms: C12_16  and  C13_17 
REMARK    6  A    between atoms: C24_30  and  C25_31 
REMARK    7  A    between atoms: C25_31  and  O6_32 
REMARK    8  A    between atoms: C32_40  and  O8_42 
REMARK    9  A    between atoms: C35_44  and  O9_45 
ROOT
HETATM    1  C4  UNL     1      -2.826  51.056 -25.319  1.00  0.00     0.165 C 
HETATM    2  C5  UNL     1      -3.317  51.181 -24.066  1.00  0.00     0.053 C 
HETATM    3  C7  UNL     1      -3.948  49.975 -23.501  1.00  0.00    -0.002 C 
HETATM    4  C8  UNL     1      -3.681  49.468 -22.266  1.00  0.00    -0.066 C 
HETATM    5  C9  UNL     1      -4.188  48.131 -21.752  1.00  0.00     0.042 C 
HETATM    6  C10 UNL     1      -3.132  47.265 -21.069  1.00  0.00     0.083 C 
HETATM    7  C11 UNL     1      -1.727  47.822 -21.136  1.00  0.00     0.136 C 
HETATM    8  O4  UNL     1      -0.768  47.052 -21.247  1.00  0.00    -0.297 OA
HETATM    9  C12 UNL     1      -1.521  49.323 -20.962  1.00  0.00     0.092 C 
HETATM   10  C21 UNL     1      -2.811  50.120 -21.208  1.00  0.00     0.052 C 
HETATM   11  C22 UNL     1      -4.748  49.224 -24.509  1.00  0.00     0.044 C 
HETATM   12  C23 UNL     1      -4.129  49.132 -25.784  1.00  0.00     0.101 C 
HETATM   13  O5  UNL     1      -2.951  49.835 -26.019  1.00  0.00    -0.302 OA
HETATM   14  C24 UNL     1      -4.686  48.403 -26.846  1.00  0.00     0.034 C 
HETATM   15  C26 UNL     1      -5.910  47.809 -26.587  1.00  0.00     0.090 C 
HETATM   16  O7  UNL     1      -6.625  47.045 -27.502  1.00  0.00    -0.341 OA
HETATM   17  C27 UNL     1      -7.498  46.317 -26.614  1.00  0.00     0.175 C 
HETATM   18  C28 UNL     1      -7.914  47.307 -25.516  1.00  0.00     0.079 C 
HETATM   19  C29 UNL     1      -8.607  46.569 -24.417  1.00  0.00    -0.019 C 
HETATM   20  C30 UNL     1      -9.322  45.458 -24.686  1.00  0.00    -0.027 C 
HETATM   21  C31 UNL     1      -9.439  44.835 -26.071  1.00  0.00     0.067 C 
HETATM   22  C32 UNL     1      -8.750  45.652 -27.214  1.00  0.00     0.085 C 
HETATM   23  C33 UNL     1      -8.398  44.751 -28.395  1.00  0.00     0.049 C 
HETATM   24  C34 UNL     1      -6.582  47.948 -25.359  1.00  0.00     0.021 C 
HETATM   25  C35 UNL     1      -6.037  48.702 -24.336  1.00  0.00     0.091 C 
ENDROOT
BRANCH   2  26
HETATM   26  C6  UNL     1      -3.338  52.465 -23.319  1.00  0.00     0.273 C 
HETATM   27  O3  UNL     1      -4.348  52.869 -22.753  1.00  0.00    -0.301 OA
ENDBRANCH   2  26
BRANCH   1  28
HETATM   28  C3  UNL     1      -2.162  52.129 -26.108  1.00  0.00     0.318 C 
HETATM   29  O2  UNL     1      -2.784  52.945 -26.771  1.00  0.00    -0.257 OA
BRANCH  28  30
HETATM   30  O1  UNL     1      -0.825  52.141 -25.906  1.00  0.00    -0.316 OA
BRANCH  30  31
HETATM   31  C2  UNL     1      -0.058  51.212 -26.694  1.00  0.00     0.175 C 
HETATM   32  C1  UNL     1       0.384  51.892 -27.977  1.00  0.00     0.034 C 
ENDBRANCH  30  31
ENDBRANCH  28  30
ENDBRANCH   1  28
BRANCH  25  33
HETATM   33  O9  UNL     1      -6.764  48.882 -23.193  1.00  0.00    -0.354 OA
HETATM   34  C36 UNL     1      -6.800  47.683 -22.418  1.00  0.00     0.210 C 
ENDBRANCH  25  33
BRANCH   9  35
HETATM   35  C13 UNL     1      -0.910  49.710 -19.619  1.00  0.00    -0.046 A 
HETATM   36  C14 UNL     1      -1.058  48.900 -18.480  1.00  0.00     0.010 A 
HETATM   37  C15 UNL     1      -0.534  49.268 -17.236  1.00  0.00     0.031 A 
HETATM   38  C16 UNL     1       0.138  50.491 -17.158  1.00  0.00     0.042 A 
HETATM   39  N1  UNL     1       0.745  51.102 -16.083  1.00  0.00    -0.365 N 
HETATM   40  C19 UNL     1       0.292  51.340 -18.254  1.00  0.00    -0.008 A 
HETATM   41  C17 UNL     1       1.277  52.309 -16.464  1.00  0.00     0.089 A 
HETATM   42  H14 UNL     1       0.801  50.714 -15.150  1.00  0.00     0.165 HD
HETATM   43  C18 UNL     1       1.009  52.483 -17.802  1.00  0.00     0.030 A 
HETATM   44  C20 UNL     1      -0.236  50.943 -19.499  1.00  0.00     0.021 A 
ENDBRANCH   9  35
BRANCH  14  45
HETATM   45  C25 UNL     1      -4.003  48.261 -28.175  1.00  0.00     0.208 C 
BRANCH  45  46
HETATM   46  O6  UNL     1      -4.120  49.469 -28.920  1.00  0.00    -0.396 OA
HETATM   47  H22 UNL     1      -5.057  49.724 -28.924  1.00  0.00     0.209 HD
ENDBRANCH  45  46
ENDBRANCH  14  45
BRANCH  22  48
HETATM   48  O8  UNL     1      -9.681  46.621 -27.724  1.00  0.00    -0.387 OA
HETATM   49  H32 UNL     1     -10.156  47.030 -26.980  1.00  0.00     0.210 HD
ENDBRANCH  22  48
TORSDOF 9
ENDMDL
