MODEL 1
REMARK minimizedAffinity -8.2463932
REMARK CNNscore 0.552082002
REMARK CNNaffinity 6.38133287
REMARK  11 active torsions:
REMARK  status: ('A' for Active; 'I' for Inactive)
REMARK    1  A    between atoms: C3_3  and  O1_4 
REMARK    2  A    between atoms: N1_14  and  O2_16 
REMARK    3  A    between atoms: O2_16  and  C13_17 
REMARK    4  A    between atoms: C13_17  and  C14_18 
REMARK       I    between atoms: C14_18  and  N2_20 
REMARK    5  A    between atoms: N2_20  and  C15_21 
REMARK    6  A    between atoms: C15_21  and  C16_22 
REMARK    7  A    between atoms: C15_21  and  C17_25 
REMARK    8  A    between atoms: C16_22  and  O5_24 
REMARK    9  A    between atoms: C17_25  and  O6_26 
REMARK   10  A    between atoms: C17_25  and  C18_27 
REMARK   11  A    between atoms: C22_31  and  N3_32 
ROOT
HETATM    1  C1  UNL     1      -5.959  14.823  15.134  1.00  0.00     0.015 C 
HETATM    2  C2  UNL     1      -5.509  14.765  16.247  1.00  0.00    -0.078 C 
HETATM    3  C3  UNL     1      -4.941  14.696  17.601  1.00  0.00     0.128 C 
HETATM    4  C4  UNL     1      -4.750  13.250  18.056  1.00  0.00     0.052 C 
HETATM    5  C5  UNL     1      -4.613  13.335  19.572  1.00  0.00     0.010 C 
HETATM    6  C6  UNL     1      -5.324  14.631  20.019  1.00  0.00     0.002 C 
HETATM    7  C7  UNL     1      -6.463  14.422  21.038  1.00  0.00    -0.004 C 
HETATM    8  C8  UNL     1      -5.960  13.883  22.383  1.00  0.00     0.010 C 
HETATM    9  C9  UNL     1      -7.097  13.862  23.400  1.00  0.00     0.035 C 
HETATM   10  C10 UNL     1      -8.316  13.111  22.910  1.00  0.00    -0.069 C 
HETATM   11  C11 UNL     1      -8.947  12.270  23.751  1.00  0.00     0.030 C 
HETATM   12  C12 UNL     1     -10.246  11.640  23.412  1.00  0.00     0.032 C 
HETATM   13  N1  UNL     1     -10.875  11.006  24.362  1.00  0.00    -0.271 N 
ATOM     14  H1  UNL     1     -10.505  10.870  25.303  1.00  0.00     0.194 HD
HETATM   15  C24 UNL     1     -10.810  11.858  22.025  1.00  0.00     0.060 C 
HETATM   16  C25 UNL     1      -9.730  12.240  21.020  1.00  0.00     0.020 C 
HETATM   17  C26 UNL     1      -8.812  13.409  21.486  1.00  0.00    -0.016 C 
HETATM   18  C27 UNL     1      -9.621  14.725  21.527  1.00  0.00     0.020 C 
HETATM   19  C28 UNL     1      -7.586  13.501  20.498  1.00  0.00     0.002 C 
HETATM   20  C29 UNL     1      -7.949  13.847  19.035  1.00  0.00     0.007 C 
HETATM   21  C30 UNL     1      -7.365  15.173  18.552  1.00  0.00     0.014 C 
HETATM   22  C31 UNL     1      -5.824  15.345  18.719  1.00  0.00     0.003 C 
HETATM   23  C32 UNL     1      -5.563  16.869  18.817  1.00  0.00     0.020 C 
ENDROOT
BRANCH   3  24
HETATM   24  O1  UNL     1      -3.647  15.303  17.542  1.00  0.00    -0.377 OA
HETATM   25  H2  UNL     1      -3.225  15.222  18.412  1.00  0.00     0.211 HD
ENDBRANCH   3  24
BRANCH  13  26
HETATM   26  O2  UNL     1     -12.123  10.535  23.928  1.00  0.00    -0.271 OA
BRANCH  26  27
HETATM   27  C13 UNL     1     -12.555   9.496  24.801  1.00  0.00     0.303 C 
BRANCH  27  28
HETATM   28  C14 UNL     1     -12.280   8.132  24.189  1.00  0.00     0.244 C 
HETATM   29  O3  UNL     1     -11.204   7.832  23.677  1.00  0.00    -0.271 OA
HETATM   30  N2  UNL     1     -13.363   7.285  24.175  1.00  0.00    -0.342 N 
HETATM   31  H16 UNL     1     -14.203   7.540  24.692  1.00  0.00     0.163 HD
BRANCH  30  32
HETATM   32  C15 UNL     1     -13.306   5.963  23.543  1.00  0.00     0.216 C 
BRANCH  32  33
HETATM   33  C16 UNL     1     -13.767   6.044  22.088  1.00  0.00     0.166 C 
HETATM   34  O4  UNL     1     -14.421   5.199  21.490  1.00  0.00    -0.648 OA
BRANCH  33  35
HETATM   35  O5  UNL     1     -13.417   7.185  21.455  1.00  0.00    -0.775 OA
HETATM   36  H18 UNL     1     -13.720   7.051  20.527  1.00  0.00     0.167 HD
ENDBRANCH  33  35
ENDBRANCH  32  33
BRANCH  32  37
HETATM   37  C17 UNL     1     -14.139   4.909  24.328  1.00  0.00     0.184 C 
BRANCH  37  38
HETATM   38  O6  UNL     1     -15.275   4.491  23.551  1.00  0.00    -0.388 OA
HETATM   39  H20 UNL     1     -14.941   3.940  22.819  1.00  0.00     0.210 HD
ENDBRANCH  37  38
BRANCH  37  40
HETATM   40  C18 UNL     1     -13.337   3.716  24.845  1.00  0.00    -0.025 A 
HETATM   41  C19 UNL     1     -12.451   2.991  24.026  1.00  0.00     0.010 A 
HETATM   42  C20 UNL     1     -11.734   1.895  24.523  1.00  0.00     0.003 A 
HETATM   43  C21 UNL     1     -11.894   1.488  25.843  1.00  0.00     0.036 A 
HETATM   44  C22 UNL     1     -12.792   2.178  26.663  1.00  0.00     0.103 A 
HETATM   45  C23 UNL     1     -13.516   3.278  26.171  1.00  0.00     0.045 A 
BRANCH  44  46
HETATM   46  N3  UNL     1     -12.985   1.742  28.054  1.00  0.00    -0.116 N 
HETATM   47  O7  UNL     1     -12.170   2.141  28.902  1.00  0.00    -0.532 OA
HETATM   48  O8  UNL     1     -13.951   0.999  28.300  1.00  0.00    -0.532 OA
ENDBRANCH  44  46
ENDBRANCH  37  40
ENDBRANCH  32  37
ENDBRANCH  30  32
ENDBRANCH  27  28
ENDBRANCH  26  27
ENDBRANCH  13  26
TORSDOF 11
ENDMDL
MODEL 2
REMARK minimizedAffinity -8.01277637
REMARK CNNscore 0.359790891
REMARK CNNaffinity 6.72391748
REMARK  11 active torsions:
REMARK  status: ('A' for Active; 'I' for Inactive)
REMARK    1  A    between atoms: C3_3  and  O1_4 
REMARK    2  A    between atoms: N1_14  and  O2_16 
REMARK    3  A    between atoms: O2_16  and  C13_17 
REMARK    4  A    between atoms: C13_17  and  C14_18 
REMARK       I    between atoms: C14_18  and  N2_20 
REMARK    5  A    between atoms: N2_20  and  C15_21 
REMARK    6  A    between atoms: C15_21  and  C16_22 
REMARK    7  A    between atoms: C15_21  and  C17_25 
REMARK    8  A    between atoms: C16_22  and  O5_24 
REMARK    9  A    between atoms: C17_25  and  O6_26 
REMARK   10  A    between atoms: C17_25  and  C18_27 
REMARK   11  A    between atoms: C22_31  and  N3_32 
ROOT
HETATM    1  C1  UNL     1     -13.286   4.045  30.426  1.00  0.00     0.015 C 
HETATM    2  C2  UNL     1     -13.499   3.423  29.420  1.00  0.00    -0.078 C 
HETATM    3  C3  UNL     1     -13.755   2.645  28.199  1.00  0.00     0.128 C 
HETATM    4  C4  UNL     1     -12.503   2.537  27.330  1.00  0.00     0.052 C 
HETATM    5  C5  UNL     1     -13.021   2.137  25.953  1.00  0.00     0.010 C 
HETATM    6  C6  UNL     1     -14.486   2.619  25.863  1.00  0.00     0.002 C 
HETATM    7  C7  UNL     1     -14.775   3.585  24.695  1.00  0.00    -0.004 C 
HETATM    8  C8  UNL     1     -14.597   2.923  23.323  1.00  0.00     0.010 C 
HETATM    9  C9  UNL     1     -15.062   3.867  22.219  1.00  0.00     0.035 C 
HETATM   10  C10 UNL     1     -14.398   5.225  22.282  1.00  0.00    -0.069 C 
HETATM   11  C11 UNL     1     -13.960   5.791  21.142  1.00  0.00     0.030 C 
HETATM   12  C12 UNL     1     -13.467   7.189  21.092  1.00  0.00     0.032 C 
HETATM   13  N1  UNL     1     -13.257   7.713  19.917  1.00  0.00    -0.271 N 
ATOM     14  H1  UNL     1     -13.356   7.206  19.037  1.00  0.00     0.194 HD
HETATM   15  C24 UNL     1     -13.340   7.953  22.393  1.00  0.00     0.060 C 
HETATM   16  C25 UNL     1     -13.227   7.023  23.595  1.00  0.00     0.020 C 
HETATM   17  C26 UNL     1     -14.324   5.919  23.651  1.00  0.00    -0.016 C 
HETATM   18  C27 UNL     1     -15.700   6.563  23.936  1.00  0.00     0.020 C 
HETATM   19  C28 UNL     1     -13.920   4.876  24.762  1.00  0.00     0.002 C 
HETATM   20  C29 UNL     1     -13.859   5.441  26.200  1.00  0.00     0.007 C 
HETATM   21  C30 UNL     1     -14.869   4.808  27.156  1.00  0.00     0.014 C 
HETATM   22  C31 UNL     1     -14.842   3.251  27.250  1.00  0.00     0.003 C 
HETATM   23  C32 UNL     1     -16.263   2.815  27.682  1.00  0.00     0.020 C 
ENDROOT
BRANCH   3  24
HETATM   24  O1  UNL     1     -14.107   1.322  28.615  1.00  0.00    -0.377 OA
HETATM   25  H2  UNL     1     -14.228   0.770  27.825  1.00  0.00     0.211 HD
ENDBRANCH   3  24
BRANCH  13  26
HETATM   26  O2  UNL     1     -12.876   9.060  20.014  1.00  0.00    -0.271 OA
BRANCH  26  27
HETATM   27  C13 UNL     1     -11.577   9.216  19.451  1.00  0.00     0.303 C 
BRANCH  27  28
HETATM   28  C14 UNL     1     -11.663   9.852  18.073  1.00  0.00     0.244 C 
HETATM   29  O3  UNL     1     -11.997  11.022  17.895  1.00  0.00    -0.271 OA
HETATM   30  N2  UNL     1     -11.422   8.989  17.031  1.00  0.00    -0.342 N 
HETATM   31  H16 UNL     1     -11.058   8.058  17.228  1.00  0.00     0.163 HD
BRANCH  30  32
HETATM   32  C15 UNL     1     -11.549   9.407  15.631  1.00  0.00     0.216 C 
BRANCH  32  33
HETATM   33  C16 UNL     1     -12.267   8.332  14.814  1.00  0.00     0.166 C 
HETATM   34  O4  UNL     1     -12.370   8.302  13.595  1.00  0.00    -0.648 OA
BRANCH  33  35
HETATM   35  O5  UNL     1     -12.798   7.333  15.552  1.00  0.00    -0.775 OA
HETATM   36  H18 UNL     1     -13.276   6.774  14.897  1.00  0.00     0.167 HD
ENDBRANCH  33  35
ENDBRANCH  32  33
BRANCH  32  37
HETATM   37  C17 UNL     1     -10.169   9.750  15.001  1.00  0.00     0.184 C 
BRANCH  37  38
HETATM   38  O6  UNL     1      -9.791  11.098  15.334  1.00  0.00    -0.388 OA
HETATM   39  H20 UNL     1      -9.558  11.111  16.281  1.00  0.00     0.210 HD
ENDBRANCH  37  38
BRANCH  37  40
HETATM   40  C18 UNL     1      -9.055   8.755  15.317  1.00  0.00    -0.025 A 
HETATM   41  C19 UNL     1      -9.301   7.528  15.963  1.00  0.00     0.010 A 
HETATM   42  C20 UNL     1      -8.259   6.636  16.250  1.00  0.00     0.003 A 
HETATM   43  C21 UNL     1      -6.947   6.953  15.913  1.00  0.00     0.036 A 
HETATM   44  C22 UNL     1      -6.681   8.180  15.297  1.00  0.00     0.103 A 
HETATM   45  C23 UNL     1      -7.721   9.080  15.008  1.00  0.00     0.045 A 
BRANCH  44  46
HETATM   46  N3  UNL     1      -5.295   8.534  14.957  1.00  0.00    -0.116 N 
HETATM   47  O7  UNL     1      -4.507   8.742  15.894  1.00  0.00    -0.532 OA
HETATM   48  O8  UNL     1      -4.994   8.607  13.753  1.00  0.00    -0.532 OA
ENDBRANCH  44  46
ENDBRANCH  37  40
ENDBRANCH  32  37
ENDBRANCH  30  32
ENDBRANCH  27  28
ENDBRANCH  26  27
ENDBRANCH  13  26
TORSDOF 11
ENDMDL
MODEL 3
REMARK minimizedAffinity -8.59962845
REMARK CNNscore 0.356398165
REMARK CNNaffinity 6.43574333
REMARK  11 active torsions:
REMARK  status: ('A' for Active; 'I' for Inactive)
REMARK    1  A    between atoms: C3_3  and  O1_4 
REMARK    2  A    between atoms: N1_14  and  O2_16 
REMARK    3  A    between atoms: O2_16  and  C13_17 
REMARK    4  A    between atoms: C13_17  and  C14_18 
REMARK       I    between atoms: C14_18  and  N2_20 
REMARK    5  A    between atoms: N2_20  and  C15_21 
REMARK    6  A    between atoms: C15_21  and  C16_22 
REMARK    7  A    between atoms: C15_21  and  C17_25 
REMARK    8  A    between atoms: C16_22  and  O5_24 
REMARK    9  A    between atoms: C17_25  and  O6_26 
REMARK   10  A    between atoms: C17_25  and  C18_27 
REMARK   11  A    between atoms: C22_31  and  N3_32 
ROOT
HETATM    1  C1  UNL     1       3.440   8.981   7.994  1.00  0.00     0.015 C 
HETATM    2  C2  UNL     1       2.826   8.091   8.519  1.00  0.00    -0.078 C 
HETATM    3  C3  UNL     1       2.076   6.993   9.145  1.00  0.00     0.128 C 
HETATM    4  C4  UNL     1       0.570   7.254   9.114  1.00  0.00     0.052 C 
HETATM    5  C5  UNL     1      -0.008   6.312  10.165  1.00  0.00     0.010 C 
HETATM    6  C6  UNL     1       1.121   6.015  11.177  1.00  0.00     0.002 C 
HETATM    7  C7  UNL     1       0.793   6.389  12.637  1.00  0.00    -0.004 C 
HETATM    8  C8  UNL     1      -0.352   5.551  13.218  1.00  0.00     0.010 C 
HETATM    9  C9  UNL     1      -0.515   5.841  14.707  1.00  0.00     0.035 C 
HETATM   10  C10 UNL     1      -0.684   7.315  15.007  1.00  0.00    -0.069 C 
HETATM   11  C11 UNL     1      -1.617   7.696  15.899  1.00  0.00     0.030 C 
HETATM   12  C12 UNL     1      -1.722   9.095  16.384  1.00  0.00     0.032 C 
HETATM   13  N1  UNL     1      -2.518   9.325  17.390  1.00  0.00    -0.271 N 
ATOM     14  H1  UNL     1      -3.111   8.619  17.826  1.00  0.00     0.194 HD
HETATM   15  C24 UNL     1      -0.828  10.142  15.757  1.00  0.00     0.060 C 
HETATM   16  C25 UNL     1      -0.339   9.725  14.375  1.00  0.00     0.020 C 
HETATM   17  C26 UNL     1       0.280   8.297  14.322  1.00  0.00    -0.016 C 
HETATM   18  C27 UNL     1       1.616   8.277  15.099  1.00  0.00     0.020 C 
HETATM   19  C28 UNL     1       0.471   7.895  12.809  1.00  0.00     0.002 C 
HETATM   20  C29 UNL     1       1.461   8.780  12.017  1.00  0.00     0.007 C 
HETATM   21  C30 UNL     1       2.687   8.028  11.503  1.00  0.00     0.014 C 
HETATM   22  C31 UNL     1       2.402   6.749  10.656  1.00  0.00     0.003 C 
HETATM   23  C32 UNL     1       3.641   5.834  10.816  1.00  0.00     0.020 C 
ENDROOT
BRANCH   3  24
HETATM   24  O1  UNL     1       2.325   5.819   8.363  1.00  0.00    -0.377 OA
HETATM   25  H2  UNL     1       1.796   5.089   8.722  1.00  0.00     0.211 HD
ENDBRANCH   3  24
BRANCH  13  26
HETATM   26  O2  UNL     1      -2.457  10.666  17.798  1.00  0.00    -0.271 OA
BRANCH  26  27
HETATM   27  C13 UNL     1      -2.043  10.719  19.159  1.00  0.00     0.303 C 
BRANCH  27  28
HETATM   28  C14 UNL     1      -0.647  11.310  19.272  1.00  0.00     0.244 C 
HETATM   29  O3  UNL     1      -0.302  12.331  18.680  1.00  0.00    -0.271 OA
HETATM   30  N2  UNL     1       0.229  10.562  20.023  1.00  0.00    -0.342 N 
HETATM   31  H16 UNL     1      -0.124   9.778  20.568  1.00  0.00     0.163 HD
BRANCH  30  32
HETATM   32  C15 UNL     1       1.641  10.933  20.165  1.00  0.00     0.216 C 
BRANCH  32  33
HETATM   33  C16 UNL     1       2.452  10.423  18.974  1.00  0.00     0.166 C 
HETATM   34  O4  UNL     1       2.112   9.542  18.194  1.00  0.00    -0.648 OA
BRANCH  33  35
HETATM   35  O5  UNL     1       3.634  11.050  18.795  1.00  0.00    -0.775 OA
HETATM   36  H18 UNL     1       4.057  10.566  18.048  1.00  0.00     0.167 HD
ENDBRANCH  33  35
ENDBRANCH  32  33
BRANCH  32  37
HETATM   37  C17 UNL     1       2.243  10.418  21.505  1.00  0.00     0.184 C 
BRANCH  37  38
HETATM   38  O6  UNL     1       2.578   9.023  21.397  1.00  0.00    -0.388 OA
HETATM   39  H20 UNL     1       3.359   8.954  20.817  1.00  0.00     0.210 HD
ENDBRANCH  37  38
BRANCH  37  40
HETATM   40  C18 UNL     1       3.412  11.242  22.039  1.00  0.00    -0.025 A 
HETATM   41  C19 UNL     1       4.587  10.649  22.539  1.00  0.00     0.010 A 
HETATM   42  C20 UNL     1       5.642  11.428  23.032  1.00  0.00     0.003 A 
HETATM   43  C21 UNL     1       5.544  12.815  23.051  1.00  0.00     0.036 A 
HETATM   44  C22 UNL     1       4.372  13.421  22.586  1.00  0.00     0.103 A 
HETATM   45  C23 UNL     1       3.310  12.646  22.091  1.00  0.00     0.045 A 
BRANCH  44  46
HETATM   46  N3  UNL     1       4.251  14.885  22.623  1.00  0.00    -0.116 N 
HETATM   47  O7  UNL     1       4.850  15.491  23.527  1.00  0.00    -0.532 OA
HETATM   48  O8  UNL     1       3.554  15.432  21.750  1.00  0.00    -0.532 OA
ENDBRANCH  44  46
ENDBRANCH  37  40
ENDBRANCH  32  37
ENDBRANCH  30  32
ENDBRANCH  27  28
ENDBRANCH  26  27
ENDBRANCH  13  26
TORSDOF 11
ENDMDL
MODEL 4
REMARK minimizedAffinity -9.03471565
REMARK CNNscore 0.320873886
REMARK CNNaffinity 6.99358892
REMARK  11 active torsions:
REMARK  status: ('A' for Active; 'I' for Inactive)
REMARK    1  A    between atoms: C3_3  and  O1_4 
REMARK    2  A    between atoms: N1_14  and  O2_16 
REMARK    3  A    between atoms: O2_16  and  C13_17 
REMARK    4  A    between atoms: C13_17  and  C14_18 
REMARK       I    between atoms: C14_18  and  N2_20 
REMARK    5  A    between atoms: N2_20  and  C15_21 
REMARK    6  A    between atoms: C15_21  and  C16_22 
REMARK    7  A    between atoms: C15_21  and  C17_25 
REMARK    8  A    between atoms: C16_22  and  O5_24 
REMARK    9  A    between atoms: C17_25  and  O6_26 
REMARK   10  A    between atoms: C17_25  and  C18_27 
REMARK   11  A    between atoms: C22_31  and  N3_32 
ROOT
HETATM    1  C1  UNL     1       0.112  11.103  15.337  1.00  0.00     0.015 C 
HETATM    2  C2  UNL     1      -0.081  10.117  14.679  1.00  0.00    -0.078 C 
HETATM    3  C3  UNL     1      -0.299   8.912  13.864  1.00  0.00     0.128 C 
HETATM    4  C4  UNL     1      -1.128   9.221  12.618  1.00  0.00     0.052 C 
HETATM    5  C5  UNL     1      -1.648   7.865  12.152  1.00  0.00     0.010 C 
HETATM    6  C6  UNL     1      -1.670   6.940  13.389  1.00  0.00     0.002 C 
HETATM    7  C7  UNL     1      -3.053   6.344  13.723  1.00  0.00    -0.004 C 
HETATM    8  C8  UNL     1      -3.565   5.393  12.633  1.00  0.00     0.010 C 
HETATM    9  C9  UNL     1      -4.845   4.704  13.094  1.00  0.00     0.035 C 
HETATM   10  C10 UNL     1      -5.914   5.678  13.541  1.00  0.00    -0.069 C 
HETATM   11  C11 UNL     1      -7.186   5.476  13.151  1.00  0.00     0.030 C 
HETATM   12  C12 UNL     1      -8.315   6.273  13.692  1.00  0.00     0.032 C 
HETATM   13  N1  UNL     1      -9.523   5.873  13.411  1.00  0.00    -0.271 N 
ATOM     14  H1  UNL     1      -9.740   5.084  12.802  1.00  0.00     0.194 HD
HETATM   15  C24 UNL     1      -8.000   7.430  14.615  1.00  0.00     0.060 C 
HETATM   16  C25 UNL     1      -6.573   7.935  14.435  1.00  0.00     0.020 C 
HETATM   17  C26 UNL     1      -5.491   6.817  14.483  1.00  0.00    -0.016 C 
HETATM   18  C27 UNL     1      -5.395   6.242  15.915  1.00  0.00     0.020 C 
HETATM   19  C28 UNL     1      -4.121   7.432  14.003  1.00  0.00     0.002 C 
HETATM   20  C29 UNL     1      -3.559   8.559  14.899  1.00  0.00     0.007 C 
HETATM   21  C30 UNL     1      -2.219   8.221  15.550  1.00  0.00     0.014 C 
HETATM   22  C31 UNL     1      -1.083   7.764  14.583  1.00  0.00     0.003 C 
HETATM   23  C32 UNL     1      -0.127   6.879  15.420  1.00  0.00     0.020 C 
ENDROOT
BRANCH   3  24
HETATM   24  O1  UNL     1       0.989   8.467  13.425  1.00  0.00    -0.377 OA
HETATM   25  H2  UNL     1       0.870   7.703  12.838  1.00  0.00     0.211 HD
ENDBRANCH   3  24
BRANCH  13  26
HETATM   26  O2  UNL     1     -10.489   6.664  14.052  1.00  0.00    -0.271 OA
BRANCH  26  27
HETATM   27  C13 UNL     1     -11.247   7.359  13.068  1.00  0.00     0.303 C 
BRANCH  27  28
HETATM   28  C14 UNL     1     -12.675   7.572  13.543  1.00  0.00     0.244 C 
HETATM   29  O3  UNL     1     -12.962   8.277  14.509  1.00  0.00    -0.271 OA
HETATM   30  N2  UNL     1     -13.619   6.841  12.860  1.00  0.00    -0.342 N 
HETATM   31  H16 UNL     1     -13.348   6.346  12.012  1.00  0.00     0.163 HD
BRANCH  30  32
HETATM   32  C15 UNL     1     -15.035   6.853  13.241  1.00  0.00     0.216 C 
BRANCH  32  33
HETATM   33  C16 UNL     1     -15.708   8.139  12.762  1.00  0.00     0.166 C 
HETATM   34  O4  UNL     1     -16.488   8.828  13.406  1.00  0.00    -0.648 OA
BRANCH  33  35
HETATM   35  O5  UNL     1     -15.357   8.520  11.515  1.00  0.00    -0.775 OA
HETATM   36  H18 UNL     1     -15.920   9.308  11.334  1.00  0.00     0.167 HD
ENDBRANCH  33  35
ENDBRANCH  32  33
BRANCH  32  37
HETATM   37  C17 UNL     1     -15.224   6.668  14.774  1.00  0.00     0.184 C 
BRANCH  37  38
HETATM   38  O6  UNL     1     -15.931   7.792  15.328  1.00  0.00    -0.388 OA
HETATM   39  H20 UNL     1     -16.858   7.731  15.029  1.00  0.00     0.210 HD
ENDBRANCH  37  38
BRANCH  37  40
HETATM   40  C18 UNL     1     -15.859   5.341  15.185  1.00  0.00    -0.025 A 
HETATM   41  C19 UNL     1     -17.027   5.275  15.968  1.00  0.00     0.010 A 
HETATM   42  C20 UNL     1     -17.584   4.043  16.339  1.00  0.00     0.003 A 
HETATM   43  C21 UNL     1     -16.981   2.852  15.950  1.00  0.00     0.036 A 
HETATM   44  C22 UNL     1     -15.803   2.899  15.198  1.00  0.00     0.103 A 
HETATM   45  C23 UNL     1     -15.239   4.130  14.823  1.00  0.00     0.045 A 
BRANCH  44  46
HETATM   46  N3  UNL     1     -15.146   1.645  14.802  1.00  0.00    -0.116 N 
HETATM   47  O7  UNL     1     -15.402   1.192  13.674  1.00  0.00    -0.532 OA
HETATM   48  O8  UNL     1     -14.376   1.110  15.618  1.00  0.00    -0.532 OA
ENDBRANCH  44  46
ENDBRANCH  37  40
ENDBRANCH  32  37
ENDBRANCH  30  32
ENDBRANCH  27  28
ENDBRANCH  26  27
ENDBRANCH  13  26
TORSDOF 11
ENDMDL
MODEL 5
REMARK minimizedAffinity -7.69949675
REMARK CNNscore 0.262415141
REMARK CNNaffinity 6.19369507
REMARK  11 active torsions:
REMARK  status: ('A' for Active; 'I' for Inactive)
REMARK    1  A    between atoms: C3_3  and  O1_4 
REMARK    2  A    between atoms: N1_14  and  O2_16 
REMARK    3  A    between atoms: O2_16  and  C13_17 
REMARK    4  A    between atoms: C13_17  and  C14_18 
REMARK       I    between atoms: C14_18  and  N2_20 
REMARK    5  A    between atoms: N2_20  and  C15_21 
REMARK    6  A    between atoms: C15_21  and  C16_22 
REMARK    7  A    between atoms: C15_21  and  C17_25 
REMARK    8  A    between atoms: C16_22  and  O5_24 
REMARK    9  A    between atoms: C17_25  and  O6_26 
REMARK   10  A    between atoms: C17_25  and  C18_27 
REMARK   11  A    between atoms: C22_31  and  N3_32 
ROOT
HETATM    1  C1  UNL     1     -14.649   5.146  32.099  1.00  0.00     0.015 C 
HETATM    2  C2  UNL     1     -14.409   4.378  31.206  1.00  0.00    -0.078 C 
HETATM    3  C3  UNL     1     -14.110   3.425  30.127  1.00  0.00     0.128 C 
HETATM    4  C4  UNL     1     -12.725   3.671  29.531  1.00  0.00     0.052 C 
HETATM    5  C5  UNL     1     -12.751   2.958  28.183  1.00  0.00     0.010 C 
HETATM    6  C6  UNL     1     -14.230   2.873  27.745  1.00  0.00     0.002 C 
HETATM    7  C7  UNL     1     -14.537   3.532  26.384  1.00  0.00    -0.004 C 
HETATM    8  C8  UNL     1     -13.842   2.826  25.214  1.00  0.00     0.010 C 
HETATM    9  C9  UNL     1     -14.318   3.409  23.888  1.00  0.00     0.035 C 
HETATM   10  C10 UNL     1     -14.162   4.913  23.812  1.00  0.00    -0.069 C 
HETATM   11  C11 UNL     1     -13.680   5.463  22.683  1.00  0.00     0.030 C 
HETATM   12  C12 UNL     1     -13.669   6.930  22.461  1.00  0.00     0.032 C 
HETATM   13  N1  UNL     1     -13.373   7.355  21.265  1.00  0.00    -0.271 N 
ATOM     14  H1  UNL     1     -13.097   6.750  20.492  1.00  0.00     0.194 HD
HETATM   15  C24 UNL     1     -14.101   7.832  23.597  1.00  0.00     0.060 C 
HETATM   16  C25 UNL     1     -13.975   7.147  24.952  1.00  0.00     0.020 C 
HETATM   17  C26 UNL     1     -14.637   5.739  25.018  1.00  0.00    -0.016 C 
HETATM   18  C27 UNL     1     -16.174   5.879  24.928  1.00  0.00     0.020 C 
HETATM   19  C28 UNL     1     -14.186   5.042  26.359  1.00  0.00     0.002 C 
HETATM   20  C29 UNL     1     -14.647   5.752  27.653  1.00  0.00     0.007 C 
HETATM   21  C30 UNL     1     -15.590   4.915  28.515  1.00  0.00     0.014 C 
HETATM   22  C31 UNL     1     -15.082   3.491  28.902  1.00  0.00     0.003 C 
HETATM   23  C32 UNL     1     -16.345   2.630  29.149  1.00  0.00     0.020 C 
ENDROOT
BRANCH   3  24
HETATM   24  O1  UNL     1     -14.100   2.120  30.714  1.00  0.00    -0.377 OA
HETATM   25  H2  UNL     1     -13.850   1.475  30.033  1.00  0.00     0.211 HD
ENDBRANCH   3  24
BRANCH  13  26
HETATM   26  O2  UNL     1     -13.483   8.751  21.174  1.00  0.00    -0.271 OA
BRANCH  26  27
HETATM   27  C13 UNL     1     -13.522   9.125  19.800  1.00  0.00     0.303 C 
BRANCH  27  28
HETATM   28  C14 UNL     1     -12.124   9.122  19.204  1.00  0.00     0.244 C 
HETATM   29  O3  UNL     1     -11.105   9.020  19.884  1.00  0.00    -0.271 OA
HETATM   30  N2  UNL     1     -12.083   9.331  17.845  1.00  0.00    -0.342 N 
HETATM   31  H16 UNL     1     -12.951   9.317  17.312  1.00  0.00     0.163 HD
BRANCH  30  32
HETATM   32  C15 UNL     1     -10.817   9.449  17.116  1.00  0.00     0.216 C 
BRANCH  32  33
HETATM   33  C16 UNL     1     -10.486  10.917  16.851  1.00  0.00     0.166 C 
HETATM   34  O4  UNL     1      -9.652  11.337  16.058  1.00  0.00    -0.648 OA
BRANCH  33  35
HETATM   35  O5  UNL     1     -11.225  11.793  17.564  1.00  0.00    -0.775 OA
HETATM   36  H18 UNL     1     -10.847  12.674  17.337  1.00  0.00     0.167 HD
ENDBRANCH  33  35
ENDBRANCH  32  33
BRANCH  32  37
HETATM   37  C17 UNL     1     -10.835   8.638  15.788  1.00  0.00     0.184 C 
BRANCH  37  38
HETATM   38  O6  UNL     1     -11.035   9.520  14.668  1.00  0.00    -0.388 OA
HETATM   39  H20 UNL     1     -10.212  10.031  14.549  1.00  0.00     0.210 HD
ENDBRANCH  37  38
BRANCH  37  40
HETATM   40  C18 UNL     1      -9.631   7.723  15.580  1.00  0.00    -0.025 A 
HETATM   41  C19 UNL     1      -8.679   7.489  16.590  1.00  0.00     0.010 A 
HETATM   42  C20 UNL     1      -7.577   6.651  16.371  1.00  0.00     0.003 A 
HETATM   43  C21 UNL     1      -7.394   6.038  15.135  1.00  0.00     0.036 A 
HETATM   44  C22 UNL     1      -8.314   6.283  14.111  1.00  0.00     0.103 A 
HETATM   45  C23 UNL     1      -9.420   7.123  14.324  1.00  0.00     0.045 A 
BRANCH  44  46
HETATM   46  N3  UNL     1      -8.116   5.658  12.795  1.00  0.00    -0.116 N 
HETATM   47  O7  UNL     1      -7.138   4.904  12.656  1.00  0.00    -0.532 OA
HETATM   48  O8  UNL     1      -8.936   5.921  11.898  1.00  0.00    -0.532 OA
ENDBRANCH  44  46
ENDBRANCH  37  40
ENDBRANCH  32  37
ENDBRANCH  30  32
ENDBRANCH  27  28
ENDBRANCH  26  27
ENDBRANCH  13  26
TORSDOF 11
ENDMDL
MODEL 6
REMARK minimizedAffinity -9.55490112
REMARK CNNscore 0.255039573
REMARK CNNaffinity 7.06090593
REMARK  11 active torsions:
REMARK  status: ('A' for Active; 'I' for Inactive)
REMARK    1  A    between atoms: C3_3  and  O1_4 
REMARK    2  A    between atoms: N1_14  and  O2_16 
REMARK    3  A    between atoms: O2_16  and  C13_17 
REMARK    4  A    between atoms: C13_17  and  C14_18 
REMARK       I    between atoms: C14_18  and  N2_20 
REMARK    5  A    between atoms: N2_20  and  C15_21 
REMARK    6  A    between atoms: C15_21  and  C16_22 
REMARK    7  A    between atoms: C15_21  and  C17_25 
REMARK    8  A    between atoms: C16_22  and  O5_24 
REMARK    9  A    between atoms: C17_25  and  O6_26 
REMARK   10  A    between atoms: C17_25  and  C18_27 
REMARK   11  A    between atoms: C22_31  and  N3_32 
ROOT
HETATM    1  C1  UNL     1      -9.030   8.911  15.852  1.00  0.00     0.015 C 
HETATM    2  C2  UNL     1      -8.518   7.873  15.530  1.00  0.00    -0.078 C 
HETATM    3  C3  UNL     1      -7.907   6.594  15.141  1.00  0.00     0.128 C 
HETATM    4  C4  UNL     1      -7.081   5.997  16.279  1.00  0.00     0.052 C 
HETATM    5  C5  UNL     1      -6.173   4.974  15.605  1.00  0.00     0.010 C 
HETATM    6  C6  UNL     1      -6.016   5.411  14.131  1.00  0.00     0.002 C 
HETATM    7  C7  UNL     1      -4.560   5.657  13.684  1.00  0.00    -0.004 C 
HETATM    8  C8  UNL     1      -3.712   4.379  13.706  1.00  0.00     0.010 C 
HETATM    9  C9  UNL     1      -2.341   4.646  13.093  1.00  0.00     0.035 C 
HETATM   10  C10 UNL     1      -1.622   5.813  13.736  1.00  0.00    -0.069 C 
HETATM   11  C11 UNL     1      -0.312   5.695  14.021  1.00  0.00     0.030 C 
HETATM   12  C12 UNL     1       0.504   6.847  14.479  1.00  0.00     0.032 C 
HETATM   13  N1  UNL     1       1.796   6.685  14.535  1.00  0.00    -0.271 N 
ATOM     14  H1  UNL     1       2.273   5.806  14.338  1.00  0.00     0.194 HD
HETATM   15  C24 UNL     1      -0.197   8.161  14.750  1.00  0.00     0.060 C 
HETATM   16  C25 UNL     1      -1.684   7.972  15.025  1.00  0.00     0.020 C 
HETATM   17  C26 UNL     1      -2.422   7.105  13.963  1.00  0.00    -0.016 C 
HETATM   18  C27 UNL     1      -2.491   7.868  12.621  1.00  0.00     0.020 C 
HETATM   19  C28 UNL     1      -3.858   6.759  14.518  1.00  0.00     0.002 C 
HETATM   20  C29 UNL     1      -4.784   7.976  14.743  1.00  0.00     0.007 C 
HETATM   21  C30 UNL     1      -6.037   7.969  13.869  1.00  0.00     0.014 C 
HETATM   22  C31 UNL     1      -6.912   6.679  13.936  1.00  0.00     0.003 C 
HETATM   23  C32 UNL     1      -7.666   6.593  12.586  1.00  0.00     0.020 C 
ENDROOT
BRANCH   3  24
HETATM   24  O1  UNL     1      -8.980   5.687  14.866  1.00  0.00    -0.377 OA
HETATM   25  H2  UNL     1      -8.605   4.815  14.659  1.00  0.00     0.211 HD
ENDBRANCH   3  24
BRANCH  13  26
HETATM   26  O2  UNL     1       2.447   7.873  14.900  1.00  0.00    -0.271 OA
BRANCH  26  27
HETATM   27  C13 UNL     1       3.759   7.560  15.360  1.00  0.00     0.303 C 
BRANCH  27  28
HETATM   28  C14 UNL     1       4.805   8.078  14.387  1.00  0.00     0.244 C 
HETATM   29  O3  UNL     1       4.852   9.248  14.012  1.00  0.00    -0.271 OA
HETATM   30  N2  UNL     1       5.647   7.111  13.888  1.00  0.00    -0.342 N 
HETATM   31  H16 UNL     1       5.632   6.178  14.295  1.00  0.00     0.163 HD
BRANCH  30  32
HETATM   32  C15 UNL     1       6.658   7.413  12.870  1.00  0.00     0.216 C 
BRANCH  32  33
HETATM   33  C16 UNL     1       7.866   8.102  13.502  1.00  0.00     0.166 C 
HETATM   34  O4  UNL     1       8.914   8.387  12.935  1.00  0.00    -0.648 OA
BRANCH  33  35
HETATM   35  O5  UNL     1       7.705   8.428  14.803  1.00  0.00    -0.775 OA
HETATM   36  H18 UNL     1       8.580   8.790  15.075  1.00  0.00     0.167 HD
ENDBRANCH  33  35
ENDBRANCH  32  33
BRANCH  32  37
HETATM   37  C17 UNL     1       6.075   8.274  11.711  1.00  0.00     0.184 C 
BRANCH  37  38
HETATM   38  O6  UNL     1       7.140   8.848  10.933  1.00  0.00    -0.388 OA
HETATM   39  H20 UNL     1       7.552   8.125  10.423  1.00  0.00     0.210 HD
ENDBRANCH  37  38
BRANCH  37  40
HETATM   40  C18 UNL     1       5.054   7.556  10.832  1.00  0.00    -0.025 A 
HETATM   41  C19 UNL     1       4.846   6.165  10.900  1.00  0.00     0.010 A 
HETATM   42  C20 UNL     1       3.909   5.529  10.075  1.00  0.00     0.003 A 
HETATM   43  C21 UNL     1       3.169   6.263   9.153  1.00  0.00     0.036 A 
HETATM   44  C22 UNL     1       3.385   7.641   9.051  1.00  0.00     0.103 A 
HETATM   45  C23 UNL     1       4.324   8.285   9.874  1.00  0.00     0.045 A 
BRANCH  44  46
HETATM   46  N3  UNL     1       2.624   8.421   8.064  1.00  0.00    -0.116 N 
HETATM   47  O7  UNL     1       1.423   8.144   7.912  1.00  0.00    -0.532 OA
HETATM   48  O8  UNL     1       3.227   9.310   7.438  1.00  0.00    -0.532 OA
ENDBRANCH  44  46
ENDBRANCH  37  40
ENDBRANCH  32  37
ENDBRANCH  30  32
ENDBRANCH  27  28
ENDBRANCH  26  27
ENDBRANCH  13  26
TORSDOF 11
ENDMDL
MODEL 7
REMARK minimizedAffinity -8.47462749
REMARK CNNscore 0.198827997
REMARK CNNaffinity 6.76451921
REMARK  11 active torsions:
REMARK  status: ('A' for Active; 'I' for Inactive)
REMARK    1  A    between atoms: C3_3  and  O1_4 
REMARK    2  A    between atoms: N1_14  and  O2_16 
REMARK    3  A    between atoms: O2_16  and  C13_17 
REMARK    4  A    between atoms: C13_17  and  C14_18 
REMARK       I    between atoms: C14_18  and  N2_20 
REMARK    5  A    between atoms: N2_20  and  C15_21 
REMARK    6  A    between atoms: C15_21  and  C16_22 
REMARK    7  A    between atoms: C15_21  and  C17_25 
REMARK    8  A    between atoms: C16_22  and  O5_24 
REMARK    9  A    between atoms: C17_25  and  O6_26 
REMARK   10  A    between atoms: C17_25  and  C18_27 
REMARK   11  A    between atoms: C22_31  and  N3_32 
ROOT
HETATM    1  C1  UNL     1      -5.272   3.888  12.890  1.00  0.00     0.015 C 
HETATM    2  C2  UNL     1      -5.562   4.767  13.656  1.00  0.00    -0.078 C 
HETATM    3  C3  UNL     1      -5.899   5.841  14.603  1.00  0.00     0.128 C 
HETATM    4  C4  UNL     1      -6.692   5.308  15.795  1.00  0.00     0.052 C 
HETATM    5  C5  UNL     1      -7.344   6.542  16.410  1.00  0.00     0.010 C 
HETATM    6  C6  UNL     1      -7.460   7.598  15.288  1.00  0.00     0.002 C 
HETATM    7  C7  UNL     1      -8.897   8.088  15.011  1.00  0.00    -0.004 C 
HETATM    8  C8  UNL     1      -9.500   8.849  16.198  1.00  0.00     0.010 C 
HETATM    9  C9  UNL     1     -10.844   9.456  15.806  1.00  0.00     0.035 C 
HETATM   10  C10 UNL     1     -11.810   8.438  15.238  1.00  0.00    -0.069 C 
HETATM   11  C11 UNL     1     -13.095   8.467  15.634  1.00  0.00     0.030 C 
HETATM   12  C12 UNL     1     -14.139   7.629  14.993  1.00  0.00     0.032 C 
HETATM   13  N1  UNL     1     -15.381   7.871  15.305  1.00  0.00    -0.271 N 
ATOM     14  H1  UNL     1     -15.675   8.558  15.999  1.00  0.00     0.194 HD
HETATM   15  C24 UNL     1     -13.710   6.625  13.946  1.00  0.00     0.060 C 
HETATM   16  C25 UNL     1     -12.240   6.247  14.081  1.00  0.00     0.020 C 
HETATM   17  C26 UNL     1     -11.276   7.465  14.175  1.00  0.00    -0.016 C 
HETATM   18  C27 UNL     1     -11.240   8.209  12.820  1.00  0.00     0.020 C 
HETATM   19  C28 UNL     1      -9.850   6.938  14.595  1.00  0.00     0.002 C 
HETATM   20  C29 UNL     1      -9.179   5.985  13.580  1.00  0.00     0.007 C 
HETATM   21  C30 UNL     1      -7.880   6.528  12.988  1.00  0.00     0.014 C 
HETATM   22  C31 UNL     1      -6.795   6.981  14.013  1.00  0.00     0.003 C 
HETATM   23  C32 UNL     1      -5.933   8.048  13.295  1.00  0.00     0.020 C 
ENDROOT
BRANCH   3  24
HETATM   24  O1  UNL     1      -4.662   6.358  15.104  1.00  0.00    -0.377 OA
HETATM   25  H2  UNL     1      -4.857   7.033  15.775  1.00  0.00     0.211 HD
ENDBRANCH   3  24
BRANCH  13  26
HETATM   26  O2  UNL     1     -16.263   7.068  14.566  1.00  0.00    -0.271 OA
BRANCH  26  27
HETATM   27  C13 UNL     1     -17.004   6.246  15.463  1.00  0.00     0.303 C 
BRANCH  27  28
HETATM   28  C14 UNL     1     -16.880   4.782  15.075  1.00  0.00     0.244 C 
HETATM   29  O3  UNL     1     -16.917   4.392  13.910  1.00  0.00    -0.271 OA
HETATM   30  N2  UNL     1     -16.811   3.914  16.140  1.00  0.00    -0.342 N 
HETATM   31  H16 UNL     1     -16.690   4.286  17.080  1.00  0.00     0.163 HD
BRANCH  30  32
HETATM   32  C15 UNL     1     -16.779   2.460  15.955  1.00  0.00     0.216 C 
BRANCH  32  33
HETATM   33  C16 UNL     1     -15.777   2.080  14.865  1.00  0.00     0.166 C 
HETATM   34  O4  UNL     1     -14.559   2.184  14.937  1.00  0.00    -0.648 OA
BRANCH  33  35
HETATM   35  O5  UNL     1     -16.336   1.565  13.749  1.00  0.00    -0.775 OA
HETATM   36  H18 UNL     1     -15.579   1.442  13.131  1.00  0.00     0.167 HD
ENDBRANCH  33  35
ENDBRANCH  32  33
BRANCH  32  37
HETATM   37  C17 UNL     1     -18.189   1.885  15.633  1.00  0.00     0.184 C 
BRANCH  37  38
HETATM   38  O6  UNL     1     -18.448   1.960  14.220  1.00  0.00    -0.388 OA
HETATM   39  H20 UNL     1     -17.884   1.294  13.784  1.00  0.00     0.210 HD
ENDBRANCH  37  38
BRANCH  37  40
HETATM   40  C18 UNL     1     -18.450   0.485  16.183  1.00  0.00    -0.025 A 
HETATM   41  C19 UNL     1     -19.726  -0.109  16.159  1.00  0.00     0.010 A 
HETATM   42  C20 UNL     1     -19.941  -1.393  16.679  1.00  0.00     0.003 A 
HETATM   43  C21 UNL     1     -18.891  -2.107  17.247  1.00  0.00     0.036 A 
HETATM   44  C22 UNL     1     -17.623  -1.520  17.306  1.00  0.00     0.103 A 
HETATM   45  C23 UNL     1     -17.401  -0.233  16.788  1.00  0.00     0.045 A 
BRANCH  44  46
HETATM   46  N3  UNL     1     -16.512  -2.258  17.925  1.00  0.00    -0.116 N 
HETATM   47  O7  UNL     1     -15.713  -2.837  17.170  1.00  0.00    -0.532 OA
HETATM   48  O8  UNL     1     -16.438  -2.263  19.166  1.00  0.00    -0.532 OA
ENDBRANCH  44  46
ENDBRANCH  37  40
ENDBRANCH  32  37
ENDBRANCH  30  32
ENDBRANCH  27  28
ENDBRANCH  26  27
ENDBRANCH  13  26
TORSDOF 11
ENDMDL
MODEL 8
REMARK minimizedAffinity -8.23648262
REMARK CNNscore 0.189554989
REMARK CNNaffinity 7.01280355
REMARK  11 active torsions:
REMARK  status: ('A' for Active; 'I' for Inactive)
REMARK    1  A    between atoms: C3_3  and  O1_4 
REMARK    2  A    between atoms: N1_14  and  O2_16 
REMARK    3  A    between atoms: O2_16  and  C13_17 
REMARK    4  A    between atoms: C13_17  and  C14_18 
REMARK       I    between atoms: C14_18  and  N2_20 
REMARK    5  A    between atoms: N2_20  and  C15_21 
REMARK    6  A    between atoms: C15_21  and  C16_22 
REMARK    7  A    between atoms: C15_21  and  C17_25 
REMARK    8  A    between atoms: C16_22  and  O5_24 
REMARK    9  A    between atoms: C17_25  and  O6_26 
REMARK   10  A    between atoms: C17_25  and  C18_27 
REMARK   11  A    between atoms: C22_31  and  N3_32 
ROOT
HETATM    1  C1  UNL     1      -5.607   3.783  12.622  1.00  0.00     0.015 C 
HETATM    2  C2  UNL     1      -5.885   4.587  13.470  1.00  0.00    -0.078 C 
HETATM    3  C3  UNL     1      -6.209   5.566  14.518  1.00  0.00     0.128 C 
HETATM    4  C4  UNL     1      -7.129   4.967  15.581  1.00  0.00     0.052 C 
HETATM    5  C5  UNL     1      -7.728   6.171  16.299  1.00  0.00     0.010 C 
HETATM    6  C6  UNL     1      -7.676   7.358  15.312  1.00  0.00     0.002 C 
HETATM    7  C7  UNL     1      -9.044   8.000  15.004  1.00  0.00    -0.004 C 
HETATM    8  C8  UNL     1      -9.675   8.665  16.234  1.00  0.00     0.010 C 
HETATM    9  C9  UNL     1     -10.934   9.428  15.833  1.00  0.00     0.035 C 
HETATM   10  C10 UNL     1     -11.930   8.572  15.080  1.00  0.00    -0.069 C 
HETATM   11  C11 UNL     1     -13.236   8.665  15.391  1.00  0.00     0.030 C 
HETATM   12  C12 UNL     1     -14.290   8.003  14.584  1.00  0.00     0.032 C 
HETATM   13  N1  UNL     1     -15.529   8.313  14.840  1.00  0.00    -0.271 N 
ATOM     14  H1  UNL     1     -15.821   8.936  15.594  1.00  0.00     0.194 HD
HETATM   15  C24 UNL     1     -13.862   7.096  13.450  1.00  0.00     0.060 C 
HETATM   16  C25 UNL     1     -12.440   6.579  13.634  1.00  0.00     0.020 C 
HETATM   17  C26 UNL     1     -11.394   7.690  13.942  1.00  0.00    -0.016 C 
HETATM   18  C27 UNL     1     -11.197   8.583  12.696  1.00  0.00     0.020 C 
HETATM   19  C28 UNL     1     -10.050   6.995  14.387  1.00  0.00     0.002 C 
HETATM   20  C29 UNL     1      -9.380   6.114  13.307  1.00  0.00     0.007 C 
HETATM   21  C30 UNL     1      -8.002   6.609  12.874  1.00  0.00     0.014 C 
HETATM   22  C31 UNL     1      -6.965   6.841  14.017  1.00  0.00     0.003 C 
HETATM   23  C32 UNL     1      -5.971   7.908  13.495  1.00  0.00     0.020 C 
ENDROOT
BRANCH   3  24
HETATM   24  O1  UNL     1      -4.977   5.911  15.161  1.00  0.00    -0.377 OA
HETATM   25  H2  UNL     1      -5.169   6.516  15.896  1.00  0.00     0.211 HD
ENDBRANCH   3  24
BRANCH  13  26
HETATM   26  O2  UNL     1     -16.412   7.682  13.951  1.00  0.00    -0.271 OA
BRANCH  26  27
HETATM   27  C13 UNL     1     -17.381   6.952  14.698  1.00  0.00     0.303 C 
BRANCH  27  28
HETATM   28  C14 UNL     1     -17.433   5.504  14.237  1.00  0.00     0.244 C 
HETATM   29  O3  UNL     1     -17.641   5.180  13.069  1.00  0.00    -0.271 OA
HETATM   30  N2  UNL     1     -17.318   4.580  15.248  1.00  0.00    -0.342 N 
HETATM   31  H16 UNL     1     -17.055   4.891  16.181  1.00  0.00     0.163 HD
BRANCH  30  32
HETATM   32  C15 UNL     1     -17.437   3.139  15.000  1.00  0.00     0.216 C 
BRANCH  32  33
HETATM   33  C16 UNL     1     -17.551   2.376  16.319  1.00  0.00     0.166 C 
HETATM   34  O4  UNL     1     -17.119   1.252  16.542  1.00  0.00    -0.648 OA
BRANCH  33  35
HETATM   35  O5  UNL     1     -18.174   3.057  17.305  1.00  0.00    -0.775 OA
HETATM   36  H18 UNL     1     -18.229   2.413  18.049  1.00  0.00     0.167 HD
ENDBRANCH  33  35
ENDBRANCH  32  33
BRANCH  32  37
HETATM   37  C17 UNL     1     -16.251   2.598  14.149  1.00  0.00     0.184 C 
BRANCH  37  38
HETATM   38  O6  UNL     1     -15.137   2.270  14.998  1.00  0.00    -0.388 OA
HETATM   39  H20 UNL     1     -15.377   1.466  15.496  1.00  0.00     0.210 HD
ENDBRANCH  37  38
BRANCH  37  40
HETATM   40  C18 UNL     1     -16.609   1.446  13.213  1.00  0.00    -0.025 A 
HETATM   41  C19 UNL     1     -17.801   1.425  12.464  1.00  0.00     0.010 A 
HETATM   42  C20 UNL     1     -18.110   0.350  11.619  1.00  0.00     0.003 A 
HETATM   43  C21 UNL     1     -17.244  -0.734  11.513  1.00  0.00     0.036 A 
HETATM   44  C22 UNL     1     -16.070  -0.744  12.273  1.00  0.00     0.103 A 
HETATM   45  C23 UNL     1     -15.755   0.330  13.123  1.00  0.00     0.045 A 
BRANCH  44  46
HETATM   46  N3  UNL     1     -15.161  -1.895  12.185  1.00  0.00    -0.116 N 
HETATM   47  O7  UNL     1     -14.120  -1.758  11.520  1.00  0.00    -0.532 OA
HETATM   48  O8  UNL     1     -15.485  -2.938  12.778  1.00  0.00    -0.532 OA
ENDBRANCH  44  46
ENDBRANCH  37  40
ENDBRANCH  32  37
ENDBRANCH  30  32
ENDBRANCH  27  28
ENDBRANCH  26  27
ENDBRANCH  13  26
TORSDOF 11
ENDMDL
MODEL 9
REMARK minimizedAffinity -8.82906055
REMARK CNNscore 0.184425324
REMARK CNNaffinity 6.90693665
REMARK  11 active torsions:
REMARK  status: ('A' for Active; 'I' for Inactive)
REMARK    1  A    between atoms: C3_3  and  O1_4 
REMARK    2  A    between atoms: N1_14  and  O2_16 
REMARK    3  A    between atoms: O2_16  and  C13_17 
REMARK    4  A    between atoms: C13_17  and  C14_18 
REMARK       I    between atoms: C14_18  and  N2_20 
REMARK    5  A    between atoms: N2_20  and  C15_21 
REMARK    6  A    between atoms: C15_21  and  C16_22 
REMARK    7  A    between atoms: C15_21  and  C17_25 
REMARK    8  A    between atoms: C16_22  and  O5_24 
REMARK    9  A    between atoms: C17_25  and  O6_26 
REMARK   10  A    between atoms: C17_25  and  C18_27 
REMARK   11  A    between atoms: C22_31  and  N3_32 
ROOT
HETATM    1  C1  UNL     1      -6.660   5.870  16.581  1.00  0.00     0.015 C 
HETATM    2  C2  UNL     1      -6.133   6.049  15.516  1.00  0.00    -0.078 C 
HETATM    3  C3  UNL     1      -5.505   6.260  14.203  1.00  0.00     0.128 C 
HETATM    4  C4  UNL     1      -4.549   5.122  13.850  1.00  0.00     0.052 C 
HETATM    5  C5  UNL     1      -3.663   5.688  12.745  1.00  0.00     0.010 C 
HETATM    6  C6  UNL     1      -3.665   7.224  12.907  1.00  0.00     0.002 C 
HETATM    7  C7  UNL     1      -2.270   7.853  13.106  1.00  0.00    -0.004 C 
HETATM    8  C8  UNL     1      -1.367   7.686  11.878  1.00  0.00     0.010 C 
HETATM    9  C9  UNL     1      -0.073   8.472  12.065  1.00  0.00     0.035 C 
HETATM   10  C10 UNL     1       0.650   8.126  13.349  1.00  0.00    -0.069 C 
HETATM   11  C11 UNL     1       1.984   7.958  13.322  1.00  0.00     0.030 C 
HETATM   12  C12 UNL     1       2.787   7.800  14.560  1.00  0.00     0.032 C 
HETATM   13  N1  UNL     1       4.084   7.846  14.447  1.00  0.00    -0.271 N 
ATOM     14  H1  UNL     1       4.581   7.928  13.560  1.00  0.00     0.194 HD
HETATM   15  C24 UNL     1       2.056   7.702  15.882  1.00  0.00     0.060 C 
HETATM   16  C25 UNL     1       0.611   7.249  15.706  1.00  0.00     0.020 C 
HETATM   17  C26 UNL     1      -0.183   8.057  14.639  1.00  0.00    -0.016 C 
HETATM   18  C27 UNL     1      -0.413   9.502  15.139  1.00  0.00     0.020 C 
HETATM   19  C28 UNL     1      -1.543   7.307  14.361  1.00  0.00     0.002 C 
HETATM   20  C29 UNL     1      -2.498   7.214  15.573  1.00  0.00     0.007 C 
HETATM   21  C30 UNL     1      -3.826   7.941  15.371  1.00  0.00     0.014 C 
HETATM   22  C31 UNL     1      -4.632   7.555  14.092  1.00  0.00     0.003 C 
HETATM   23  C32 UNL     1      -5.505   8.784  13.738  1.00  0.00     0.020 C 
ENDROOT
BRANCH   3  24
HETATM   24  O1  UNL     1      -6.556   6.257  13.232  1.00  0.00    -0.377 OA
HETATM   25  H2  UNL     1      -6.163   6.339  12.348  1.00  0.00     0.211 HD
ENDBRANCH   3  24
BRANCH  13  26
HETATM   26  O2  UNL     1       4.713   7.769  15.699  1.00  0.00    -0.271 OA
BRANCH  26  27
HETATM   27  C13 UNL     1       6.097   7.492  15.507  1.00  0.00     0.303 C 
BRANCH  27  28
HETATM   28  C14 UNL     1       6.652   8.311  14.353  1.00  0.00     0.244 C 
HETATM   29  O3  UNL     1       7.488   9.200  14.503  1.00  0.00    -0.271 OA
HETATM   30  N2  UNL     1       6.080   8.037  13.133  1.00  0.00    -0.342 N 
HETATM   31  H16 UNL     1       5.463   7.232  13.040  1.00  0.00     0.163 HD
BRANCH  30  32
HETATM   32  C15 UNL     1       6.429   8.792  11.926  1.00  0.00     0.216 C 
BRANCH  32  33
HETATM   33  C16 UNL     1       5.601  10.074  11.838  1.00  0.00     0.166 C 
HETATM   34  O4  UNL     1       4.764  10.450  12.649  1.00  0.00    -0.648 OA
BRANCH  33  35
HETATM   35  O5  UNL     1       5.872  10.840  10.759  1.00  0.00    -0.775 OA
HETATM   36  H18 UNL     1       5.218  11.575  10.811  1.00  0.00     0.167 HD
ENDBRANCH  33  35
ENDBRANCH  32  33
BRANCH  32  37
HETATM   37  C17 UNL     1       6.260   7.936  10.637  1.00  0.00     0.184 C 
BRANCH  37  38
HETATM   38  O6  UNL     1       7.237   6.881  10.609  1.00  0.00    -0.388 OA
HETATM   39  H20 UNL     1       6.982   6.228  11.287  1.00  0.00     0.210 HD
ENDBRANCH  37  38
BRANCH  37  40
HETATM   40  C18 UNL     1       4.847   7.407  10.401  1.00  0.00    -0.025 A 
HETATM   41  C19 UNL     1       4.381   6.216  10.989  1.00  0.00     0.010 A 
HETATM   42  C20 UNL     1       3.082   5.747  10.749  1.00  0.00     0.003 A 
HETATM   43  C21 UNL     1       2.225   6.447   9.906  1.00  0.00     0.036 A 
HETATM   44  C22 UNL     1       2.682   7.617   9.290  1.00  0.00     0.103 A 
HETATM   45  C23 UNL     1       3.983   8.092   9.526  1.00  0.00     0.045 A 
BRANCH  44  46
HETATM   46  N3  UNL     1       1.791   8.351   8.381  1.00  0.00    -0.116 N 
HETATM   47  O7  UNL     1       0.574   8.336   8.628  1.00  0.00    -0.532 OA
HETATM   48  O8  UNL     1       2.306   8.943   7.416  1.00  0.00    -0.532 OA
ENDBRANCH  44  46
ENDBRANCH  37  40
ENDBRANCH  32  37
ENDBRANCH  30  32
ENDBRANCH  27  28
ENDBRANCH  26  27
ENDBRANCH  13  26
TORSDOF 11
ENDMDL
