MODEL 1
REMARK minimizedAffinity -7.78006124
REMARK CNNscore 0.248390019
REMARK CNNaffinity 6.22053909
REMARK  9 active torsions:
REMARK  status: ('A' for Active; 'I' for Inactive)
REMARK    1  A    between atoms: C12_14  and  C13_15 
REMARK    2  A    between atoms: C13_15  and  C15_17 
REMARK    3  A    between atoms: C15_17  and  C16_18 
REMARK    4  A    between atoms: C16_18  and  C17_19 
REMARK    5  A    between atoms: C18_20  and  C20_22 
REMARK    6  A    between atoms: C26_29  and  C27_30 
REMARK    7  A    between atoms: C27_30  and  C28_31 
REMARK    8  A    between atoms: C28_31  and  C29_32 
REMARK    9  A    between atoms: C29_32  and  O5_34 
ROOT
HETATM    1  C1  UNL     1       0.942  54.194 -23.787  1.00  0.00     0.025 C 
HETATM    2  C2  UNL     1       0.740  53.231 -22.878  1.00  0.00     0.015 C 
HETATM    3  C3  UNL     1       1.136  53.408 -21.465  1.00  0.00     0.289 C 
HETATM    4  O1  UNL     1       1.766  54.341 -21.001  1.00  0.00    -0.260 OA
HETATM    5  O2  UNL     1       0.690  52.331 -20.769  1.00  0.00    -0.311 OA
HETATM    6  C4  UNL     1      -0.176  51.520 -21.586  1.00  0.00     0.142 C 
HETATM    7  C5  UNL     1      -1.610  51.757 -21.129  1.00  0.00     0.039 C 
HETATM    8  C6  UNL     1      -2.702  51.135 -22.013  1.00  0.00     0.006 C 
HETATM    9  C7  UNL     1      -2.449  51.330 -23.527  1.00  0.00    -0.027 A 
HETATM   10  C8  UNL     1      -3.479  50.642 -24.445  1.00  0.00     0.011 C 
HETATM   11  C9  UNL     1      -3.927  49.236 -24.012  1.00  0.00     0.011 C 
HETATM   12  C10 UNL     1      -4.330  49.206 -22.530  1.00  0.00    -0.032 C 
HETATM   13  C11 UNL     1      -5.559  50.139 -22.342  1.00  0.00     0.016 C 
HETATM   14  C12 UNL     1      -4.648  47.809 -21.900  1.00  0.00    -0.002 C 
HETATM   15  C21 UNL     1      -4.285  48.006 -20.395  1.00  0.00     0.006 C 
HETATM   16  C22 UNL     1      -3.517  49.335 -20.277  1.00  0.00     0.011 C 
HETATM   17  C23 UNL     1      -3.047  49.643 -21.707  1.00  0.00    -0.032 C 
HETATM   18  C24 UNL     1      -1.794  48.748 -21.973  1.00  0.00     0.016 C 
HETATM   19  C25 UNL     1      -2.132  52.735 -23.981  1.00  0.00     0.022 A 
HETATM   20  C26 UNL     1      -1.019  51.702 -24.032  1.00  0.00    -0.021 A 
HETATM   21  C30 UNL     1       0.135  51.874 -23.033  1.00  0.00     0.063 C 
ENDROOT
BRANCH  14  22
HETATM   22  C13 UNL     1      -5.993  47.047 -22.115  1.00  0.00    -0.014 C 
HETATM   23  C14 UNL     1      -6.639  47.146 -23.505  1.00  0.00     0.010 C 
BRANCH  22  24
HETATM   24  C15 UNL     1      -5.965  45.560 -21.696  1.00  0.00     0.008 C 
BRANCH  24  25
HETATM   25  C16 UNL     1      -6.763  45.250 -20.427  1.00  0.00     0.028 C 
BRANCH  25  26
HETATM   26  C17 UNL     1      -8.116  44.686 -20.767  1.00  0.00    -0.017 C 
HETATM   27  C18 UNL     1      -8.409  43.401 -21.043  1.00  0.00    -0.028 C 
HETATM   28  C19 UNL     1      -7.472  42.233 -21.042  1.00  0.00     0.051 C 
BRANCH  27  29
HETATM   29  C20 UNL     1      -9.829  43.086 -21.374  1.00  0.00     0.265 C 
HETATM   30  O3  UNL     1     -10.743  43.879 -21.187  1.00  0.00    -0.302 OA
ENDBRANCH  27  29
ENDBRANCH  25  26
ENDBRANCH  24  25
ENDBRANCH  22  24
ENDBRANCH  14  22
BRANCH  20  31
HETATM   31  C27 UNL     1      -0.550  51.123 -25.376  1.00  0.00     0.021 C 
BRANCH  31  32
HETATM   32  C28 UNL     1      -0.458  52.117 -26.527  1.00  0.00     0.111 C 
BRANCH  32  33
HETATM   33  C29 UNL     1      -1.655  51.983 -27.422  1.00  0.00     0.139 C 
HETATM   34  O4  UNL     1      -2.173  50.939 -27.778  1.00  0.00    -0.650 OA
BRANCH  33  35
HETATM   35  O5  UNL     1      -2.161  53.171 -27.800  1.00  0.00    -0.776 OA
HETATM   36  H41 UNL     1      -2.926  52.936 -28.367  1.00  0.00     0.167 HD
ENDBRANCH  33  35
ENDBRANCH  32  33
ENDBRANCH  31  32
ENDBRANCH  20  31
TORSDOF 9
ENDMDL
MODEL 2
REMARK minimizedAffinity -9.10259438
REMARK CNNscore 0.24738054
REMARK CNNaffinity 6.47637701
REMARK  9 active torsions:
REMARK  status: ('A' for Active; 'I' for Inactive)
REMARK    1  A    between atoms: C12_14  and  C13_15 
REMARK    2  A    between atoms: C13_15  and  C15_17 
REMARK    3  A    between atoms: C15_17  and  C16_18 
REMARK    4  A    between atoms: C16_18  and  C17_19 
REMARK    5  A    between atoms: C18_20  and  C20_22 
REMARK    6  A    between atoms: C26_29  and  C27_30 
REMARK    7  A    between atoms: C27_30  and  C28_31 
REMARK    8  A    between atoms: C28_31  and  C29_32 
REMARK    9  A    between atoms: C29_32  and  O5_34 
ROOT
HETATM    1  C1  UNL     1      -6.225  47.784 -25.841  1.00  0.00     0.025 C 
HETATM    2  C2  UNL     1      -6.308  48.412 -24.660  1.00  0.00     0.015 C 
HETATM    3  C3  UNL     1      -7.273  47.986 -23.625  1.00  0.00     0.289 C 
HETATM    4  O1  UNL     1      -8.144  47.145 -23.750  1.00  0.00    -0.260 OA
HETATM    5  O2  UNL     1      -7.034  48.716 -22.506  1.00  0.00    -0.311 OA
HETATM    6  C4  UNL     1      -5.818  49.476 -22.644  1.00  0.00     0.142 C 
HETATM    7  C5  UNL     1      -4.743  48.799 -21.805  1.00  0.00     0.039 C 
HETATM    8  C6  UNL     1      -3.317  49.344 -21.981  1.00  0.00     0.006 C 
HETATM    9  C7  UNL     1      -2.939  49.601 -23.460  1.00  0.00    -0.027 A 
HETATM   10  C8  UNL     1      -1.547  50.231 -23.667  1.00  0.00     0.011 C 
HETATM   11  C9  UNL     1      -1.158  51.335 -22.671  1.00  0.00     0.011 C 
HETATM   12  C10 UNL     1      -1.406  50.896 -21.221  1.00  0.00    -0.032 C 
HETATM   13  C11 UNL     1      -0.486  49.681 -20.916  1.00  0.00     0.016 C 
HETATM   14  C12 UNL     1      -1.218  51.974 -20.101  1.00  0.00    -0.002 C 
HETATM   15  C21 UNL     1      -2.194  51.499 -18.980  1.00  0.00     0.006 C 
HETATM   16  C22 UNL     1      -3.092  50.404 -19.586  1.00  0.00     0.011 C 
HETATM   17  C23 UNL     1      -2.957  50.585 -21.105  1.00  0.00    -0.032 C 
HETATM   18  C24 UNL     1      -3.871  51.791 -21.499  1.00  0.00     0.016 C 
HETATM   19  C25 UNL     1      -3.201  48.471 -24.428  1.00  0.00     0.022 A 
HETATM   20  C26 UNL     1      -4.062  49.718 -24.538  1.00  0.00    -0.021 A 
HETATM   21  C30 UNL     1      -5.538  49.581 -24.137  1.00  0.00     0.063 C 
ENDROOT
BRANCH  14  22
HETATM   22  C13 UNL     1       0.174  52.423 -19.556  1.00  0.00    -0.014 C 
HETATM   23  C14 UNL     1       0.634  53.848 -19.902  1.00  0.00     0.010 C 
BRANCH  22  24
HETATM   24  C15 UNL     1       0.375  52.201 -18.040  1.00  0.00     0.008 C 
BRANCH  24  25
HETATM   25  C16 UNL     1       1.742  52.651 -17.516  1.00  0.00     0.028 C 
BRANCH  25  26
HETATM   26  C17 UNL     1       1.980  52.135 -16.123  1.00  0.00    -0.017 C 
HETATM   27  C18 UNL     1       3.169  51.986 -15.509  1.00  0.00    -0.028 C 
HETATM   28  C19 UNL     1       4.522  52.329 -16.050  1.00  0.00     0.051 C 
BRANCH  27  29
HETATM   29  C20 UNL     1       3.151  51.431 -14.124  1.00  0.00     0.265 C 
HETATM   30  O3  UNL     1       3.150  50.229 -13.893  1.00  0.00    -0.302 OA
ENDBRANCH  27  29
ENDBRANCH  25  26
ENDBRANCH  24  25
ENDBRANCH  22  24
ENDBRANCH  14  22
BRANCH  20  31
HETATM   31  C27 UNL     1      -3.858  50.709 -25.695  1.00  0.00     0.021 C 
BRANCH  31  32
HETATM   32  C28 UNL     1      -2.794  50.324 -26.715  1.00  0.00     0.111 C 
BRANCH  32  33
HETATM   33  C29 UNL     1      -3.440  49.773 -27.951  1.00  0.00     0.139 C 
HETATM   34  O4  UNL     1      -3.888  48.648 -28.089  1.00  0.00    -0.650 OA
BRANCH  33  35
HETATM   35  O5  UNL     1      -3.519  50.675 -28.947  1.00  0.00    -0.776 OA
HETATM   36  H41 UNL     1      -3.957  50.188 -29.677  1.00  0.00     0.167 HD
ENDBRANCH  33  35
ENDBRANCH  32  33
ENDBRANCH  31  32
ENDBRANCH  20  31
TORSDOF 9
ENDMDL
MODEL 3
REMARK minimizedAffinity -7.49091291
REMARK CNNscore 0.237205625
REMARK CNNaffinity 6.47492743
REMARK  9 active torsions:
REMARK  status: ('A' for Active; 'I' for Inactive)
REMARK    1  A    between atoms: C12_14  and  C13_15 
REMARK    2  A    between atoms: C13_15  and  C15_17 
REMARK    3  A    between atoms: C15_17  and  C16_18 
REMARK    4  A    between atoms: C16_18  and  C17_19 
REMARK    5  A    between atoms: C18_20  and  C20_22 
REMARK    6  A    between atoms: C26_29  and  C27_30 
REMARK    7  A    between atoms: C27_30  and  C28_31 
REMARK    8  A    between atoms: C28_31  and  C29_32 
REMARK    9  A    between atoms: C29_32  and  O5_34 
ROOT
HETATM    1  C1  UNL     1      -4.124  48.413 -27.779  1.00  0.00     0.025 C 
HETATM    2  C2  UNL     1      -4.900  48.549 -26.695  1.00  0.00     0.015 C 
HETATM    3  C3  UNL     1      -6.169  47.803 -26.555  1.00  0.00     0.289 C 
HETATM    4  O1  UNL     1      -6.697  47.108 -27.403  1.00  0.00    -0.260 OA
HETATM    5  O2  UNL     1      -6.660  48.045 -25.313  1.00  0.00    -0.311 OA
HETATM    6  C4  UNL     1      -5.692  48.750 -24.511  1.00  0.00     0.142 C 
HETATM    7  C5  UNL     1      -5.094  47.761 -23.518  1.00  0.00     0.039 C 
HETATM    8  C6  UNL     1      -3.894  48.274 -22.708  1.00  0.00     0.006 C 
HETATM    9  C7  UNL     1      -2.867  49.055 -23.563  1.00  0.00    -0.027 A 
HETATM   10  C8  UNL     1      -1.694  49.659 -22.765  1.00  0.00     0.011 C 
HETATM   11  C9  UNL     1      -2.059  50.287 -21.410  1.00  0.00     0.011 C 
HETATM   12  C10 UNL     1      -2.931  49.342 -20.570  1.00  0.00    -0.032 C 
HETATM   13  C11 UNL     1      -2.101  48.065 -20.256  1.00  0.00     0.016 C 
HETATM   14  C12 UNL     1      -3.524  49.907 -19.235  1.00  0.00    -0.002 C 
HETATM   15  C21 UNL     1      -4.836  49.084 -19.052  1.00  0.00     0.006 C 
HETATM   16  C22 UNL     1      -5.101  48.337 -20.373  1.00  0.00     0.011 C 
HETATM   17  C23 UNL     1      -4.246  49.075 -21.415  1.00  0.00    -0.032 C 
HETATM   18  C24 UNL     1      -5.023  50.376 -21.797  1.00  0.00     0.016 C 
HETATM   19  C25 UNL     1      -2.404  48.388 -24.836  1.00  0.00     0.022 A 
HETATM   20  C26 UNL     1      -3.288  49.618 -24.956  1.00  0.00    -0.021 A 
HETATM   21  C30 UNL     1      -4.715  49.400 -25.481  1.00  0.00     0.063 C 
ENDROOT
BRANCH  14  22
HETATM   22  C13 UNL     1      -2.702  50.058 -17.918  1.00  0.00    -0.014 C 
HETATM   23  C14 UNL     1      -2.203  48.767 -17.252  1.00  0.00     0.010 C 
BRANCH  22  24
HETATM   24  C15 UNL     1      -1.519  51.049 -18.007  1.00  0.00     0.008 C 
BRANCH  24  25
HETATM   25  C16 UNL     1      -1.702  52.152 -19.054  1.00  0.00     0.028 C 
BRANCH  25  26
HETATM   26  C17 UNL     1      -0.447  52.970 -19.198  1.00  0.00    -0.017 C 
HETATM   27  C18 UNL     1       0.505  52.828 -20.139  1.00  0.00    -0.028 C 
HETATM   28  C19 UNL     1       0.523  51.856 -21.277  1.00  0.00     0.051 C 
BRANCH  27  29
HETATM   29  C20 UNL     1       1.675  53.751 -20.063  1.00  0.00     0.265 C 
HETATM   30  O3  UNL     1       1.951  54.544 -20.954  1.00  0.00    -0.302 OA
ENDBRANCH  27  29
ENDBRANCH  25  26
ENDBRANCH  24  25
ENDBRANCH  22  24
ENDBRANCH  14  22
BRANCH  20  31
HETATM   31  C27 UNL     1      -2.698  50.965 -25.405  1.00  0.00     0.021 C 
BRANCH  31  32
HETATM   32  C28 UNL     1      -1.492  50.880 -26.334  1.00  0.00     0.111 C 
BRANCH  32  33
HETATM   33  C29 UNL     1      -0.543  52.006 -26.050  1.00  0.00     0.139 C 
HETATM   34  O4  UNL     1       0.656  51.905 -25.856  1.00  0.00    -0.650 OA
BRANCH  33  35
HETATM   35  O5  UNL     1      -1.144  53.211 -26.056  1.00  0.00    -0.776 OA
HETATM   36  H41 UNL     1      -0.417  53.841 -25.863  1.00  0.00     0.167 HD
ENDBRANCH  33  35
ENDBRANCH  32  33
ENDBRANCH  31  32
ENDBRANCH  20  31
TORSDOF 9
ENDMDL
MODEL 4
REMARK minimizedAffinity -7.30442095
REMARK CNNscore 0.217020825
REMARK CNNaffinity 6.05471945
REMARK  9 active torsions:
REMARK  status: ('A' for Active; 'I' for Inactive)
REMARK    1  A    between atoms: C12_14  and  C13_15 
REMARK    2  A    between atoms: C13_15  and  C15_17 
REMARK    3  A    between atoms: C15_17  and  C16_18 
REMARK    4  A    between atoms: C16_18  and  C17_19 
REMARK    5  A    between atoms: C18_20  and  C20_22 
REMARK    6  A    between atoms: C26_29  and  C27_30 
REMARK    7  A    between atoms: C27_30  and  C28_31 
REMARK    8  A    between atoms: C28_31  and  C29_32 
REMARK    9  A    between atoms: C29_32  and  O5_34 
ROOT
HETATM    1  C1  UNL     1       1.472  52.919 -21.405  1.00  0.00     0.025 C 
HETATM    2  C2  UNL     1       0.339  52.703 -22.086  1.00  0.00     0.015 C 
HETATM    3  C3  UNL     1       0.238  53.000 -23.531  1.00  0.00     0.289 C 
HETATM    4  O1  UNL     1       1.077  53.556 -24.216  1.00  0.00    -0.260 OA
HETATM    5  O2  UNL     1      -0.971  52.561 -23.964  1.00  0.00    -0.311 OA
HETATM    6  C4  UNL     1      -1.628  51.787 -22.941  1.00  0.00     0.142 C 
HETATM    7  C5  UNL     1      -1.535  50.318 -23.332  1.00  0.00     0.039 C 
HETATM    8  C6  UNL     1      -2.000  49.314 -22.266  1.00  0.00     0.006 C 
HETATM    9  C7  UNL     1      -1.493  49.653 -20.843  1.00  0.00    -0.027 A 
HETATM   10  C8  UNL     1      -2.014  48.716 -19.735  1.00  0.00     0.011 C 
HETATM   11  C9  UNL     1      -3.492  48.307 -19.845  1.00  0.00     0.011 C 
HETATM   12  C10 UNL     1      -3.834  47.812 -21.257  1.00  0.00    -0.032 C 
HETATM   13  C11 UNL     1      -2.999  46.532 -21.540  1.00  0.00     0.016 C 
HETATM   14  C12 UNL     1      -5.340  47.519 -21.571  1.00  0.00    -0.002 C 
HETATM   15  C21 UNL     1      -5.441  47.777 -23.107  1.00  0.00     0.006 C 
HETATM   16  C22 UNL     1      -4.139  48.474 -23.543  1.00  0.00     0.011 C 
HETATM   17  C23 UNL     1      -3.533  49.018 -22.241  1.00  0.00    -0.032 C 
HETATM   18  C24 UNL     1      -4.315  50.326 -21.892  1.00  0.00     0.016 C 
HETATM   19  C25 UNL     1      -0.016  49.933 -20.704  1.00  0.00     0.022 A 
HETATM   20  C26 UNL     1      -0.981  51.094 -20.527  1.00  0.00    -0.021 A 
HETATM   21  C30 UNL     1      -0.978  52.173 -21.620  1.00  0.00     0.063 C 
ENDROOT
BRANCH  14  22
HETATM   22  C13 UNL     1      -6.085  46.227 -21.112  1.00  0.00    -0.014 C 
HETATM   23  C14 UNL     1      -6.396  46.094 -19.613  1.00  0.00     0.010 C 
BRANCH  22  24
HETATM   24  C15 UNL     1      -7.372  45.910 -21.907  1.00  0.00     0.008 C 
BRANCH  24  25
HETATM   25  C16 UNL     1      -8.647  46.503 -21.300  1.00  0.00     0.028 C 
BRANCH  25  26
HETATM   26  C17 UNL     1      -9.750  46.567 -22.322  1.00  0.00    -0.017 C 
HETATM   27  C18 UNL     1     -11.073  46.610 -22.079  1.00  0.00    -0.028 C 
HETATM   28  C19 UNL     1     -11.755  46.641 -20.747  1.00  0.00     0.051 C 
BRANCH  27  29
HETATM   29  C20 UNL     1     -11.978  46.649 -23.265  1.00  0.00     0.265 C 
HETATM   30  O3  UNL     1     -11.628  47.099 -24.349  1.00  0.00    -0.302 OA
ENDBRANCH  27  29
ENDBRANCH  25  26
ENDBRANCH  24  25
ENDBRANCH  22  24
ENDBRANCH  14  22
BRANCH  20  31
HETATM   31  C27 UNL     1      -1.260  51.674 -19.131  1.00  0.00     0.021 C 
BRANCH  31  32
HETATM   32  C28 UNL     1      -0.061  51.739 -18.192  1.00  0.00     0.111 C 
BRANCH  32  33
HETATM   33  C29 UNL     1      -0.190  50.700 -17.118  1.00  0.00     0.139 C 
HETATM   34  O4  UNL     1       0.240  49.560 -17.163  1.00  0.00    -0.650 OA
BRANCH  33  35
HETATM   35  O5  UNL     1      -0.829  51.155 -16.024  1.00  0.00    -0.776 OA
HETATM   36  H41 UNL     1      -0.838  50.386 -15.415  1.00  0.00     0.167 HD
ENDBRANCH  33  35
ENDBRANCH  32  33
ENDBRANCH  31  32
ENDBRANCH  20  31
TORSDOF 9
ENDMDL
MODEL 5
REMARK minimizedAffinity -7.34821749
REMARK CNNscore 0.211585388
REMARK CNNaffinity 6.42067337
REMARK  9 active torsions:
REMARK  status: ('A' for Active; 'I' for Inactive)
REMARK    1  A    between atoms: C12_14  and  C13_15 
REMARK    2  A    between atoms: C13_15  and  C15_17 
REMARK    3  A    between atoms: C15_17  and  C16_18 
REMARK    4  A    between atoms: C16_18  and  C17_19 
REMARK    5  A    between atoms: C18_20  and  C20_22 
REMARK    6  A    between atoms: C26_29  and  C27_30 
REMARK    7  A    between atoms: C27_30  and  C28_31 
REMARK    8  A    between atoms: C28_31  and  C29_32 
REMARK    9  A    between atoms: C29_32  and  O5_34 
ROOT
HETATM    1  C1  UNL     1      -2.969  51.613 -11.038  1.00  0.00     0.025 C 
HETATM    2  C2  UNL     1      -2.429  52.834 -10.933  1.00  0.00     0.015 C 
HETATM    3  C3  UNL     1      -3.228  53.996 -10.489  1.00  0.00     0.289 C 
HETATM    4  O1  UNL     1      -4.429  54.015 -10.292  1.00  0.00    -0.260 OA
HETATM    5  O2  UNL     1      -2.388  55.054 -10.357  1.00  0.00    -0.311 OA
HETATM    6  C4  UNL     1      -1.016  54.633 -10.483  1.00  0.00     0.142 C 
HETATM    7  C5  UNL     1      -0.396  54.631  -9.092  1.00  0.00     0.039 C 
HETATM    8  C6  UNL     1       1.008  54.015  -8.989  1.00  0.00     0.006 C 
HETATM    9  C7  UNL     1       1.157  52.695  -9.783  1.00  0.00    -0.027 A 
HETATM   10  C8  UNL     1       2.578  52.096  -9.773  1.00  0.00     0.011 C 
HETATM   11  C9  UNL     1       3.729  53.104  -9.921  1.00  0.00     0.011 C 
HETATM   12  C10 UNL     1       3.571  54.284  -8.951  1.00  0.00    -0.032 C 
HETATM   13  C11 UNL     1       3.648  53.733  -7.499  1.00  0.00     0.016 C 
HETATM   14  C12 UNL     1       4.574  55.477  -9.099  1.00  0.00    -0.002 C 
HETATM   15  C21 UNL     1       3.755  56.698  -8.579  1.00  0.00     0.006 C 
HETATM   16  C22 UNL     1       2.287  56.249  -8.452  1.00  0.00     0.011 C 
HETATM   17  C23 UNL     1       2.193  54.980  -9.313  1.00  0.00    -0.032 C 
HETATM   18  C24 UNL     1       2.097  55.450 -10.800  1.00  0.00     0.016 C 
HETATM   19  C25 UNL     1       0.097  51.645  -9.548  1.00  0.00     0.022 A 
HETATM   20  C26 UNL     1       0.124  52.341 -10.899  1.00  0.00    -0.021 A 
HETATM   21  C30 UNL     1      -1.036  53.297 -11.212  1.00  0.00     0.063 C 
ENDROOT
BRANCH  14  22
HETATM   22  C13 UNL     1       6.041  55.446  -8.567  1.00  0.00    -0.014 C 
HETATM   23  C14 UNL     1       6.232  55.414  -7.043  1.00  0.00     0.010 C 
BRANCH  22  24
HETATM   24  C15 UNL     1       6.930  54.348  -9.193  1.00  0.00     0.008 C 
BRANCH  24  25
HETATM   25  C16 UNL     1       6.923  53.023  -8.426  1.00  0.00     0.028 C 
BRANCH  25  26
HETATM   26  C17 UNL     1       6.937  51.853  -9.374  1.00  0.00    -0.017 C 
HETATM   27  C18 UNL     1       7.338  50.598  -9.101  1.00  0.00    -0.028 C 
HETATM   28  C19 UNL     1       7.828  50.063  -7.791  1.00  0.00     0.051 C 
BRANCH  27  29
HETATM   29  C20 UNL     1       7.278  49.610 -10.217  1.00  0.00     0.265 C 
HETATM   30  O3  UNL     1       6.375  49.601 -11.044  1.00  0.00    -0.302 OA
ENDBRANCH  27  29
ENDBRANCH  25  26
ENDBRANCH  24  25
ENDBRANCH  22  24
ENDBRANCH  14  22
BRANCH  20  31
HETATM   31  C27 UNL     1       0.630  51.603 -12.149  1.00  0.00     0.021 C 
BRANCH  31  32
HETATM   32  C28 UNL     1       0.191  52.191 -13.485  1.00  0.00     0.111 C 
BRANCH  32  33
HETATM   33  C29 UNL     1       1.284  52.035 -14.501  1.00  0.00     0.139 C 
HETATM   34  O4  UNL     1       2.099  51.131 -14.547  1.00  0.00    -0.650 OA
BRANCH  33  35
HETATM   35  O5  UNL     1       1.277  53.010 -15.429  1.00  0.00    -0.776 OA
HETATM   36  H41 UNL     1       2.028  52.783 -16.018  1.00  0.00     0.167 HD
ENDBRANCH  33  35
ENDBRANCH  32  33
ENDBRANCH  31  32
ENDBRANCH  20  31
TORSDOF 9
ENDMDL
MODEL 6
REMARK minimizedAffinity -7.43312645
REMARK CNNscore 0.203352809
REMARK CNNaffinity 5.68571043
REMARK  9 active torsions:
REMARK  status: ('A' for Active; 'I' for Inactive)
REMARK    1  A    between atoms: C12_14  and  C13_15 
REMARK    2  A    between atoms: C13_15  and  C15_17 
REMARK    3  A    between atoms: C15_17  and  C16_18 
REMARK    4  A    between atoms: C16_18  and  C17_19 
REMARK    5  A    between atoms: C18_20  and  C20_22 
REMARK    6  A    between atoms: C26_29  and  C27_30 
REMARK    7  A    between atoms: C27_30  and  C28_31 
REMARK    8  A    between atoms: C28_31  and  C29_32 
REMARK    9  A    between atoms: C29_32  and  O5_34 
ROOT
HETATM    1  C1  UNL     1      -5.329  47.936 -31.204  1.00  0.00     0.025 C 
HETATM    2  C2  UNL     1      -5.791  47.628 -29.985  1.00  0.00     0.015 C 
HETATM    3  C3  UNL     1      -5.149  48.153 -28.761  1.00  0.00     0.289 C 
HETATM    4  O1  UNL     1      -4.114  48.792 -28.703  1.00  0.00    -0.260 OA
HETATM    5  O2  UNL     1      -5.909  47.781 -27.699  1.00  0.00    -0.311 OA
HETATM    6  C4  UNL     1      -7.154  47.206 -28.141  1.00  0.00     0.142 C 
HETATM    7  C5  UNL     1      -8.255  48.232 -27.908  1.00  0.00     0.039 C 
HETATM    8  C6  UNL     1      -9.628  47.884 -28.502  1.00  0.00     0.006 C 
HETATM    9  C7  UNL     1      -9.546  47.317 -29.940  1.00  0.00    -0.027 A 
HETATM   10  C8  UNL     1     -10.899  46.874 -30.534  1.00  0.00     0.011 C 
HETATM   11  C9  UNL     1     -11.843  46.136 -29.571  1.00  0.00     0.011 C 
HETATM   12  C10 UNL     1     -11.991  46.890 -28.241  1.00  0.00    -0.032 C 
HETATM   13  C11 UNL     1     -12.647  48.268 -28.535  1.00  0.00     0.016 C 
HETATM   14  C12 UNL     1     -12.786  46.178 -27.096  1.00  0.00    -0.002 C 
HETATM   15  C21 UNL     1     -12.152  46.770 -25.800  1.00  0.00     0.006 C 
HETATM   16  C22 UNL     1     -10.873  47.523 -26.215  1.00  0.00     0.011 C 
HETATM   17  C23 UNL     1     -10.538  46.980 -27.612  1.00  0.00    -0.032 C 
HETATM   18  C24 UNL     1      -9.855  45.589 -27.404  1.00  0.00     0.016 C 
HETATM   19  C25 UNL     1      -8.722  48.106 -30.929  1.00  0.00     0.022 A 
HETATM   20  C26 UNL     1      -8.191  46.756 -30.476  1.00  0.00    -0.021 A 
HETATM   21  C30 UNL     1      -6.942  46.765 -29.582  1.00  0.00     0.063 C 
ENDROOT
BRANCH  14  22
HETATM   22  C13 UNL     1     -14.344  46.102 -27.041  1.00  0.00    -0.014 C 
HETATM   23  C14 UNL     1     -15.051  45.379 -28.198  1.00  0.00     0.010 C 
BRANCH  22  24
HETATM   24  C15 UNL     1     -14.916  45.565 -25.709  1.00  0.00     0.008 C 
BRANCH  24  25
HETATM   25  C16 UNL     1     -15.495  46.647 -24.794  1.00  0.00     0.028 C 
BRANCH  25  26
HETATM   26  C17 UNL     1     -16.999  46.644 -24.842  1.00  0.00    -0.017 C 
HETATM   27  C18 UNL     1     -17.840  46.470 -23.805  1.00  0.00    -0.028 C 
HETATM   28  C19 UNL     1     -17.481  46.275 -22.365  1.00  0.00     0.051 C 
BRANCH  27  29
HETATM   29  C20 UNL     1     -19.300  46.487 -24.107  1.00  0.00     0.265 C 
HETATM   30  O3  UNL     1     -19.746  46.810 -25.202  1.00  0.00    -0.302 OA
ENDBRANCH  27  29
ENDBRANCH  25  26
ENDBRANCH  24  25
ENDBRANCH  22  24
ENDBRANCH  14  22
BRANCH  20  31
HETATM   31  C27 UNL     1      -8.229  45.543 -31.420  1.00  0.00     0.021 C 
BRANCH  31  32
HETATM   32  C28 UNL     1      -7.443  44.322 -30.957  1.00  0.00     0.111 C 
BRANCH  32  33
HETATM   33  C29 UNL     1      -6.443  43.927 -32.002  1.00  0.00     0.139 C 
HETATM   34  O4  UNL     1      -5.868  42.855 -32.080  1.00  0.00    -0.650 OA
BRANCH  33  35
HETATM   35  O5  UNL     1      -6.236  44.890 -32.920  1.00  0.00    -0.776 OA
HETATM   36  H41 UNL     1      -5.575  44.500 -33.531  1.00  0.00     0.167 HD
ENDBRANCH  33  35
ENDBRANCH  32  33
ENDBRANCH  31  32
ENDBRANCH  20  31
TORSDOF 9
ENDMDL
MODEL 7
REMARK minimizedAffinity -8.40681171
REMARK CNNscore 0.188239738
REMARK CNNaffinity 6.15863657
REMARK  9 active torsions:
REMARK  status: ('A' for Active; 'I' for Inactive)
REMARK    1  A    between atoms: C12_14  and  C13_15 
REMARK    2  A    between atoms: C13_15  and  C15_17 
REMARK    3  A    between atoms: C15_17  and  C16_18 
REMARK    4  A    between atoms: C16_18  and  C17_19 
REMARK    5  A    between atoms: C18_20  and  C20_22 
REMARK    6  A    between atoms: C26_29  and  C27_30 
REMARK    7  A    between atoms: C27_30  and  C28_31 
REMARK    8  A    between atoms: C28_31  and  C29_32 
REMARK    9  A    between atoms: C29_32  and  O5_34 
ROOT
HETATM    1  C1  UNL     1       0.669  53.431 -23.794  1.00  0.00     0.025 C 
HETATM    2  C2  UNL     1       0.339  52.416 -22.985  1.00  0.00     0.015 C 
HETATM    3  C3  UNL     1       0.794  52.370 -21.580  1.00  0.00     0.289 C 
HETATM    4  O1  UNL     1       1.577  53.135 -21.046  1.00  0.00    -0.260 OA
HETATM    5  O2  UNL     1       0.200  51.304 -20.984  1.00  0.00    -0.311 OA
HETATM    6  C4  UNL     1      -0.805  50.734 -21.844  1.00  0.00     0.142 C 
HETATM    7  C5  UNL     1      -2.170  51.139 -21.304  1.00  0.00     0.039 C 
HETATM    8  C6  UNL     1      -3.370  50.798 -22.201  1.00  0.00     0.006 C 
HETATM    9  C7  UNL     1      -3.128  51.119 -23.696  1.00  0.00    -0.027 A 
HETATM   10  C8  UNL     1      -4.278  50.708 -24.636  1.00  0.00     0.011 C 
HETATM   11  C9  UNL     1      -4.933  49.349 -24.337  1.00  0.00     0.011 C 
HETATM   12  C10 UNL     1      -5.298  49.217 -22.851  1.00  0.00    -0.032 C 
HETATM   13  C11 UNL     1      -6.357  50.303 -22.512  1.00  0.00     0.016 C 
HETATM   14  C12 UNL     1      -5.818  47.824 -22.360  1.00  0.00    -0.002 C 
HETATM   15  C21 UNL     1      -5.390  47.792 -20.861  1.00  0.00     0.006 C 
HETATM   16  C22 UNL     1      -4.417  48.964 -20.634  1.00  0.00     0.011 C 
HETATM   17  C23 UNL     1      -3.941  49.353 -22.042  1.00  0.00    -0.032 C 
HETATM   18  C24 UNL     1      -2.854  48.309 -22.456  1.00  0.00     0.016 C 
HETATM   19  C25 UNL     1      -2.603  52.500 -24.011  1.00  0.00     0.022 A 
HETATM   20  C26 UNL     1      -1.670  51.318 -24.219  1.00  0.00    -0.021 A 
HETATM   21  C30 UNL     1      -0.478  51.196 -23.258  1.00  0.00     0.063 C 
ENDROOT
BRANCH  14  22
HETATM   22  C13 UNL     1      -7.273  47.310 -22.597  1.00  0.00    -0.014 C 
HETATM   23  C14 UNL     1      -7.465  46.222 -23.665  1.00  0.00     0.010 C 
BRANCH  22  24
HETATM   24  C15 UNL     1      -8.018  46.872 -21.317  1.00  0.00     0.008 C 
BRANCH  24  25
HETATM   25  C16 UNL     1      -8.920  47.954 -20.715  1.00  0.00     0.028 C 
BRANCH  25  26
HETATM   26  C17 UNL     1      -9.481  47.511 -19.391  1.00  0.00    -0.017 C 
HETATM   27  C18 UNL     1      -9.444  48.191 -18.230  1.00  0.00    -0.028 C 
HETATM   28  C19 UNL     1      -8.874  49.555 -17.992  1.00  0.00     0.051 C 
BRANCH  27  29
HETATM   29  C20 UNL     1     -10.054  47.532 -17.039  1.00  0.00     0.265 C 
HETATM   30  O3  UNL     1     -11.240  47.644 -16.755  1.00  0.00    -0.302 OA
ENDBRANCH  27  29
ENDBRANCH  25  26
ENDBRANCH  24  25
ENDBRANCH  22  24
ENDBRANCH  14  22
BRANCH  20  31
HETATM   31  C27 UNL     1      -1.334  50.828 -25.636  1.00  0.00     0.021 C 
BRANCH  31  32
HETATM   32  C28 UNL     1      -0.770  51.881 -26.583  1.00  0.00     0.111 C 
BRANCH  32  33
HETATM   33  C29 UNL     1      -1.865  52.442 -27.441  1.00  0.00     0.139 C 
HETATM   34  O4  UNL     1      -2.077  53.622 -27.658  1.00  0.00    -0.650 OA
BRANCH  33  35
HETATM   35  O5  UNL     1      -2.623  51.486 -28.012  1.00  0.00    -0.776 OA
HETATM   36  H41 UNL     1      -3.283  51.987 -28.537  1.00  0.00     0.167 HD
ENDBRANCH  33  35
ENDBRANCH  32  33
ENDBRANCH  31  32
ENDBRANCH  20  31
TORSDOF 9
ENDMDL
MODEL 8
REMARK minimizedAffinity -8.51831818
REMARK CNNscore 0.166314244
REMARK CNNaffinity 6.25272131
REMARK  9 active torsions:
REMARK  status: ('A' for Active; 'I' for Inactive)
REMARK    1  A    between atoms: C12_14  and  C13_15 
REMARK    2  A    between atoms: C13_15  and  C15_17 
REMARK    3  A    between atoms: C15_17  and  C16_18 
REMARK    4  A    between atoms: C16_18  and  C17_19 
REMARK    5  A    between atoms: C18_20  and  C20_22 
REMARK    6  A    between atoms: C26_29  and  C27_30 
REMARK    7  A    between atoms: C27_30  and  C28_31 
REMARK    8  A    between atoms: C28_31  and  C29_32 
REMARK    9  A    between atoms: C29_32  and  O5_34 
ROOT
HETATM    1  C1  UNL     1      -6.437  47.730 -25.509  1.00  0.00     0.025 C 
HETATM    2  C2  UNL     1      -6.551  48.343 -24.324  1.00  0.00     0.015 C 
HETATM    3  C3  UNL     1      -7.546  47.906 -23.321  1.00  0.00     0.289 C 
HETATM    4  O1  UNL     1      -8.414  47.068 -23.480  1.00  0.00    -0.260 OA
HETATM    5  O2  UNL     1      -7.337  48.623 -22.187  1.00  0.00    -0.311 OA
HETATM    6  C4  UNL     1      -6.116  49.382 -22.282  1.00  0.00     0.142 C 
HETATM    7  C5  UNL     1      -5.066  48.693 -21.422  1.00  0.00     0.039 C 
HETATM    8  C6  UNL     1      -3.635  49.238 -21.552  1.00  0.00     0.006 C 
HETATM    9  C7  UNL     1      -3.216  49.512 -23.017  1.00  0.00    -0.027 A 
HETATM   10  C8  UNL     1      -1.818  50.143 -23.178  1.00  0.00     0.011 C 
HETATM   11  C9  UNL     1      -1.455  51.235 -22.158  1.00  0.00     0.011 C 
HETATM   12  C10 UNL     1      -1.744  50.778 -20.720  1.00  0.00    -0.032 C 
HETATM   13  C11 UNL     1      -0.834  49.558 -20.405  1.00  0.00     0.016 C 
HETATM   14  C12 UNL     1      -1.585  51.842 -19.582  1.00  0.00    -0.002 C 
HETATM   15  C21 UNL     1      -2.593  51.355 -18.495  1.00  0.00     0.006 C 
HETATM   16  C22 UNL     1      -3.475  50.269 -19.139  1.00  0.00     0.011 C 
HETATM   17  C23 UNL     1      -3.298  50.468 -20.651  1.00  0.00    -0.032 C 
HETATM   18  C24 UNL     1      -4.199  51.679 -21.056  1.00  0.00     0.016 C 
HETATM   19  C25 UNL     1      -3.452  48.395 -24.005  1.00  0.00     0.022 A 
HETATM   20  C26 UNL     1      -4.308  49.644 -24.124  1.00  0.00    -0.021 A 
HETATM   21  C30 UNL     1      -5.796  49.504 -23.765  1.00  0.00     0.063 C 
ENDROOT
BRANCH  14  22
HETATM   22  C13 UNL     1      -0.209  52.282 -18.994  1.00  0.00    -0.014 C 
HETATM   23  C14 UNL     1       0.292  51.535 -17.748  1.00  0.00     0.010 C 
BRANCH  22  24
HETATM   24  C15 UNL     1       0.943  52.339 -20.023  1.00  0.00     0.008 C 
BRANCH  24  25
HETATM   25  C16 UNL     1       0.817  53.473 -21.044  1.00  0.00     0.028 C 
BRANCH  25  26
HETATM   26  C17 UNL     1       0.726  52.929 -22.444  1.00  0.00    -0.017 C 
HETATM   27  C18 UNL     1       0.852  53.623 -23.590  1.00  0.00    -0.028 C 
HETATM   28  C19 UNL     1       1.145  55.083 -23.743  1.00  0.00     0.051 C 
BRANCH  27  29
HETATM   29  C20 UNL     1       0.701  52.861 -24.864  1.00  0.00     0.265 C 
HETATM   30  O3  UNL     1       1.440  53.028 -25.826  1.00  0.00    -0.302 OA
ENDBRANCH  27  29
ENDBRANCH  25  26
ENDBRANCH  24  25
ENDBRANCH  22  24
ENDBRANCH  14  22
BRANCH  20  31
HETATM   31  C27 UNL     1      -4.072  50.650 -25.262  1.00  0.00     0.021 C 
BRANCH  31  32
HETATM   32  C28 UNL     1      -2.901  50.336 -26.186  1.00  0.00     0.111 C 
BRANCH  32  33
HETATM   33  C29 UNL     1      -3.406  49.878 -27.522  1.00  0.00     0.139 C 
HETATM   34  O4  UNL     1      -4.118  48.911 -27.729  1.00  0.00    -0.650 OA
BRANCH  33  35
HETATM   35  O5  UNL     1      -3.016  50.678 -28.532  1.00  0.00    -0.776 OA
HETATM   36  H41 UNL     1      -3.414  50.268 -29.329  1.00  0.00     0.167 HD
ENDBRANCH  33  35
ENDBRANCH  32  33
ENDBRANCH  31  32
ENDBRANCH  20  31
TORSDOF 9
ENDMDL
MODEL 9
REMARK minimizedAffinity -8.37812042
REMARK CNNscore 0.165954813
REMARK CNNaffinity 6.10570955
REMARK  9 active torsions:
REMARK  status: ('A' for Active; 'I' for Inactive)
REMARK    1  A    between atoms: C12_14  and  C13_15 
REMARK    2  A    between atoms: C13_15  and  C15_17 
REMARK    3  A    between atoms: C15_17  and  C16_18 
REMARK    4  A    between atoms: C16_18  and  C17_19 
REMARK    5  A    between atoms: C18_20  and  C20_22 
REMARK    6  A    between atoms: C26_29  and  C27_30 
REMARK    7  A    between atoms: C27_30  and  C28_31 
REMARK    8  A    between atoms: C28_31  and  C29_32 
REMARK    9  A    between atoms: C29_32  and  O5_34 
ROOT
HETATM    1  C1  UNL     1       0.561  54.200 -24.300  1.00  0.00     0.025 C 
HETATM    2  C2  UNL     1       0.584  53.321 -23.289  1.00  0.00     0.015 C 
HETATM    3  C3  UNL     1       1.132  53.682 -21.964  1.00  0.00     0.289 C 
HETATM    4  O1  UNL     1       1.706  54.716 -21.676  1.00  0.00    -0.260 OA
HETATM    5  O2  UNL     1       0.901  52.644 -21.120  1.00  0.00    -0.311 OA
HETATM    6  C4  UNL     1       0.035  51.671 -21.736  1.00  0.00     0.142 C 
HETATM    7  C5  UNL     1      -1.347  51.810 -21.112  1.00  0.00     0.039 C 
HETATM    8  C6  UNL     1      -2.465  50.994 -21.780  1.00  0.00     0.006 C 
HETATM    9  C7  UNL     1      -2.428  51.056 -23.326  1.00  0.00    -0.027 A 
HETATM   10  C8  UNL     1      -3.482  50.177 -24.030  1.00  0.00     0.011 C 
HETATM   11  C9  UNL     1      -3.711  48.787 -23.416  1.00  0.00     0.011 C 
HETATM   12  C10 UNL     1      -3.920  48.871 -21.897  1.00  0.00    -0.032 C 
HETATM   13  C11 UNL     1      -5.212  49.691 -21.628  1.00  0.00     0.016 C 
HETATM   14  C12 UNL     1      -3.997  47.521 -21.106  1.00  0.00    -0.002 C 
HETATM   15  C21 UNL     1      -3.472  47.908 -19.689  1.00  0.00     0.006 C 
HETATM   16  C22 UNL     1      -2.849  49.312 -19.795  1.00  0.00     0.011 C 
HETATM   17  C23 UNL     1      -2.600  49.515 -21.298  1.00  0.00    -0.032 C 
HETATM   18  C24 UNL     1      -1.298  48.726 -21.650  1.00  0.00     0.016 C 
HETATM   19  C25 UNL     1      -2.330  52.431 -23.943  1.00  0.00     0.022 A 
HETATM   20  C26 UNL     1      -1.123  51.513 -24.051  1.00  0.00    -0.021 A 
HETATM   21  C30 UNL     1       0.120  51.902 -23.238  1.00  0.00     0.063 C 
ENDROOT
BRANCH  14  22
HETATM   22  C13 UNL     1      -5.264  46.611 -21.067  1.00  0.00    -0.014 C 
HETATM   23  C14 UNL     1      -6.212  46.680 -22.275  1.00  0.00     0.010 C 
BRANCH  22  24
HETATM   24  C15 UNL     1      -4.981  45.125 -20.754  1.00  0.00     0.008 C 
BRANCH  24  25
HETATM   25  C16 UNL     1      -5.212  44.737 -19.291  1.00  0.00     0.028 C 
BRANCH  25  26
HETATM   26  C17 UNL     1      -4.235  43.679 -18.855  1.00  0.00    -0.017 C 
HETATM   27  C18 UNL     1      -4.413  42.346 -18.903  1.00  0.00    -0.028 C 
HETATM   28  C19 UNL     1      -5.601  41.605 -19.432  1.00  0.00     0.051 C 
BRANCH  27  29
HETATM   29  C20 UNL     1      -3.300  41.494 -18.390  1.00  0.00     0.265 C 
HETATM   30  O3  UNL     1      -2.231  41.379 -18.976  1.00  0.00    -0.302 OA
ENDBRANCH  27  29
ENDBRANCH  25  26
ENDBRANCH  24  25
ENDBRANCH  22  24
ENDBRANCH  14  22
BRANCH  20  31
HETATM   31  C27 UNL     1      -0.764  50.848 -25.390  1.00  0.00     0.021 C 
BRANCH  31  32
HETATM   32  C28 UNL     1       0.212  51.620 -26.270  1.00  0.00     0.111 C 
BRANCH  32  33
HETATM   33  C29 UNL     1      -0.529  52.325 -27.367  1.00  0.00     0.139 C 
HETATM   34  O4  UNL     1      -1.400  53.164 -27.223  1.00  0.00    -0.650 OA
BRANCH  33  35
HETATM   35  O5  UNL     1      -0.115  51.961 -28.595  1.00  0.00    -0.776 OA
HETATM   36  H41 UNL     1      -0.672  52.492 -29.202  1.00  0.00     0.167 HD
ENDBRANCH  33  35
ENDBRANCH  32  33
ENDBRANCH  31  32
ENDBRANCH  20  31
TORSDOF 9
ENDMDL
