MODEL 1
REMARK minimizedAffinity -9.17445564
REMARK CNNscore 0.593590677
REMARK CNNaffinity 7.46892691
REMARK  14 active torsions:
REMARK  status: ('A' for Active; 'I' for Inactive)
REMARK    1  A    between atoms: O1_2  and  C2_3 
REMARK    2  A    between atoms: C6_8  and  C7_9 
REMARK    3  A    between atoms: C7_9  and  O3_11 
REMARK    4  A    between atoms: C8_12  and  C9_13 
REMARK    5  A    between atoms: C9_13  and  C10_14 
REMARK    6  A    between atoms: C10_14  and  N2_15 
REMARK       I    between atoms: N2_15  and  C11_16 
REMARK    7  A    between atoms: C11_16  and  C12_18 
REMARK    8  A    between atoms: C12_18  and  C13_19 
REMARK    9  A    between atoms: C13_19  and  C14_20 
REMARK   10  A    between atoms: C14_20  and  O6_22 
REMARK   11  A    between atoms: O6_22  and  C15_23 
REMARK   12  A    between atoms: C15_23  and  C16_24 
REMARK   13  A    between atoms: C16_24  and  C17_26 
REMARK   14  A    between atoms: C17_26  and  O8_27 
ROOT
HETATM    1  C14 UNL     1      -2.380  11.380  16.971  1.00  0.00     0.259 C 
HETATM    2  O5  UNL     1      -2.576  12.346  17.700  1.00  0.00    -0.265 OA
ENDROOT
BRANCH   1   3
HETATM    3  C13 UNL     1      -3.254  10.151  16.908  1.00  0.00     0.120 C 
BRANCH   3   4
HETATM    4  C12 UNL     1      -4.412  10.358  15.939  1.00  0.00     0.112 C 
BRANCH   4   5
HETATM    5  C11 UNL     1      -5.005   9.035  15.491  1.00  0.00     0.218 C 
HETATM    6  N2  UNL     1      -4.199   7.956  15.781  1.00  0.00    -0.361 N 
HETATM    7  H12 UNL     1      -3.373   8.099  16.347  1.00  0.00     0.162 HD
HETATM    8  O4  UNL     1      -6.083   8.948  14.913  1.00  0.00    -0.274 OA
BRANCH   6   9
HETATM    9  C10 UNL     1      -4.641   6.592  15.552  1.00  0.00     0.127 C 
BRANCH   9  10
HETATM   10  C9  UNL     1      -4.032   5.964  14.296  1.00  0.00     0.061 C 
BRANCH  10  11
HETATM   11  C8  UNL     1      -5.059   5.222  13.486  1.00  0.00    -0.011 A 
HETATM   12  C6  UNL     1      -4.847   4.182  12.581  1.00  0.00     0.114 A 
HETATM   13  N1  UNL     1      -6.081   3.831  12.079  1.00  0.00    -0.350 N 
HETATM   14  C5  UNL     1      -7.076   4.614  12.607  1.00  0.00     0.043 A 
HETATM   15  H6  UNL     1      -6.221   3.099  11.395  1.00  0.00     0.166 HD
HETATM   16  C4  UNL     1      -8.450   4.610  12.356  1.00  0.00     0.033 A 
HETATM   17  C36 UNL     1      -6.473   5.489  13.503  1.00  0.00     0.002 A 
HETATM   18  C3  UNL     1      -9.233   5.532  13.057  1.00  0.00     0.039 A 
HETATM   19  C2  UNL     1      -8.672   6.422  13.973  1.00  0.00     0.069 A 
HETATM   20  C37 UNL     1      -7.290   6.409  14.200  1.00  0.00     0.051 A 
BRANCH  12  21
HETATM   21  C7  UNL     1      -3.664   3.495  12.134  1.00  0.00     0.194 C 
HETATM   22  O2  UNL     1      -3.367   2.334  12.372  1.00  0.00    -0.645 OA
BRANCH  21  23
HETATM   23  O3  UNL     1      -2.876   4.274  11.376  1.00  0.00    -0.772 OA
HETATM   24  H7  UNL     1      -2.116   3.713  11.133  1.00  0.00     0.167 HD
ENDBRANCH  21  23
ENDBRANCH  12  21
BRANCH  19  25
HETATM   25  O1  UNL     1      -9.576   7.255  14.578  1.00  0.00    -0.356 OA
HETATM   26  C1  UNL     1     -10.819   7.446  13.913  1.00  0.00     0.210 C 
ENDBRANCH  19  25
ENDBRANCH  10  11
ENDBRANCH   9  10
ENDBRANCH   6   9
ENDBRANCH   4   5
ENDBRANCH   3   4
ENDBRANCH   1   3
BRANCH   1  27
HETATM   27  O6  UNL     1      -1.318  11.248  16.134  1.00  0.00    -0.314 OA
BRANCH  27  28
HETATM   28  C15 UNL     1      -0.888   9.913  15.900  1.00  0.00     0.260 C 
BRANCH  28  29
HETATM   29  C16 UNL     1      -0.991   9.420  14.457  1.00  0.00     0.185 C 
HETATM   30  O7  UNL     1      -1.373  10.204  13.580  1.00  0.00    -0.292 OA
BRANCH  29  31
HETATM   31  C17 UNL     1      -0.541   7.962  14.112  1.00  0.00     0.128 C 
HETATM   32  C18 UNL     1      -1.589   7.351  13.153  1.00  0.00     0.047 C 
HETATM   33  C19 UNL     1      -1.070   7.577  11.728  1.00  0.00     0.009 C 
HETATM   34  C20 UNL     1       0.294   8.276  11.865  1.00  0.00     0.002 C 
HETATM   35  C21 UNL     1       1.310   7.993  10.740  1.00  0.00    -0.004 C 
HETATM   36  C34 UNL     1       0.781   7.878  13.275  1.00  0.00    -0.002 C 
HETATM   37  C22 UNL     1       0.722   8.338   9.364  1.00  0.00     0.010 C 
HETATM   38  C31 UNL     1       1.854   6.542  10.749  1.00  0.00     0.002 C 
HETATM   39  C23 UNL     1       1.772   8.195   8.272  1.00  0.00     0.035 C 
HETATM   40  C24 UNL     1       2.379   6.813   8.256  1.00  0.00    -0.068 C 
HETATM   41  C25 UNL     1       2.484   6.148   7.092  1.00  0.00     0.053 C 
HETATM   42  C29 UNL     1       2.898   6.268   9.592  1.00  0.00    -0.016 C 
HETATM   43  C26 UNL     1       3.197   4.854   6.988  1.00  0.00     0.149 C 
HETATM   44  O9  UNL     1       3.306   4.312   5.890  1.00  0.00    -0.293 OA
HETATM   45  C27 UNL     1       3.850   4.296   8.226  1.00  0.00     0.084 C 
HETATM   46  C28 UNL     1       3.103   4.727   9.480  1.00  0.00     0.022 C 
HETATM   47  C30 UNL     1       4.262   6.940   9.873  1.00  0.00     0.020 C 
HETATM   48  C32 UNL     1       2.387   6.187  12.152  1.00  0.00     0.007 C 
HETATM   49  C33 UNL     1       1.352   6.430  13.254  1.00  0.00     0.013 C 
HETATM   50  C35 UNL     1       1.879   8.831  13.775  1.00  0.00     0.019 C 
BRANCH  31  51
HETATM   51  O8  UNL     1      -0.495   7.118  15.252  1.00  0.00    -0.381 OA
HETATM   52  H19 UNL     1       0.290   7.351  15.790  1.00  0.00     0.211 HD
ENDBRANCH  31  51
ENDBRANCH  29  31
ENDBRANCH  28  29
ENDBRANCH  27  28
ENDBRANCH   1  27
TORSDOF 14
ENDMDL
MODEL 2
REMARK minimizedAffinity -9.02662468
REMARK CNNscore 0.3766101
REMARK CNNaffinity 6.45583487
REMARK  14 active torsions:
REMARK  status: ('A' for Active; 'I' for Inactive)
REMARK    1  A    between atoms: O1_2  and  C2_3 
REMARK    2  A    between atoms: C6_8  and  C7_9 
REMARK    3  A    between atoms: C7_9  and  O3_11 
REMARK    4  A    between atoms: C8_12  and  C9_13 
REMARK    5  A    between atoms: C9_13  and  C10_14 
REMARK    6  A    between atoms: C10_14  and  N2_15 
REMARK       I    between atoms: N2_15  and  C11_16 
REMARK    7  A    between atoms: C11_16  and  C12_18 
REMARK    8  A    between atoms: C12_18  and  C13_19 
REMARK    9  A    between atoms: C13_19  and  C14_20 
REMARK   10  A    between atoms: C14_20  and  O6_22 
REMARK   11  A    between atoms: O6_22  and  C15_23 
REMARK   12  A    between atoms: C15_23  and  C16_24 
REMARK   13  A    between atoms: C16_24  and  C17_26 
REMARK   14  A    between atoms: C17_26  and  O8_27 
ROOT
HETATM    1  C14 UNL     1       3.454   8.086  12.758  1.00  0.00     0.259 C 
HETATM    2  O5  UNL     1       3.421   9.266  13.090  1.00  0.00    -0.265 OA
ENDROOT
BRANCH   1   3
HETATM    3  C13 UNL     1       2.288   7.132  12.837  1.00  0.00     0.120 C 
BRANCH   3   4
HETATM    4  C12 UNL     1       2.227   6.247  11.596  1.00  0.00     0.112 C 
BRANCH   4   5
HETATM    5  C11 UNL     1       0.824   5.723  11.357  1.00  0.00     0.218 C 
HETATM    6  N2  UNL     1      -0.088   6.175  12.285  1.00  0.00    -0.361 N 
HETATM    7  H12 UNL     1       0.198   6.879  12.951  1.00  0.00     0.162 HD
HETATM    8  O4  UNL     1       0.544   4.959  10.439  1.00  0.00    -0.274 OA
BRANCH   6   9
HETATM    9  C10 UNL     1      -1.508   5.894  12.158  1.00  0.00     0.127 C 
BRANCH   9  10
HETATM   10  C9  UNL     1      -2.001   4.829  13.141  1.00  0.00     0.061 C 
BRANCH  10  11
HETATM   11  C8  UNL     1      -2.973   3.879  12.496  1.00  0.00    -0.011 A 
HETATM   12  C6  UNL     1      -2.692   2.825  11.628  1.00  0.00     0.114 A 
HETATM   13  N1  UNL     1      -3.898   2.250  11.293  1.00  0.00    -0.350 N 
HETATM   14  C5  UNL     1      -4.945   2.901  11.892  1.00  0.00     0.043 A 
HETATM   15  H6  UNL     1      -3.988   1.459  10.669  1.00  0.00     0.166 HD
HETATM   16  C4  UNL     1      -6.319   2.663  11.806  1.00  0.00     0.033 A 
HETATM   17  C36 UNL     1      -4.401   3.921  12.665  1.00  0.00     0.002 A 
HETATM   18  C3  UNL     1      -7.163   3.497  12.545  1.00  0.00     0.039 A 
HETATM   19  C2  UNL     1      -6.661   4.526  13.341  1.00  0.00     0.069 A 
HETATM   20  C37 UNL     1      -5.280   4.748  13.405  1.00  0.00     0.051 A 
BRANCH  12  21
HETATM   21  C7  UNL     1      -1.467   2.304  11.081  1.00  0.00     0.194 C 
HETATM   22  O2  UNL     1      -0.414   2.149  11.680  1.00  0.00    -0.645 OA
BRANCH  21  23
HETATM   23  O3  UNL     1      -1.587   1.966   9.787  1.00  0.00    -0.772 OA
HETATM   24  H7  UNL     1      -0.710   1.630   9.526  1.00  0.00     0.167 HD
ENDBRANCH  21  23
ENDBRANCH  12  21
BRANCH  19  25
HETATM   25  O1  UNL     1      -7.619   5.247  14.004  1.00  0.00    -0.356 OA
HETATM   26  C1  UNL     1      -7.373   5.534  15.376  1.00  0.00     0.210 C 
ENDBRANCH  19  25
ENDBRANCH  10  11
ENDBRANCH   9  10
ENDBRANCH   6   9
ENDBRANCH   4   5
ENDBRANCH   3   4
ENDBRANCH   1   3
BRANCH   1  27
HETATM   27  O6  UNL     1       4.562   7.443  12.306  1.00  0.00    -0.314 OA
BRANCH  27  28
HETATM   28  C15 UNL     1       5.633   8.286  11.898  1.00  0.00     0.260 C 
BRANCH  28  29
HETATM   29  C16 UNL     1       6.982   8.026  12.566  1.00  0.00     0.185 C 
HETATM   30  O7  UNL     1       7.843   7.383  11.952  1.00  0.00    -0.292 OA
BRANCH  29  31
HETATM   31  C17 UNL     1       7.269   8.639  13.976  1.00  0.00     0.128 C 
HETATM   32  C18 UNL     1       8.086   7.608  14.790  1.00  0.00     0.047 C 
HETATM   33  C19 UNL     1       9.564   7.973  14.610  1.00  0.00     0.009 C 
HETATM   34  C20 UNL     1       9.600   9.236  13.733  1.00  0.00     0.002 C 
HETATM   35  C21 UNL     1      10.792  10.185  13.970  1.00  0.00    -0.004 C 
HETATM   36  C34 UNL     1       8.217   9.886  13.954  1.00  0.00    -0.002 C 
HETATM   37  C22 UNL     1      12.128   9.445  13.812  1.00  0.00     0.010 C 
HETATM   38  C31 UNL     1      10.737  10.919  15.333  1.00  0.00     0.002 C 
HETATM   39  C23 UNL     1      13.300  10.411  13.903  1.00  0.00     0.035 C 
HETATM   40  C24 UNL     1      13.279  11.197  15.192  1.00  0.00    -0.068 C 
HETATM   41  C25 UNL     1      14.402  11.294  15.927  1.00  0.00     0.053 C 
HETATM   42  C29 UNL     1      11.963  11.893  15.560  1.00  0.00    -0.016 C 
HETATM   43  C26 UNL     1      14.485  12.165  17.122  1.00  0.00     0.149 C 
HETATM   44  O9  UNL     1      15.549  12.256  17.729  1.00  0.00    -0.293 OA
HETATM   45  C27 UNL     1      13.277  12.987  17.493  1.00  0.00     0.084 C 
HETATM   46  C28 UNL     1      11.992  12.294  17.066  1.00  0.00     0.022 C 
HETATM   47  C30 UNL     1      11.854  13.171  14.698  1.00  0.00     0.020 C 
HETATM   48  C32 UNL     1       9.368  11.608  15.506  1.00  0.00     0.007 C 
HETATM   49  C33 UNL     1       8.194  10.645  15.313  1.00  0.00     0.013 C 
HETATM   50  C35 UNL     1       7.884  10.883  12.831  1.00  0.00     0.019 C 
BRANCH  31  51
HETATM   51  O8  UNL     1       6.085   8.892  14.715  1.00  0.00    -0.381 OA
HETATM   52  H19 UNL     1       5.639   9.680  14.342  1.00  0.00     0.211 HD
ENDBRANCH  31  51
ENDBRANCH  29  31
ENDBRANCH  28  29
ENDBRANCH  27  28
ENDBRANCH   1  27
TORSDOF 14
ENDMDL
MODEL 3
REMARK minimizedAffinity -9.87386227
REMARK CNNscore 0.374189228
REMARK CNNaffinity 6.60822344
REMARK  14 active torsions:
REMARK  status: ('A' for Active; 'I' for Inactive)
REMARK    1  A    between atoms: O1_2  and  C2_3 
REMARK    2  A    between atoms: C6_8  and  C7_9 
REMARK    3  A    between atoms: C7_9  and  O3_11 
REMARK    4  A    between atoms: C8_12  and  C9_13 
REMARK    5  A    between atoms: C9_13  and  C10_14 
REMARK    6  A    between atoms: C10_14  and  N2_15 
REMARK       I    between atoms: N2_15  and  C11_16 
REMARK    7  A    between atoms: C11_16  and  C12_18 
REMARK    8  A    between atoms: C12_18  and  C13_19 
REMARK    9  A    between atoms: C13_19  and  C14_20 
REMARK   10  A    between atoms: C14_20  and  O6_22 
REMARK   11  A    between atoms: O6_22  and  C15_23 
REMARK   12  A    between atoms: C15_23  and  C16_24 
REMARK   13  A    between atoms: C16_24  and  C17_26 
REMARK   14  A    between atoms: C17_26  and  O8_27 
ROOT
HETATM    1  C14 UNL     1       4.795   6.286  10.858  1.00  0.00     0.259 C 
HETATM    2  O5  UNL     1       5.645   5.593  10.311  1.00  0.00    -0.265 OA
ENDROOT
BRANCH   1   3
HETATM    3  C13 UNL     1       3.360   6.413  10.408  1.00  0.00     0.120 C 
BRANCH   3   4
HETATM    4  C12 UNL     1       2.423   6.521  11.606  1.00  0.00     0.112 C 
BRANCH   4   5
HETATM    5  C11 UNL     1       1.195   5.649  11.431  1.00  0.00     0.218 C 
HETATM    6  N2  UNL     1       0.036   6.255  11.865  1.00  0.00    -0.361 N 
HETATM    7  H12 UNL     1       0.064   7.227  12.143  1.00  0.00     0.162 HD
HETATM    8  O4  UNL     1       1.241   4.515  10.967  1.00  0.00    -0.274 OA
BRANCH   6   9
HETATM    9  C10 UNL     1      -1.266   5.641  11.666  1.00  0.00     0.127 C 
BRANCH   9  10
HETATM   10  C9  UNL     1      -1.557   4.512  12.658  1.00  0.00     0.061 C 
BRANCH  10  11
HETATM   11  C8  UNL     1      -2.608   3.569  12.140  1.00  0.00    -0.011 A 
HETATM   12  C6  UNL     1      -2.423   2.421  11.371  1.00  0.00     0.114 A 
HETATM   13  N1  UNL     1      -3.674   1.894  11.132  1.00  0.00    -0.350 N 
HETATM   14  C5  UNL     1      -4.657   2.665  11.696  1.00  0.00     0.043 A 
HETATM   15  H6  UNL     1      -3.834   1.054  10.591  1.00  0.00     0.166 HD
HETATM   16  C4  UNL     1      -6.045   2.507  11.676  1.00  0.00     0.033 A 
HETATM   17  C36 UNL     1      -4.024   3.717  12.348  1.00  0.00     0.002 A 
HETATM   18  C3  UNL     1      -6.809   3.460  12.357  1.00  0.00     0.039 A 
HETATM   19  C2  UNL     1      -6.216   4.526  13.032  1.00  0.00     0.069 A 
HETATM   20  C37 UNL     1      -4.823   4.665  13.031  1.00  0.00     0.051 A 
BRANCH  12  21
HETATM   21  C7  UNL     1      -1.253   1.773  10.840  1.00  0.00     0.194 C 
HETATM   22  O2  UNL     1      -0.233   1.500  11.455  1.00  0.00    -0.645 OA
BRANCH  21  23
HETATM   23  O3  UNL     1      -1.387   1.458   9.541  1.00  0.00    -0.772 OA
HETATM   24  H7  UNL     1      -0.547   1.030   9.292  1.00  0.00     0.167 HD
ENDBRANCH  21  23
ENDBRANCH  12  21
BRANCH  19  25
HETATM   25  O1  UNL     1      -7.104   5.367  13.651  1.00  0.00    -0.356 OA
HETATM   26  C1  UNL     1      -7.065   5.410  15.072  1.00  0.00     0.210 C 
ENDBRANCH  19  25
ENDBRANCH  10  11
ENDBRANCH   9  10
ENDBRANCH   6   9
ENDBRANCH   4   5
ENDBRANCH   3   4
ENDBRANCH   1   3
BRANCH   1  27
HETATM   27  O6  UNL     1       5.025   7.084  11.933  1.00  0.00    -0.314 OA
BRANCH  27  28
HETATM   28  C15 UNL     1       5.605   8.349  11.640  1.00  0.00     0.260 C 
BRANCH  28  29
HETATM   29  C16 UNL     1       6.856   8.714  12.440  1.00  0.00     0.185 C 
HETATM   30  O7  UNL     1       7.840   9.168  11.843  1.00  0.00    -0.292 OA
BRANCH  29  31
HETATM   31  C17 UNL     1       6.836   8.574  13.998  1.00  0.00     0.128 C 
HETATM   32  C18 UNL     1       7.937   7.567  14.403  1.00  0.00     0.047 C 
HETATM   33  C19 UNL     1       9.185   8.389  14.746  1.00  0.00     0.009 C 
HETATM   34  C20 UNL     1       8.793   9.868  14.584  1.00  0.00     0.002 C 
HETATM   35  C21 UNL     1       9.542  10.865  15.490  1.00  0.00    -0.004 C 
HETATM   36  C34 UNL     1       7.260   9.873  14.766  1.00  0.00    -0.002 C 
HETATM   37  C22 UNL     1      11.061  10.742  15.311  1.00  0.00     0.010 C 
HETATM   38  C31 UNL     1       9.161  10.746  16.988  1.00  0.00     0.002 C 
HETATM   39  C23 UNL     1      11.792  11.821  16.096  1.00  0.00     0.035 C 
HETATM   40  C24 UNL     1      11.429  11.792  17.560  1.00  0.00    -0.068 C 
HETATM   41  C25 UNL     1      12.403  11.827  18.487  1.00  0.00     0.053 C 
HETATM   42  C29 UNL     1       9.934  11.778  17.905  1.00  0.00    -0.016 C 
HETATM   43  C26 UNL     1      12.109  11.944  19.933  1.00  0.00     0.149 C 
HETATM   44  O9  UNL     1      13.038  12.022  20.734  1.00  0.00    -0.293 OA
HETATM   45  C27 UNL     1      10.669  12.063  20.362  1.00  0.00     0.084 C 
HETATM   46  C28 UNL     1       9.747  11.342  19.389  1.00  0.00     0.022 C 
HETATM   47  C30 UNL     1       9.401  13.219  17.730  1.00  0.00     0.020 C 
HETATM   48  C32 UNL     1       7.629  10.811  17.149  1.00  0.00     0.007 C 
HETATM   49  C33 UNL     1       6.900   9.785  16.277  1.00  0.00     0.013 C 
HETATM   50  C35 UNL     1       6.634  11.153  14.187  1.00  0.00     0.019 C 
BRANCH  31  51
HETATM   51  O8  UNL     1       5.610   8.052  14.486  1.00  0.00    -0.381 OA
HETATM   52  H19 UNL     1       4.922   8.747  14.429  1.00  0.00     0.211 HD
ENDBRANCH  31  51
ENDBRANCH  29  31
ENDBRANCH  28  29
ENDBRANCH  27  28
ENDBRANCH   1  27
TORSDOF 14
ENDMDL
MODEL 4
REMARK minimizedAffinity -8.95558929
REMARK CNNscore 0.373265654
REMARK CNNaffinity 7.49572515
REMARK  14 active torsions:
REMARK  status: ('A' for Active; 'I' for Inactive)
REMARK    1  A    between atoms: O1_2  and  C2_3 
REMARK    2  A    between atoms: C6_8  and  C7_9 
REMARK    3  A    between atoms: C7_9  and  O3_11 
REMARK    4  A    between atoms: C8_12  and  C9_13 
REMARK    5  A    between atoms: C9_13  and  C10_14 
REMARK    6  A    between atoms: C10_14  and  N2_15 
REMARK       I    between atoms: N2_15  and  C11_16 
REMARK    7  A    between atoms: C11_16  and  C12_18 
REMARK    8  A    between atoms: C12_18  and  C13_19 
REMARK    9  A    between atoms: C13_19  and  C14_20 
REMARK   10  A    between atoms: C14_20  and  O6_22 
REMARK   11  A    between atoms: O6_22  and  C15_23 
REMARK   12  A    between atoms: C15_23  and  C16_24 
REMARK   13  A    between atoms: C16_24  and  C17_26 
REMARK   14  A    between atoms: C17_26  and  O8_27 
ROOT
HETATM    1  C14 UNL     1      -6.929   6.868  15.538  1.00  0.00     0.259 C 
HETATM    2  O5  UNL     1      -6.222   6.170  16.257  1.00  0.00    -0.265 OA
ENDROOT
BRANCH   1   3
HETATM    3  C13 UNL     1      -6.426   7.739  14.413  1.00  0.00     0.120 C 
BRANCH   3   4
HETATM    4  C12 UNL     1      -5.295   8.643  14.891  1.00  0.00     0.112 C 
BRANCH   4   5
HETATM    5  C11 UNL     1      -3.942   8.121  14.446  1.00  0.00     0.218 C 
HETATM    6  N2  UNL     1      -4.028   7.183  13.440  1.00  0.00    -0.361 N 
HETATM    7  H12 UNL     1      -4.926   7.007  13.009  1.00  0.00     0.162 HD
HETATM    8  O4  UNL     1      -2.886   8.487  14.950  1.00  0.00    -0.274 OA
BRANCH   6   9
HETATM    9  C10 UNL     1      -2.843   6.656  12.785  1.00  0.00     0.127 C 
BRANCH   9  10
HETATM   10  C9  UNL     1      -2.380   5.317  13.364  1.00  0.00     0.061 C 
BRANCH  10  11
HETATM   11  C8  UNL     1      -2.891   4.153  12.561  1.00  0.00    -0.011 A 
HETATM   12  C6  UNL     1      -2.167   3.312  11.717  1.00  0.00     0.114 A 
HETATM   13  N1  UNL     1      -3.061   2.402  11.195  1.00  0.00    -0.350 N 
HETATM   14  C5  UNL     1      -4.333   2.634  11.651  1.00  0.00     0.043 A 
HETATM   15  H6  UNL     1      -2.802   1.672  10.545  1.00  0.00     0.166 HD
HETATM   16  C4  UNL     1      -5.527   1.971  11.359  1.00  0.00     0.033 A 
HETATM   17  C36 UNL     1      -4.262   3.717  12.520  1.00  0.00     0.002 A 
HETATM   18  C3  UNL     1      -6.688   2.431  11.988  1.00  0.00     0.039 A 
HETATM   19  C2  UNL     1      -6.662   3.508  12.874  1.00  0.00     0.069 A 
HETATM   20  C37 UNL     1      -5.453   4.160  13.145  1.00  0.00     0.051 A 
BRANCH  12  21
HETATM   21  C7  UNL     1      -0.779   3.256  11.342  1.00  0.00     0.194 C 
HETATM   22  O2  UNL     1      -0.070   2.261  11.332  1.00  0.00    -0.645 OA
BRANCH  21  23
HETATM   23  O3  UNL     1      -0.302   4.453  10.965  1.00  0.00    -0.772 OA
HETATM   24  H7  UNL     1       0.634   4.297  10.736  1.00  0.00     0.167 HD
ENDBRANCH  21  23
ENDBRANCH  12  21
BRANCH  19  25
HETATM   25  O1  UNL     1      -7.882   3.830  13.408  1.00  0.00    -0.356 OA
HETATM   26  C1  UNL     1      -8.642   4.819  12.724  1.00  0.00     0.210 C 
ENDBRANCH  19  25
ENDBRANCH  10  11
ENDBRANCH   9  10
ENDBRANCH   6   9
ENDBRANCH   4   5
ENDBRANCH   3   4
ENDBRANCH   1   3
BRANCH   1  27
HETATM   27  O6  UNL     1      -8.274   6.998  15.672  1.00  0.00    -0.314 OA
BRANCH  27  28
HETATM   28  C15 UNL     1      -8.897   7.879  14.745  1.00  0.00     0.260 C 
BRANCH  28  29
HETATM   29  C16 UNL     1     -10.182   8.554  15.223  1.00  0.00     0.185 C 
HETATM   30  O7  UNL     1     -10.291   8.865  16.415  1.00  0.00    -0.292 OA
BRANCH  29  31
HETATM   31  C17 UNL     1     -11.297   8.902  14.182  1.00  0.00     0.128 C 
HETATM   32  C18 UNL     1     -11.189   7.897  13.011  1.00  0.00     0.047 C 
HETATM   33  C19 UNL     1     -12.176   6.762  13.309  1.00  0.00     0.009 C 
HETATM   34  C20 UNL     1     -12.883   7.131  14.624  1.00  0.00     0.002 C 
HETATM   35  C21 UNL     1     -14.324   6.605  14.783  1.00  0.00    -0.004 C 
HETATM   36  C34 UNL     1     -12.757   8.668  14.700  1.00  0.00    -0.002 C 
HETATM   37  C22 UNL     1     -14.378   5.081  14.613  1.00  0.00     0.010 C 
HETATM   38  C31 UNL     1     -15.341   7.293  13.837  1.00  0.00     0.002 C 
HETATM   39  C23 UNL     1     -15.772   4.548  14.912  1.00  0.00     0.035 C 
HETATM   40  C24 UNL     1     -16.822   5.213  14.055  1.00  0.00    -0.068 C 
HETATM   41  C25 UNL     1     -17.730   4.458  13.413  1.00  0.00     0.053 C 
HETATM   42  C29 UNL     1     -16.816   6.747  14.015  1.00  0.00    -0.016 C 
HETATM   43  C26 UNL     1     -18.868   5.054  12.675  1.00  0.00     0.149 C 
HETATM   44  O9  UNL     1     -19.697   4.316  12.147  1.00  0.00    -0.293 OA
HETATM   45  C27 UNL     1     -19.017   6.553  12.683  1.00  0.00     0.084 C 
HETATM   46  C28 UNL     1     -17.663   7.237  12.803  1.00  0.00     0.022 C 
HETATM   47  C30 UNL     1     -17.466   7.251  15.324  1.00  0.00     0.020 C 
HETATM   48  C32 UNL     1     -15.235   8.825  13.973  1.00  0.00     0.007 C 
HETATM   49  C33 UNL     1     -13.808   9.338  13.769  1.00  0.00     0.013 C 
HETATM   50  C35 UNL     1     -12.980   9.176  16.135  1.00  0.00     0.019 C 
BRANCH  31  51
HETATM   51  O8  UNL     1     -11.139  10.195  13.621  1.00  0.00    -0.381 OA
HETATM   52  H19 UNL     1     -11.398  10.865  14.287  1.00  0.00     0.211 HD
ENDBRANCH  31  51
ENDBRANCH  29  31
ENDBRANCH  28  29
ENDBRANCH  27  28
ENDBRANCH   1  27
TORSDOF 14
ENDMDL
MODEL 5
REMARK minimizedAffinity -9.56876087
REMARK CNNscore 0.331961691
REMARK CNNaffinity 7.62652779
REMARK  14 active torsions:
REMARK  status: ('A' for Active; 'I' for Inactive)
REMARK    1  A    between atoms: O1_2  and  C2_3 
REMARK    2  A    between atoms: C6_8  and  C7_9 
REMARK    3  A    between atoms: C7_9  and  O3_11 
REMARK    4  A    between atoms: C8_12  and  C9_13 
REMARK    5  A    between atoms: C9_13  and  C10_14 
REMARK    6  A    between atoms: C10_14  and  N2_15 
REMARK       I    between atoms: N2_15  and  C11_16 
REMARK    7  A    between atoms: C11_16  and  C12_18 
REMARK    8  A    between atoms: C12_18  and  C13_19 
REMARK    9  A    between atoms: C13_19  and  C14_20 
REMARK   10  A    between atoms: C14_20  and  O6_22 
REMARK   11  A    between atoms: O6_22  and  C15_23 
REMARK   12  A    between atoms: C15_23  and  C16_24 
REMARK   13  A    between atoms: C16_24  and  C17_26 
REMARK   14  A    between atoms: C17_26  and  O8_27 
ROOT
HETATM    1  C14 UNL     1      -2.639  11.323  16.683  1.00  0.00     0.259 C 
HETATM    2  O5  UNL     1      -2.808  12.204  17.519  1.00  0.00    -0.265 OA
ENDROOT
BRANCH   1   3
HETATM    3  C13 UNL     1      -3.383  10.010  16.645  1.00  0.00     0.120 C 
BRANCH   3   4
HETATM    4  C12 UNL     1      -4.770  10.190  16.036  1.00  0.00     0.112 C 
BRANCH   4   5
HETATM    5  C11 UNL     1      -5.328   8.875  15.526  1.00  0.00     0.218 C 
HETATM    6  N2  UNL     1      -4.349   7.989  15.133  1.00  0.00    -0.361 N 
HETATM    7  H12 UNL     1      -3.380   8.216  15.314  1.00  0.00     0.162 HD
HETATM    8  O4  UNL     1      -6.529   8.642  15.457  1.00  0.00    -0.274 OA
BRANCH   6   9
HETATM    9  C10 UNL     1      -4.667   6.628  14.737  1.00  0.00     0.127 C 
BRANCH   9  10
HETATM   10  C9  UNL     1      -4.913   6.480  13.234  1.00  0.00     0.061 C 
BRANCH  10  11
HETATM   11  C8  UNL     1      -5.366   5.092  12.874  1.00  0.00    -0.011 A 
HETATM   12  C6  UNL     1      -6.655   4.564  12.955  1.00  0.00     0.114 A 
HETATM   13  N1  UNL     1      -6.578   3.256  12.529  1.00  0.00    -0.350 N 
HETATM   14  C5  UNL     1      -5.293   2.913  12.197  1.00  0.00     0.043 A 
HETATM   15  H6  UNL     1      -7.373   2.632  12.489  1.00  0.00     0.166 HD
HETATM   16  C4  UNL     1      -4.775   1.696  11.747  1.00  0.00     0.033 A 
HETATM   17  C36 UNL     1      -4.507   4.044  12.389  1.00  0.00     0.002 A 
HETATM   18  C3  UNL     1      -3.405   1.642  11.477  1.00  0.00     0.039 A 
HETATM   19  C2  UNL     1      -2.581   2.754  11.646  1.00  0.00     0.069 A 
HETATM   20  C37 UNL     1      -3.124   3.961  12.105  1.00  0.00     0.051 A 
BRANCH  12  21
HETATM   21  C7  UNL     1      -7.916   5.114  13.375  1.00  0.00     0.194 C 
HETATM   22  O2  UNL     1      -8.870   5.370  12.656  1.00  0.00    -0.645 OA
BRANCH  21  23
HETATM   23  O3  UNL     1      -7.970   5.319  14.700  1.00  0.00    -0.772 OA
HETATM   24  H7  UNL     1      -8.857   5.688  14.869  1.00  0.00     0.167 HD
ENDBRANCH  21  23
ENDBRANCH  12  21
BRANCH  19  25
HETATM   25  O1  UNL     1      -1.265   2.536  11.333  1.00  0.00    -0.356 OA
HETATM   26  C1  UNL     1      -0.923   1.237  10.864  1.00  0.00     0.210 C 
ENDBRANCH  19  25
ENDBRANCH  10  11
ENDBRANCH   9  10
ENDBRANCH   6   9
ENDBRANCH   4   5
ENDBRANCH   3   4
ENDBRANCH   1   3
BRANCH   1  27
HETATM   27  O6  UNL     1      -1.721  11.375  15.682  1.00  0.00    -0.314 OA
BRANCH  27  28
HETATM   28  C15 UNL     1      -0.986  10.177  15.466  1.00  0.00     0.260 C 
BRANCH  28  29
HETATM   29  C16 UNL     1      -1.131   9.543  14.083  1.00  0.00     0.185 C 
HETATM   30  O7  UNL     1      -1.602  10.217  13.159  1.00  0.00    -0.292 OA
BRANCH  29  31
HETATM   31  C17 UNL     1      -0.613   8.085  13.851  1.00  0.00     0.128 C 
HETATM   32  C18 UNL     1      -1.621   7.360  12.928  1.00  0.00     0.047 C 
HETATM   33  C19 UNL     1      -1.093   7.505  11.496  1.00  0.00     0.009 C 
HETATM   34  C20 UNL     1       0.237   8.271  11.595  1.00  0.00     0.002 C 
HETATM   35  C21 UNL     1       1.279   7.953  10.504  1.00  0.00    -0.004 C 
HETATM   36  C34 UNL     1       0.722   7.999  13.035  1.00  0.00    -0.002 C 
HETATM   37  C22 UNL     1       0.696   8.170   9.102  1.00  0.00     0.010 C 
HETATM   38  C31 UNL     1       1.886   6.532  10.626  1.00  0.00     0.002 C 
HETATM   39  C23 UNL     1       1.766   7.994   8.033  1.00  0.00     0.035 C 
HETATM   40  C24 UNL     1       2.433   6.643   8.126  1.00  0.00    -0.068 C 
HETATM   41  C25 UNL     1       2.582   5.900   7.014  1.00  0.00     0.053 C 
HETATM   42  C29 UNL     1       2.957   6.220   9.504  1.00  0.00    -0.016 C 
HETATM   43  C26 UNL     1       3.353   4.635   7.013  1.00  0.00     0.149 C 
HETATM   44  O9  UNL     1       3.500   4.020   5.959  1.00  0.00    -0.293 OA
HETATM   45  C27 UNL     1       4.012   4.199   8.296  1.00  0.00     0.084 C 
HETATM   46  C28 UNL     1       3.230   4.686   9.506  1.00  0.00     0.022 C 
HETATM   47  C30 UNL     1       4.286   6.971   9.748  1.00  0.00     0.020 C 
HETATM   48  C32 UNL     1       2.415   6.304  12.057  1.00  0.00     0.007 C 
HETATM   49  C33 UNL     1       1.356   6.581  13.127  1.00  0.00     0.013 C 
HETATM   50  C35 UNL     1       1.771   9.034  13.476  1.00  0.00     0.019 C 
BRANCH  31  51
HETATM   51  O8  UNL     1      -0.546   7.330  15.050  1.00  0.00    -0.381 OA
HETATM   52  H19 UNL     1       0.221   7.636  15.577  1.00  0.00     0.211 HD
ENDBRANCH  31  51
ENDBRANCH  29  31
ENDBRANCH  28  29
ENDBRANCH  27  28
ENDBRANCH   1  27
TORSDOF 14
ENDMDL
MODEL 6
REMARK minimizedAffinity -8.82960129
REMARK CNNscore 0.309526712
REMARK CNNaffinity 5.93653059
REMARK  14 active torsions:
REMARK  status: ('A' for Active; 'I' for Inactive)
REMARK    1  A    between atoms: O1_2  and  C2_3 
REMARK    2  A    between atoms: C6_8  and  C7_9 
REMARK    3  A    between atoms: C7_9  and  O3_11 
REMARK    4  A    between atoms: C8_12  and  C9_13 
REMARK    5  A    between atoms: C9_13  and  C10_14 
REMARK    6  A    between atoms: C10_14  and  N2_15 
REMARK       I    between atoms: N2_15  and  C11_16 
REMARK    7  A    between atoms: C11_16  and  C12_18 
REMARK    8  A    between atoms: C12_18  and  C13_19 
REMARK    9  A    between atoms: C13_19  and  C14_20 
REMARK   10  A    between atoms: C14_20  and  O6_22 
REMARK   11  A    between atoms: O6_22  and  C15_23 
REMARK   12  A    between atoms: C15_23  and  C16_24 
REMARK   13  A    between atoms: C16_24  and  C17_26 
REMARK   14  A    between atoms: C17_26  and  O8_27 
ROOT
HETATM    1  C14 UNL     1       2.923   8.307  14.972  1.00  0.00     0.259 C 
HETATM    2  O5  UNL     1       3.140   7.746  13.903  1.00  0.00    -0.265 OA
ENDROOT
BRANCH   1   3
HETATM    3  C13 UNL     1       1.554   8.596  15.537  1.00  0.00     0.120 C 
BRANCH   3   4
HETATM    4  C12 UNL     1       0.839   7.303  15.913  1.00  0.00     0.112 C 
BRANCH   4   5
HETATM    5  C11 UNL     1      -0.353   7.046  15.011  1.00  0.00     0.218 C 
HETATM    6  N2  UNL     1      -0.720   5.719  14.964  1.00  0.00    -0.361 N 
HETATM    7  H12 UNL     1      -0.272   5.064  15.591  1.00  0.00     0.162 HD
HETATM    8  O4  UNL     1      -0.914   7.933  14.376  1.00  0.00    -0.274 OA
BRANCH   6   9
HETATM    9  C10 UNL     1      -1.914   5.282  14.262  1.00  0.00     0.127 C 
BRANCH   9  10
HETATM   10  C9  UNL     1      -1.647   4.885  12.809  1.00  0.00     0.061 C 
BRANCH  10  11
HETATM   11  C8  UNL     1      -2.657   3.890  12.305  1.00  0.00    -0.011 A 
HETATM   12  C6  UNL     1      -2.420   2.717  11.590  1.00  0.00     0.114 A 
HETATM   13  N1  UNL     1      -3.648   2.144  11.342  1.00  0.00    -0.350 N 
HETATM   14  C5  UNL     1      -4.667   2.909  11.848  1.00  0.00     0.043 A 
HETATM   15  H6  UNL     1      -3.771   1.278  10.833  1.00  0.00     0.166 HD
HETATM   16  C4  UNL     1      -6.049   2.711  11.798  1.00  0.00     0.033 A 
HETATM   17  C36 UNL     1      -4.082   4.007  12.470  1.00  0.00     0.002 A 
HETATM   18  C3  UNL     1      -6.857   3.669  12.417  1.00  0.00     0.039 A 
HETATM   19  C2  UNL     1      -6.313   4.780  13.061  1.00  0.00     0.069 A 
HETATM   20  C37 UNL     1      -4.925   4.959  13.090  1.00  0.00     0.051 A 
BRANCH  12  21
HETATM   21  C7  UNL     1      -1.218   2.081  11.118  1.00  0.00     0.194 C 
HETATM   22  O2  UNL     1      -0.072   2.440  11.342  1.00  0.00    -0.645 OA
BRANCH  21  23
HETATM   23  O3  UNL     1      -1.474   0.987  10.382  1.00  0.00    -0.772 OA
HETATM   24  H7  UNL     1      -0.599   0.643  10.119  1.00  0.00     0.167 HD
ENDBRANCH  21  23
ENDBRANCH  12  21
BRANCH  19  25
HETATM   25  O1  UNL     1      -7.240   5.620  13.620  1.00  0.00    -0.356 OA
HETATM   26  C1  UNL     1      -7.524   5.436  15.002  1.00  0.00     0.210 C 
ENDBRANCH  19  25
ENDBRANCH  10  11
ENDBRANCH   9  10
ENDBRANCH   6   9
ENDBRANCH   4   5
ENDBRANCH   3   4
ENDBRANCH   1   3
BRANCH   1  27
HETATM   27  O6  UNL     1       3.888   8.795  15.796  1.00  0.00    -0.314 OA
BRANCH  27  28
HETATM   28  C15 UNL     1       4.859   9.626  15.172  1.00  0.00     0.260 C 
BRANCH  28  29
HETATM   29  C16 UNL     1       6.188   9.775  15.912  1.00  0.00     0.185 C 
HETATM   30  O7  UNL     1       6.805   8.757  16.249  1.00  0.00    -0.292 OA
BRANCH  29  31
HETATM   31  C17 UNL     1       6.770  11.205  16.160  1.00  0.00     0.128 C 
HETATM   32  C18 UNL     1       5.585  12.170  16.400  1.00  0.00     0.047 C 
HETATM   33  C19 UNL     1       5.391  12.262  17.918  1.00  0.00     0.009 C 
HETATM   34  C20 UNL     1       6.486  11.390  18.554  1.00  0.00     0.002 C 
HETATM   35  C21 UNL     1       6.970  11.830  19.950  1.00  0.00    -0.004 C 
HETATM   36  C34 UNL     1       7.598  11.342  17.483  1.00  0.00    -0.002 C 
HETATM   37  C22 UNL     1       5.797  11.932  20.935  1.00  0.00     0.010 C 
HETATM   38  C31 UNL     1       7.783  13.150  19.936  1.00  0.00     0.002 C 
HETATM   39  C23 UNL     1       6.292  12.226  22.344  1.00  0.00     0.035 C 
HETATM   40  C24 UNL     1       7.134  13.478  22.392  1.00  0.00    -0.068 C 
HETATM   41  C25 UNL     1       6.888  14.407  23.333  1.00  0.00     0.053 C 
HETATM   42  C29 UNL     1       8.276  13.587  21.374  1.00  0.00    -0.016 C 
HETATM   43  C26 UNL     1       7.765  15.585  23.523  1.00  0.00     0.149 C 
HETATM   44  O9  UNL     1       7.523  16.378  24.430  1.00  0.00    -0.293 OA
HETATM   45  C27 UNL     1       8.986  15.714  22.650  1.00  0.00     0.084 C 
HETATM   46  C28 UNL     1       8.759  15.066  21.292  1.00  0.00     0.022 C 
HETATM   47  C30 UNL     1       9.438  12.702  21.880  1.00  0.00     0.020 C 
HETATM   48  C32 UNL     1       8.921  13.057  18.900  1.00  0.00     0.007 C 
HETATM   49  C33 UNL     1       8.421  12.663  17.507  1.00  0.00     0.013 C 
HETATM   50  C35 UNL     1       8.556  10.164  17.726  1.00  0.00     0.019 C 
BRANCH  31  51
HETATM   51  O8  UNL     1       7.482  11.709  15.040  1.00  0.00    -0.381 OA
HETATM   52  H19 UNL     1       8.344  11.249  14.978  1.00  0.00     0.211 HD
ENDBRANCH  31  51
ENDBRANCH  29  31
ENDBRANCH  28  29
ENDBRANCH  27  28
ENDBRANCH   1  27
TORSDOF 14
ENDMDL
MODEL 7
REMARK minimizedAffinity -8.88380909
REMARK CNNscore 0.306774288
REMARK CNNaffinity 6.96473312
REMARK  14 active torsions:
REMARK  status: ('A' for Active; 'I' for Inactive)
REMARK    1  A    between atoms: O1_2  and  C2_3 
REMARK    2  A    between atoms: C6_8  and  C7_9 
REMARK    3  A    between atoms: C7_9  and  O3_11 
REMARK    4  A    between atoms: C8_12  and  C9_13 
REMARK    5  A    between atoms: C9_13  and  C10_14 
REMARK    6  A    between atoms: C10_14  and  N2_15 
REMARK       I    between atoms: N2_15  and  C11_16 
REMARK    7  A    between atoms: C11_16  and  C12_18 
REMARK    8  A    between atoms: C12_18  and  C13_19 
REMARK    9  A    between atoms: C13_19  and  C14_20 
REMARK   10  A    between atoms: C14_20  and  O6_22 
REMARK   11  A    between atoms: O6_22  and  C15_23 
REMARK   12  A    between atoms: C15_23  and  C16_24 
REMARK   13  A    between atoms: C16_24  and  C17_26 
REMARK   14  A    between atoms: C17_26  and  O8_27 
ROOT
HETATM    1  C14 UNL     1       4.827   7.428  11.066  1.00  0.00     0.259 C 
HETATM    2  O5  UNL     1       5.565   7.047  10.164  1.00  0.00    -0.265 OA
ENDROOT
BRANCH   1   3
HETATM    3  C13 UNL     1       5.275   7.761  12.469  1.00  0.00     0.120 C 
BRANCH   3   4
HETATM    4  C12 UNL     1       6.329   6.771  12.950  1.00  0.00     0.112 C 
BRANCH   4   5
HETATM    5  C11 UNL     1       7.491   7.479  13.619  1.00  0.00     0.218 C 
HETATM    6  N2  UNL     1       7.277   7.723  14.958  1.00  0.00    -0.361 N 
HETATM    7  H12 UNL     1       6.459   7.330  15.404  1.00  0.00     0.162 HD
HETATM    8  O4  UNL     1       8.506   7.814  13.017  1.00  0.00    -0.274 OA
BRANCH   6   9
HETATM    9  C10 UNL     1       8.317   8.275  15.809  1.00  0.00     0.127 C 
BRANCH   9  10
HETATM   10  C9  UNL     1       8.278   9.802  15.896  1.00  0.00     0.061 C 
BRANCH  10  11
HETATM   11  C8  UNL     1       9.648  10.388  16.099  1.00  0.00    -0.011 A 
HETATM   12  C6  UNL     1      10.653  10.565  15.148  1.00  0.00     0.114 A 
HETATM   13  N1  UNL     1      11.728  11.126  15.802  1.00  0.00    -0.350 N 
HETATM   14  C5  UNL     1      11.466  11.299  17.136  1.00  0.00     0.043 A 
HETATM   15  H6  UNL     1      12.601  11.359  15.347  1.00  0.00     0.166 HD
HETATM   16  C4  UNL     1      12.279  11.807  18.153  1.00  0.00     0.033 A 
HETATM   17  C36 UNL     1      10.166  10.858  17.356  1.00  0.00     0.002 A 
HETATM   18  C3  UNL     1      11.734  11.872  19.438  1.00  0.00     0.039 A 
HETATM   19  C2  UNL     1      10.431  11.451  19.703  1.00  0.00     0.069 A 
HETATM   20  C37 UNL     1       9.640  10.940  18.667  1.00  0.00     0.051 A 
BRANCH  12  21
HETATM   21  C7  UNL     1      10.734  10.278  13.740  1.00  0.00     0.194 C 
HETATM   22  O2  UNL     1      10.509  11.058  12.827  1.00  0.00    -0.645 OA
BRANCH  21  23
HETATM   23  O3  UNL     1      11.115   9.014  13.497  1.00  0.00    -0.772 OA
HETATM   24  H7  UNL     1      11.136   8.933  12.524  1.00  0.00     0.167 HD
ENDBRANCH  21  23
ENDBRANCH  12  21
BRANCH  19  25
HETATM   25  O1  UNL     1      10.048  11.586  21.012  1.00  0.00    -0.356 OA
HETATM   26  C1  UNL     1       9.555  12.860  21.409  1.00  0.00     0.210 C 
ENDBRANCH  19  25
ENDBRANCH  10  11
ENDBRANCH   9  10
ENDBRANCH   6   9
ENDBRANCH   4   5
ENDBRANCH   3   4
ENDBRANCH   1   3
BRANCH   1  27
HETATM   27  O6  UNL     1       3.480   7.568  10.953  1.00  0.00    -0.314 OA
BRANCH  27  28
HETATM   28  C15 UNL     1       2.712   6.883  11.935  1.00  0.00     0.260 C 
BRANCH  28  29
HETATM   29  C16 UNL     1       1.503   7.639  12.486  1.00  0.00     0.185 C 
HETATM   30  O7  UNL     1       1.072   8.618  11.865  1.00  0.00    -0.292 OA
BRANCH  29  31
HETATM   31  C17 UNL     1       0.795   7.113  13.778  1.00  0.00     0.128 C 
HETATM   32  C18 UNL     1       0.455   8.332  14.667  1.00  0.00     0.047 C 
HETATM   33  C19 UNL     1      -0.990   8.727  14.342  1.00  0.00     0.009 C 
HETATM   34  C20 UNL     1      -1.498   7.714  13.302  1.00  0.00     0.002 C 
HETATM   35  C21 UNL     1      -3.013   7.426  13.328  1.00  0.00    -0.004 C 
HETATM   36  C34 UNL     1      -0.611   6.470  13.525  1.00  0.00    -0.002 C 
HETATM   37  C22 UNL     1      -3.825   8.720  13.183  1.00  0.00     0.010 C 
HETATM   38  C31 UNL     1      -3.470   6.636  14.581  1.00  0.00     0.002 C 
HETATM   39  C23 UNL     1      -5.312   8.420  13.065  1.00  0.00     0.035 C 
HETATM   40  C24 UNL     1      -5.814   7.609  14.234  1.00  0.00    -0.068 C 
HETATM   41  C25 UNL     1      -6.935   7.990  14.873  1.00  0.00     0.053 C 
HETATM   42  C29 UNL     1      -5.025   6.343  14.592  1.00  0.00    -0.016 C 
HETATM   43  C26 UNL     1      -7.557   7.161  15.931  1.00  0.00     0.149 C 
HETATM   44  O9  UNL     1      -8.608   7.532  16.449  1.00  0.00    -0.293 OA
HETATM   45  C27 UNL     1      -6.921   5.836  16.267  1.00  0.00     0.084 C 
HETATM   46  C28 UNL     1      -5.419   5.873  16.024  1.00  0.00     0.022 C 
HETATM   47  C30 UNL     1      -5.414   5.247  13.574  1.00  0.00     0.020 C 
HETATM   48  C32 UNL     1      -2.607   5.369  14.749  1.00  0.00     0.007 C 
HETATM   49  C33 UNL     1      -1.107   5.675  14.767  1.00  0.00     0.013 C 
HETATM   50  C35 UNL     1      -0.642   5.538  12.302  1.00  0.00     0.019 C 
BRANCH  31  51
HETATM   51  O8  UNL     1       1.628   6.266  14.553  1.00  0.00    -0.381 OA
HETATM   52  H19 UNL     1       1.702   5.397  14.108  1.00  0.00     0.211 HD
ENDBRANCH  31  51
ENDBRANCH  29  31
ENDBRANCH  28  29
ENDBRANCH  27  28
ENDBRANCH   1  27
TORSDOF 14
ENDMDL
MODEL 8
REMARK minimizedAffinity -8.54098797
REMARK CNNscore 0.300554574
REMARK CNNaffinity 7.01358223
REMARK  14 active torsions:
REMARK  status: ('A' for Active; 'I' for Inactive)
REMARK    1  A    between atoms: O1_2  and  C2_3 
REMARK    2  A    between atoms: C6_8  and  C7_9 
REMARK    3  A    between atoms: C7_9  and  O3_11 
REMARK    4  A    between atoms: C8_12  and  C9_13 
REMARK    5  A    between atoms: C9_13  and  C10_14 
REMARK    6  A    between atoms: C10_14  and  N2_15 
REMARK       I    between atoms: N2_15  and  C11_16 
REMARK    7  A    between atoms: C11_16  and  C12_18 
REMARK    8  A    between atoms: C12_18  and  C13_19 
REMARK    9  A    between atoms: C13_19  and  C14_20 
REMARK   10  A    between atoms: C14_20  and  O6_22 
REMARK   11  A    between atoms: O6_22  and  C15_23 
REMARK   12  A    between atoms: C15_23  and  C16_24 
REMARK   13  A    between atoms: C16_24  and  C17_26 
REMARK   14  A    between atoms: C17_26  and  O8_27 
ROOT
HETATM    1  C14 UNL     1       3.631   7.529   9.608  1.00  0.00     0.259 C 
HETATM    2  O5  UNL     1       3.509   8.275   8.642  1.00  0.00    -0.265 OA
ENDROOT
BRANCH   1   3
HETATM    3  C13 UNL     1       4.835   7.477  10.516  1.00  0.00     0.120 C 
BRANCH   3   4
HETATM    4  C12 UNL     1       4.965   8.769  11.317  1.00  0.00     0.112 C 
BRANCH   4   5
HETATM    5  C11 UNL     1       6.400   9.257  11.353  1.00  0.00     0.218 C 
HETATM    6  N2  UNL     1       6.747   9.829  12.558  1.00  0.00    -0.361 N 
HETATM    7  H12 UNL     1       6.095   9.779  13.330  1.00  0.00     0.162 HD
HETATM    8  O4  UNL     1       7.162   9.165  10.396  1.00  0.00    -0.274 OA
BRANCH   6   9
HETATM    9  C10 UNL     1       8.110  10.242  12.842  1.00  0.00     0.127 C 
BRANCH   9  10
HETATM   10  C9  UNL     1       8.895   9.210  13.655  1.00  0.00     0.061 C 
BRANCH  10  11
HETATM   11  C8  UNL     1       9.859   9.862  14.607  1.00  0.00    -0.011 A 
HETATM   12  C6  UNL     1       9.829   9.847  16.001  1.00  0.00     0.114 A 
HETATM   13  N1  UNL     1      10.907  10.587  16.433  1.00  0.00    -0.350 N 
HETATM   14  C5  UNL     1      11.619  11.096  15.378  1.00  0.00     0.043 A 
HETATM   15  H6  UNL     1      11.126  10.744  17.409  1.00  0.00     0.166 HD
HETATM   16  C4  UNL     1      12.754  11.910  15.368  1.00  0.00     0.033 A 
HETATM   17  C36 UNL     1      10.998  10.651  14.216  1.00  0.00     0.002 A 
HETATM   18  C3  UNL     1      13.275  12.272  14.122  1.00  0.00     0.039 A 
HETATM   19  C2  UNL     1      12.690  11.840  12.932  1.00  0.00     0.069 A 
HETATM   20  C37 UNL     1      11.548  11.031  12.969  1.00  0.00     0.051 A 
BRANCH  12  21
HETATM   21  C7  UNL     1       8.937   9.245  16.957  1.00  0.00     0.194 C 
HETATM   22  O2  UNL     1       8.078   9.820  17.609  1.00  0.00    -0.645 OA
BRANCH  21  23
HETATM   23  O3  UNL     1       9.124   7.920  17.068  1.00  0.00    -0.772 OA
HETATM   24  H7  UNL     1       8.475   7.623  17.734  1.00  0.00     0.167 HD
ENDBRANCH  21  23
ENDBRANCH  12  21
BRANCH  19  25
HETATM   25  O1  UNL     1      13.324  12.279  11.799  1.00  0.00    -0.356 OA
HETATM   26  C1  UNL     1      12.637  13.244  11.011  1.00  0.00     0.210 C 
ENDBRANCH  19  25
ENDBRANCH  10  11
ENDBRANCH   9  10
ENDBRANCH   6   9
ENDBRANCH   4   5
ENDBRANCH   3   4
ENDBRANCH   1   3
BRANCH   1  27
HETATM   27  O6  UNL     1       2.714   6.599   9.984  1.00  0.00    -0.314 OA
BRANCH  27  28
HETATM   28  C15 UNL     1       2.530   6.458  11.388  1.00  0.00     0.260 C 
BRANCH  28  29
HETATM   29  C16 UNL     1       1.386   7.270  11.997  1.00  0.00     0.185 C 
HETATM   30  O7  UNL     1       0.961   8.259  11.389  1.00  0.00    -0.292 OA
BRANCH  29  31
HETATM   31  C17 UNL     1       0.735   6.789  13.336  1.00  0.00     0.128 C 
HETATM   32  C18 UNL     1       0.506   8.030  14.230  1.00  0.00     0.047 C 
HETATM   33  C19 UNL     1      -0.937   8.489  13.988  1.00  0.00     0.009 C 
HETATM   34  C20 UNL     1      -1.553   7.492  12.992  1.00  0.00     0.002 C 
HETATM   35  C21 UNL     1      -3.075   7.275  13.112  1.00  0.00    -0.004 C 
HETATM   36  C34 UNL     1      -0.712   6.210  13.175  1.00  0.00    -0.002 C 
HETATM   37  C22 UNL     1      -3.834   8.604  13.002  1.00  0.00     0.010 C 
HETATM   38  C31 UNL     1      -3.491   6.518  14.399  1.00  0.00     0.002 C 
HETATM   39  C23 UNL     1      -5.338   8.372  12.977  1.00  0.00     0.035 C 
HETATM   40  C24 UNL     1      -5.805   7.595  14.183  1.00  0.00    -0.068 C 
HETATM   41  C25 UNL     1      -6.866   8.033  14.884  1.00  0.00     0.053 C 
HETATM   42  C29 UNL     1      -5.054   6.298  14.507  1.00  0.00    -0.016 C 
HETATM   43  C26 UNL     1      -7.460   7.244  15.987  1.00  0.00     0.149 C 
HETATM   44  O9  UNL     1      -8.459   7.667  16.563  1.00  0.00    -0.293 OA
HETATM   45  C27 UNL     1      -6.866   5.894  16.300  1.00  0.00     0.084 C 
HETATM   46  C28 UNL     1      -5.382   5.859  15.966  1.00  0.00     0.022 C 
HETATM   47  C30 UNL     1      -5.554   5.212  13.528  1.00  0.00     0.020 C 
HETATM   48  C32 UNL     1      -2.678   5.214  14.530  1.00  0.00     0.007 C 
HETATM   49  C33 UNL     1      -1.168   5.450  14.454  1.00  0.00     0.013 C 
HETATM   50  C35 UNL     1      -0.859   5.269  11.967  1.00  0.00     0.019 C 
BRANCH  31  51
HETATM   51  O8  UNL     1       1.574   5.911  14.069  1.00  0.00    -0.381 OA
HETATM   52  H19 UNL     1       1.581   5.036  13.630  1.00  0.00     0.211 HD
ENDBRANCH  31  51
ENDBRANCH  29  31
ENDBRANCH  28  29
ENDBRANCH  27  28
ENDBRANCH   1  27
TORSDOF 14
ENDMDL
MODEL 9
REMARK minimizedAffinity -8.40272999
REMARK CNNscore 0.267302185
REMARK CNNaffinity 6.45804739
REMARK  14 active torsions:
REMARK  status: ('A' for Active; 'I' for Inactive)
REMARK    1  A    between atoms: O1_2  and  C2_3 
REMARK    2  A    between atoms: C6_8  and  C7_9 
REMARK    3  A    between atoms: C7_9  and  O3_11 
REMARK    4  A    between atoms: C8_12  and  C9_13 
REMARK    5  A    between atoms: C9_13  and  C10_14 
REMARK    6  A    between atoms: C10_14  and  N2_15 
REMARK       I    between atoms: N2_15  and  C11_16 
REMARK    7  A    between atoms: C11_16  and  C12_18 
REMARK    8  A    between atoms: C12_18  and  C13_19 
REMARK    9  A    between atoms: C13_19  and  C14_20 
REMARK   10  A    between atoms: C14_20  and  O6_22 
REMARK   11  A    between atoms: O6_22  and  C15_23 
REMARK   12  A    between atoms: C15_23  and  C16_24 
REMARK   13  A    between atoms: C16_24  and  C17_26 
REMARK   14  A    between atoms: C17_26  and  O8_27 
ROOT
HETATM    1  C14 UNL     1       1.546   8.313  16.183  1.00  0.00     0.259 C 
HETATM    2  O5  UNL     1       1.946   9.162  16.972  1.00  0.00    -0.265 OA
ENDROOT
BRANCH   1   3
HETATM    3  C13 UNL     1       0.098   8.056  15.848  1.00  0.00     0.120 C 
BRANCH   3   4
HETATM    4  C12 UNL     1      -0.042   6.828  14.954  1.00  0.00     0.112 C 
BRANCH   4   5
HETATM    5  C11 UNL     1      -1.377   6.814  14.235  1.00  0.00     0.218 C 
HETATM    6  N2  UNL     1      -2.454   6.905  15.091  1.00  0.00    -0.361 N 
HETATM    7  H12 UNL     1      -2.287   7.085  16.072  1.00  0.00     0.162 HD
HETATM    8  O4  UNL     1      -1.479   6.712  13.017  1.00  0.00    -0.274 OA
BRANCH   6   9
HETATM    9  C10 UNL     1      -3.812   7.038  14.595  1.00  0.00     0.127 C 
BRANCH   9  10
HETATM   10  C9  UNL     1      -4.869   6.583  15.604  1.00  0.00     0.061 C 
BRANCH  10  11
HETATM   11  C8  UNL     1      -6.007   5.861  14.937  1.00  0.00    -0.011 A 
HETATM   12  C6  UNL     1      -7.369   5.960  15.223  1.00  0.00     0.114 A 
HETATM   13  N1  UNL     1      -8.021   5.106  14.360  1.00  0.00    -0.350 N 
HETATM   14  C5  UNL     1      -7.138   4.447  13.546  1.00  0.00     0.043 A 
HETATM   15  H6  UNL     1      -9.025   4.977  14.351  1.00  0.00     0.166 HD
HETATM   16  C4  UNL     1      -7.370   3.488  12.556  1.00  0.00     0.033 A 
HETATM   17  C36 UNL     1      -5.866   4.905  13.870  1.00  0.00     0.002 A 
HETATM   18  C3  UNL     1      -6.259   2.989  11.872  1.00  0.00     0.039 A 
HETATM   19  C2  UNL     1      -4.966   3.427  12.158  1.00  0.00     0.069 A 
HETATM   20  C37 UNL     1      -4.759   4.384  13.159  1.00  0.00     0.051 A 
BRANCH  12  21
HETATM   21  C7  UNL     1      -8.118   6.729  16.181  1.00  0.00     0.194 C 
HETATM   22  O2  UNL     1      -9.264   7.132  16.050  1.00  0.00    -0.645 OA
BRANCH  21  23
HETATM   23  O3  UNL     1      -7.419   6.969  17.302  1.00  0.00    -0.772 OA
HETATM   24  H7  UNL     1      -8.017   7.490  17.871  1.00  0.00     0.167 HD
ENDBRANCH  21  23
ENDBRANCH  12  21
BRANCH  19  25
HETATM   25  O1  UNL     1      -3.989   2.843  11.394  1.00  0.00    -0.356 OA
HETATM   26  C1  UNL     1      -3.402   3.646  10.378  1.00  0.00     0.210 C 
ENDBRANCH  19  25
ENDBRANCH  10  11
ENDBRANCH   9  10
ENDBRANCH   6   9
ENDBRANCH   4   5
ENDBRANCH   3   4
ENDBRANCH   1   3
BRANCH   1  27
HETATM   27  O6  UNL     1       2.348   7.439  15.519  1.00  0.00    -0.314 OA
BRANCH  27  28
HETATM   28  C15 UNL     1       2.723   7.835  14.205  1.00  0.00     0.260 C 
BRANCH  28  29
HETATM   29  C16 UNL     1       3.976   8.704  14.100  1.00  0.00     0.185 C 
HETATM   30  O7  UNL     1       3.850   9.919  13.904  1.00  0.00    -0.292 OA
BRANCH  29  31
HETATM   31  C17 UNL     1       5.381   8.051  14.314  1.00  0.00     0.128 C 
HETATM   32  C18 UNL     1       5.857   7.483  12.956  1.00  0.00     0.047 C 
HETATM   33  C19 UNL     1       6.738   8.560  12.311  1.00  0.00     0.009 C 
HETATM   34  C20 UNL     1       6.806   9.727  13.310  1.00  0.00     0.002 C 
HETATM   35  C21 UNL     1       8.098  10.568  13.274  1.00  0.00    -0.004 C 
HETATM   36  C34 UNL     1       6.515   9.069  14.677  1.00  0.00    -0.002 C 
HETATM   37  C22 UNL     1       8.360  11.118  11.865  1.00  0.00     0.010 C 
HETATM   38  C31 UNL     1       9.343   9.812  13.801  1.00  0.00     0.002 C 
HETATM   39  C23 UNL     1       9.552  12.063  11.862  1.00  0.00     0.035 C 
HETATM   40  C24 UNL     1      10.793  11.401  12.411  1.00  0.00    -0.068 C 
HETATM   41  C25 UNL     1      11.952  11.500  11.735  1.00  0.00     0.053 C 
HETATM   42  C29 UNL     1      10.660  10.688  13.763  1.00  0.00    -0.016 C 
HETATM   43  C26 UNL     1      13.230  10.998  12.289  1.00  0.00     0.149 C 
HETATM   44  O9  UNL     1      14.268  11.157  11.651  1.00  0.00    -0.293 OA
HETATM   45  C27 UNL     1      13.221  10.391  13.668  1.00  0.00     0.084 C 
HETATM   46  C28 UNL     1      11.879   9.741  13.972  1.00  0.00     0.022 C 
HETATM   47  C30 UNL     1      10.666  11.772  14.865  1.00  0.00     0.020 C 
HETATM   48  C32 UNL     1       9.047   9.213  15.191  1.00  0.00     0.007 C 
HETATM   49  C33 UNL     1       7.787   8.343  15.203  1.00  0.00     0.013 C 
HETATM   50  C35 UNL     1       6.082  10.115  15.718  1.00  0.00     0.019 C 
BRANCH  31  51
HETATM   51  O8  UNL     1       5.345   6.959  15.219  1.00  0.00    -0.381 OA
HETATM   52  H19 UNL     1       5.245   7.304  16.131  1.00  0.00     0.211 HD
ENDBRANCH  31  51
ENDBRANCH  29  31
ENDBRANCH  28  29
ENDBRANCH  27  28
ENDBRANCH   1  27
TORSDOF 14
ENDMDL
