MODEL 1
REMARK minimizedAffinity -8.47106934
REMARK CNNscore 0.71795994
REMARK CNNaffinity 7.51466179
REMARK  12 active torsions:
REMARK  status: ('A' for Active; 'I' for Inactive)
REMARK    1  A    between atoms: C2_2  and  O2_4 
REMARK    2  A    between atoms: O2_4  and  C3_5 
REMARK    3  A    between atoms: C4_6  and  O3_7 
REMARK    4  A    between atoms: O3_7  and  C5_8 
REMARK    5  A    between atoms: C16_19  and  O4_20 
REMARK    6  A    between atoms: C19_23  and  C20_24 
REMARK    7  A    between atoms: C24_28  and  C25_29 
REMARK    8  A    between atoms: C25_29  and  O5_32 
REMARK    9  A    between atoms: C35_42  and  C36_43 
REMARK   10  A    between atoms: C36_43  and  O8_44 
REMARK   11  A    between atoms: C37_45  and  O9_46 
REMARK   12  A    between atoms: C38_47  and  O10_48 
ROOT
HETATM    1  C5  UNL     1       0.493  50.652 -14.556  1.00  0.00     0.133 C 
HETATM    2  C6  UNL     1       0.239  52.137 -14.263  1.00  0.00     0.034 C 
HETATM    3  C7  UNL     1      -0.428  52.392 -12.918  1.00  0.00     0.012 C 
HETATM    4  C8  UNL     1       0.445  51.940 -11.700  1.00  0.00    -0.033 C 
HETATM    5  C9  UNL     1      -0.544  51.550 -10.559  1.00  0.00     0.016 C 
HETATM    6  C10 UNL     1       1.286  50.647 -12.102  1.00  0.00     0.004 C 
HETATM    7  C11 UNL     1       2.790  50.879 -12.398  1.00  0.00     0.007 C 
HETATM    8  C12 UNL     1       3.496  52.097 -11.830  1.00  0.00     0.011 C 
HETATM    9  C13 UNL     1       2.778  52.825 -10.685  1.00  0.00    -0.030 C 
HETATM   10  C14 UNL     1       2.725  51.871  -9.460  1.00  0.00     0.016 C 
HETATM   11  C15 UNL     1       1.339  53.189 -11.214  1.00  0.00     0.032 C 
HETATM   12  C16 UNL     1       0.612  54.200 -10.257  1.00  0.00     0.124 C 
HETATM   13  C17 UNL     1       1.455  55.424  -9.855  1.00  0.00     0.038 C 
HETATM   14  C18 UNL     1       2.778  54.973  -9.257  1.00  0.00     0.004 C 
HETATM   15  C19 UNL     1       3.765  56.045  -8.720  1.00  0.00     0.025 C 
HETATM   16  C28 UNL     1       5.155  55.376  -8.938  1.00  0.00     0.009 C 
HETATM   17  C29 UNL     1       4.902  54.004  -9.576  1.00  0.00     0.011 C 
HETATM   18  C30 UNL     1       3.568  54.170 -10.321  1.00  0.00    -0.032 C 
HETATM   19  C31 UNL     1       3.871  55.034 -11.593  1.00  0.00     0.016 C 
HETATM   20  C32 UNL     1       0.638  49.777 -13.269  1.00  0.00    -0.017 C 
HETATM   21  C33 UNL     1      -0.710  49.145 -12.837  1.00  0.00     0.018 C 
HETATM   22  C34 UNL     1       1.530  48.541 -13.591  1.00  0.00     0.018 C 
ENDROOT
BRANCH   1  23
HETATM   23  O3  UNL     1      -0.574  50.152 -15.378  1.00  0.00    -0.352 OA
BRANCH  23  24
HETATM   24  C4  UNL     1      -1.076  51.110 -16.308  1.00  0.00     0.293 C 
HETATM   25  C3  UNL     1      -0.457  50.886 -17.705  1.00  0.00     0.218 C 
HETATM   26  C38 UNL     1      -1.201  49.828 -18.540  1.00  0.00     0.183 C 
HETATM   27  C37 UNL     1      -2.720  50.001 -18.432  1.00  0.00     0.180 C 
HETATM   28  C35 UNL     1      -3.170  50.068 -16.966  1.00  0.00     0.179 C 
HETATM   29  O7  UNL     1      -2.505  51.159 -16.302  1.00  0.00    -0.348 OA
BRANCH  25  30
HETATM   30  O2  UNL     1      -0.509  52.163 -18.396  1.00  0.00    -0.309 OA
BRANCH  30  31
HETATM   31  C2  UNL     1       0.697  52.759 -18.606  1.00  0.00     0.255 C 
HETATM   32  C1  UNL     1       0.699  53.474 -19.921  1.00  0.00     0.126 C 
HETATM   33  O1  UNL     1       1.652  52.707 -17.843  1.00  0.00    -0.266 OA
ENDBRANCH  30  31
ENDBRANCH  25  30
BRANCH  26  34
HETATM   34  O10 UNL     1      -0.837  48.495 -18.163  1.00  0.00    -0.390 OA
HETATM   35  H64 UNL     1       0.113  48.388 -18.362  1.00  0.00     0.210 HD
ENDBRANCH  26  34
BRANCH  27  36
HETATM   36  O9  UNL     1      -3.108  51.213 -19.101  1.00  0.00    -0.390 OA
HETATM   37  H62 UNL     1      -2.989  51.940 -18.461  1.00  0.00     0.210 HD
ENDBRANCH  27  36
BRANCH  28  38
HETATM   38  C36 UNL     1      -3.085  48.735 -16.205  1.00  0.00     0.198 C 
BRANCH  38  39
HETATM   39  O8  UNL     1      -3.423  48.887 -14.830  1.00  0.00    -0.398 OA
HETATM   40  H60 UNL     1      -4.389  48.753 -14.773  1.00  0.00     0.209 HD
ENDBRANCH  38  39
ENDBRANCH  28  38
ENDBRANCH  23  24
ENDBRANCH   1  23
BRANCH  12  41
HETATM   41  O4  UNL     1      -0.579  54.696 -10.863  1.00  0.00    -0.395 OA
HETATM   42  H24 UNL     1      -1.011  55.290 -10.228  1.00  0.00     0.210 HD
ENDBRANCH  12  41
BRANCH  15  43
HETATM   43  C20 UNL     1       3.544  56.482  -7.239  1.00  0.00     0.062 C 
HETATM   44  C21 UNL     1       4.698  57.356  -6.723  1.00  0.00     0.046 C 
HETATM   45  C22 UNL     1       3.328  55.295  -6.298  1.00  0.00     0.041 C 
HETATM   46  C23 UNL     1       2.470  55.874  -5.195  1.00  0.00     0.038 C 
HETATM   47  C24 UNL     1       1.671  56.977  -5.885  1.00  0.00     0.156 C 
HETATM   48  O6  UNL     1       2.338  57.262  -7.136  1.00  0.00    -0.372 OA
BRANCH  47  49
HETATM   49  C25 UNL     1       0.169  56.647  -6.124  1.00  0.00     0.076 C 
HETATM   50  C26 UNL     1      -0.087  55.138  -6.033  1.00  0.00     0.048 C 
HETATM   51  C27 UNL     1      -0.291  57.170  -7.490  1.00  0.00     0.048 C 
BRANCH  49  52
HETATM   52  O5  UNL     1      -0.637  57.292  -5.128  1.00  0.00    -0.388 OA
HETATM   53  H43 UNL     1      -1.548  56.966  -5.225  1.00  0.00     0.210 HD
ENDBRANCH  49  52
ENDBRANCH  47  49
ENDBRANCH  15  43
TORSDOF 12
ENDMDL
MODEL 2
REMARK minimizedAffinity -8.1733408
REMARK CNNscore 0.670258284
REMARK CNNaffinity 7.53163576
REMARK  12 active torsions:
REMARK  status: ('A' for Active; 'I' for Inactive)
REMARK    1  A    between atoms: C2_2  and  O2_4 
REMARK    2  A    between atoms: O2_4  and  C3_5 
REMARK    3  A    between atoms: C4_6  and  O3_7 
REMARK    4  A    between atoms: O3_7  and  C5_8 
REMARK    5  A    between atoms: C16_19  and  O4_20 
REMARK    6  A    between atoms: C19_23  and  C20_24 
REMARK    7  A    between atoms: C24_28  and  C25_29 
REMARK    8  A    between atoms: C25_29  and  O5_32 
REMARK    9  A    between atoms: C35_42  and  C36_43 
REMARK   10  A    between atoms: C36_43  and  O8_44 
REMARK   11  A    between atoms: C37_45  and  O9_46 
REMARK   12  A    between atoms: C38_47  and  O10_48 
ROOT
HETATM    1  C5  UNL     1       0.063  51.094 -13.597  1.00  0.00     0.133 C 
HETATM    2  C6  UNL     1      -0.467  52.453 -13.119  1.00  0.00     0.034 C 
HETATM    3  C7  UNL     1      -0.934  52.454 -11.670  1.00  0.00     0.012 C 
HETATM    4  C8  UNL     1       0.213  52.148 -10.650  1.00  0.00    -0.033 C 
HETATM    5  C9  UNL     1      -0.453  51.461  -9.419  1.00  0.00     0.016 C 
HETATM    6  C10 UNL     1       1.243  51.124 -11.304  1.00  0.00     0.004 C 
HETATM    7  C11 UNL     1       2.583  51.729 -11.798  1.00  0.00     0.007 C 
HETATM    8  C12 UNL     1       3.081  53.042 -11.222  1.00  0.00     0.011 C 
HETATM    9  C13 UNL     1       2.423  53.502  -9.913  1.00  0.00    -0.030 C 
HETATM   10  C14 UNL     1       2.797  52.487  -8.799  1.00  0.00     0.016 C 
HETATM   11  C15 UNL     1       0.870  53.543 -10.179  1.00  0.00     0.032 C 
HETATM   12  C16 UNL     1       0.107  54.286  -9.026  1.00  0.00     0.124 C 
HETATM   13  C17 UNL     1       0.706  55.649  -8.633  1.00  0.00     0.038 C 
HETATM   14  C18 UNL     1       2.179  55.492  -8.290  1.00  0.00     0.004 C 
HETATM   15  C19 UNL     1       2.974  56.733  -7.803  1.00  0.00     0.025 C 
HETATM   16  C28 UNL     1       4.422  56.433  -8.295  1.00  0.00     0.009 C 
HETATM   17  C29 UNL     1       4.382  55.084  -9.024  1.00  0.00     0.011 C 
HETATM   18  C30 UNL     1       2.937  54.971  -9.538  1.00  0.00    -0.032 C 
HETATM   19  C31 UNL     1       2.815  55.962 -10.746  1.00  0.00     0.016 C 
HETATM   20  C32 UNL     1       0.620  50.199 -12.443  1.00  0.00    -0.017 C 
HETATM   21  C33 UNL     1      -0.456  49.236 -11.879  1.00  0.00     0.018 C 
HETATM   22  C34 UNL     1       1.700  49.237 -13.019  1.00  0.00     0.018 C 
ENDROOT
BRANCH   1  23
HETATM   23  O3  UNL     1      -0.986  50.405 -14.295  1.00  0.00    -0.352 OA
BRANCH  23  24
HETATM   24  C4  UNL     1      -1.286  50.965 -15.573  1.00  0.00     0.293 C 
HETATM   25  C3  UNL     1      -0.178  50.617 -16.591  1.00  0.00     0.218 C 
HETATM   26  C38 UNL     1      -0.369  49.242 -17.255  1.00  0.00     0.183 C 
HETATM   27  C37 UNL     1      -1.830  49.017 -17.659  1.00  0.00     0.180 C 
HETATM   28  C35 UNL     1      -2.780  49.278 -16.482  1.00  0.00     0.179 C 
HETATM   29  O7  UNL     1      -2.606  50.626 -16.006  1.00  0.00    -0.348 OA
BRANCH  25  30
HETATM   30  O2  UNL     1      -0.208  51.650 -17.612  1.00  0.00    -0.309 OA
BRANCH  30  31
HETATM   31  C2  UNL     1       0.914  52.415 -17.698  1.00  0.00     0.255 C 
HETATM   32  C1  UNL     1       1.023  53.025 -19.061  1.00  0.00     0.126 C 
HETATM   33  O1  UNL     1       1.731  52.573 -16.801  1.00  0.00    -0.266 OA
ENDBRANCH  30  31
ENDBRANCH  25  30
BRANCH  26  34
HETATM   34  O10 UNL     1       0.071  48.173 -16.410  1.00  0.00    -0.390 OA
HETATM   35  H64 UNL     1       1.031  48.286 -16.276  1.00  0.00     0.210 HD
ENDBRANCH  26  34
BRANCH  27  36
HETATM   36  O9  UNL     1      -2.165  49.902 -18.741  1.00  0.00    -0.390 OA
HETATM   37  H62 UNL     1      -2.417  50.756 -18.340  1.00  0.00     0.210 HD
ENDBRANCH  27  36
BRANCH  28  38
HETATM   38  C36 UNL     1      -2.733  48.217 -15.370  1.00  0.00     0.198 C 
BRANCH  38  39
HETATM   39  O8  UNL     1      -3.414  48.649 -14.197  1.00  0.00    -0.398 OA
HETATM   40  H60 UNL     1      -4.343  48.365 -14.303  1.00  0.00     0.209 HD
ENDBRANCH  38  39
ENDBRANCH  28  38
ENDBRANCH  23  24
ENDBRANCH   1  23
BRANCH  12  41
HETATM   41  O4  UNL     1      -1.251  54.519  -9.392  1.00  0.00    -0.395 OA
HETATM   42  H24 UNL     1      -1.692  54.950  -8.642  1.00  0.00     0.210 HD
ENDBRANCH  12  41
BRANCH  15  43
HETATM   43  C20 UNL     1       2.916  57.009  -6.269  1.00  0.00     0.062 C 
HETATM   44  C21 UNL     1       1.709  56.322  -5.609  1.00  0.00     0.046 C 
HETATM   45  C22 UNL     1       2.911  58.503  -5.935  1.00  0.00     0.041 C 
HETATM   46  C23 UNL     1       3.556  58.558  -4.568  1.00  0.00     0.038 C 
HETATM   47  C24 UNL     1       4.505  57.362  -4.554  1.00  0.00     0.156 C 
HETATM   48  O6  UNL     1       4.101  56.491  -5.636  1.00  0.00    -0.372 OA
BRANCH  47  49
HETATM   49  C25 UNL     1       6.015  57.722  -4.671  1.00  0.00     0.076 C 
HETATM   50  C26 UNL     1       6.260  59.197  -4.328  1.00  0.00     0.048 C 
HETATM   51  C27 UNL     1       6.536  57.423  -6.082  1.00  0.00     0.048 C 
BRANCH  49  52
HETATM   52  O5  UNL     1       6.779  56.924  -3.756  1.00  0.00    -0.388 OA
HETATM   53  H43 UNL     1       7.692  57.258  -3.760  1.00  0.00     0.210 HD
ENDBRANCH  49  52
ENDBRANCH  47  49
ENDBRANCH  15  43
TORSDOF 12
ENDMDL
MODEL 3
REMARK minimizedAffinity -9.4822464
REMARK CNNscore 0.645628095
REMARK CNNaffinity 7.16296339
REMARK  12 active torsions:
REMARK  status: ('A' for Active; 'I' for Inactive)
REMARK    1  A    between atoms: C2_2  and  O2_4 
REMARK    2  A    between atoms: O2_4  and  C3_5 
REMARK    3  A    between atoms: C4_6  and  O3_7 
REMARK    4  A    between atoms: O3_7  and  C5_8 
REMARK    5  A    between atoms: C16_19  and  O4_20 
REMARK    6  A    between atoms: C19_23  and  C20_24 
REMARK    7  A    between atoms: C24_28  and  C25_29 
REMARK    8  A    between atoms: C25_29  and  O5_32 
REMARK    9  A    between atoms: C35_42  and  C36_43 
REMARK   10  A    between atoms: C36_43  and  O8_44 
REMARK   11  A    between atoms: C37_45  and  O9_46 
REMARK   12  A    between atoms: C38_47  and  O10_48 
ROOT
HETATM    1  C5  UNL     1      -3.070  49.548 -16.579  1.00  0.00     0.133 C 
HETATM    2  C6  UNL     1      -3.106  50.794 -17.475  1.00  0.00     0.034 C 
HETATM    3  C7  UNL     1      -1.880  50.946 -18.365  1.00  0.00     0.012 C 
HETATM    4  C8  UNL     1      -1.716  49.779 -19.395  1.00  0.00    -0.033 C 
HETATM    5  C9  UNL     1      -0.187  49.633 -19.668  1.00  0.00     0.016 C 
HETATM    6  C10 UNL     1      -2.244  48.423 -18.748  1.00  0.00     0.004 C 
HETATM    7  C11 UNL     1      -3.631  47.932 -19.236  1.00  0.00     0.007 C 
HETATM    8  C12 UNL     1      -4.171  48.392 -20.578  1.00  0.00     0.011 C 
HETATM    9  C13 UNL     1      -3.150  49.011 -21.543  1.00  0.00    -0.030 C 
HETATM   10  C14 UNL     1      -2.137  47.908 -21.953  1.00  0.00     0.016 C 
HETATM   11  C15 UNL     1      -2.454  50.194 -20.766  1.00  0.00     0.032 C 
HETATM   12  C16 UNL     1      -1.613  51.102 -21.732  1.00  0.00     0.124 C 
HETATM   13  C17 UNL     1      -2.356  51.547 -23.006  1.00  0.00     0.038 C 
HETATM   14  C18 UNL     1      -2.898  50.333 -23.744  1.00  0.00     0.004 C 
HETATM   15  C19 UNL     1      -3.631  50.541 -25.096  1.00  0.00     0.025 C 
HETATM   16  C28 UNL     1      -4.642  49.356 -25.129  1.00  0.00     0.009 C 
HETATM   17  C29 UNL     1      -4.449  48.561 -23.832  1.00  0.00     0.011 C 
HETATM   18  C30 UNL     1      -3.906  49.592 -22.829  1.00  0.00    -0.032 C 
HETATM   19  C31 UNL     1      -5.114  50.510 -22.435  1.00  0.00     0.016 C 
HETATM   20  C32 UNL     1      -2.194  48.390 -17.155  1.00  0.00    -0.017 C 
HETATM   21  C33 UNL     1      -0.738  48.438 -16.624  1.00  0.00     0.018 C 
HETATM   22  C34 UNL     1      -2.729  47.030 -16.618  1.00  0.00     0.018 C 
ENDROOT
BRANCH   1  23
HETATM   23  O3  UNL     1      -2.596  49.927 -15.277  1.00  0.00    -0.352 OA
BRANCH  23  24
HETATM   24  C4  UNL     1      -1.189  49.761 -15.110  1.00  0.00     0.293 C 
HETATM   25  C3  UNL     1      -0.480  51.133 -15.090  1.00  0.00     0.218 C 
HETATM   26  C38 UNL     1      -0.469  51.794 -13.700  1.00  0.00     0.183 C 
HETATM   27  C37 UNL     1      -0.130  50.779 -12.603  1.00  0.00     0.180 C 
HETATM   28  C35 UNL     1      -1.029  49.538 -12.696  1.00  0.00     0.179 C 
HETATM   29  O7  UNL     1      -0.880  48.926 -13.991  1.00  0.00    -0.348 OA
BRANCH  25  30
HETATM   30  O2  UNL     1       0.889  50.904 -15.520  1.00  0.00    -0.309 OA
BRANCH  30  31
HETATM   31  C2  UNL     1       1.468  51.937 -16.191  1.00  0.00     0.255 C 
HETATM   32  C1  UNL     1       2.847  52.189 -15.664  1.00  0.00     0.126 C 
HETATM   33  O1  UNL     1       0.938  52.583 -17.084  1.00  0.00    -0.266 OA
ENDBRANCH  30  31
ENDBRANCH  25  30
BRANCH  26  34
HETATM   34  O10 UNL     1      -1.716  52.433 -13.401  1.00  0.00    -0.390 OA
HETATM   35  H64 UNL     1      -1.835  53.152 -14.050  1.00  0.00     0.210 HD
ENDBRANCH  26  34
BRANCH  27  36
HETATM   36  O9  UNL     1       1.244  50.378 -12.735  1.00  0.00    -0.390 OA
HETATM   37  H62 UNL     1       1.267  49.660 -13.395  1.00  0.00     0.210 HD
ENDBRANCH  27  36
BRANCH  28  38
HETATM   38  C36 UNL     1      -2.491  49.769 -12.283  1.00  0.00     0.198 C 
BRANCH  38  39
HETATM   39  O8  UNL     1      -3.288  50.204 -13.380  1.00  0.00    -0.398 OA
HETATM   40  H60 UNL     1      -3.631  49.394 -13.803  1.00  0.00     0.209 HD
ENDBRANCH  38  39
ENDBRANCH  28  38
ENDBRANCH  23  24
ENDBRANCH   1  23
BRANCH  12  41
HETATM   41  O4  UNL     1      -1.188  52.286 -21.063  1.00  0.00    -0.395 OA
HETATM   42  H24 UNL     1      -0.648  52.801 -21.684  1.00  0.00     0.210 HD
ENDBRANCH  12  41
BRANCH  15  43
HETATM   43  C20 UNL     1      -2.716  50.574 -26.360  1.00  0.00     0.062 C 
HETATM   44  C21 UNL     1      -3.393  49.915 -27.573  1.00  0.00     0.046 C 
HETATM   45  C22 UNL     1      -1.347  49.933 -26.117  1.00  0.00     0.041 C 
HETATM   46  C23 UNL     1      -0.443  50.661 -27.087  1.00  0.00     0.038 C 
HETATM   47  C24 UNL     1      -1.078  52.043 -27.223  1.00  0.00     0.156 C 
HETATM   48  O6  UNL     1      -2.430  51.938 -26.719  1.00  0.00    -0.372 OA
BRANCH  47  49
HETATM   49  C25 UNL     1      -0.309  53.191 -26.505  1.00  0.00     0.076 C 
HETATM   50  C26 UNL     1      -0.060  54.368 -27.455  1.00  0.00     0.048 C 
HETATM   51  C27 UNL     1       1.025  52.683 -25.946  1.00  0.00     0.048 C 
BRANCH  49  52
HETATM   52  O5  UNL     1      -1.080  53.675 -25.396  1.00  0.00    -0.388 OA
HETATM   53  H43 UNL     1      -0.637  54.468 -25.050  1.00  0.00     0.210 HD
ENDBRANCH  49  52
ENDBRANCH  47  49
ENDBRANCH  15  43
TORSDOF 12
ENDMDL
MODEL 4
REMARK minimizedAffinity -8.69174576
REMARK CNNscore 0.622742534
REMARK CNNaffinity 7.12500954
REMARK  12 active torsions:
REMARK  status: ('A' for Active; 'I' for Inactive)
REMARK    1  A    between atoms: C2_2  and  O2_4 
REMARK    2  A    between atoms: O2_4  and  C3_5 
REMARK    3  A    between atoms: C4_6  and  O3_7 
REMARK    4  A    between atoms: O3_7  and  C5_8 
REMARK    5  A    between atoms: C16_19  and  O4_20 
REMARK    6  A    between atoms: C19_23  and  C20_24 
REMARK    7  A    between atoms: C24_28  and  C25_29 
REMARK    8  A    between atoms: C25_29  and  O5_32 
REMARK    9  A    between atoms: C35_42  and  C36_43 
REMARK   10  A    between atoms: C36_43  and  O8_44 
REMARK   11  A    between atoms: C37_45  and  O9_46 
REMARK   12  A    between atoms: C38_47  and  O10_48 
ROOT
HETATM    1  C5  UNL     1      -3.251  50.060 -21.622  1.00  0.00     0.133 C 
HETATM    2  C6  UNL     1      -4.713  50.385 -21.961  1.00  0.00     0.034 C 
HETATM    3  C7  UNL     1      -5.506  49.189 -22.469  1.00  0.00     0.012 C 
HETATM    4  C8  UNL     1      -5.638  48.041 -21.413  1.00  0.00    -0.033 C 
HETATM    5  C9  UNL     1      -5.755  46.707 -22.212  1.00  0.00     0.016 C 
HETATM    6  C10 UNL     1      -4.317  47.984 -20.525  1.00  0.00     0.004 C 
HETATM    7  C11 UNL     1      -4.432  48.574 -19.096  1.00  0.00     0.007 C 
HETATM    8  C12 UNL     1      -5.790  48.686 -18.427  1.00  0.00     0.011 C 
HETATM    9  C13 UNL     1      -6.924  47.860 -19.052  1.00  0.00    -0.030 C 
HETATM   10  C14 UNL     1      -6.587  46.355 -18.868  1.00  0.00     0.016 C 
HETATM   11  C15 UNL     1      -6.995  48.268 -20.573  1.00  0.00     0.032 C 
HETATM   12  C16 UNL     1      -8.302  47.728 -21.255  1.00  0.00     0.124 C 
HETATM   13  C17 UNL     1      -9.598  48.013 -20.473  1.00  0.00     0.038 C 
HETATM   14  C18 UNL     1      -9.477  47.488 -19.052  1.00  0.00     0.004 C 
HETATM   15  C19 UNL     1     -10.696  47.609 -18.098  1.00  0.00     0.025 C 
HETATM   16  C28 UNL     1     -10.028  47.733 -16.696  1.00  0.00     0.009 C 
HETATM   17  C29 UNL     1      -8.510  47.687 -16.911  1.00  0.00     0.011 C 
HETATM   18  C30 UNL     1      -8.311  48.221 -18.339  1.00  0.00    -0.032 C 
HETATM   19  C31 UNL     1      -8.553  49.768 -18.274  1.00  0.00     0.016 C 
HETATM   20  C32 UNL     1      -3.016  48.563 -21.240  1.00  0.00    -0.017 C 
HETATM   21  C33 UNL     1      -2.602  47.706 -22.464  1.00  0.00     0.018 C 
HETATM   22  C34 UNL     1      -1.782  48.464 -20.296  1.00  0.00     0.018 C 
ENDROOT
BRANCH   1  23
HETATM   23  O3  UNL     1      -2.424  50.422 -22.739  1.00  0.00    -0.352 OA
BRANCH  23  24
HETATM   24  C4  UNL     1      -1.917  51.754 -22.666  1.00  0.00     0.293 C 
HETATM   25  C3  UNL     1      -0.417  51.784 -23.034  1.00  0.00     0.218 C 
HETATM   26  C38 UNL     1      -0.162  51.872 -24.549  1.00  0.00     0.183 C 
HETATM   27  C37 UNL     1      -1.098  52.887 -25.214  1.00  0.00     0.180 C 
HETATM   28  C35 UNL     1      -2.564  52.618 -24.843  1.00  0.00     0.179 C 
HETATM   29  O7  UNL     1      -2.721  52.671 -23.413  1.00  0.00    -0.348 OA
BRANCH  25  30
HETATM   30  O2  UNL     1       0.149  52.954 -22.385  1.00  0.00    -0.309 OA
BRANCH  30  31
HETATM   31  C2  UNL     1       0.491  52.785 -21.078  1.00  0.00     0.255 C 
HETATM   32  C1  UNL     1       0.988  54.074 -20.501  1.00  0.00     0.126 C 
HETATM   33  O1  UNL     1       0.422  51.730 -20.462  1.00  0.00    -0.266 OA
ENDBRANCH  30  31
ENDBRANCH  25  30
BRANCH  26  34
HETATM   34  O10 UNL     1      -0.294  50.598 -25.190  1.00  0.00    -0.390 OA
HETATM   35  H64 UNL     1       0.400  50.017 -24.824  1.00  0.00     0.210 HD
ENDBRANCH  26  34
BRANCH  27  36
HETATM   36  O9  UNL     1      -0.740  54.213 -24.789  1.00  0.00    -0.390 OA
HETATM   37  H62 UNL     1      -1.190  54.369 -23.938  1.00  0.00     0.210 HD
ENDBRANCH  27  36
BRANCH  28  38
HETATM   38  C36 UNL     1      -3.171  51.361 -25.488  1.00  0.00     0.198 C 
BRANCH  38  39
HETATM   39  O8  UNL     1      -4.550  51.215 -25.167  1.00  0.00    -0.398 OA
HETATM   40  H60 UNL     1      -5.042  51.697 -25.860  1.00  0.00     0.209 HD
ENDBRANCH  38  39
ENDBRANCH  28  38
ENDBRANCH  23  24
ENDBRANCH   1  23
BRANCH  12  41
HETATM   41  O4  UNL     1      -8.464  48.298 -22.551  1.00  0.00    -0.395 OA
HETATM   42  H24 UNL     1      -9.263  47.915 -22.947  1.00  0.00     0.210 HD
ENDBRANCH  12  41
BRANCH  15  43
HETATM   43  C20 UNL     1     -11.721  46.436 -18.164  1.00  0.00     0.062 C 
HETATM   44  C21 UNL     1     -11.467  45.392 -17.063  1.00  0.00     0.046 C 
HETATM   45  C22 UNL     1     -11.751  45.751 -19.532  1.00  0.00     0.041 C 
HETATM   46  C23 UNL     1     -13.166  45.223 -19.629  1.00  0.00     0.038 C 
HETATM   47  C24 UNL     1     -13.987  46.204 -18.796  1.00  0.00     0.156 C 
HETATM   48  O6  UNL     1     -13.055  46.943 -17.972  1.00  0.00    -0.372 OA
BRANCH  47  49
HETATM   49  C25 UNL     1     -14.883  47.174 -19.620  1.00  0.00     0.076 C 
HETATM   50  C26 UNL     1     -16.263  47.338 -18.972  1.00  0.00     0.048 C 
HETATM   51  C27 UNL     1     -15.041  46.674 -21.061  1.00  0.00     0.048 C 
BRANCH  49  52
HETATM   52  O5  UNL     1     -14.269  48.469 -19.684  1.00  0.00    -0.388 OA
HETATM   53  H43 UNL     1     -14.906  49.081 -20.091  1.00  0.00     0.210 HD
ENDBRANCH  49  52
ENDBRANCH  47  49
ENDBRANCH  15  43
TORSDOF 12
ENDMDL
MODEL 5
REMARK minimizedAffinity -9.23397255
REMARK CNNscore 0.56689465
REMARK CNNaffinity 6.69882059
REMARK  12 active torsions:
REMARK  status: ('A' for Active; 'I' for Inactive)
REMARK    1  A    between atoms: C2_2  and  O2_4 
REMARK    2  A    between atoms: O2_4  and  C3_5 
REMARK    3  A    between atoms: C4_6  and  O3_7 
REMARK    4  A    between atoms: O3_7  and  C5_8 
REMARK    5  A    between atoms: C16_19  and  O4_20 
REMARK    6  A    between atoms: C19_23  and  C20_24 
REMARK    7  A    between atoms: C24_28  and  C25_29 
REMARK    8  A    between atoms: C25_29  and  O5_32 
REMARK    9  A    between atoms: C35_42  and  C36_43 
REMARK   10  A    between atoms: C36_43  and  O8_44 
REMARK   11  A    between atoms: C37_45  and  O9_46 
REMARK   12  A    between atoms: C38_47  and  O10_48 
ROOT
HETATM    1  C5  UNL     1      -9.393  45.413 -30.283  1.00  0.00     0.133 C 
HETATM    2  C6  UNL     1      -9.242  45.895 -28.834  1.00  0.00     0.034 C 
HETATM    3  C7  UNL     1     -10.168  47.048 -28.470  1.00  0.00     0.012 C 
HETATM    4  C8  UNL     1     -11.685  46.672 -28.557  1.00  0.00    -0.033 C 
HETATM    5  C9  UNL     1     -12.453  47.984 -28.908  1.00  0.00     0.016 C 
HETATM    6  C10 UNL     1     -11.905  45.627 -29.739  1.00  0.00     0.004 C 
HETATM    7  C11 UNL     1     -12.124  44.153 -29.311  1.00  0.00     0.007 C 
HETATM    8  C12 UNL     1     -12.624  43.833 -27.914  1.00  0.00     0.011 C 
HETATM    9  C13 UNL     1     -13.246  45.000 -27.134  1.00  0.00    -0.030 C 
HETATM   10  C14 UNL     1     -14.548  45.432 -27.861  1.00  0.00     0.016 C 
HETATM   11  C15 UNL     1     -12.171  46.152 -27.111  1.00  0.00     0.032 C 
HETATM   12  C16 UNL     1     -12.557  47.281 -26.089  1.00  0.00     0.124 C 
HETATM   13  C17 UNL     1     -12.953  46.773 -24.691  1.00  0.00     0.038 C 
HETATM   14  C18 UNL     1     -14.069  45.746 -24.805  1.00  0.00     0.004 C 
HETATM   15  C19 UNL     1     -14.673  45.144 -23.508  1.00  0.00     0.025 C 
HETATM   16  C28 UNL     1     -15.119  43.721 -23.962  1.00  0.00     0.009 C 
HETATM   17  C29 UNL     1     -14.752  43.582 -25.444  1.00  0.00     0.011 C 
HETATM   18  C30 UNL     1     -13.562  44.538 -25.633  1.00  0.00    -0.032 C 
HETATM   19  C31 UNL     1     -12.326  43.849 -24.958  1.00  0.00     0.016 C 
HETATM   20  C32 UNL     1     -10.806  45.694 -30.891  1.00  0.00    -0.017 C 
HETATM   21  C33 UNL     1     -10.855  47.040 -31.657  1.00  0.00     0.018 C 
HETATM   22  C34 UNL     1     -11.105  44.638 -31.996  1.00  0.00     0.018 C 
ENDROOT
BRANCH   1  23
HETATM   23  O3  UNL     1      -8.377  46.032 -31.087  1.00  0.00    -0.352 OA
BRANCH  23  24
HETATM   24  C4  UNL     1      -7.072  45.495 -30.871  1.00  0.00     0.293 C 
HETATM   25  C3  UNL     1      -6.443  45.042 -32.207  1.00  0.00     0.218 C 
HETATM   26  C38 UNL     1      -5.744  46.181 -32.970  1.00  0.00     0.183 C 
HETATM   27  C37 UNL     1      -4.907  47.052 -32.026  1.00  0.00     0.180 C 
HETATM   28  C35 UNL     1      -5.736  47.524 -30.823  1.00  0.00     0.179 C 
HETATM   29  O7  UNL     1      -6.251  46.385 -30.109  1.00  0.00    -0.348 OA
BRANCH  25  30
HETATM   30  O2  UNL     1      -5.469  44.014 -31.883  1.00  0.00    -0.309 OA
BRANCH  30  31
HETATM   31  C2  UNL     1      -5.348  43.018 -32.803  1.00  0.00     0.255 C 
HETATM   32  C1  UNL     1      -3.918  42.593 -32.922  1.00  0.00     0.126 C 
HETATM   33  O1  UNL     1      -6.269  42.545 -33.455  1.00  0.00    -0.266 OA
ENDBRANCH  30  31
ENDBRANCH  25  30
BRANCH  26  34
HETATM   34  O10 UNL     1      -6.677  46.999 -33.685  1.00  0.00    -0.390 OA
HETATM   35  H64 UNL     1      -7.101  46.432 -34.358  1.00  0.00     0.210 HD
ENDBRANCH  26  34
BRANCH  27  36
HETATM   36  O9  UNL     1      -3.780  46.293 -31.554  1.00  0.00    -0.390 OA
HETATM   37  H62 UNL     1      -4.089  45.775 -30.788  1.00  0.00     0.210 HD
ENDBRANCH  27  36
BRANCH  28  38
HETATM   38  C36 UNL     1      -6.801  48.583 -31.151  1.00  0.00     0.198 C 
BRANCH  38  39
HETATM   39  O8  UNL     1      -7.582  48.921 -30.010  1.00  0.00    -0.398 OA
HETATM   40  H60 UNL     1      -7.115  49.658 -29.571  1.00  0.00     0.209 HD
ENDBRANCH  38  39
ENDBRANCH  28  38
ENDBRANCH  23  24
ENDBRANCH   1  23
BRANCH  12  41
HETATM   41  O4  UNL     1     -11.472  48.188 -25.910  1.00  0.00    -0.395 OA
HETATM   42  H24 UNL     1     -11.763  48.883 -25.299  1.00  0.00     0.210 HD
ENDBRANCH  12  41
BRANCH  15  43
HETATM   43  C20 UNL     1     -15.842  45.955 -22.870  1.00  0.00     0.062 C 
HETATM   44  C21 UNL     1     -15.326  47.098 -21.980  1.00  0.00     0.046 C 
HETATM   45  C22 UNL     1     -16.811  45.075 -22.077  1.00  0.00     0.041 C 
HETATM   46  C23 UNL     1     -18.123  45.820 -22.177  1.00  0.00     0.038 C 
HETATM   47  C24 UNL     1     -18.037  46.549 -23.517  1.00  0.00     0.156 C 
HETATM   48  O6  UNL     1     -16.644  46.551 -23.907  1.00  0.00    -0.372 OA
BRANCH  47  49
HETATM   49  C25 UNL     1     -18.925  45.952 -24.646  1.00  0.00     0.076 C 
HETATM   50  C26 UNL     1     -19.823  44.831 -24.109  1.00  0.00     0.048 C 
HETATM   51  C27 UNL     1     -18.058  45.418 -25.793  1.00  0.00     0.048 C 
BRANCH  49  52
HETATM   52  O5  UNL     1     -19.773  46.972 -25.192  1.00  0.00    -0.388 OA
HETATM   53  H43 UNL     1     -20.399  46.545 -25.800  1.00  0.00     0.210 HD
ENDBRANCH  49  52
ENDBRANCH  47  49
ENDBRANCH  15  43
TORSDOF 12
ENDMDL
MODEL 6
REMARK minimizedAffinity -9.43049717
REMARK CNNscore 0.449037701
REMARK CNNaffinity 7.19080544
REMARK  12 active torsions:
REMARK  status: ('A' for Active; 'I' for Inactive)
REMARK    1  A    between atoms: C2_2  and  O2_4 
REMARK    2  A    between atoms: O2_4  and  C3_5 
REMARK    3  A    between atoms: C4_6  and  O3_7 
REMARK    4  A    between atoms: O3_7  and  C5_8 
REMARK    5  A    between atoms: C16_19  and  O4_20 
REMARK    6  A    between atoms: C19_23  and  C20_24 
REMARK    7  A    between atoms: C24_28  and  C25_29 
REMARK    8  A    between atoms: C25_29  and  O5_32 
REMARK    9  A    between atoms: C35_42  and  C36_43 
REMARK   10  A    between atoms: C36_43  and  O8_44 
REMARK   11  A    between atoms: C37_45  and  O9_46 
REMARK   12  A    between atoms: C38_47  and  O10_48 
ROOT
HETATM    1  C5  UNL     1      -2.708  50.034 -23.011  1.00  0.00     0.133 C 
HETATM    2  C6  UNL     1      -3.662  48.856 -23.256  1.00  0.00     0.034 C 
HETATM    3  C7  UNL     1      -3.466  47.695 -22.291  1.00  0.00     0.012 C 
HETATM    4  C8  UNL     1      -3.754  48.075 -20.800  1.00  0.00    -0.033 C 
HETATM    5  C9  UNL     1      -2.853  47.155 -19.920  1.00  0.00     0.016 C 
HETATM    6  C10 UNL     1      -3.328  49.589 -20.548  1.00  0.00     0.004 C 
HETATM    7  C11 UNL     1      -4.487  50.616 -20.465  1.00  0.00     0.007 C 
HETATM    8  C12 UNL     1      -5.888  50.154 -20.110  1.00  0.00     0.011 C 
HETATM    9  C13 UNL     1      -6.003  48.758 -19.482  1.00  0.00    -0.030 C 
HETATM   10  C14 UNL     1      -5.303  48.789 -18.096  1.00  0.00     0.016 C 
HETATM   11  C15 UNL     1      -5.301  47.756 -20.477  1.00  0.00     0.032 C 
HETATM   12  C16 UNL     1      -5.613  46.262 -20.108  1.00  0.00     0.124 C 
HETATM   13  C17 UNL     1      -7.104  45.958 -19.869  1.00  0.00     0.038 C 
HETATM   14  C18 UNL     1      -7.667  46.902 -18.818  1.00  0.00     0.004 C 
HETATM   15  C19 UNL     1      -9.144  46.733 -18.370  1.00  0.00     0.025 C 
HETATM   16  C28 UNL     1      -9.555  48.185 -17.981  1.00  0.00     0.009 C 
HETATM   17  C29 UNL     1      -8.337  49.083 -18.226  1.00  0.00     0.011 C 
HETATM   18  C30 UNL     1      -7.547  48.360 -19.330  1.00  0.00    -0.032 C 
HETATM   19  C31 UNL     1      -8.343  48.575 -20.662  1.00  0.00     0.016 C 
HETATM   20  C32 UNL     1      -2.201  50.131 -21.536  1.00  0.00    -0.017 C 
HETATM   21  C33 UNL     1      -0.853  49.393 -21.331  1.00  0.00     0.018 C 
HETATM   22  C34 UNL     1      -1.855  51.614 -21.212  1.00  0.00     0.018 C 
ENDROOT
BRANCH   1  23
HETATM   23  O3  UNL     1      -1.594  49.923 -23.911  1.00  0.00    -0.352 OA
BRANCH  23  24
HETATM   24  C4  UNL     1      -1.184  51.171 -24.468  1.00  0.00     0.293 C 
HETATM   25  C3  UNL     1      -0.587  50.967 -25.877  1.00  0.00     0.218 C 
HETATM   26  C38 UNL     1      -1.648  50.927 -26.991  1.00  0.00     0.183 C 
HETATM   27  C37 UNL     1      -2.701  52.024 -26.796  1.00  0.00     0.180 C 
HETATM   28  C35 UNL     1      -3.285  51.989 -25.376  1.00  0.00     0.179 C 
HETATM   29  O7  UNL     1      -2.228  52.148 -24.411  1.00  0.00    -0.348 OA
BRANCH  25  30
HETATM   30  O2  UNL     1       0.315  52.080 -26.115  1.00  0.00    -0.309 OA
BRANCH  30  31
HETATM   31  C2  UNL     1       1.277  51.859 -27.053  1.00  0.00     0.255 C 
HETATM   32  C1  UNL     1       2.477  51.221 -26.425  1.00  0.00     0.126 C 
HETATM   33  O1  UNL     1       1.187  52.153 -28.238  1.00  0.00    -0.266 OA
ENDBRANCH  30  31
ENDBRANCH  25  30
BRANCH  26  34
HETATM   34  O10 UNL     1      -2.289  49.650 -27.076  1.00  0.00    -0.390 OA
HETATM   35  H64 UNL     1      -1.605  48.998 -27.322  1.00  0.00     0.210 HD
ENDBRANCH  26  34
BRANCH  27  36
HETATM   36  O9  UNL     1      -2.097  53.308 -27.026  1.00  0.00    -0.390 OA
HETATM   37  H62 UNL     1      -1.675  53.576 -26.188  1.00  0.00     0.210 HD
ENDBRANCH  27  36
BRANCH  28  38
HETATM   38  C36 UNL     1      -4.211  50.795 -25.091  1.00  0.00     0.198 C 
BRANCH  38  39
HETATM   39  O8  UNL     1      -5.492  51.216 -24.635  1.00  0.00    -0.398 OA
HETATM   40  H60 UNL     1      -6.040  51.332 -25.436  1.00  0.00     0.209 HD
ENDBRANCH  38  39
ENDBRANCH  28  38
ENDBRANCH  23  24
ENDBRANCH   1  23
BRANCH  12  41
HETATM   41  O4  UNL     1      -5.171  45.388 -21.142  1.00  0.00    -0.395 OA
HETATM   42  H24 UNL     1      -5.354  44.477 -20.860  1.00  0.00     0.210 HD
ENDBRANCH  12  41
BRANCH  15  43
HETATM   43  C20 UNL     1      -9.384  45.719 -17.210  1.00  0.00     0.062 C 
HETATM   44  C21 UNL     1      -8.110  45.485 -16.382  1.00  0.00     0.046 C 
HETATM   45  C22 UNL     1      -9.939  44.379 -17.700  1.00  0.00     0.041 C 
HETATM   46  C23 UNL     1     -10.734  43.875 -16.515  1.00  0.00     0.038 C 
HETATM   47  C24 UNL     1     -11.204  45.148 -15.814  1.00  0.00     0.156 C 
HETATM   48  O6  UNL     1     -10.387  46.232 -16.315  1.00  0.00    -0.372 OA
BRANCH  47  49
HETATM   49  C25 UNL     1     -12.717  45.471 -15.987  1.00  0.00     0.076 C 
HETATM   50  C26 UNL     1     -13.524  45.007 -14.770  1.00  0.00     0.048 C 
HETATM   51  C27 UNL     1     -13.269  44.815 -17.258  1.00  0.00     0.048 C 
BRANCH  49  52
HETATM   52  O5  UNL     1     -12.900  46.887 -16.125  1.00  0.00    -0.388 OA
HETATM   53  H43 UNL     1     -13.855  47.067 -16.103  1.00  0.00     0.210 HD
ENDBRANCH  49  52
ENDBRANCH  47  49
ENDBRANCH  15  43
TORSDOF 12
ENDMDL
MODEL 7
REMARK minimizedAffinity -8.11363316
REMARK CNNscore 0.436963141
REMARK CNNaffinity 7.26405859
REMARK  12 active torsions:
REMARK  status: ('A' for Active; 'I' for Inactive)
REMARK    1  A    between atoms: C2_2  and  O2_4 
REMARK    2  A    between atoms: O2_4  and  C3_5 
REMARK    3  A    between atoms: C4_6  and  O3_7 
REMARK    4  A    between atoms: O3_7  and  C5_8 
REMARK    5  A    between atoms: C16_19  and  O4_20 
REMARK    6  A    between atoms: C19_23  and  C20_24 
REMARK    7  A    between atoms: C24_28  and  C25_29 
REMARK    8  A    between atoms: C25_29  and  O5_32 
REMARK    9  A    between atoms: C35_42  and  C36_43 
REMARK   10  A    between atoms: C36_43  and  O8_44 
REMARK   11  A    between atoms: C37_45  and  O9_46 
REMARK   12  A    between atoms: C38_47  and  O10_48 
ROOT
HETATM    1  C5  UNL     1      -1.779  50.405 -20.291  1.00  0.00     0.133 C 
HETATM    2  C6  UNL     1      -2.140  51.488 -19.265  1.00  0.00     0.034 C 
HETATM    3  C7  UNL     1      -3.142  51.030 -18.215  1.00  0.00     0.012 C 
HETATM    4  C8  UNL     1      -2.607  49.864 -17.318  1.00  0.00    -0.033 C 
HETATM    5  C9  UNL     1      -3.851  49.035 -16.872  1.00  0.00     0.016 C 
HETATM    6  C10 UNL     1      -1.657  48.923 -18.184  1.00  0.00     0.004 C 
HETATM    7  C11 UNL     1      -0.135  49.083 -17.938  1.00  0.00     0.007 C 
HETATM    8  C12 UNL     1       0.366  49.669 -16.630  1.00  0.00     0.011 C 
HETATM    9  C13 UNL     1      -0.646  49.716 -15.477  1.00  0.00    -0.030 C 
HETATM   10  C14 UNL     1      -0.993  48.257 -15.075  1.00  0.00     0.016 C 
HETATM   11  C15 UNL     1      -1.905  50.498 -16.013  1.00  0.00     0.032 C 
HETATM   12  C16 UNL     1      -2.884  50.883 -14.847  1.00  0.00     0.124 C 
HETATM   13  C17 UNL     1      -2.208  51.550 -13.635  1.00  0.00     0.038 C 
HETATM   14  C18 UNL     1      -1.077  50.674 -13.120  1.00  0.00     0.004 C 
HETATM   15  C19 UNL     1      -0.294  51.122 -11.857  1.00  0.00     0.025 C 
HETATM   16  C28 UNL     1       1.122  50.516 -12.095  1.00  0.00     0.009 C 
HETATM   17  C29 UNL     1       1.082  49.784 -13.441  1.00  0.00     0.011 C 
HETATM   18  C30 UNL     1      -0.015  50.510 -14.237  1.00  0.00    -0.032 C 
HETATM   19  C31 UNL     1       0.589  51.890 -14.670  1.00  0.00     0.016 C 
HETATM   20  C32 UNL     1      -1.953  48.949 -19.749  1.00  0.00    -0.017 C 
HETATM   21  C33 UNL     1      -3.351  48.366 -20.082  1.00  0.00     0.018 C 
HETATM   22  C34 UNL     1      -0.977  48.002 -20.507  1.00  0.00     0.018 C 
ENDROOT
BRANCH   1  23
HETATM   23  O3  UNL     1      -2.580  50.595 -21.468  1.00  0.00    -0.352 OA
BRANCH  23  24
HETATM   24  C4  UNL     1      -2.057  49.943 -22.625  1.00  0.00     0.293 C 
HETATM   25  C3  UNL     1      -3.011  50.124 -23.827  1.00  0.00     0.218 C 
HETATM   26  C38 UNL     1      -2.790  51.443 -24.588  1.00  0.00     0.183 C 
HETATM   27  C37 UNL     1      -1.298  51.727 -24.790  1.00  0.00     0.180 C 
HETATM   28  C35 UNL     1      -0.529  51.636 -23.464  1.00  0.00     0.179 C 
HETATM   29  O7  UNL     1      -0.705  50.328 -22.888  1.00  0.00    -0.348 OA
BRANCH  25  30
HETATM   30  O2  UNL     1      -2.769  49.008 -24.724  1.00  0.00    -0.309 OA
BRANCH  30  31
HETATM   31  C2  UNL     1      -3.858  48.572 -25.415  1.00  0.00     0.255 C 
HETATM   32  C1  UNL     1      -3.533  48.448 -26.871  1.00  0.00     0.126 C 
HETATM   33  O1  UNL     1      -4.953  48.330 -24.926  1.00  0.00    -0.266 OA
ENDBRANCH  30  31
ENDBRANCH  25  30
BRANCH  26  34
HETATM   34  O10 UNL     1      -3.410  52.553 -23.928  1.00  0.00    -0.390 OA
HETATM   35  H64 UNL     1      -4.372  52.389 -23.928  1.00  0.00     0.210 HD
ENDBRANCH  26  34
BRANCH  27  36
HETATM   36  O9  UNL     1      -0.754  50.772 -25.716  1.00  0.00    -0.390 OA
HETATM   37  H62 UNL     1      -0.524  49.976 -25.200  1.00  0.00     0.210 HD
ENDBRANCH  27  36
BRANCH  28  38
HETATM   38  C36 UNL     1      -0.802  52.788 -22.482  1.00  0.00     0.198 C 
BRANCH  38  39
HETATM   39  O8  UNL     1       0.355  53.120 -21.721  1.00  0.00    -0.398 OA
HETATM   40  H60 UNL     1       0.834  53.795 -22.238  1.00  0.00     0.209 HD
ENDBRANCH  38  39
ENDBRANCH  28  38
ENDBRANCH  23  24
ENDBRANCH   1  23
BRANCH  12  41
HETATM   41  O4  UNL     1      -3.887  51.783 -15.311  1.00  0.00    -0.395 OA
HETATM   42  H24 UNL     1      -4.486  51.969 -14.570  1.00  0.00     0.210 HD
ENDBRANCH  12  41
BRANCH  15  43
HETATM   43  C20 UNL     1      -0.906  50.678 -10.493  1.00  0.00     0.062 C 
HETATM   44  C21 UNL     1      -1.011  49.148 -10.384  1.00  0.00     0.046 C 
HETATM   45  C22 UNL     1      -2.272  51.314 -10.222  1.00  0.00     0.041 C 
HETATM   46  C23 UNL     1      -2.338  51.370  -8.711  1.00  0.00     0.038 C 
HETATM   47  C24 UNL     1      -0.880  51.507  -8.279  1.00  0.00     0.156 C 
HETATM   48  O6  UNL     1      -0.066  51.126  -9.413  1.00  0.00    -0.372 OA
BRANCH  47  49
HETATM   49  C25 UNL     1      -0.479  52.919  -7.762  1.00  0.00     0.076 C 
HETATM   50  C26 UNL     1      -1.374  53.355  -6.596  1.00  0.00     0.048 C 
HETATM   51  C27 UNL     1      -0.558  53.953  -8.892  1.00  0.00     0.048 C 
BRANCH  49  52
HETATM   52  O5  UNL     1       0.877  52.901  -7.294  1.00  0.00    -0.388 OA
HETATM   53  H43 UNL     1       1.055  53.754  -6.864  1.00  0.00     0.210 HD
ENDBRANCH  49  52
ENDBRANCH  47  49
ENDBRANCH  15  43
TORSDOF 12
ENDMDL
MODEL 8
REMARK minimizedAffinity -9.0655756
REMARK CNNscore 0.421567738
REMARK CNNaffinity 7.0248127
REMARK  12 active torsions:
REMARK  status: ('A' for Active; 'I' for Inactive)
REMARK    1  A    between atoms: C2_2  and  O2_4 
REMARK    2  A    between atoms: O2_4  and  C3_5 
REMARK    3  A    between atoms: C4_6  and  O3_7 
REMARK    4  A    between atoms: O3_7  and  C5_8 
REMARK    5  A    between atoms: C16_19  and  O4_20 
REMARK    6  A    between atoms: C19_23  and  C20_24 
REMARK    7  A    between atoms: C24_28  and  C25_29 
REMARK    8  A    between atoms: C25_29  and  O5_32 
REMARK    9  A    between atoms: C35_42  and  C36_43 
REMARK   10  A    between atoms: C36_43  and  O8_44 
REMARK   11  A    between atoms: C37_45  and  O9_46 
REMARK   12  A    between atoms: C38_47  and  O10_48 
ROOT
HETATM    1  C5  UNL     1      -3.158  49.941 -23.600  1.00  0.00     0.133 C 
HETATM    2  C6  UNL     1      -2.604  48.698 -22.889  1.00  0.00     0.034 C 
HETATM    3  C7  UNL     1      -2.450  48.868 -21.384  1.00  0.00     0.012 C 
HETATM    4  C8  UNL     1      -3.810  49.115 -20.648  1.00  0.00    -0.033 C 
HETATM    5  C9  UNL     1      -3.488  49.975 -19.387  1.00  0.00     0.016 C 
HETATM    6  C10 UNL     1      -4.779  49.953 -21.595  1.00  0.00     0.004 C 
HETATM    7  C11 UNL     1      -5.918  49.154 -22.279  1.00  0.00     0.007 C 
HETATM    8  C12 UNL     1      -6.391  47.841 -21.681  1.00  0.00     0.011 C 
HETATM    9  C13 UNL     1      -5.976  47.570 -20.228  1.00  0.00    -0.030 C 
HETATM   10  C14 UNL     1      -6.674  48.618 -19.319  1.00  0.00     0.016 C 
HETATM   11  C15 UNL     1      -4.405  47.695 -20.176  1.00  0.00     0.032 C 
HETATM   12  C16 UNL     1      -3.828  47.143 -18.824  1.00  0.00     0.124 C 
HETATM   13  C17 UNL     1      -4.355  45.754 -18.419  1.00  0.00     0.038 C 
HETATM   14  C18 UNL     1      -5.875  45.760 -18.392  1.00  0.00     0.004 C 
HETATM   15  C19 UNL     1      -6.624  44.476 -17.946  1.00  0.00     0.025 C 
HETATM   16  C28 UNL     1      -7.961  44.560 -18.743  1.00  0.00     0.009 C 
HETATM   17  C29 UNL     1      -7.907  45.841 -19.585  1.00  0.00     0.011 C 
HETATM   18  C30 UNL     1      -6.405  46.084 -19.812  1.00  0.00    -0.032 C 
HETATM   19  C31 UNL     1      -5.935  45.021 -20.864  1.00  0.00     0.016 C 
HETATM   20  C32 UNL     1      -4.030  50.851 -22.677  1.00  0.00    -0.017 C 
HETATM   21  C33 UNL     1      -3.198  51.979 -22.014  1.00  0.00     0.018 C 
HETATM   22  C34 UNL     1      -5.058  51.628 -23.551  1.00  0.00     0.018 C 
ENDROOT
BRANCH   1  23
HETATM   23  O3  UNL     1      -2.061  50.692 -24.143  1.00  0.00    -0.352 OA
BRANCH  23  24
HETATM   24  C4  UNL     1      -1.683  50.282 -25.457  1.00  0.00     0.293 C 
HETATM   25  C3  UNL     1      -2.786  50.642 -26.476  1.00  0.00     0.218 C 
HETATM   26  C38 UNL     1      -2.685  52.086 -27.001  1.00  0.00     0.183 C 
HETATM   27  C37 UNL     1      -1.235  52.458 -27.330  1.00  0.00     0.180 C 
HETATM   28  C35 UNL     1      -0.301  52.157 -26.150  1.00  0.00     0.179 C 
HETATM   29  O7  UNL     1      -0.381  50.760 -25.809  1.00  0.00    -0.348 OA
BRANCH  25  30
HETATM   30  O2  UNL     1      -2.646  49.718 -27.588  1.00  0.00    -0.309 OA
BRANCH  30  31
HETATM   31  C2  UNL     1      -3.767  49.012 -27.902  1.00  0.00     0.255 C 
HETATM   32  C1  UNL     1      -4.301  48.321 -26.686  1.00  0.00     0.126 C 
HETATM   33  O1  UNL     1      -4.262  48.935 -29.018  1.00  0.00    -0.266 OA
ENDBRANCH  30  31
ENDBRANCH  25  30
BRANCH  26  34
HETATM   34  O10 UNL     1      -3.230  53.032 -26.075  1.00  0.00    -0.390 OA
HETATM   35  H64 UNL     1      -4.182  52.835 -25.986  1.00  0.00     0.210 HD
ENDBRANCH  26  34
BRANCH  27  36
HETATM   36  O9  UNL     1      -0.801  51.709 -28.478  1.00  0.00    -0.390 OA
HETATM   37  H62 UNL     1      -0.495  50.842 -28.151  1.00  0.00     0.210 HD
ENDBRANCH  27  36
BRANCH  28  38
HETATM   38  C36 UNL     1      -0.461  53.099 -24.946  1.00  0.00     0.198 C 
BRANCH  38  39
HETATM   39  O8  UNL     1       0.569  54.081 -24.901  1.00  0.00    -0.398 OA
HETATM   40  H60 UNL     1       0.241  54.840 -25.422  1.00  0.00     0.209 HD
ENDBRANCH  38  39
ENDBRANCH  28  38
ENDBRANCH  23  24
ENDBRANCH   1  23
BRANCH  12  41
HETATM   41  O4  UNL     1      -2.407  47.047 -18.888  1.00  0.00    -0.395 OA
HETATM   42  H24 UNL     1      -2.091  46.733 -18.025  1.00  0.00     0.210 HD
ENDBRANCH  12  41
BRANCH  15  43
HETATM   43  C20 UNL     1      -6.859  44.332 -16.411  1.00  0.00     0.062 C 
HETATM   44  C21 UNL     1      -5.583  43.892 -15.676  1.00  0.00     0.046 C 
HETATM   45  C22 UNL     1      -8.009  43.380 -16.074  1.00  0.00     0.041 C 
HETATM   46  C23 UNL     1      -8.522  43.906 -14.751  1.00  0.00     0.038 C 
HETATM   47  C24 UNL     1      -8.223  45.402 -14.803  1.00  0.00     0.156 C 
HETATM   48  O6  UNL     1      -7.254  45.602 -15.859  1.00  0.00    -0.372 OA
BRANCH  47  49
HETATM   49  C25 UNL     1      -9.467  46.312 -15.017  1.00  0.00     0.076 C 
HETATM   50  C26 UNL     1     -10.765  45.501 -14.943  1.00  0.00     0.048 C 
HETATM   51  C27 UNL     1      -9.384  47.036 -16.367  1.00  0.00     0.048 C 
BRANCH  49  52
HETATM   52  O5  UNL     1      -9.517  47.319 -13.996  1.00  0.00    -0.388 OA
HETATM   53  H43 UNL     1     -10.365  47.787 -14.081  1.00  0.00     0.210 HD
ENDBRANCH  49  52
ENDBRANCH  47  49
ENDBRANCH  15  43
TORSDOF 12
ENDMDL
MODEL 9
REMARK minimizedAffinity -8.01464081
REMARK CNNscore 0.399674594
REMARK CNNaffinity 7.25807524
REMARK  12 active torsions:
REMARK  status: ('A' for Active; 'I' for Inactive)
REMARK    1  A    between atoms: C2_2  and  O2_4 
REMARK    2  A    between atoms: O2_4  and  C3_5 
REMARK    3  A    between atoms: C4_6  and  O3_7 
REMARK    4  A    between atoms: O3_7  and  C5_8 
REMARK    5  A    between atoms: C16_19  and  O4_20 
REMARK    6  A    between atoms: C19_23  and  C20_24 
REMARK    7  A    between atoms: C24_28  and  C25_29 
REMARK    8  A    between atoms: C25_29  and  O5_32 
REMARK    9  A    between atoms: C35_42  and  C36_43 
REMARK   10  A    between atoms: C36_43  and  O8_44 
REMARK   11  A    between atoms: C37_45  and  O9_46 
REMARK   12  A    between atoms: C38_47  and  O10_48 
ROOT
HETATM    1  C5  UNL     1      -7.281  46.303 -18.885  1.00  0.00     0.133 C 
HETATM    2  C6  UNL     1      -7.085  47.825 -18.937  1.00  0.00     0.034 C 
HETATM    3  C7  UNL     1      -5.721  48.287 -18.443  1.00  0.00     0.012 C 
HETATM    4  C8  UNL     1      -4.535  47.751 -19.314  1.00  0.00    -0.033 C 
HETATM    5  C9  UNL     1      -3.302  47.630 -18.367  1.00  0.00     0.016 C 
HETATM    6  C10 UNL     1      -4.895  46.300 -19.862  1.00  0.00     0.004 C 
HETATM    7  C11 UNL     1      -5.310  46.220 -21.354  1.00  0.00     0.007 C 
HETATM    8  C12 UNL     1      -4.888  47.312 -22.319  1.00  0.00     0.011 C 
HETATM    9  C13 UNL     1      -3.755  48.234 -21.847  1.00  0.00    -0.030 C 
HETATM   10  C14 UNL     1      -2.460  47.386 -21.718  1.00  0.00     0.016 C 
HETATM   11  C15 UNL     1      -4.209  48.834 -20.462  1.00  0.00     0.032 C 
HETATM   12  C16 UNL     1      -3.285  50.023 -20.017  1.00  0.00     0.124 C 
HETATM   13  C17 UNL     1      -3.037  51.086 -21.104  1.00  0.00     0.038 C 
HETATM   14  C18 UNL     1      -2.499  50.427 -22.365  1.00  0.00     0.004 C 
HETATM   15  C19 UNL     1      -2.116  51.321 -23.575  1.00  0.00     0.025 C 
HETATM   16  C28 UNL     1      -2.378  50.385 -24.793  1.00  0.00     0.009 C 
HETATM   17  C29 UNL     1      -2.890  49.051 -24.238  1.00  0.00     0.011 C 
HETATM   18  C30 UNL     1      -3.551  49.423 -22.900  1.00  0.00    -0.032 C 
HETATM   19  C31 UNL     1      -4.903  50.132 -23.254  1.00  0.00     0.016 C 
HETATM   20  C32 UNL     1      -5.944  45.499 -18.970  1.00  0.00    -0.017 C 
HETATM   21  C33 UNL     1      -5.372  45.165 -17.568  1.00  0.00     0.018 C 
HETATM   22  C34 UNL     1      -6.230  44.097 -19.585  1.00  0.00     0.018 C 
ENDROOT
BRANCH   1  23
HETATM   23  O3  UNL     1      -7.985  45.967 -17.679  1.00  0.00    -0.352 OA
BRANCH  23  24
HETATM   24  C4  UNL     1      -9.113  45.119 -17.894  1.00  0.00     0.293 C 
HETATM   25  C3  UNL     1      -9.322  44.179 -16.687  1.00  0.00     0.218 C 
HETATM   26  C38 UNL     1     -10.141  44.818 -15.551  1.00  0.00     0.183 C 
HETATM   27  C37 UNL     1     -11.349  45.585 -16.098  1.00  0.00     0.180 C 
HETATM   28  C35 UNL     1     -10.930  46.573 -17.196  1.00  0.00     0.179 C 
HETATM   29  O7  UNL     1     -10.276  45.864 -18.265  1.00  0.00    -0.348 OA
BRANCH  25  30
HETATM   30  O2  UNL     1     -10.026  43.010 -17.184  1.00  0.00    -0.309 OA
BRANCH  30  31
HETATM   31  C2  UNL     1      -9.378  41.825 -17.014  1.00  0.00     0.255 C 
HETATM   32  C1  UNL     1      -7.952  42.065 -16.627  1.00  0.00     0.126 C 
HETATM   33  O1  UNL     1      -9.877  40.719 -17.171  1.00  0.00    -0.266 OA
ENDBRANCH  30  31
ENDBRANCH  25  30
BRANCH  26  34
HETATM   34  O10 UNL     1      -9.343  45.686 -14.738  1.00  0.00    -0.390 OA
HETATM   35  H64 UNL     1      -8.659  45.134 -14.311  1.00  0.00     0.210 HD
ENDBRANCH  26  34
BRANCH  27  36
HETATM   36  O9  UNL     1     -12.299  44.652 -16.641  1.00  0.00    -0.390 OA
HETATM   37  H62 UNL     1     -12.017  44.461 -17.555  1.00  0.00     0.210 HD
ENDBRANCH  27  36
BRANCH  28  38
HETATM   38  C36 UNL     1     -10.148  47.798 -16.696  1.00  0.00     0.198 C 
BRANCH  38  39
HETATM   39  O8  UNL     1      -9.154  47.439 -15.741  1.00  0.00    -0.398 OA
HETATM   40  H60 UNL     1      -8.345  47.245 -16.253  1.00  0.00     0.209 HD
ENDBRANCH  38  39
ENDBRANCH  28  38
ENDBRANCH  23  24
ENDBRANCH   1  23
BRANCH  12  41
HETATM   41  O4  UNL     1      -3.843  50.699 -18.894  1.00  0.00    -0.395 OA
HETATM   42  H24 UNL     1      -3.227  51.403 -18.634  1.00  0.00     0.210 HD
ENDBRANCH  12  41
BRANCH  15  43
HETATM   43  C20 UNL     1      -0.661  51.883 -23.563  1.00  0.00     0.062 C 
HETATM   44  C21 UNL     1       0.039  51.628 -22.218  1.00  0.00     0.046 C 
HETATM   45  C22 UNL     1      -0.599  53.373 -23.908  1.00  0.00     0.041 C 
HETATM   46  C23 UNL     1       0.772  53.532 -24.528  1.00  0.00     0.038 C 
HETATM   47  C24 UNL     1       1.052  52.173 -25.166  1.00  0.00     0.156 C 
HETATM   48  O6  UNL     1       0.120  51.232 -24.581  1.00  0.00    -0.372 OA
BRANCH  47  49
HETATM   49  C25 UNL     1       0.961  52.146 -26.719  1.00  0.00     0.076 C 
HETATM   50  C26 UNL     1      -0.115  51.162 -27.193  1.00  0.00     0.048 C 
HETATM   51  C27 UNL     1       2.314  51.772 -27.335  1.00  0.00     0.048 C 
BRANCH  49  52
HETATM   52  O5  UNL     1       0.614  53.449 -27.209  1.00  0.00    -0.388 OA
HETATM   53  H43 UNL     1       0.440  53.371 -28.163  1.00  0.00     0.210 HD
ENDBRANCH  49  52
ENDBRANCH  47  49
ENDBRANCH  15  43
TORSDOF 12
ENDMDL
