MODEL 1
REMARK minimizedAffinity -11.0786982
REMARK CNNscore 0.406643093
REMARK CNNaffinity 8.04326153
REMARK  7 active torsions:
REMARK  status: ('A' for Active; 'I' for Inactive)
REMARK    1  A    between atoms: C2_2  and  C3_3 
REMARK    2  A    between atoms: C9_10  and  O1_11 
REMARK    3  A    between atoms: C18_22  and  C19_23 
REMARK    4  A    between atoms: C33_39  and  C34_40 
REMARK    5  A    between atoms: C34_40  and  O2_41 
REMARK    6  A    between atoms: C35_42  and  C38_45 
REMARK    7  A    between atoms: C39_46  and  O3_47 
ROOT
HETATM    1  C19 UNL     1      -0.465  51.113 -17.836  1.00  0.00    -0.003 C 
HETATM    2  C20 UNL     1       0.243  51.180 -18.985  1.00  0.00     0.102 C 
HETATM    3  N3  UNL     1      -0.259  50.847 -20.234  1.00  0.00    -0.349 N 
HETATM    4  C21 UNL     1      -0.085  51.620 -21.405  1.00  0.00     0.041 A 
HETATM    5  C22 UNL     1       0.924  52.540 -21.669  1.00  0.00     0.030 A 
HETATM    6  C23 UNL     1       0.913  53.238 -22.876  1.00  0.00     0.002 A 
HETATM    7  C24 UNL     1      -0.088  53.005 -23.824  1.00  0.00     0.001 A 
HETATM    8  C25 UNL     1      -1.094  52.076 -23.571  1.00  0.00     0.010 A 
HETATM    9  C26 UNL     1      -1.093  51.400 -22.353  1.00  0.00    -0.018 A 
HETATM   10  C27 UNL     1      -2.062  50.360 -21.844  1.00  0.00     0.041 C 
HETATM   11  C28 UNL     1      -1.875  49.025 -22.602  1.00  0.00     0.046 C 
HETATM   12  C29 UNL     1      -3.144  48.808 -23.394  1.00  0.00     0.239 C 
HETATM   13  N4  UNL     1      -4.249  49.479 -22.583  1.00  0.00    -0.062 N 
HETATM   14  C30 UNL     1      -5.417  49.791 -23.523  1.00  0.00     0.273 C 
HETATM   15  C31 UNL     1      -4.778  48.613 -21.436  1.00  0.00     0.271 C 
HETATM   16  C32 UNL     1      -4.204  48.865 -20.048  1.00  0.00    -0.051 C 
HETATM   17  C33 UNL     1      -4.029  47.768 -19.270  1.00  0.00     0.004 C 
HETATM   18  C35 UNL     1      -3.964  50.332 -19.624  1.00  0.00     0.027 C 
HETATM   19  C36 UNL     1      -4.364  51.213 -20.820  1.00  0.00     0.044 C 
HETATM   20  C37 UNL     1      -3.565  50.756 -22.045  1.00  0.00     0.206 C 
HETATM   21  C38 UNL     1      -2.507  50.809 -19.345  1.00  0.00     0.052 C 
HETATM   22  C39 UNL     1      -1.933  50.670 -17.926  1.00  0.00     0.160 C 
HETATM   23  C40 UNL     1      -1.569  50.197 -20.366  1.00  0.00     0.112 C 
ENDROOT
BRANCH   1  24
HETATM   24  C18 UNL     1       0.121  51.476 -16.519  1.00  0.00    -0.016 C 
HETATM   25  C3  UNL     1       1.556  51.774 -16.245  1.00  0.00    -0.032 C 
HETATM   26  C4  UNL     1       1.987  51.775 -14.968  1.00  0.00     0.099 C 
HETATM   27  N1  UNL     1       1.164  51.614 -13.852  1.00  0.00    -0.354 N 
HETATM   28  C5  UNL     1       1.697  52.001 -12.516  1.00  0.00     0.133 C 
HETATM   29  C16 UNL     1      -0.235  51.645 -14.065  1.00  0.00     0.062 C 
HETATM   30  C6  UNL     1       0.738  51.648 -11.375  1.00  0.00     0.062 C 
HETATM   31  C7  UNL     1      -0.653  52.080 -11.702  1.00  0.00    -0.012 C 
HETATM   32  C8  UNL     1      -1.622  52.633 -10.971  1.00  0.00     0.033 A 
HETATM   33  C15 UNL     1      -1.103  51.915 -13.071  1.00  0.00     0.067 C 
HETATM   34  C9  UNL     1      -1.786  53.080  -9.617  1.00  0.00     0.081 A 
HETATM   35  C14 UNL     1      -2.720  52.697 -11.957  1.00  0.00     0.046 A 
HETATM   36  C11 UNL     1      -2.978  53.618  -9.273  1.00  0.00     0.038 A 
HETATM   37  C12 UNL     1      -4.084  53.707 -10.223  1.00  0.00     0.005 A 
HETATM   38  C13 UNL     1      -4.000  53.268 -11.492  1.00  0.00     0.030 A 
HETATM   39  N2  UNL     1      -2.443  52.237 -13.145  1.00  0.00    -0.353 N 
ATOM     40  H2  UNL     1      -3.070  52.138 -13.943  1.00  0.00     0.166 HD
HETATM   41  C17 UNL     1      -0.694  51.438 -15.436  1.00  0.00     0.044 C 
BRANCH  25  42
HETATM   42  C2  UNL     1       2.529  52.163 -17.334  1.00  0.00     0.036 C 
HETATM   43  C1  UNL     1       3.907  52.542 -16.784  1.00  0.00     0.010 C 
ENDBRANCH  25  42
BRANCH  34  44
HETATM   44  O1  UNL     1      -0.669  52.925  -8.833  1.00  0.00    -0.355 OA
HETATM   45  C10 UNL     1      -0.434  53.896  -7.823  1.00  0.00     0.210 C 
ENDBRANCH  34  44
ENDBRANCH   1  24
BRANCH  22  46
HETATM   46  O3  UNL     1      -2.798  51.422 -17.079  1.00  0.00    -0.390 OA
HETATM   47  H42 UNL     1      -2.248  52.072 -16.593  1.00  0.00     0.210 HD
ENDBRANCH  22  46
BRANCH  17  48
HETATM   48  C34 UNL     1      -3.639  47.646 -17.843  1.00  0.00     0.191 C 
BRANCH  48  49
HETATM   49  O2  UNL     1      -2.303  47.176 -17.857  1.00  0.00    -0.397 OA
HETATM   50  H35 UNL     1      -2.252  46.390 -17.281  1.00  0.00     0.209 HD
ENDBRANCH  48  49
ENDBRANCH  17  48
TORSDOF 7
ENDMDL
MODEL 2
REMARK minimizedAffinity -9.70763206
REMARK CNNscore 0.324737281
REMARK CNNaffinity 6.23811769
REMARK  7 active torsions:
REMARK  status: ('A' for Active; 'I' for Inactive)
REMARK    1  A    between atoms: C2_2  and  C3_3 
REMARK    2  A    between atoms: C9_10  and  O1_11 
REMARK    3  A    between atoms: C18_22  and  C19_23 
REMARK    4  A    between atoms: C33_39  and  C34_40 
REMARK    5  A    between atoms: C34_40  and  O2_41 
REMARK    6  A    between atoms: C35_42  and  C38_45 
REMARK    7  A    between atoms: C39_46  and  O3_47 
ROOT
HETATM    1  C19 UNL     1      -8.039  46.935 -24.224  1.00  0.00    -0.003 C 
HETATM    2  C20 UNL     1      -7.637  46.398 -23.051  1.00  0.00     0.102 C 
HETATM    3  N3  UNL     1      -6.483  46.765 -22.377  1.00  0.00    -0.349 N 
HETATM    4  C21 UNL     1      -6.407  47.022 -20.989  1.00  0.00     0.041 A 
HETATM    5  C22 UNL     1      -7.257  46.550 -19.994  1.00  0.00     0.030 A 
HETATM    6  C23 UNL     1      -7.043  46.938 -18.672  1.00  0.00     0.002 A 
HETATM    7  C24 UNL     1      -5.976  47.779 -18.341  1.00  0.00     0.001 A 
HETATM    8  C25 UNL     1      -5.115  48.246 -19.331  1.00  0.00     0.010 A 
HETATM    9  C26 UNL     1      -5.347  47.873 -20.653  1.00  0.00    -0.018 A 
HETATM   10  C27 UNL     1      -4.569  48.243 -21.893  1.00  0.00     0.041 C 
HETATM   11  C28 UNL     1      -3.203  47.519 -21.915  1.00  0.00     0.046 C 
HETATM   12  C29 UNL     1      -2.152  48.597 -21.782  1.00  0.00     0.239 C 
HETATM   13  N4  UNL     1      -2.760  49.839 -22.428  1.00  0.00    -0.062 N 
HETATM   14  C30 UNL     1      -2.041  51.073 -21.874  1.00  0.00     0.273 C 
HETATM   15  C31 UNL     1      -2.636  49.859 -23.954  1.00  0.00     0.271 C 
HETATM   16  C32 UNL     1      -3.838  49.383 -24.759  1.00  0.00    -0.051 C 
HETATM   17  C33 UNL     1      -3.557  48.692 -25.892  1.00  0.00     0.004 C 
HETATM   18  C35 UNL     1      -5.244  49.804 -24.271  1.00  0.00     0.027 C 
HETATM   19  C36 UNL     1      -5.041  50.623 -22.985  1.00  0.00     0.044 C 
HETATM   20  C37 UNL     1      -4.241  49.773 -21.992  1.00  0.00     0.206 C 
HETATM   21  C38 UNL     1      -6.241  48.704 -23.801  1.00  0.00     0.052 C 
HETATM   22  C39 UNL     1      -7.176  48.051 -24.832  1.00  0.00     0.160 C 
HETATM   23  C40 UNL     1      -5.495  47.648 -23.008  1.00  0.00     0.112 C 
ENDROOT
BRANCH   1  24
HETATM   24  C18 UNL     1      -9.284  46.503 -24.912  1.00  0.00    -0.016 C 
HETATM   25  C3  UNL     1      -9.365  45.737 -26.189  1.00  0.00    -0.032 C 
HETATM   26  C4  UNL     1     -10.540  45.694 -26.847  1.00  0.00     0.099 C 
HETATM   27  N1  UNL     1     -11.736  46.235 -26.373  1.00  0.00    -0.354 N 
HETATM   28  C5  UNL     1     -13.012  45.802 -27.009  1.00  0.00     0.133 C 
HETATM   29  C16 UNL     1     -11.760  46.688 -25.032  1.00  0.00     0.062 C 
HETATM   30  C6  UNL     1     -14.225  46.572 -26.479  1.00  0.00     0.062 C 
HETATM   31  C7  UNL     1     -14.198  46.639 -24.987  1.00  0.00    -0.012 C 
HETATM   32  C8  UNL     1     -15.152  46.535 -24.062  1.00  0.00     0.033 A 
HETATM   33  C15 UNL     1     -12.911  46.834 -24.348  1.00  0.00     0.067 C 
HETATM   34  C9  UNL     1     -16.567  46.297 -24.040  1.00  0.00     0.081 A 
HETATM   35  C14 UNL     1     -14.378  46.783 -22.828  1.00  0.00     0.046 A 
HETATM   36  C11 UNL     1     -17.178  46.253 -22.833  1.00  0.00     0.038 A 
HETATM   37  C12 UNL     1     -16.445  46.483 -21.591  1.00  0.00     0.005 A 
HETATM   38  C13 UNL     1     -15.127  46.750 -21.555  1.00  0.00     0.030 A 
HETATM   39  N2  UNL     1     -13.105  47.007 -22.993  1.00  0.00    -0.353 N 
ATOM     40  H2  UNL     1     -12.413  47.254 -22.285  1.00  0.00     0.166 HD
HETATM   41  C17 UNL     1     -10.465  46.924 -24.398  1.00  0.00     0.044 C 
BRANCH  25  42
HETATM   42  C2  UNL     1      -8.206  44.932 -26.729  1.00  0.00     0.036 C 
HETATM   43  C1  UNL     1      -7.704  45.456 -28.078  1.00  0.00     0.010 C 
ENDBRANCH  25  42
BRANCH  34  44
HETATM   44  O1  UNL     1     -17.127  46.110 -25.280  1.00  0.00    -0.355 OA
HETATM   45  C10 UNL     1     -18.527  45.879 -25.342  1.00  0.00     0.210 C 
ENDBRANCH  34  44
ENDBRANCH   1  24
BRANCH  22  46
HETATM   46  O3  UNL     1      -7.944  49.113 -25.391  1.00  0.00    -0.390 OA
HETATM   47  H42 UNL     1      -8.891  48.887 -25.276  1.00  0.00     0.210 HD
ENDBRANCH  22  46
BRANCH  17  48
HETATM   48  C34 UNL     1      -4.449  48.210 -26.977  1.00  0.00     0.191 C 
BRANCH  48  49
HETATM   49  O2  UNL     1      -4.493  49.264 -27.923  1.00  0.00    -0.397 OA
HETATM   50  H35 UNL     1      -5.428  49.467 -28.108  1.00  0.00     0.209 HD
ENDBRANCH  48  49
ENDBRANCH  17  48
TORSDOF 7
ENDMDL
MODEL 3
REMARK minimizedAffinity -10.0890036
REMARK CNNscore 0.289063573
REMARK CNNaffinity 7.47820091
REMARK  7 active torsions:
REMARK  status: ('A' for Active; 'I' for Inactive)
REMARK    1  A    between atoms: C2_2  and  C3_3 
REMARK    2  A    between atoms: C9_10  and  O1_11 
REMARK    3  A    between atoms: C18_22  and  C19_23 
REMARK    4  A    between atoms: C33_39  and  C34_40 
REMARK    5  A    between atoms: C34_40  and  O2_41 
REMARK    6  A    between atoms: C35_42  and  C38_45 
REMARK    7  A    between atoms: C39_46  and  O3_47 
ROOT
HETATM    1  C19 UNL     1      -3.982  49.055 -23.420  1.00  0.00    -0.003 C 
HETATM    2  C20 UNL     1      -3.398  50.273 -23.388  1.00  0.00     0.102 C 
HETATM    3  N3  UNL     1      -2.798  50.824 -22.266  1.00  0.00    -0.349 N 
HETATM    4  C21 UNL     1      -1.540  51.470 -22.260  1.00  0.00     0.041 A 
HETATM    5  C22 UNL     1      -0.895  52.075 -23.333  1.00  0.00     0.030 A 
HETATM    6  C23 UNL     1       0.366  52.638 -23.143  1.00  0.00     0.002 A 
HETATM    7  C24 UNL     1       0.974  52.614 -21.884  1.00  0.00     0.001 A 
HETATM    8  C25 UNL     1       0.329  52.019 -20.803  1.00  0.00     0.010 A 
HETATM    9  C26 UNL     1      -0.922  51.438 -21.004  1.00  0.00    -0.018 A 
HETATM   10  C27 UNL     1      -1.813  50.738 -20.007  1.00  0.00     0.041 C 
HETATM   11  C28 UNL     1      -2.430  51.757 -19.021  1.00  0.00     0.046 C 
HETATM   12  C29 UNL     1      -1.845  51.439 -17.664  1.00  0.00     0.239 C 
HETATM   13  N4  UNL     1      -1.569  49.938 -17.682  1.00  0.00    -0.062 N 
HETATM   14  C30 UNL     1      -0.509  49.628 -16.621  1.00  0.00     0.273 C 
HETATM   15  C31 UNL     1      -2.805  49.085 -17.384  1.00  0.00     0.271 C 
HETATM   16  C32 UNL     1      -3.568  48.520 -18.575  1.00  0.00    -0.051 C 
HETATM   17  C33 UNL     1      -4.917  48.470 -18.447  1.00  0.00     0.004 C 
HETATM   18  C35 UNL     1      -2.743  47.977 -19.766  1.00  0.00     0.027 C 
HETATM   19  C36 UNL     1      -1.261  48.203 -19.420  1.00  0.00     0.044 C 
HETATM   20  C37 UNL     1      -1.057  49.691 -19.119  1.00  0.00     0.206 C 
HETATM   21  C38 UNL     1      -2.864  48.680 -21.151  1.00  0.00     0.052 C 
HETATM   22  C39 UNL     1      -3.946  48.212 -22.136  1.00  0.00     0.160 C 
HETATM   23  C40 UNL     1      -2.931  50.182 -20.953  1.00  0.00     0.112 C 
ENDROOT
BRANCH   1  24
HETATM   24  C18 UNL     1      -4.618  48.510 -24.648  1.00  0.00    -0.016 C 
HETATM   25  C3  UNL     1      -4.018  48.481 -26.013  1.00  0.00    -0.032 C 
HETATM   26  C4  UNL     1      -4.821  48.252 -27.070  1.00  0.00     0.099 C 
HETATM   27  N1  UNL     1      -6.178  47.938 -26.984  1.00  0.00    -0.354 N 
HETATM   28  C5  UNL     1      -6.848  47.354 -28.180  1.00  0.00     0.133 C 
HETATM   29  C16 UNL     1      -6.699  47.650 -25.699  1.00  0.00     0.062 C 
HETATM   30  C6  UNL     1      -8.358  47.182 -27.983  1.00  0.00     0.062 C 
HETATM   31  C7  UNL     1      -8.650  46.547 -26.663  1.00  0.00    -0.012 C 
HETATM   32  C8  UNL     1      -9.534  45.624 -26.282  1.00  0.00     0.033 A 
HETATM   33  C15 UNL     1      -7.837  46.949 -25.531  1.00  0.00     0.067 C 
HETATM   34  C9  UNL     1     -10.547  44.825 -26.907  1.00  0.00     0.081 A 
HETATM   35  C14 UNL     1      -9.275  45.569 -24.828  1.00  0.00     0.046 A 
HETATM   36  C11 UNL     1     -11.240  43.964 -26.125  1.00  0.00     0.038 A 
HETATM   37  C12 UNL     1     -11.006  43.874 -24.687  1.00  0.00     0.005 A 
HETATM   38  C13 UNL     1     -10.098  44.628 -24.041  1.00  0.00     0.030 A 
HETATM   39  N2  UNL     1      -8.342  46.365 -24.387  1.00  0.00    -0.353 N 
ATOM     40  H2  UNL     1      -8.052  46.521 -23.421  1.00  0.00     0.166 HD
HETATM   41  C17 UNL     1      -5.903  48.089 -24.556  1.00  0.00     0.044 C 
BRANCH  25  42
HETATM   42  C2  UNL     1      -2.531  48.608 -26.251  1.00  0.00     0.036 C 
HETATM   43  C1  UNL     1      -2.136  49.990 -26.779  1.00  0.00     0.010 C 
ENDBRANCH  25  42
BRANCH  34  44
HETATM   44  O1  UNL     1     -10.666  45.021 -28.261  1.00  0.00    -0.355 OA
HETATM   45  C10 UNL     1     -10.129  44.025 -29.120  1.00  0.00     0.210 C 
ENDBRANCH  34  44
ENDBRANCH   1  24
BRANCH  22  46
HETATM   46  O3  UNL     1      -3.683  46.833 -22.379  1.00  0.00    -0.390 OA
HETATM   47  H42 UNL     1      -3.593  46.713 -23.348  1.00  0.00     0.210 HD
ENDBRANCH  22  46
BRANCH  17  48
HETATM   48  C34 UNL     1      -5.950  47.861 -19.322  1.00  0.00     0.191 C 
BRANCH  48  49
HETATM   49  O2  UNL     1      -6.612  48.951 -19.938  1.00  0.00    -0.397 OA
HETATM   50  H35 UNL     1      -7.571  48.842 -19.800  1.00  0.00     0.209 HD
ENDBRANCH  48  49
ENDBRANCH  17  48
TORSDOF 7
ENDMDL
MODEL 4
REMARK minimizedAffinity -9.56594467
REMARK CNNscore 0.281753123
REMARK CNNaffinity 7.58999872
REMARK  7 active torsions:
REMARK  status: ('A' for Active; 'I' for Inactive)
REMARK    1  A    between atoms: C2_2  and  C3_3 
REMARK    2  A    between atoms: C9_10  and  O1_11 
REMARK    3  A    between atoms: C18_22  and  C19_23 
REMARK    4  A    between atoms: C33_39  and  C34_40 
REMARK    5  A    between atoms: C34_40  and  O2_41 
REMARK    6  A    between atoms: C35_42  and  C38_45 
REMARK    7  A    between atoms: C39_46  and  O3_47 
ROOT
HETATM    1  C19 UNL     1      -0.658  51.153 -15.499  1.00  0.00    -0.003 C 
HETATM    2  C20 UNL     1       0.212  51.424 -16.497  1.00  0.00     0.102 C 
HETATM    3  N3  UNL     1       0.057  50.999 -17.808  1.00  0.00    -0.349 N 
HETATM    4  C21 UNL     1       0.245  51.816 -18.947  1.00  0.00     0.041 A 
HETATM    5  C22 UNL     1       1.017  52.969 -19.043  1.00  0.00     0.030 A 
HETATM    6  C23 UNL     1       1.057  53.665 -20.250  1.00  0.00     0.002 A 
HETATM    7  C24 UNL     1       0.346  53.204 -21.362  1.00  0.00     0.001 A 
HETATM    8  C25 UNL     1      -0.419  52.044 -21.275  1.00  0.00     0.010 A 
HETATM    9  C26 UNL     1      -0.475  51.364 -20.060  1.00  0.00    -0.018 A 
HETATM   10  C27 UNL     1      -1.224  50.101 -19.713  1.00  0.00     0.041 C 
HETATM   11  C28 UNL     1      -0.564  48.874 -20.384  1.00  0.00     0.046 C 
HETATM   12  C29 UNL     1      -1.562  48.357 -21.394  1.00  0.00     0.239 C 
HETATM   13  N4  UNL     1      -2.934  48.705 -20.824  1.00  0.00    -0.062 N 
HETATM   14  C30 UNL     1      -3.944  48.728 -21.975  1.00  0.00     0.273 C 
HETATM   15  C31 UNL     1      -3.431  47.709 -19.773  1.00  0.00     0.271 C 
HETATM   16  C32 UNL     1      -3.213  48.070 -18.309  1.00  0.00    -0.051 C 
HETATM   17  C33 UNL     1      -2.914  47.038 -17.482  1.00  0.00     0.004 C 
HETATM   18  C35 UNL     1      -3.440  49.541 -17.890  1.00  0.00     0.027 C 
HETATM   19  C36 UNL     1      -3.819  50.315 -19.164  1.00  0.00     0.044 C 
HETATM   20  C37 UNL     1      -2.713  50.103 -20.204  1.00  0.00     0.206 C 
HETATM   21  C38 UNL     1      -2.233  50.369 -17.355  1.00  0.00     0.052 C 
HETATM   22  C39 UNL     1      -1.921  50.352 -15.851  1.00  0.00     0.160 C 
HETATM   23  C40 UNL     1      -0.994  50.039 -18.165  1.00  0.00     0.112 C 
ENDROOT
BRANCH   1  24
HETATM   24  C18 UNL     1      -0.444  51.627 -14.107  1.00  0.00    -0.016 C 
HETATM   25  C3  UNL     1      -1.477  52.219 -13.209  1.00  0.00    -0.032 C 
HETATM   26  C4  UNL     1      -1.076  52.884 -12.108  1.00  0.00     0.099 C 
HETATM   27  N1  UNL     1       0.248  52.983 -11.678  1.00  0.00    -0.354 N 
HETATM   28  C5  UNL     1       0.508  53.418 -10.277  1.00  0.00     0.133 C 
HETATM   29  C16 UNL     1       1.207  52.173 -12.331  1.00  0.00     0.062 C 
HETATM   30  C6  UNL     1       2.000  53.607  -9.986  1.00  0.00     0.062 C 
HETATM   31  C7  UNL     1       2.788  52.445 -10.494  1.00  0.00    -0.012 C 
HETATM   32  C8  UNL     1       3.828  51.773  -9.997  1.00  0.00     0.033 A 
HETATM   33  C15 UNL     1       2.390  51.867 -11.763  1.00  0.00     0.067 C 
HETATM   34  C9  UNL     1       4.626  51.813  -8.806  1.00  0.00     0.081 A 
HETATM   35  C14 UNL     1       4.098  50.819 -11.092  1.00  0.00     0.046 A 
HETATM   36  C11 UNL     1       5.620  50.903  -8.685  1.00  0.00     0.038 A 
HETATM   37  C12 UNL     1       5.912  49.938  -9.742  1.00  0.00     0.005 A 
HETATM   38  C13 UNL     1       5.223  49.882 -10.896  1.00  0.00     0.030 A 
HETATM   39  N2  UNL     1       3.310  50.906 -12.128  1.00  0.00    -0.353 N 
ATOM     40  H2  UNL     1       3.363  50.385 -13.003  1.00  0.00     0.166 HD
HETATM   41  C17 UNL     1       0.824  51.621 -13.628  1.00  0.00     0.044 C 
BRANCH  25  42
HETATM   42  C2  UNL     1      -2.959  52.025 -13.435  1.00  0.00     0.036 C 
HETATM   43  C1  UNL     1      -3.814  52.845 -12.464  1.00  0.00     0.010 C 
ENDBRANCH  25  42
BRANCH  34  44
HETATM   44  O1  UNL     1       4.247  52.777  -7.904  1.00  0.00    -0.355 OA
HETATM   45  C10 UNL     1       5.056  53.940  -7.804  1.00  0.00     0.210 C 
ENDBRANCH  34  44
ENDBRANCH   1  24
BRANCH  22  46
HETATM   46  O3  UNL     1      -3.092  50.839 -15.203  1.00  0.00    -0.390 OA
HETATM   47  H42 UNL     1      -2.829  51.598 -14.641  1.00  0.00     0.210 HD
ENDBRANCH  22  46
BRANCH  17  48
HETATM   48  C34 UNL     1      -2.783  46.991 -16.004  1.00  0.00     0.191 C 
BRANCH  48  49
HETATM   49  O2  UNL     1      -1.390  46.935 -15.751  1.00  0.00    -0.397 OA
HETATM   50  H35 UNL     1      -1.219  46.181 -15.157  1.00  0.00     0.209 HD
ENDBRANCH  48  49
ENDBRANCH  17  48
TORSDOF 7
ENDMDL
MODEL 5
REMARK minimizedAffinity -10.4133739
REMARK CNNscore 0.236169964
REMARK CNNaffinity 7.85162354
REMARK  7 active torsions:
REMARK  status: ('A' for Active; 'I' for Inactive)
REMARK    1  A    between atoms: C2_2  and  C3_3 
REMARK    2  A    between atoms: C9_10  and  O1_11 
REMARK    3  A    between atoms: C18_22  and  C19_23 
REMARK    4  A    between atoms: C33_39  and  C34_40 
REMARK    5  A    between atoms: C34_40  and  O2_41 
REMARK    6  A    between atoms: C35_42  and  C38_45 
REMARK    7  A    between atoms: C39_46  and  O3_47 
ROOT
HETATM    1  C19 UNL     1      -2.607  49.585 -21.740  1.00  0.00    -0.003 C 
HETATM    2  C20 UNL     1      -1.346  50.043 -21.583  1.00  0.00     0.102 C 
HETATM    3  N3  UNL     1      -0.630  50.716 -22.561  1.00  0.00    -0.349 N 
HETATM    4  C21 UNL     1       0.121  51.894 -22.344  1.00  0.00     0.041 A 
HETATM    5  C22 UNL     1       0.664  52.342 -21.144  1.00  0.00     0.030 A 
HETATM    6  C23 UNL     1       1.351  53.555 -21.116  1.00  0.00     0.002 A 
HETATM    7  C24 UNL     1       1.513  54.308 -22.282  1.00  0.00     0.001 A 
HETATM    8  C25 UNL     1       0.982  53.860 -23.489  1.00  0.00     0.010 A 
HETATM    9  C26 UNL     1       0.275  52.659 -23.507  1.00  0.00    -0.018 A 
HETATM   10  C27 UNL     1      -0.390  51.967 -24.672  1.00  0.00     0.041 C 
HETATM   11  C28 UNL     1       0.668  51.374 -25.630  1.00  0.00     0.046 C 
HETATM   12  C29 UNL     1       0.548  52.147 -26.923  1.00  0.00     0.239 C 
HETATM   13  N4  UNL     1      -0.917  52.567 -27.010  1.00  0.00    -0.062 N 
HETATM   14  C30 UNL     1      -1.019  53.773 -27.950  1.00  0.00     0.273 C 
HETATM   15  C31 UNL     1      -1.838  51.467 -27.544  1.00  0.00     0.271 C 
HETATM   16  C32 UNL     1      -2.590  50.628 -26.520  1.00  0.00    -0.051 C 
HETATM   17  C33 UNL     1      -2.745  49.316 -26.826  1.00  0.00     0.004 C 
HETATM   18  C35 UNL     1      -3.181  51.354 -25.289  1.00  0.00     0.027 C 
HETATM   19  C36 UNL     1      -2.792  52.837 -25.417  1.00  0.00     0.044 C 
HETATM   20  C37 UNL     1      -1.268  52.926 -25.549  1.00  0.00     0.206 C 
HETATM   21  C38 UNL     1      -2.642  50.999 -23.871  1.00  0.00     0.052 C 
HETATM   22  C39 UNL     1      -3.304  49.859 -23.082  1.00  0.00     0.160 C 
HETATM   23  C40 UNL     1      -1.139  50.806 -23.934  1.00  0.00     0.112 C 
ENDROOT
BRANCH   1  24
HETATM   24  C18 UNL     1      -3.332  48.864 -20.662  1.00  0.00    -0.016 C 
HETATM   25  C3  UNL     1      -3.602  49.375 -19.287  1.00  0.00    -0.032 C 
HETATM   26  C4  UNL     1      -3.982  48.502 -18.333  1.00  0.00     0.099 C 
HETATM   27  N1  UNL     1      -4.245  47.150 -18.553  1.00  0.00    -0.354 N 
HETATM   28  C5  UNL     1      -5.002  46.396 -17.514  1.00  0.00     0.133 C 
HETATM   29  C16 UNL     1      -4.304  46.708 -19.896  1.00  0.00     0.062 C 
HETATM   30  C6  UNL     1      -5.102  44.900 -17.828  1.00  0.00     0.062 C 
HETATM   31  C7  UNL     1      -5.502  44.684 -19.250  1.00  0.00    -0.012 C 
HETATM   32  C8  UNL     1      -6.327  43.813 -19.834  1.00  0.00     0.033 A 
HETATM   33  C15 UNL     1      -4.938  45.573 -20.248  1.00  0.00     0.067 C 
HETATM   34  C9  UNL     1      -7.194  42.751 -19.413  1.00  0.00     0.081 A 
HETATM   35  C14 UNL     1      -6.147  44.163 -21.257  1.00  0.00     0.046 A 
HETATM   36  C11 UNL     1      -7.896  42.097 -20.368  1.00  0.00     0.038 A 
HETATM   37  C12 UNL     1      -7.752  42.421 -21.785  1.00  0.00     0.005 A 
HETATM   38  C13 UNL     1      -6.925  43.379 -22.239  1.00  0.00     0.030 A 
HETATM   39  N2  UNL     1      -5.312  45.134 -21.502  1.00  0.00    -0.353 N 
ATOM     40  H2  UNL     1      -5.006  45.487 -22.409  1.00  0.00     0.166 HD
HETATM   41  C17 UNL     1      -3.701  47.581 -20.900  1.00  0.00     0.044 C 
BRANCH  25  42
HETATM   42  C2  UNL     1      -3.552  50.845 -18.941  1.00  0.00     0.036 C 
HETATM   43  C1  UNL     1      -2.420  51.183 -17.967  1.00  0.00     0.010 C 
ENDBRANCH  25  42
BRANCH  34  44
HETATM   44  O1  UNL     1      -7.222  42.549 -18.055  1.00  0.00    -0.355 OA
HETATM   45  C10 UNL     1      -6.555  41.403 -17.545  1.00  0.00     0.210 C 
ENDBRANCH  34  44
ENDBRANCH   1  24
BRANCH  22  46
HETATM   46  O3  UNL     1      -4.673  50.227 -22.937  1.00  0.00    -0.390 OA
HETATM   47  H42 UNL     1      -4.886  50.212 -21.980  1.00  0.00     0.210 HD
ENDBRANCH  22  46
BRANCH  17  48
HETATM   48  C34 UNL     1      -3.530  48.251 -26.152  1.00  0.00     0.191 C 
BRANCH  48  49
HETATM   49  O2  UNL     1      -4.887  48.552 -26.430  1.00  0.00    -0.397 OA
HETATM   50  H35 UNL     1      -5.373  48.566 -25.585  1.00  0.00     0.209 HD
ENDBRANCH  48  49
ENDBRANCH  17  48
TORSDOF 7
ENDMDL
MODEL 6
REMARK minimizedAffinity -9.89525318
REMARK CNNscore 0.211686879
REMARK CNNaffinity 7.56569052
REMARK  7 active torsions:
REMARK  status: ('A' for Active; 'I' for Inactive)
REMARK    1  A    between atoms: C2_2  and  C3_3 
REMARK    2  A    between atoms: C9_10  and  O1_11 
REMARK    3  A    between atoms: C18_22  and  C19_23 
REMARK    4  A    between atoms: C33_39  and  C34_40 
REMARK    5  A    between atoms: C34_40  and  O2_41 
REMARK    6  A    between atoms: C35_42  and  C38_45 
REMARK    7  A    between atoms: C39_46  and  O3_47 
ROOT
HETATM    1  C19 UNL     1      -1.288  50.732 -14.876  1.00  0.00    -0.003 C 
HETATM    2  C20 UNL     1      -0.188  50.960 -15.628  1.00  0.00     0.102 C 
HETATM    3  N3  UNL     1      -0.106  50.715 -16.990  1.00  0.00    -0.349 N 
HETATM    4  C21 UNL     1       0.444  51.608 -17.938  1.00  0.00     0.041 A 
HETATM    5  C22 UNL     1       1.373  52.618 -17.709  1.00  0.00     0.030 A 
HETATM    6  C23 UNL     1       1.778  53.426 -18.770  1.00  0.00     0.002 A 
HETATM    7  C24 UNL     1       1.275  53.216 -20.058  1.00  0.00     0.001 A 
HETATM    8  C25 UNL     1       0.353  52.200 -20.295  1.00  0.00     0.010 A 
HETATM    9  C26 UNL     1      -0.066  51.410 -19.227  1.00  0.00    -0.018 A 
HETATM   10  C27 UNL     1      -1.045  50.261 -19.224  1.00  0.00     0.041 C 
HETATM   11  C28 UNL     1      -0.431  49.021 -19.916  1.00  0.00     0.046 C 
HETATM   12  C29 UNL     1      -1.243  48.794 -21.171  1.00  0.00     0.239 C 
HETATM   13  N4  UNL     1      -2.644  49.304 -20.847  1.00  0.00    -0.062 N 
HETATM   14  C30 UNL     1      -3.359  49.623 -22.163  1.00  0.00     0.273 C 
HETATM   15  C31 UNL     1      -3.498  48.296 -20.072  1.00  0.00     0.271 C 
HETATM   16  C32 UNL     1      -3.562  48.452 -18.558  1.00  0.00    -0.051 C 
HETATM   17  C33 UNL     1      -3.603  47.300 -17.844  1.00  0.00     0.004 C 
HETATM   18  C35 UNL     1      -3.667  49.885 -17.986  1.00  0.00     0.027 C 
HETATM   19  C36 UNL     1      -3.640  50.847 -19.187  1.00  0.00     0.044 C 
HETATM   20  C37 UNL     1      -2.372  50.568 -20.000  1.00  0.00     0.206 C 
HETATM   21  C38 UNL     1      -2.505  50.434 -17.106  1.00  0.00     0.052 C 
HETATM   22  C39 UNL     1      -2.540  50.199 -15.587  1.00  0.00     0.160 C 
HETATM   23  C40 UNL     1      -1.176  49.991 -17.687  1.00  0.00     0.112 C 
ENDROOT
BRANCH   1  24
HETATM   24  C18 UNL     1      -1.324  51.007 -13.416  1.00  0.00    -0.016 C 
HETATM   25  C3  UNL     1      -1.996  50.172 -12.379  1.00  0.00    -0.032 C 
HETATM   26  C4  UNL     1      -2.214  50.703 -11.160  1.00  0.00     0.099 C 
HETATM   27  N1  UNL     1      -1.767  51.959 -10.748  1.00  0.00    -0.354 N 
HETATM   28  C5  UNL     1      -1.751  52.264  -9.290  1.00  0.00     0.133 C 
HETATM   29  C16 UNL     1      -0.862  52.638 -11.599  1.00  0.00     0.062 C 
HETATM   30  C6  UNL     1      -1.363  53.716  -8.996  1.00  0.00     0.062 C 
HETATM   31  C7  UNL     1      -0.158  54.111  -9.786  1.00  0.00    -0.012 C 
HETATM   32  C8  UNL     1       0.915  54.843  -9.488  1.00  0.00     0.033 A 
HETATM   33  C15 UNL     1      -0.058  53.621 -11.148  1.00  0.00     0.067 C 
HETATM   34  C9  UNL     1       1.422  55.539  -8.341  1.00  0.00     0.081 A 
HETATM   35  C14 UNL     1       1.621  54.852 -10.786  1.00  0.00     0.046 A 
HETATM   36  C11 UNL     1       2.610  56.174  -8.464  1.00  0.00     0.038 A 
HETATM   37  C12 UNL     1       3.342  56.196  -9.728  1.00  0.00     0.005 A 
HETATM   38  C13 UNL     1       2.896  55.596 -10.846  1.00  0.00     0.030 A 
HETATM   39  N2  UNL     1       1.039  54.198 -11.753  1.00  0.00    -0.353 N 
ATOM     40  H2  UNL     1       1.328  54.129 -12.729  1.00  0.00     0.166 HD
HETATM   41  C17 UNL     1      -0.788  52.173 -12.982  1.00  0.00     0.044 C 
BRANCH  25  42
HETATM   42  C2  UNL     1      -2.362  48.724 -12.612  1.00  0.00     0.036 C 
HETATM   43  C1  UNL     1      -3.791  48.400 -12.165  1.00  0.00     0.010 C 
ENDBRANCH  25  42
BRANCH  34  44
HETATM   44  O1  UNL     1       0.626  55.443  -7.226  1.00  0.00    -0.355 OA
HETATM   45  C10 UNL     1       0.075  56.644  -6.704  1.00  0.00     0.210 C 
ENDBRANCH  34  44
ENDBRANCH   1  24
BRANCH  22  46
HETATM   46  O3  UNL     1      -3.746  50.802 -15.127  1.00  0.00    -0.390 OA
HETATM   47  H42 UNL     1      -3.509  51.440 -14.420  1.00  0.00     0.210 HD
ENDBRANCH  22  46
BRANCH  17  48
HETATM   48  C34 UNL     1      -3.812  47.068 -16.393  1.00  0.00     0.191 C 
BRANCH  48  49
HETATM   49  O2  UNL     1      -5.203  47.234 -16.181  1.00  0.00    -0.397 OA
HETATM   50  H35 UNL     1      -5.325  47.870 -15.452  1.00  0.00     0.209 HD
ENDBRANCH  48  49
ENDBRANCH  17  48
TORSDOF 7
ENDMDL
MODEL 7
REMARK minimizedAffinity -10.6389942
REMARK CNNscore 0.208252981
REMARK CNNaffinity 7.27367926
REMARK  7 active torsions:
REMARK  status: ('A' for Active; 'I' for Inactive)
REMARK    1  A    between atoms: C2_2  and  C3_3 
REMARK    2  A    between atoms: C9_10  and  O1_11 
REMARK    3  A    between atoms: C18_22  and  C19_23 
REMARK    4  A    between atoms: C33_39  and  C34_40 
REMARK    5  A    between atoms: C34_40  and  O2_41 
REMARK    6  A    between atoms: C35_42  and  C38_45 
REMARK    7  A    between atoms: C39_46  and  O3_47 
ROOT
HETATM    1  C19 UNL     1      -3.037  50.119 -21.784  1.00  0.00    -0.003 C 
HETATM    2  C20 UNL     1      -1.766  50.495 -21.523  1.00  0.00     0.102 C 
HETATM    3  N3  UNL     1      -0.888  50.998 -22.471  1.00  0.00    -0.349 N 
HETATM    4  C21 UNL     1      -0.065  52.133 -22.286  1.00  0.00     0.041 A 
HETATM    5  C22 UNL     1       0.377  52.669 -21.081  1.00  0.00     0.030 A 
HETATM    6  C23 UNL     1       1.162  53.822 -21.094  1.00  0.00     0.002 A 
HETATM    7  C24 UNL     1       1.519  54.427 -22.303  1.00  0.00     0.001 A 
HETATM    8  C25 UNL     1       1.088  53.888 -23.513  1.00  0.00     0.010 A 
HETATM    9  C26 UNL     1       0.285  52.749 -23.493  1.00  0.00    -0.018 A 
HETATM   10  C27 UNL     1      -0.304  51.985 -24.654  1.00  0.00     0.041 C 
HETATM   11  C28 UNL     1       0.799  51.210 -25.412  1.00  0.00     0.046 C 
HETATM   12  C29 UNL     1       0.892  51.841 -26.782  1.00  0.00     0.239 C 
HETATM   13  N4  UNL     1      -0.511  52.359 -27.088  1.00  0.00    -0.062 N 
HETATM   14  C30 UNL     1      -0.400  53.456 -28.150  1.00  0.00     0.273 C 
HETATM   15  C31 UNL     1      -1.460  51.279 -27.614  1.00  0.00     0.271 C 
HETATM   16  C32 UNL     1      -2.393  50.618 -26.608  1.00  0.00    -0.051 C 
HETATM   17  C33 UNL     1      -2.628  49.296 -26.795  1.00  0.00     0.004 C 
HETATM   18  C35 UNL     1      -3.052  51.520 -25.538  1.00  0.00     0.027 C 
HETATM   19  C36 UNL     1      -2.521  52.945 -25.768  1.00  0.00     0.044 C 
HETATM   20  C37 UNL     1      -0.990  52.903 -25.724  1.00  0.00     0.206 C 
HETATM   21  C38 UNL     1      -2.708  51.285 -24.037  1.00  0.00     0.052 C 
HETATM   22  C39 UNL     1      -3.553  50.293 -23.221  1.00  0.00     0.160 C 
HETATM   23  C40 UNL     1      -1.230  50.973 -23.898  1.00  0.00     0.112 C 
ENDROOT
BRANCH   1  24
HETATM   24  C18 UNL     1      -3.939  49.579 -20.733  1.00  0.00    -0.016 C 
HETATM   25  C3  UNL     1      -3.851  49.854 -19.270  1.00  0.00    -0.032 C 
HETATM   26  C4  UNL     1      -4.526  49.058 -18.418  1.00  0.00     0.099 C 
HETATM   27  N1  UNL     1      -5.396  48.038 -18.804  1.00  0.00    -0.354 N 
HETATM   28  C5  UNL     1      -6.344  47.492 -17.792  1.00  0.00     0.133 C 
HETATM   29  C16 UNL     1      -5.740  47.960 -20.175  1.00  0.00     0.062 C 
HETATM   30  C6  UNL     1      -7.141  46.295 -18.318  1.00  0.00     0.062 C 
HETATM   31  C7  UNL     1      -7.690  46.581 -19.678  1.00  0.00    -0.012 C 
HETATM   32  C8  UNL     1      -8.859  46.305 -20.255  1.00  0.00     0.033 A 
HETATM   33  C15 UNL     1      -6.848  47.321 -20.599  1.00  0.00     0.067 C 
HETATM   34  C9  UNL     1     -10.088  45.668 -19.878  1.00  0.00     0.081 A 
HETATM   35  C14 UNL     1      -8.634  46.831 -21.617  1.00  0.00     0.046 A 
HETATM   36  C11 UNL     1     -11.074  45.606 -20.803  1.00  0.00     0.038 A 
HETATM   37  C12 UNL     1     -10.892  46.124 -22.156  1.00  0.00     0.005 A 
HETATM   38  C13 UNL     1      -9.748  46.694 -22.577  1.00  0.00     0.030 A 
HETATM   39  N2  UNL     1      -7.464  47.365 -21.832  1.00  0.00    -0.353 N 
ATOM     40  H2  UNL     1      -7.091  47.730 -22.709  1.00  0.00     0.166 HD
HETATM   41  C17 UNL     1      -4.871  48.670 -21.110  1.00  0.00     0.044 C 
BRANCH  25  42
HETATM   42  C2  UNL     1      -3.107  51.045 -18.710  1.00  0.00     0.036 C 
HETATM   43  C1  UNL     1      -2.684  50.841 -17.253  1.00  0.00     0.010 C 
ENDBRANCH  25  42
BRANCH  34  44
HETATM   44  O1  UNL     1     -10.115  45.218 -18.580  1.00  0.00    -0.355 OA
HETATM   45  C10 UNL     1     -11.255  45.539 -17.795  1.00  0.00     0.210 C 
ENDBRANCH  34  44
ENDBRANCH   1  24
BRANCH  22  46
HETATM   46  O3  UNL     1      -4.891  50.778 -23.281  1.00  0.00    -0.390 OA
HETATM   47  H42 UNL     1      -5.210  50.886 -22.360  1.00  0.00     0.210 HD
ENDBRANCH  22  46
BRANCH  17  48
HETATM   48  C34 UNL     1      -3.575  48.375 -26.117  1.00  0.00     0.191 C 
BRANCH  48  49
HETATM   49  O2  UNL     1      -4.862  48.769 -26.557  1.00  0.00    -0.397 OA
HETATM   50  H35 UNL     1      -5.423  48.907 -25.771  1.00  0.00     0.209 HD
ENDBRANCH  48  49
ENDBRANCH  17  48
TORSDOF 7
ENDMDL
MODEL 8
REMARK minimizedAffinity -9.81485462
REMARK CNNscore 0.206403017
REMARK CNNaffinity 7.58317566
REMARK  7 active torsions:
REMARK  status: ('A' for Active; 'I' for Inactive)
REMARK    1  A    between atoms: C2_2  and  C3_3 
REMARK    2  A    between atoms: C9_10  and  O1_11 
REMARK    3  A    between atoms: C18_22  and  C19_23 
REMARK    4  A    between atoms: C33_39  and  C34_40 
REMARK    5  A    between atoms: C34_40  and  O2_41 
REMARK    6  A    between atoms: C35_42  and  C38_45 
REMARK    7  A    between atoms: C39_46  and  O3_47 
ROOT
HETATM    1  C19 UNL     1      -0.113  50.331 -14.870  1.00  0.00    -0.003 C 
HETATM    2  C20 UNL     1       0.357  49.136 -14.447  1.00  0.00     0.102 C 
HETATM    3  N3  UNL     1      -0.082  48.482 -13.306  1.00  0.00    -0.349 N 
HETATM    4  C21 UNL     1      -0.402  47.107 -13.239  1.00  0.00     0.041 A 
HETATM    5  C22 UNL     1       0.057  46.090 -14.069  1.00  0.00     0.030 A 
HETATM    6  C23 UNL     1      -0.397  44.787 -13.869  1.00  0.00     0.002 A 
HETATM    7  C24 UNL     1      -1.290  44.496 -12.833  1.00  0.00     0.001 A 
HETATM    8  C25 UNL     1      -1.744  45.508 -11.991  1.00  0.00     0.010 A 
HETATM    9  C26 UNL     1      -1.306  46.812 -12.210  1.00  0.00    -0.018 A 
HETATM   10  C27 UNL     1      -1.649  48.069 -11.448  1.00  0.00     0.041 C 
HETATM   11  C28 UNL     1      -0.975  48.062 -10.056  1.00  0.00     0.046 C 
HETATM   12  C29 UNL     1      -2.096  47.980  -9.046  1.00  0.00     0.239 C 
HETATM   13  N4  UNL     1      -3.285  48.678  -9.700  1.00  0.00    -0.062 N 
HETATM   14  C30 UNL     1      -4.568  48.181  -9.026  1.00  0.00     0.273 C 
HETATM   15  C31 UNL     1      -3.242  50.204  -9.578  1.00  0.00     0.271 C 
HETATM   16  C32 UNL     1      -2.688  50.984 -10.762  1.00  0.00    -0.051 C 
HETATM   17  C33 UNL     1      -1.958  52.086 -10.458  1.00  0.00     0.004 C 
HETATM   18  C35 UNL     1      -3.078  50.511 -12.182  1.00  0.00     0.027 C 
HETATM   19  C36 UNL     1      -3.960  49.262 -12.009  1.00  0.00     0.044 C 
HETATM   20  C37 UNL     1      -3.184  48.236 -11.177  1.00  0.00     0.206 C 
HETATM   21  C38 UNL     1      -1.964  49.991 -13.138  1.00  0.00     0.052 C 
HETATM   22  C39 UNL     1      -1.232  50.989 -14.049  1.00  0.00     0.160 C 
HETATM   23  C40 UNL     1      -0.972  49.154 -12.353  1.00  0.00     0.112 C 
ENDROOT
BRANCH   1  24
HETATM   24  C18 UNL     1       0.394  50.995 -16.099  1.00  0.00    -0.016 C 
HETATM   25  C3  UNL     1       1.644  51.800 -16.214  1.00  0.00    -0.032 C 
HETATM   26  C4  UNL     1       1.809  52.593 -17.290  1.00  0.00     0.099 C 
HETATM   27  N1  UNL     1       0.935  52.651 -18.376  1.00  0.00    -0.354 N 
HETATM   28  C5  UNL     1       1.414  53.276 -19.641  1.00  0.00     0.133 C 
HETATM   29  C16 UNL     1      -0.088  51.675 -18.441  1.00  0.00     0.062 C 
HETATM   30  C6  UNL     1       0.311  53.387 -20.698  1.00  0.00     0.062 C 
HETATM   31  C7  UNL     1      -0.438  52.100 -20.817  1.00  0.00    -0.012 C 
HETATM   32  C8  UNL     1      -0.923  51.432 -21.864  1.00  0.00     0.033 A 
HETATM   33  C15 UNL     1      -0.709  51.366 -19.595  1.00  0.00     0.067 C 
HETATM   34  C9  UNL     1      -0.941  51.591 -23.289  1.00  0.00     0.081 A 
HETATM   35  C14 UNL     1      -1.595  50.301 -21.191  1.00  0.00     0.046 A 
HETATM   36  C11 UNL     1      -1.557  50.634 -24.021  1.00  0.00     0.038 A 
HETATM   37  C12 UNL     1      -2.224  49.496 -23.393  1.00  0.00     0.005 A 
HETATM   38  C13 UNL     1      -2.274  49.318 -22.060  1.00  0.00     0.030 A 
HETATM   39  N2  UNL     1      -1.521  50.289 -19.890  1.00  0.00    -0.353 N 
ATOM     40  H2  UNL     1      -1.960  49.637 -19.240  1.00  0.00     0.166 HD
HETATM   41  C17 UNL     1      -0.392  50.962 -17.203  1.00  0.00     0.044 C 
BRANCH  25  42
HETATM   42  C2  UNL     1       2.774  51.694 -15.215  1.00  0.00     0.036 C 
HETATM   43  C1  UNL     1       4.101  52.219 -15.772  1.00  0.00     0.010 C 
ENDBRANCH  25  42
BRANCH  34  44
HETATM   44  O1  UNL     1      -0.286  52.710 -23.741  1.00  0.00    -0.355 OA
HETATM   45  C10 UNL     1       0.686  52.538 -24.762  1.00  0.00     0.210 C 
ENDBRANCH  34  44
ENDBRANCH   1  24
BRANCH  22  46
HETATM   46  O3  UNL     1      -2.239  51.592 -14.857  1.00  0.00    -0.390 OA
HETATM   47  H42 UNL     1      -1.985  51.465 -15.795  1.00  0.00     0.210 HD
ENDBRANCH  22  46
BRANCH  17  48
HETATM   48  C34 UNL     1      -1.397  53.147 -11.332  1.00  0.00     0.191 C 
BRANCH  48  49
HETATM   49  O2  UNL     1      -2.000  54.352 -10.896  1.00  0.00    -0.397 OA
HETATM   50  H35 UNL     1      -2.385  54.798 -11.673  1.00  0.00     0.209 HD
ENDBRANCH  48  49
ENDBRANCH  17  48
TORSDOF 7
ENDMDL
MODEL 9
REMARK minimizedAffinity -11.1061993
REMARK CNNscore 0.19515872
REMARK CNNaffinity 7.39515495
REMARK  7 active torsions:
REMARK  status: ('A' for Active; 'I' for Inactive)
REMARK    1  A    between atoms: C2_2  and  C3_3 
REMARK    2  A    between atoms: C9_10  and  O1_11 
REMARK    3  A    between atoms: C18_22  and  C19_23 
REMARK    4  A    between atoms: C33_39  and  C34_40 
REMARK    5  A    between atoms: C34_40  and  O2_41 
REMARK    6  A    between atoms: C35_42  and  C38_45 
REMARK    7  A    between atoms: C39_46  and  O3_47 
ROOT
HETATM    1  C19 UNL     1      -1.002  51.239 -20.075  1.00  0.00    -0.003 C 
HETATM    2  C20 UNL     1      -0.643  51.055 -21.365  1.00  0.00     0.102 C 
HETATM    3  N3  UNL     1      -1.481  50.549 -22.346  1.00  0.00    -0.349 N 
HETATM    4  C21 UNL     1      -1.624  51.094 -23.644  1.00  0.00     0.041 A 
HETATM    5  C22 UNL     1      -0.709  51.878 -24.337  1.00  0.00     0.030 A 
HETATM    6  C23 UNL     1      -1.040  52.355 -25.605  1.00  0.00     0.002 A 
HETATM    7  C24 UNL     1      -2.271  52.036 -26.186  1.00  0.00     0.001 A 
HETATM    8  C25 UNL     1      -3.187  51.242 -25.501  1.00  0.00     0.010 A 
HETATM    9  C26 UNL     1      -2.860  50.787 -24.225  1.00  0.00    -0.018 A 
HETATM   10  C27 UNL     1      -3.672  49.924 -23.289  1.00  0.00     0.041 C 
HETATM   11  C28 UNL     1      -3.734  48.469 -23.807  1.00  0.00     0.046 C 
HETATM   12  C29 UNL     1      -5.178  48.211 -24.172  1.00  0.00     0.239 C 
HETATM   13  N4  UNL     1      -5.997  49.091 -23.231  1.00  0.00    -0.062 N 
HETATM   14  C30 UNL     1      -7.374  49.321 -23.862  1.00  0.00     0.273 C 
HETATM   15  C31 UNL     1      -6.204  48.477 -21.844  1.00  0.00     0.271 C 
HETATM   16  C32 UNL     1      -5.260  48.922 -20.735  1.00  0.00    -0.051 C 
HETATM   17  C33 UNL     1      -4.899  47.966 -19.843  1.00  0.00     0.004 C 
HETATM   18  C35 UNL     1      -4.878  50.419 -20.673  1.00  0.00     0.027 C 
HETATM   19  C36 UNL     1      -5.577  51.107 -21.858  1.00  0.00     0.044 C 
HETATM   20  C37 UNL     1      -5.163  50.388 -23.146  1.00  0.00     0.206 C 
HETATM   21  C38 UNL     1      -3.391  50.830 -20.892  1.00  0.00     0.052 C 
HETATM   22  C39 UNL     1      -2.447  50.896 -19.681  1.00  0.00     0.160 C 
HETATM   23  C40 UNL     1      -2.789  49.983 -21.996  1.00  0.00     0.112 C 
ENDROOT
BRANCH   1  24
HETATM   24  C18 UNL     1      -0.064  51.781 -19.057  1.00  0.00    -0.016 C 
HETATM   25  C3  UNL     1       0.822  52.968 -19.220  1.00  0.00    -0.032 C 
HETATM   26  C4  UNL     1       1.833  53.149 -18.347  1.00  0.00     0.099 C 
HETATM   27  N1  UNL     1       2.063  52.353 -17.224  1.00  0.00    -0.354 N 
HETATM   28  C5  UNL     1       2.968  52.873 -16.160  1.00  0.00     0.133 C 
HETATM   29  C16 UNL     1       1.061  51.418 -16.871  1.00  0.00     0.062 C 
HETATM   30  C6  UNL     1       3.231  51.844 -15.056  1.00  0.00     0.062 C 
HETATM   31  C7  UNL     1       1.954  51.210 -14.611  1.00  0.00    -0.012 C 
HETATM   32  C8  UNL     1       1.492  50.856 -13.411  1.00  0.00     0.033 A 
HETATM   33  C15 UNL     1       0.964  50.908 -15.628  1.00  0.00     0.067 C 
HETATM   34  C9  UNL     1       1.946  50.929 -12.052  1.00  0.00     0.081 A 
HETATM   35  C14 UNL     1       0.206  50.228 -13.777  1.00  0.00     0.046 A 
HETATM   36  C11 UNL     1       1.128  50.445 -11.089  1.00  0.00     0.038 A 
HETATM   37  C12 UNL     1      -0.155  49.826 -11.411  1.00  0.00     0.005 A 
HETATM   38  C13 UNL     1      -0.613  49.694 -12.669  1.00  0.00     0.030 A 
HETATM   39  N2  UNL     1      -0.074  50.208 -15.050  1.00  0.00    -0.353 N 
ATOM     40  H2  UNL     1      -0.875  49.775 -15.511  1.00  0.00     0.166 HD
HETATM   41  C17 UNL     1       0.086  51.082 -17.906  1.00  0.00     0.044 C 
BRANCH  25  42
HETATM   42  C2  UNL     1       0.579  54.028 -20.270  1.00  0.00     0.036 C 
HETATM   43  C1  UNL     1       1.622  53.995 -21.391  1.00  0.00     0.010 C 
ENDBRANCH  25  42
BRANCH  34  44
HETATM   44  O1  UNL     1       3.174  51.525 -11.898  1.00  0.00    -0.355 OA
HETATM   45  C10 UNL     1       3.296  52.537 -10.909  1.00  0.00     0.210 C 
ENDBRANCH  34  44
ENDBRANCH   1  24
BRANCH  22  46
HETATM   46  O3  UNL     1      -3.024  51.844 -18.787  1.00  0.00    -0.390 OA
HETATM   47  H42 UNL     1      -2.346  52.526 -18.598  1.00  0.00     0.210 HD
ENDBRANCH  22  46
BRANCH  17  48
HETATM   48  C34 UNL     1      -4.129  48.064 -18.578  1.00  0.00     0.191 C 
BRANCH  48  49
HETATM   49  O2  UNL     1      -5.011  48.664 -17.646  1.00  0.00    -0.397 OA
HETATM   50  H35 UNL     1      -4.555  49.426 -17.243  1.00  0.00     0.209 HD
ENDBRANCH  48  49
ENDBRANCH  17  48
TORSDOF 7
ENDMDL
