MODEL 1
REMARK minimizedAffinity -10.0900154
REMARK CNNscore 0.573511243
REMARK CNNaffinity 7.54102278
REMARK  9 active torsions:
REMARK  status: ('A' for Active; 'I' for Inactive)
REMARK    1  A    between atoms: C2_2  and  O1_3 
REMARK    2  A    between atoms: O1_3  and  C3_4 
REMARK    3  A    between atoms: C14_15  and  O2_16 
REMARK    4  A    between atoms: O2_16  and  C15_17 
REMARK    5  A    between atoms: C21_24  and  O4_25 
REMARK    6  A    between atoms: O4_25  and  C22_26 
REMARK    7  A    between atoms: C24_29  and  O6_30 
REMARK    8  A    between atoms: C25_31  and  O7_32 
REMARK    9  A    between atoms: C26_33  and  O8_34 
ROOT
HETATM    1  C3  UNL     1      -7.662   4.312  13.002  1.00  0.00     0.260 C 
HETATM    2  C4  UNL     1      -7.589   4.592  14.528  1.00  0.00     0.065 C 
HETATM    3  C5  UNL     1      -6.795   5.861  14.938  1.00  0.00    -0.007 C 
HETATM    4  C6  UNL     1      -6.299   5.684  16.369  1.00  0.00     0.010 C 
HETATM    5  C7  UNL     1      -5.745   6.151  13.853  1.00  0.00     0.027 C 
HETATM    6  C8  UNL     1      -5.352   4.844  13.148  1.00  0.00     0.130 C 
HETATM    7  C9  UNL     1      -4.060   5.189  12.405  1.00  0.00     0.042 C 
HETATM    8  C10 UNL     1      -3.301   6.008  13.474  1.00  0.00    -0.029 C 
HETATM    9  C11 UNL     1      -2.823   5.005  14.581  1.00  0.00     0.016 C 
HETATM   10  C12 UNL     1      -2.086   6.821  12.964  1.00  0.00     0.006 C 
HETATM   11  C13 UNL     1      -0.922   5.924  12.525  1.00  0.00     0.039 C 
HETATM   12  C14 UNL     1       0.292   6.738  12.067  1.00  0.00     0.138 C 
HETATM   13  C17 UNL     1       0.917   7.447  13.300  1.00  0.00     0.035 C 
HETATM   14  C18 UNL     1       2.233   8.282  13.042  1.00  0.00    -0.015 C 
HETATM   15  C19 UNL     1       2.008   9.400  12.001  1.00  0.00     0.018 C 
HETATM   16  C20 UNL     1       3.370   7.382  12.492  1.00  0.00     0.018 C 
HETATM   17  C21 UNL     1       2.742   8.871  14.408  1.00  0.00     0.133 C 
HETATM   18  C27 UNL     1       1.659   9.666  15.138  1.00  0.00     0.034 C 
HETATM   19  C28 UNL     1       0.424   8.812  15.382  1.00  0.00     0.013 C 
HETATM   20  C29 UNL     1      -0.129   8.279  14.076  1.00  0.00    -0.025 A 
HETATM   21  C30 UNL     1      -1.088   9.171  13.339  1.00  0.00     0.021 A 
HETATM   22  C31 UNL     1      -1.639   7.904  13.983  1.00  0.00    -0.027 A 
HETATM   23  C32 UNL     1      -2.511   8.132  15.244  1.00  0.00     0.011 C 
HETATM   24  C33 UNL     1      -3.948   7.569  15.296  1.00  0.00     0.011 C 
HETATM   25  C34 UNL     1      -4.425   6.993  13.972  1.00  0.00    -0.030 C 
HETATM   26  C35 UNL     1      -4.662   8.220  13.022  1.00  0.00     0.016 C 
HETATM   27  O9  UNL     1      -6.413   4.448  12.302  1.00  0.00    -0.356 OA
ENDROOT
BRANCH  17  28
HETATM   28  O4  UNL     1       3.883   9.701  14.150  1.00  0.00    -0.353 OA
BRANCH  28  29
HETATM   29  C22 UNL     1       5.081   9.309  14.833  1.00  0.00     0.291 C 
HETATM   30  O5  UNL     1       6.219  10.049  14.392  1.00  0.00    -0.356 OA
HETATM   31  C23 UNL     1       6.746   9.581  13.148  1.00  0.00     0.205 C 
HETATM   32  C24 UNL     1       7.304   8.157  13.275  1.00  0.00     0.173 C 
HETATM   33  C25 UNL     1       6.716   7.439  14.491  1.00  0.00     0.182 C 
HETATM   34  C26 UNL     1       5.241   7.783  14.621  1.00  0.00     0.204 C 
BRANCH  32  35
HETATM   35  O6  UNL     1       8.733   8.171  13.394  1.00  0.00    -0.391 OA
HETATM   36  H39 UNL     1       8.986   7.237  13.542  1.00  0.00     0.210 HD
ENDBRANCH  32  35
BRANCH  33  37
HETATM   37  O7  UNL     1       6.893   6.021  14.337  1.00  0.00    -0.390 OA
HETATM   38  H41 UNL     1       6.355   5.623  15.051  1.00  0.00     0.210 HD
ENDBRANCH  33  37
BRANCH  34  39
HETATM   39  O8  UNL     1       4.675   7.032  15.711  1.00  0.00    -0.388 OA
HETATM   40  H43 UNL     1       3.729   7.274  15.744  1.00  0.00     0.210 HD
ENDBRANCH  34  39
ENDBRANCH  28  29
ENDBRANCH  17  28
BRANCH  12  41
HETATM   41  O2  UNL     1       1.224   5.795  11.494  1.00  0.00    -0.316 OA
BRANCH  41  42
HETATM   42  C15 UNL     1       1.472   5.945  10.163  1.00  0.00     0.255 C 
HETATM   43  C16 UNL     1       0.774   7.163   9.639  1.00  0.00     0.126 C 
HETATM   44  O3  UNL     1       2.171   5.209   9.480  1.00  0.00    -0.266 OA
ENDBRANCH  41  42
ENDBRANCH  12  41
BRANCH   1  45
HETATM   45  O1  UNL     1      -8.154   2.971  12.869  1.00  0.00    -0.362 OA
BRANCH  45  46
HETATM   46  C2  UNL     1      -7.159   1.963  13.012  1.00  0.00     0.166 C 
HETATM   47  C1  UNL     1      -6.528   1.562  11.694  1.00  0.00     0.033 C 
ENDBRANCH  45  46
ENDBRANCH   1  45
TORSDOF 9
ENDMDL
MODEL 2
REMARK minimizedAffinity -7.44098043
REMARK CNNscore 0.566906452
REMARK CNNaffinity 6.77736425
REMARK  9 active torsions:
REMARK  status: ('A' for Active; 'I' for Inactive)
REMARK    1  A    between atoms: C2_2  and  O1_3 
REMARK    2  A    between atoms: O1_3  and  C3_4 
REMARK    3  A    between atoms: C14_15  and  O2_16 
REMARK    4  A    between atoms: O2_16  and  C15_17 
REMARK    5  A    between atoms: C21_24  and  O4_25 
REMARK    6  A    between atoms: O4_25  and  C22_26 
REMARK    7  A    between atoms: C24_29  and  O6_30 
REMARK    8  A    between atoms: C25_31  and  O7_32 
REMARK    9  A    between atoms: C26_33  and  O8_34 
ROOT
HETATM    1  C3  UNL     1      -2.972 -13.011   6.263  1.00  0.00     0.260 C 
HETATM    2  C4  UNL     1      -3.706 -11.799   6.900  1.00  0.00     0.065 C 
HETATM    3  C5  UNL     1      -5.125 -11.509   6.343  1.00  0.00    -0.007 C 
HETATM    4  C6  UNL     1      -5.448 -10.038   6.578  1.00  0.00     0.010 C 
HETATM    5  C7  UNL     1      -5.198 -12.030   4.899  1.00  0.00     0.027 C 
HETATM    6  C8  UNL     1      -3.796 -12.017   4.270  1.00  0.00     0.130 C 
HETATM    7  C9  UNL     1      -4.054 -12.163   2.769  1.00  0.00     0.042 C 
HETATM    8  C10 UNL     1      -5.242 -11.195   2.566  1.00  0.00    -0.029 C 
HETATM    9  C11 UNL     1      -4.685  -9.735   2.696  1.00  0.00     0.016 C 
HETATM   10  C12 UNL     1      -6.004 -11.333   1.225  1.00  0.00     0.006 C 
HETATM   11  C13 UNL     1      -5.163 -10.882   0.024  1.00  0.00     0.039 C 
HETATM   12  C14 UNL     1      -5.940 -10.978  -1.292  1.00  0.00     0.138 C 
HETATM   13  C17 UNL     1      -7.058  -9.899  -1.295  1.00  0.00     0.035 C 
HETATM   14  C18 UNL     1      -7.928  -9.788  -2.609  1.00  0.00    -0.015 C 
HETATM   15  C19 UNL     1      -8.645 -11.117  -2.936  1.00  0.00     0.018 C 
HETATM   16  C20 UNL     1      -7.048  -9.441  -3.838  1.00  0.00     0.018 C 
HETATM   17  C21 UNL     1      -8.958  -8.612  -2.443  1.00  0.00     0.133 C 
HETATM   18  C27 UNL     1      -9.801  -8.751  -1.175  1.00  0.00     0.034 C 
HETATM   19  C28 UNL     1      -8.918  -8.830   0.062  1.00  0.00     0.013 C 
HETATM   20  C29 UNL     1      -7.953  -9.994  -0.040  1.00  0.00    -0.025 A 
HETATM   21  C30 UNL     1      -8.460 -11.328   0.433  1.00  0.00     0.021 A 
HETATM   22  C31 UNL     1      -7.389 -10.633   1.266  1.00  0.00    -0.027 A 
HETATM   23  C32 UNL     1      -7.880 -10.052   2.616  1.00  0.00     0.011 C 
HETATM   24  C33 UNL     1      -7.190 -10.476   3.932  1.00  0.00     0.011 C 
HETATM   25  C34 UNL     1      -6.189 -11.607   3.757  1.00  0.00    -0.030 C 
HETATM   26  C35 UNL     1      -7.034 -12.900   3.479  1.00  0.00     0.016 C 
HETATM   27  O9  UNL     1      -3.039 -13.072   4.828  1.00  0.00    -0.356 OA
ENDROOT
BRANCH  17  28
HETATM   28  O4  UNL     1      -9.803  -8.579  -3.603  1.00  0.00    -0.353 OA
BRANCH  28  29
HETATM   29  C22 UNL     1     -10.460  -7.327  -3.835  1.00  0.00     0.291 C 
HETATM   30  O5  UNL     1     -11.083  -7.275  -5.118  1.00  0.00    -0.356 OA
HETATM   31  C23 UNL     1     -10.162  -7.016  -6.180  1.00  0.00     0.205 C 
HETATM   32  C24 UNL     1      -9.540  -5.618  -6.056  1.00  0.00     0.173 C 
HETATM   33  C25 UNL     1      -9.654  -5.087  -4.626  1.00  0.00     0.182 C 
HETATM   34  C26 UNL     1      -9.396  -6.217  -3.642  1.00  0.00     0.204 C 
BRANCH  32  35
HETATM   35  O6  UNL     1     -10.176  -4.690  -6.944  1.00  0.00    -0.391 OA
HETATM   36  H39 UNL     1      -9.768  -3.822  -6.743  1.00  0.00     0.210 HD
ENDBRANCH  32  35
BRANCH  33  37
HETATM   37  O7  UNL     1      -8.705  -4.025  -4.437  1.00  0.00    -0.390 OA
HETATM   38  H41 UNL     1      -8.713  -3.852  -3.474  1.00  0.00     0.210 HD
ENDBRANCH  33  37
BRANCH  34  39
HETATM   39  O8  UNL     1      -9.414  -5.690  -2.302  1.00  0.00    -0.388 OA
HETATM   40  H43 UNL     1      -9.229  -6.446  -1.712  1.00  0.00     0.210 HD
ENDBRANCH  34  39
ENDBRANCH  28  29
ENDBRANCH  17  28
BRANCH  12  41
HETATM   41  O2  UNL     1      -4.988 -10.729  -2.348  1.00  0.00    -0.316 OA
BRANCH  41  42
HETATM   42  C15 UNL     1      -4.283 -11.814  -2.775  1.00  0.00     0.255 C 
HETATM   43  C16 UNL     1      -4.710 -12.199  -4.158  1.00  0.00     0.126 C 
HETATM   44  O3  UNL     1      -3.414 -12.396  -2.139  1.00  0.00    -0.266 OA
ENDBRANCH  41  42
ENDBRANCH  12  41
BRANCH   1  45
HETATM   45  O1  UNL     1      -1.604 -12.911   6.685  1.00  0.00    -0.362 OA
BRANCH  45  46
HETATM   46  C2  UNL     1      -0.773 -13.979   6.243  1.00  0.00     0.166 C 
HETATM   47  C1  UNL     1      -0.986 -15.258   7.027  1.00  0.00     0.033 C 
ENDBRANCH  45  46
ENDBRANCH   1  45
TORSDOF 9
ENDMDL
MODEL 3
REMARK minimizedAffinity -8.82098675
REMARK CNNscore 0.443656892
REMARK CNNaffinity 6.83899641
REMARK  9 active torsions:
REMARK  status: ('A' for Active; 'I' for Inactive)
REMARK    1  A    between atoms: C2_2  and  O1_3 
REMARK    2  A    between atoms: O1_3  and  C3_4 
REMARK    3  A    between atoms: C14_15  and  O2_16 
REMARK    4  A    between atoms: O2_16  and  C15_17 
REMARK    5  A    between atoms: C21_24  and  O4_25 
REMARK    6  A    between atoms: O4_25  and  C22_26 
REMARK    7  A    between atoms: C24_29  and  O6_30 
REMARK    8  A    between atoms: C25_31  and  O7_32 
REMARK    9  A    between atoms: C26_33  and  O8_34 
ROOT
HETATM    1  C3  UNL     1      10.134   9.414  13.801  1.00  0.00     0.260 C 
HETATM    2  C4  UNL     1       9.629  10.542  14.742  1.00  0.00     0.065 C 
HETATM    3  C5  UNL     1       8.285  10.258  15.465  1.00  0.00    -0.007 C 
HETATM    4  C6  UNL     1       7.636  11.589  15.827  1.00  0.00     0.010 C 
HETATM    5  C7  UNL     1       7.467   9.279  14.607  1.00  0.00     0.027 C 
HETATM    6  C8  UNL     1       7.856   9.433  13.128  1.00  0.00     0.130 C 
HETATM    7  C9  UNL     1       6.732   8.729  12.366  1.00  0.00     0.042 C 
HETATM    8  C10 UNL     1       5.483   9.238  13.123  1.00  0.00    -0.029 C 
HETATM    9  C11 UNL     1       5.287  10.747  12.742  1.00  0.00     0.016 C 
HETATM   10  C12 UNL     1       4.168   8.468  12.849  1.00  0.00     0.006 C 
HETATM   11  C13 UNL     1       3.648   8.684  11.422  1.00  0.00     0.039 C 
HETATM   12  C14 UNL     1       2.323   7.956  11.175  1.00  0.00     0.138 C 
HETATM   13  C17 UNL     1       1.207   8.650  12.003  1.00  0.00     0.035 C 
HETATM   14  C18 UNL     1      -0.258   8.087  11.823  1.00  0.00    -0.015 C 
HETATM   15  C19 UNL     1      -0.347   6.591  12.196  1.00  0.00     0.018 C 
HETATM   16  C20 UNL     1      -0.731   8.209  10.351  1.00  0.00     0.018 C 
HETATM   17  C21 UNL     1      -1.248   8.949  12.690  1.00  0.00     0.133 C 
HETATM   18  C27 UNL     1      -0.814   9.038  14.153  1.00  0.00     0.034 C 
HETATM   19  C28 UNL     1       0.593   9.607  14.272  1.00  0.00     0.013 C 
HETATM   20  C29 UNL     1       1.583   8.761  13.497  1.00  0.00    -0.025 A 
HETATM   21  C30 UNL     1       2.171   7.583  14.222  1.00  0.00     0.021 A 
HETATM   22  C31 UNL     1       3.084   8.766  13.919  1.00  0.00    -0.027 A 
HETATM   23  C32 UNL     1       3.479   9.624  15.148  1.00  0.00     0.011 C 
HETATM   24  C33 UNL     1       4.970   9.858  15.474  1.00  0.00     0.011 C 
HETATM   25  C34 UNL     1       5.918   9.027  14.623  1.00  0.00    -0.030 C 
HETATM   26  C35 UNL     1       5.771   7.547  15.124  1.00  0.00     0.016 C 
HETATM   27  O9  UNL     1       9.132   8.856  12.933  1.00  0.00    -0.356 OA
ENDROOT
BRANCH  17  28
HETATM   28  O4  UNL     1      -2.559   8.374  12.592  1.00  0.00    -0.353 OA
BRANCH  28  29
HETATM   29  C22 UNL     1      -3.168   8.044  13.846  1.00  0.00     0.291 C 
HETATM   30  O5  UNL     1      -3.360   6.638  13.998  1.00  0.00    -0.356 OA
HETATM   31  C23 UNL     1      -4.498   6.146  13.288  1.00  0.00     0.205 C 
HETATM   32  C24 UNL     1      -5.805   6.722  13.851  1.00  0.00     0.173 C 
HETATM   33  C25 UNL     1      -5.547   8.008  14.639  1.00  0.00     0.182 C 
HETATM   34  C26 UNL     1      -4.495   8.840  13.925  1.00  0.00     0.204 C 
BRANCH  32  35
HETATM   35  O6  UNL     1      -6.458   5.778  14.710  1.00  0.00    -0.391 OA
HETATM   36  H39 UNL     1      -7.231   6.256  15.074  1.00  0.00     0.210 HD
ENDBRANCH  32  35
BRANCH  33  37
HETATM   37  O7  UNL     1      -6.776   8.743  14.763  1.00  0.00    -0.390 OA
HETATM   38  H41 UNL     1      -6.510   9.614  15.120  1.00  0.00     0.210 HD
ENDBRANCH  33  37
BRANCH  34  39
HETATM   39  O8  UNL     1      -4.326  10.088  14.622  1.00  0.00    -0.388 OA
HETATM   40  H43 UNL     1      -3.657  10.591  14.120  1.00  0.00     0.210 HD
ENDBRANCH  34  39
ENDBRANCH  28  29
ENDBRANCH  17  28
BRANCH  12  41
HETATM   41  O2  UNL     1       2.054   8.066   9.761  1.00  0.00    -0.316 OA
BRANCH  41  42
HETATM   42  C15 UNL     1       2.099   6.900   9.059  1.00  0.00     0.255 C 
HETATM   43  C16 UNL     1       2.315   7.178   7.603  1.00  0.00     0.126 C 
HETATM   44  O3  UNL     1       1.992   5.777   9.534  1.00  0.00    -0.266 OA
ENDBRANCH  41  42
ENDBRANCH  12  41
BRANCH   1  45
HETATM   45  O1  UNL     1      11.190   9.993  13.021  1.00  0.00    -0.362 OA
BRANCH  45  46
HETATM   46  C2  UNL     1      12.470   9.952  13.643  1.00  0.00     0.166 C 
HETATM   47  C1  UNL     1      13.509  10.779  12.915  1.00  0.00     0.033 C 
ENDBRANCH  45  46
ENDBRANCH   1  45
TORSDOF 9
ENDMDL
MODEL 4
REMARK minimizedAffinity -8.08606529
REMARK CNNscore 0.362338334
REMARK CNNaffinity 6.677176
REMARK  9 active torsions:
REMARK  status: ('A' for Active; 'I' for Inactive)
REMARK    1  A    between atoms: C2_2  and  O1_3 
REMARK    2  A    between atoms: O1_3  and  C3_4 
REMARK    3  A    between atoms: C14_15  and  O2_16 
REMARK    4  A    between atoms: O2_16  and  C15_17 
REMARK    5  A    between atoms: C21_24  and  O4_25 
REMARK    6  A    between atoms: O4_25  and  C22_26 
REMARK    7  A    between atoms: C24_29  and  O6_30 
REMARK    8  A    between atoms: C25_31  and  O7_32 
REMARK    9  A    between atoms: C26_33  and  O8_34 
ROOT
HETATM    1  C3  UNL     1      -4.789  15.306  20.682  1.00  0.00     0.260 C 
HETATM    2  C4  UNL     1      -3.276  15.465  20.996  1.00  0.00     0.065 C 
HETATM    3  C5  UNL     1      -2.322  15.324  19.780  1.00  0.00    -0.007 C 
HETATM    4  C6  UNL     1      -0.948  14.898  20.286  1.00  0.00     0.010 C 
HETATM    5  C7  UNL     1      -3.000  14.429  18.730  1.00  0.00     0.027 C 
HETATM    6  C8  UNL     1      -3.977  13.465  19.420  1.00  0.00     0.130 C 
HETATM    7  C9  UNL     1      -4.269  12.400  18.361  1.00  0.00     0.042 C 
HETATM    8  C10 UNL     1      -2.856  12.142  17.789  1.00  0.00    -0.029 C 
HETATM    9  C11 UNL     1      -2.046  11.355  18.877  1.00  0.00     0.016 C 
HETATM   10  C12 UNL     1      -2.803  11.364  16.451  1.00  0.00     0.006 C 
HETATM   11  C13 UNL     1      -3.234   9.900  16.606  1.00  0.00     0.039 C 
HETATM   12  C14 UNL     1      -3.133   9.127  15.288  1.00  0.00     0.138 C 
HETATM   13  C17 UNL     1      -1.633   8.953  14.921  1.00  0.00     0.035 C 
HETATM   14  C18 UNL     1      -1.317   8.109  13.623  1.00  0.00    -0.015 C 
HETATM   15  C19 UNL     1      -1.975   8.723  12.367  1.00  0.00     0.018 C 
HETATM   16  C20 UNL     1      -1.858   6.662  13.748  1.00  0.00     0.018 C 
HETATM   17  C21 UNL     1       0.242   7.998  13.452  1.00  0.00     0.133 C 
HETATM   18  C27 UNL     1       0.927   9.364  13.462  1.00  0.00     0.034 C 
HETATM   19  C28 UNL     1       0.611  10.125  14.741  1.00  0.00     0.013 C 
HETATM   20  C29 UNL     1      -0.885  10.304  14.904  1.00  0.00    -0.025 A 
HETATM   21  C30 UNL     1      -1.494  11.502  14.231  1.00  0.00     0.021 A 
HETATM   22  C31 UNL     1      -1.422  11.496  15.754  1.00  0.00    -0.027 A 
HETATM   23  C32 UNL     1      -0.378  12.465  16.366  1.00  0.00     0.011 C 
HETATM   24  C33 UNL     1      -0.825  13.520  17.402  1.00  0.00     0.011 C 
HETATM   25  C34 UNL     1      -2.334  13.612  17.567  1.00  0.00    -0.030 C 
HETATM   26  C35 UNL     1      -2.876  14.288  16.258  1.00  0.00     0.016 C 
HETATM   27  O9  UNL     1      -5.116  14.193  19.832  1.00  0.00    -0.356 OA
ENDROOT
BRANCH  17  28
HETATM   28  O4  UNL     1       0.517   7.310  12.223  1.00  0.00    -0.353 OA
BRANCH  28  29
HETATM   29  C22 UNL     1       1.567   7.882  11.433  1.00  0.00     0.291 C 
HETATM   30  O5  UNL     1       1.065   8.575  10.291  1.00  0.00    -0.356 OA
HETATM   31  C23 UNL     1       0.701   7.702   9.219  1.00  0.00     0.205 C 
HETATM   32  C24 UNL     1       1.924   6.968   8.652  1.00  0.00     0.173 C 
HETATM   33  C25 UNL     1       3.077   6.955   9.658  1.00  0.00     0.182 C 
HETATM   34  C26 UNL     1       2.528   6.727  11.057  1.00  0.00     0.204 C 
BRANCH  32  35
HETATM   35  O6  UNL     1       2.378   7.583   7.439  1.00  0.00    -0.391 OA
HETATM   36  H39 UNL     1       3.194   7.098   7.196  1.00  0.00     0.210 HD
ENDBRANCH  32  35
BRANCH  33  37
HETATM   37  O7  UNL     1       4.005   5.918   9.303  1.00  0.00    -0.390 OA
HETATM   38  H41 UNL     1       4.613   5.855  10.067  1.00  0.00     0.210 HD
ENDBRANCH  33  37
BRANCH  34  39
HETATM   39  O8  UNL     1       3.624   6.623  11.984  1.00  0.00    -0.388 OA
HETATM   40  H43 UNL     1       3.224   6.462  12.860  1.00  0.00     0.210 HD
ENDBRANCH  34  39
ENDBRANCH  28  29
ENDBRANCH  17  28
BRANCH  12  41
HETATM   41  O2  UNL     1      -3.754   7.843  15.518  1.00  0.00    -0.316 OA
BRANCH  41  42
HETATM   42  C15 UNL     1      -5.017   7.703  15.029  1.00  0.00     0.255 C 
HETATM   43  C16 UNL     1      -5.599   6.392  15.462  1.00  0.00     0.126 C 
HETATM   44  O3  UNL     1      -5.612   8.523  14.343  1.00  0.00    -0.266 OA
ENDBRANCH  41  42
ENDBRANCH  12  41
BRANCH   1  45
HETATM   45  O1  UNL     1      -5.443  15.163  21.951  1.00  0.00    -0.362 OA
BRANCH  45  46
HETATM   46  C2  UNL     1      -6.686  14.471  21.896  1.00  0.00     0.166 C 
HETATM   47  C1  UNL     1      -6.844  13.450  23.003  1.00  0.00     0.033 C 
ENDBRANCH  45  46
ENDBRANCH   1  45
TORSDOF 9
ENDMDL
MODEL 5
REMARK minimizedAffinity -9.39252758
REMARK CNNscore 0.349829763
REMARK CNNaffinity 7.23378229
REMARK  9 active torsions:
REMARK  status: ('A' for Active; 'I' for Inactive)
REMARK    1  A    between atoms: C2_2  and  O1_3 
REMARK    2  A    between atoms: O1_3  and  C3_4 
REMARK    3  A    between atoms: C14_15  and  O2_16 
REMARK    4  A    between atoms: O2_16  and  C15_17 
REMARK    5  A    between atoms: C21_24  and  O4_25 
REMARK    6  A    between atoms: O4_25  and  C22_26 
REMARK    7  A    between atoms: C24_29  and  O6_30 
REMARK    8  A    between atoms: C25_31  and  O7_32 
REMARK    9  A    between atoms: C26_33  and  O8_34 
ROOT
HETATM    1  C3  UNL     1       2.676   7.723  13.658  1.00  0.00     0.260 C 
HETATM    2  C4  UNL     1       2.226   9.208  13.721  1.00  0.00     0.065 C 
HETATM    3  C5  UNL     1       0.967   9.489  14.584  1.00  0.00    -0.007 C 
HETATM    4  C6  UNL     1       0.313  10.773  14.087  1.00  0.00     0.010 C 
HETATM    5  C7  UNL     1       0.104   8.218  14.616  1.00  0.00     0.027 C 
HETATM    6  C8  UNL     1       0.345   7.393  13.343  1.00  0.00     0.130 C 
HETATM    7  C9  UNL     1      -0.823   6.406  13.305  1.00  0.00     0.042 C 
HETATM    8  C10 UNL     1      -2.010   7.320  13.686  1.00  0.00    -0.029 C 
HETATM    9  C11 UNL     1      -2.291   8.258  12.462  1.00  0.00     0.016 C 
HETATM   10  C12 UNL     1      -3.318   6.595  14.085  1.00  0.00     0.006 C 
HETATM   11  C13 UNL     1      -3.979   5.882  12.898  1.00  0.00     0.039 C 
HETATM   12  C14 UNL     1      -5.297   5.208  13.292  1.00  0.00     0.138 C 
HETATM   13  C17 UNL     1      -6.352   6.306  13.598  1.00  0.00     0.035 C 
HETATM   14  C18 UNL     1      -7.808   5.807  13.953  1.00  0.00    -0.015 C 
HETATM   15  C19 UNL     1      -7.811   4.883  15.191  1.00  0.00     0.018 C 
HETATM   16  C20 UNL     1      -8.422   4.991  12.786  1.00  0.00     0.018 C 
HETATM   17  C21 UNL     1      -8.738   7.056  14.172  1.00  0.00     0.133 C 
HETATM   18  C27 UNL     1      -8.169   8.031  15.203  1.00  0.00     0.034 C 
HETATM   19  C28 UNL     1      -6.778   8.499  14.804  1.00  0.00     0.013 C 
HETATM   20  C29 UNL     1      -5.839   7.320  14.645  1.00  0.00    -0.025 A 
HETATM   21  C30 UNL     1      -5.145   6.842  15.890  1.00  0.00     0.021 A 
HETATM   22  C31 UNL     1      -4.305   7.538  14.825  1.00  0.00    -0.027 A 
HETATM   23  C32 UNL     1      -3.824   8.964  15.195  1.00  0.00     0.011 C 
HETATM   24  C33 UNL     1      -2.316   9.299  15.157  1.00  0.00     0.011 C 
HETATM   25  C34 UNL     1      -1.428   8.085  14.935  1.00  0.00    -0.030 C 
HETATM   26  C35 UNL     1      -1.476   7.257  16.267  1.00  0.00     0.016 C 
HETATM   27  O9  UNL     1       1.615   6.778  13.435  1.00  0.00    -0.356 OA
ENDROOT
BRANCH  17  28
HETATM   28  O4  UNL     1     -10.032   6.593  14.583  1.00  0.00    -0.353 OA
BRANCH  28  29
HETATM   29  C22 UNL     1     -11.035   6.619  13.560  1.00  0.00     0.291 C 
HETATM   30  O5  UNL     1     -10.843   7.697  12.644  1.00  0.00    -0.356 OA
HETATM   31  C23 UNL     1     -11.294   8.954  13.153  1.00  0.00     0.205 C 
HETATM   32  C24 UNL     1     -12.814   8.963  13.361  1.00  0.00     0.173 C 
HETATM   33  C25 UNL     1     -13.366   7.540  13.467  1.00  0.00     0.182 C 
HETATM   34  C26 UNL     1     -12.408   6.682  14.276  1.00  0.00     0.204 C 
BRANCH  32  35
HETATM   35  O6  UNL     1     -13.479   9.636  12.284  1.00  0.00    -0.391 OA
HETATM   36  H39 UNL     1     -14.435   9.527  12.465  1.00  0.00     0.210 HD
ENDBRANCH  32  35
BRANCH  33  37
HETATM   37  O7  UNL     1     -14.661   7.578  14.090  1.00  0.00    -0.390 OA
HETATM   38  H41 UNL     1     -14.875   6.642  14.277  1.00  0.00     0.210 HD
ENDBRANCH  33  37
BRANCH  34  39
HETATM   39  O8  UNL     1     -12.978   5.372  14.450  1.00  0.00    -0.388 OA
HETATM   40  H43 UNL     1     -12.337   4.866  14.985  1.00  0.00     0.210 HD
ENDBRANCH  34  39
ENDBRANCH  28  29
ENDBRANCH  17  28
BRANCH  12  41
HETATM   41  O2  UNL     1      -5.703   4.412  12.157  1.00  0.00    -0.316 OA
BRANCH  41  42
HETATM   42  C15 UNL     1      -5.088   3.203  12.034  1.00  0.00     0.255 C 
HETATM   43  C16 UNL     1      -5.994   2.228  11.345  1.00  0.00     0.126 C 
HETATM   44  O3  UNL     1      -3.956   2.936  12.414  1.00  0.00    -0.266 OA
ENDBRANCH  41  42
ENDBRANCH  12  41
BRANCH   1  45
HETATM   45  O1  UNL     1       3.633   7.645  12.592  1.00  0.00    -0.362 OA
BRANCH  45  46
HETATM   46  C2  UNL     1       3.291   6.724  11.561  1.00  0.00     0.166 C 
HETATM   47  C1  UNL     1       4.457   6.390  10.655  1.00  0.00     0.033 C 
ENDBRANCH  45  46
ENDBRANCH   1  45
TORSDOF 9
ENDMDL
MODEL 6
REMARK minimizedAffinity -6.84049892
REMARK CNNscore 0.285453379
REMARK CNNaffinity 5.8859458
REMARK  9 active torsions:
REMARK  status: ('A' for Active; 'I' for Inactive)
REMARK    1  A    between atoms: C2_2  and  O1_3 
REMARK    2  A    between atoms: O1_3  and  C3_4 
REMARK    3  A    between atoms: C14_15  and  O2_16 
REMARK    4  A    between atoms: O2_16  and  C15_17 
REMARK    5  A    between atoms: C21_24  and  O4_25 
REMARK    6  A    between atoms: O4_25  and  C22_26 
REMARK    7  A    between atoms: C24_29  and  O6_30 
REMARK    8  A    between atoms: C25_31  and  O7_32 
REMARK    9  A    between atoms: C26_33  and  O8_34 
ROOT
HETATM    1  C3  UNL     1      -6.990  16.539  26.432  1.00  0.00     0.260 C 
HETATM    2  C4  UNL     1      -6.049  16.925  25.258  1.00  0.00     0.065 C 
HETATM    3  C5  UNL     1      -6.724  17.026  23.864  1.00  0.00    -0.007 C 
HETATM    4  C6  UNL     1      -5.664  16.801  22.793  1.00  0.00     0.010 C 
HETATM    5  C7  UNL     1      -7.954  16.103  23.851  1.00  0.00     0.027 C 
HETATM    6  C8  UNL     1      -7.748  14.947  24.841  1.00  0.00     0.130 C 
HETATM    7  C9  UNL     1      -8.814  13.921  24.452  1.00  0.00     0.042 C 
HETATM    8  C10 UNL     1      -8.708  13.939  22.910  1.00  0.00    -0.029 C 
HETATM    9  C11 UNL     1      -7.366  13.227  22.523  1.00  0.00     0.016 C 
HETATM   10  C12 UNL     1      -9.878  13.271  22.146  1.00  0.00     0.006 C 
HETATM   11  C13 UNL     1      -9.908  11.749  22.334  1.00  0.00     0.039 C 
HETATM   12  C14 UNL     1     -11.040  11.093  21.537  1.00  0.00     0.138 C 
HETATM   13  C17 UNL     1     -10.713  11.195  20.022  1.00  0.00     0.035 C 
HETATM   14  C18 UNL     1     -11.732  10.504  19.032  1.00  0.00    -0.015 C 
HETATM   15  C19 UNL     1     -13.156  11.082  19.180  1.00  0.00     0.018 C 
HETATM   16  C20 UNL     1     -11.837   8.981  19.306  1.00  0.00     0.018 C 
HETATM   17  C21 UNL     1     -11.203  10.664  17.559  1.00  0.00     0.133 C 
HETATM   18  C27 UNL     1     -10.912  12.121  17.201  1.00  0.00     0.034 C 
HETATM   19  C28 UNL     1      -9.909  12.732  18.169  1.00  0.00     0.013 C 
HETATM   20  C29 UNL     1     -10.418  12.650  19.594  1.00  0.00    -0.025 A 
HETATM   21  C30 UNL     1     -11.305  13.773  20.055  1.00  0.00     0.021 A 
HETATM   22  C31 UNL     1      -9.904  13.677  20.648  1.00  0.00    -0.027 A 
HETATM   23  C32 UNL     1      -8.910  14.763  20.162  1.00  0.00     0.011 C 
HETATM   24  C33 UNL     1      -8.186  15.658  21.192  1.00  0.00     0.011 C 
HETATM   25  C34 UNL     1      -8.699  15.487  22.614  1.00  0.00    -0.030 C 
HETATM   26  C35 UNL     1     -10.121  16.150  22.649  1.00  0.00     0.016 C 
HETATM   27  O9  UNL     1      -7.883  15.446  26.156  1.00  0.00    -0.356 OA
ENDROOT
BRANCH  17  28
HETATM   28  O4  UNL     1     -12.179  10.115  16.663  1.00  0.00    -0.353 OA
BRANCH  28  29
HETATM   29  C22 UNL     1     -11.653   9.229  15.667  1.00  0.00     0.291 C 
HETATM   30  O5  UNL     1     -10.827   9.910  14.723  1.00  0.00    -0.356 OA
HETATM   31  C23 UNL     1     -11.574  10.621  13.732  1.00  0.00     0.205 C 
HETATM   32  C24 UNL     1     -12.377   9.664  12.841  1.00  0.00     0.173 C 
HETATM   33  C25 UNL     1     -12.582   8.311  13.525  1.00  0.00     0.182 C 
HETATM   34  C26 UNL     1     -12.864   8.527  15.003  1.00  0.00     0.204 C 
BRANCH  32  35
HETATM   35  O6  UNL     1     -11.717   9.450  11.586  1.00  0.00    -0.391 OA
HETATM   36  H39 UNL     1     -12.259   8.779  11.123  1.00  0.00     0.210 HD
ENDBRANCH  32  35
BRANCH  33  37
HETATM   37  O7  UNL     1     -13.674   7.622  12.897  1.00  0.00    -0.390 OA
HETATM   38  H41 UNL     1     -13.857   6.858  13.480  1.00  0.00     0.210 HD
ENDBRANCH  33  37
BRANCH  34  39
HETATM   39  O8  UNL     1     -13.147   7.258  15.620  1.00  0.00    -0.388 OA
HETATM   40  H43 UNL     1     -13.336   7.449  16.559  1.00  0.00     0.210 HD
ENDBRANCH  34  39
ENDBRANCH  28  29
ENDBRANCH  17  28
BRANCH  12  41
HETATM   41  O2  UNL     1     -11.087   9.712  21.957  1.00  0.00    -0.316 OA
BRANCH  41  42
HETATM   42  C15 UNL     1     -11.824   9.461  23.074  1.00  0.00     0.255 C 
HETATM   43  C16 UNL     1     -11.171   8.392  23.897  1.00  0.00     0.126 C 
HETATM   44  O3  UNL     1     -12.865  10.024  23.386  1.00  0.00    -0.266 OA
ENDBRANCH  41  42
ENDBRANCH  12  41
BRANCH   1  45
HETATM   45  O1  UNL     1      -6.133  16.206  27.533  1.00  0.00    -0.362 OA
BRANCH  45  46
HETATM   46  C2  UNL     1      -4.743  16.331  27.255  1.00  0.00     0.166 C 
HETATM   47  C1  UNL     1      -3.873  15.556  28.222  1.00  0.00     0.033 C 
ENDBRANCH  45  46
ENDBRANCH   1  45
TORSDOF 9
ENDMDL
MODEL 7
REMARK minimizedAffinity -7.50672436
REMARK CNNscore 0.264011532
REMARK CNNaffinity 6.22462606
REMARK  9 active torsions:
REMARK  status: ('A' for Active; 'I' for Inactive)
REMARK    1  A    between atoms: C2_2  and  O1_3 
REMARK    2  A    between atoms: O1_3  and  C3_4 
REMARK    3  A    between atoms: C14_15  and  O2_16 
REMARK    4  A    between atoms: O2_16  and  C15_17 
REMARK    5  A    between atoms: C21_24  and  O4_25 
REMARK    6  A    between atoms: O4_25  and  C22_26 
REMARK    7  A    between atoms: C24_29  and  O6_30 
REMARK    8  A    between atoms: C25_31  and  O7_32 
REMARK    9  A    between atoms: C26_33  and  O8_34 
ROOT
HETATM    1  C3  UNL     1       3.955  14.632  22.249  1.00  0.00     0.260 C 
HETATM    2  C4  UNL     1       4.658  13.247  22.242  1.00  0.00     0.065 C 
HETATM    3  C5  UNL     1       4.614  12.482  20.892  1.00  0.00    -0.007 C 
HETATM    4  C6  UNL     1       4.766  10.992  21.173  1.00  0.00     0.010 C 
HETATM    5  C7  UNL     1       3.367  12.935  20.116  1.00  0.00     0.027 C 
HETATM    6  C8  UNL     1       2.282  13.401  21.099  1.00  0.00     0.130 C 
HETATM    7  C9  UNL     1       1.003  13.437  20.261  1.00  0.00     0.042 C 
HETATM    8  C10 UNL     1       1.121  12.118  19.464  1.00  0.00    -0.029 C 
HETATM    9  C11 UNL     1       0.862  10.940  20.465  1.00  0.00     0.016 C 
HETATM   10  C12 UNL     1       0.168  11.975  18.251  1.00  0.00     0.006 C 
HETATM   11  C13 UNL     1      -1.299  11.832  18.672  1.00  0.00     0.039 C 
HETATM   12  C14 UNL     1      -2.228  11.644  17.469  1.00  0.00     0.138 C 
HETATM   13  C17 UNL     1      -1.965  10.247  16.844  1.00  0.00     0.035 C 
HETATM   14  C18 UNL     1      -2.884   9.833  15.627  1.00  0.00    -0.015 C 
HETATM   15  C19 UNL     1      -2.767  10.832  14.454  1.00  0.00     0.018 C 
HETATM   16  C20 UNL     1      -4.379   9.801  16.038  1.00  0.00     0.018 C 
HETATM   17  C21 UNL     1      -2.507   8.376  15.173  1.00  0.00     0.133 C 
HETATM   18  C27 UNL     1      -1.015   8.227  14.876  1.00  0.00     0.034 C 
HETATM   19  C28 UNL     1      -0.176   8.614  16.085  1.00  0.00     0.013 C 
HETATM   20  C29 UNL     1      -0.471  10.038  16.510  1.00  0.00    -0.025 A 
HETATM   21  C30 UNL     1       0.313  11.120  15.821  1.00  0.00     0.021 A 
HETATM   22  C31 UNL     1       0.615  10.842  17.289  1.00  0.00    -0.027 A 
HETATM   23  C32 UNL     1       1.969  10.138  17.559  1.00  0.00     0.011 C 
HETATM   24  C33 UNL     1       2.992  10.783  18.519  1.00  0.00     0.011 C 
HETATM   25  C34 UNL     1       2.612  12.189  18.960  1.00  0.00    -0.030 C 
HETATM   26  C35 UNL     1       2.816  13.110  17.705  1.00  0.00     0.016 C 
HETATM   27  O9  UNL     1       2.659  14.656  21.628  1.00  0.00    -0.356 OA
ENDROOT
BRANCH  17  28
HETATM   28  O4  UNL     1      -3.283   8.046  14.012  1.00  0.00    -0.353 OA
BRANCH  28  29
HETATM   29  C22 UNL     1      -3.957   6.782  14.076  1.00  0.00     0.291 C 
HETATM   30  O5  UNL     1      -4.929   6.637  13.041  1.00  0.00    -0.356 OA
HETATM   31  C23 UNL     1      -6.149   7.329  13.314  1.00  0.00     0.205 C 
HETATM   32  C24 UNL     1      -6.870   6.736  14.532  1.00  0.00     0.173 C 
HETATM   33  C25 UNL     1      -5.904   5.943  15.415  1.00  0.00     0.182 C 
HETATM   34  C26 UNL     1      -4.573   6.671  15.494  1.00  0.00     0.204 C 
BRANCH  32  35
HETATM   35  O6  UNL     1      -7.941   5.872  14.129  1.00  0.00    -0.391 OA
HETATM   36  H39 UNL     1      -8.288   5.490  14.961  1.00  0.00     0.210 HD
ENDBRANCH  32  35
BRANCH  33  37
HETATM   37  O7  UNL     1      -6.475   5.790  16.725  1.00  0.00    -0.390 OA
HETATM   38  H41 UNL     1      -5.749   5.432  17.274  1.00  0.00     0.210 HD
ENDBRANCH  33  37
BRANCH  34  39
HETATM   39  O8  UNL     1      -3.702   5.968  16.398  1.00  0.00    -0.388 OA
HETATM   40  H43 UNL     1      -2.870   6.480  16.427  1.00  0.00     0.210 HD
ENDBRANCH  34  39
ENDBRANCH  28  29
ENDBRANCH  17  28
BRANCH  12  41
HETATM   41  O2  UNL     1      -3.577  11.731  17.976  1.00  0.00    -0.316 OA
BRANCH  41  42
HETATM   42  C15 UNL     1      -3.998  12.978  18.326  1.00  0.00     0.255 C 
HETATM   43  C16 UNL     1      -4.532  12.973  19.726  1.00  0.00     0.126 C 
HETATM   44  O3  UNL     1      -3.943  13.974  17.618  1.00  0.00    -0.266 OA
ENDBRANCH  41  42
ENDBRANCH  12  41
BRANCH   1  45
HETATM   45  O1  UNL     1       3.845  15.013  23.629  1.00  0.00    -0.362 OA
BRANCH  45  46
HETATM   46  C2  UNL     1       4.429  16.273  23.940  1.00  0.00     0.166 C 
HETATM   47  C1  UNL     1       3.753  16.968  25.103  1.00  0.00     0.033 C 
ENDBRANCH  45  46
ENDBRANCH   1  45
TORSDOF 9
ENDMDL
MODEL 8
REMARK minimizedAffinity -8.17353916
REMARK CNNscore 0.245833322
REMARK CNNaffinity 6.63123131
REMARK  9 active torsions:
REMARK  status: ('A' for Active; 'I' for Inactive)
REMARK    1  A    between atoms: C2_2  and  O1_3 
REMARK    2  A    between atoms: O1_3  and  C3_4 
REMARK    3  A    between atoms: C14_15  and  O2_16 
REMARK    4  A    between atoms: O2_16  and  C15_17 
REMARK    5  A    between atoms: C21_24  and  O4_25 
REMARK    6  A    between atoms: O4_25  and  C22_26 
REMARK    7  A    between atoms: C24_29  and  O6_30 
REMARK    8  A    between atoms: C25_31  and  O7_32 
REMARK    9  A    between atoms: C26_33  and  O8_34 
ROOT
HETATM    1  C3  UNL     1      -4.575   3.662  11.710  1.00  0.00     0.260 C 
HETATM    2  C4  UNL     1      -5.840   3.827  12.596  1.00  0.00     0.065 C 
HETATM    3  C5  UNL     1      -6.157   5.278  13.045  1.00  0.00    -0.007 C 
HETATM    4  C6  UNL     1      -6.982   5.222  14.326  1.00  0.00     0.010 C 
HETATM    5  C7  UNL     1      -4.843   6.076  13.082  1.00  0.00     0.027 C 
HETATM    6  C8  UNL     1      -3.665   5.125  13.344  1.00  0.00     0.130 C 
HETATM    7  C9  UNL     1      -2.515   6.050  13.748  1.00  0.00     0.042 C 
HETATM    8  C10 UNL     1      -3.232   7.031  14.704  1.00  0.00    -0.029 C 
HETATM    9  C11 UNL     1      -3.548   6.250  16.027  1.00  0.00     0.016 C 
HETATM   10  C12 UNL     1      -2.456   8.325  15.049  1.00  0.00     0.006 C 
HETATM   11  C13 UNL     1      -1.221   8.055  15.917  1.00  0.00     0.039 C 
HETATM   12  C14 UNL     1      -0.486   9.346  16.292  1.00  0.00     0.138 C 
HETATM   13  C17 UNL     1      -1.368  10.157  17.281  1.00  0.00     0.035 C 
HETATM   14  C18 UNL     1      -0.747  11.495  17.846  1.00  0.00    -0.015 C 
HETATM   15  C19 UNL     1      -0.389  12.484  16.714  1.00  0.00     0.018 C 
HETATM   16  C20 UNL     1       0.563  11.220  18.628  1.00  0.00     0.018 C 
HETATM   17  C21 UNL     1      -1.757  12.138  18.865  1.00  0.00     0.133 C 
HETATM   18  C27 UNL     1      -3.148  12.330  18.262  1.00  0.00     0.034 C 
HETATM   19  C28 UNL     1      -3.711  11.010  17.755  1.00  0.00     0.013 C 
HETATM   20  C29 UNL     1      -2.789  10.394  16.722  1.00  0.00    -0.025 A 
HETATM   21  C30 UNL     1      -2.982  10.839  15.300  1.00  0.00     0.021 A 
HETATM   22  C31 UNL     1      -3.378   9.412  15.664  1.00  0.00    -0.027 A 
HETATM   23  C32 UNL     1      -4.904   9.144  15.708  1.00  0.00     0.011 C 
HETATM   24  C33 UNL     1      -5.510   8.014  14.848  1.00  0.00     0.011 C 
HETATM   25  C34 UNL     1      -4.521   7.392  13.873  1.00  0.00    -0.030 C 
HETATM   26  C35 UNL     1      -4.277   8.467  12.755  1.00  0.00     0.016 C 
HETATM   27  O9  UNL     1      -3.416   4.377  12.171  1.00  0.00    -0.356 OA
ENDROOT
BRANCH  17  28
HETATM   28  O4  UNL     1      -1.224  13.397  19.302  1.00  0.00    -0.353 OA
BRANCH  28  29
HETATM   29  C22 UNL     1      -2.031  14.537  18.984  1.00  0.00     0.291 C 
HETATM   30  O5  UNL     1      -1.406  15.390  18.026  1.00  0.00    -0.356 OA
HETATM   31  C23 UNL     1      -0.399  16.231  18.593  1.00  0.00     0.205 C 
HETATM   32  C24 UNL     1      -1.000  17.233  19.588  1.00  0.00     0.173 C 
HETATM   33  C25 UNL     1      -2.366  16.763  20.090  1.00  0.00     0.182 C 
HETATM   34  C26 UNL     1      -2.335  15.261  20.320  1.00  0.00     0.204 C 
BRANCH  32  35
HETATM   35  O6  UNL     1      -1.149  18.528  18.989  1.00  0.00    -0.391 OA
HETATM   36  H39 UNL     1      -1.601  19.072  19.667  1.00  0.00     0.210 HD
ENDBRANCH  32  35
BRANCH  33  37
HETATM   37  O7  UNL     1      -2.689  17.455  21.307  1.00  0.00    -0.390 OA
HETATM   38  H41 UNL     1      -3.478  16.992  21.656  1.00  0.00     0.210 HD
ENDBRANCH  33  37
BRANCH  34  39
HETATM   39  O8  UNL     1      -3.593  14.841  20.879  1.00  0.00    -0.388 OA
HETATM   40  H43 UNL     1      -3.518  13.878  21.022  1.00  0.00     0.210 HD
ENDBRANCH  34  39
ENDBRANCH  28  29
ENDBRANCH  17  28
BRANCH  12  41
HETATM   41  O2  UNL     1       0.750   8.944  16.922  1.00  0.00    -0.316 OA
BRANCH  41  42
HETATM   42  C15 UNL     1       1.839   8.894  16.106  1.00  0.00     0.255 C 
HETATM   43  C16 UNL     1       1.731   9.933  15.032  1.00  0.00     0.126 C 
HETATM   44  O3  UNL     1       2.785   8.127  16.224  1.00  0.00    -0.266 OA
ENDBRANCH  41  42
ENDBRANCH  12  41
BRANCH   1  45
HETATM   45  O1  UNL     1      -4.299   2.254  11.672  1.00  0.00    -0.362 OA
BRANCH  45  46
HETATM   46  C2  UNL     1      -2.917   1.924  11.760  1.00  0.00     0.166 C 
HETATM   47  C1  UNL     1      -2.136   2.312  10.522  1.00  0.00     0.033 C 
ENDBRANCH  45  46
ENDBRANCH   1  45
TORSDOF 9
ENDMDL
MODEL 9
REMARK minimizedAffinity -7.51198721
REMARK CNNscore 0.241743714
REMARK CNNaffinity 6.41787529
REMARK  9 active torsions:
REMARK  status: ('A' for Active; 'I' for Inactive)
REMARK    1  A    between atoms: C2_2  and  O1_3 
REMARK    2  A    between atoms: O1_3  and  C3_4 
REMARK    3  A    between atoms: C14_15  and  O2_16 
REMARK    4  A    between atoms: O2_16  and  C15_17 
REMARK    5  A    between atoms: C21_24  and  O4_25 
REMARK    6  A    between atoms: O4_25  and  C22_26 
REMARK    7  A    between atoms: C24_29  and  O6_30 
REMARK    8  A    between atoms: C25_31  and  O7_32 
REMARK    9  A    between atoms: C26_33  and  O8_34 
ROOT
HETATM    1  C3  UNL     1       0.053   6.029  10.639  1.00  0.00     0.260 C 
HETATM    2  C4  UNL     1       0.152   5.191  11.942  1.00  0.00     0.065 C 
HETATM    3  C5  UNL     1      -0.948   5.469  13.002  1.00  0.00    -0.007 C 
HETATM    4  C6  UNL     1      -0.411   5.079  14.374  1.00  0.00     0.010 C 
HETATM    5  C7  UNL     1      -1.447   6.912  12.818  1.00  0.00     0.027 C 
HETATM    6  C8  UNL     1      -0.334   7.774  12.203  1.00  0.00     0.130 C 
HETATM    7  C9  UNL     1      -0.795   9.213  12.441  1.00  0.00     0.042 C 
HETATM    8  C10 UNL     1      -1.301   9.136  13.900  1.00  0.00    -0.029 C 
HETATM    9  C11 UNL     1      -0.043   9.004  14.826  1.00  0.00     0.016 C 
HETATM   10  C12 UNL     1      -2.163  10.330  14.378  1.00  0.00     0.006 C 
HETATM   11  C13 UNL     1      -1.352  11.625  14.508  1.00  0.00     0.039 C 
HETATM   12  C14 UNL     1      -2.203  12.788  15.027  1.00  0.00     0.138 C 
HETATM   13  C17 UNL     1      -2.568  12.521  16.512  1.00  0.00     0.035 C 
HETATM   14  C18 UNL     1      -3.386  13.651  17.253  1.00  0.00    -0.015 C 
HETATM   15  C19 UNL     1      -4.730  13.940  16.549  1.00  0.00     0.018 C 
HETATM   16  C20 UNL     1      -2.600  14.988  17.279  1.00  0.00     0.018 C 
HETATM   17  C21 UNL     1      -3.607  13.226  18.750  1.00  0.00     0.133 C 
HETATM   18  C27 UNL     1      -4.247  11.843  18.874  1.00  0.00     0.034 C 
HETATM   19  C28 UNL     1      -3.410  10.788  18.165  1.00  0.00     0.013 C 
HETATM   20  C29 UNL     1      -3.230  11.138  16.702  1.00  0.00    -0.025 A 
HETATM   21  C30 UNL     1      -4.312  10.678  15.765  1.00  0.00     0.021 A 
HETATM   22  C31 UNL     1      -2.950   9.999  15.675  1.00  0.00    -0.027 A 
HETATM   23  C32 UNL     1      -2.903   8.546  16.213  1.00  0.00     0.011 C 
HETATM   24  C33 UNL     1      -2.402   7.404  15.301  1.00  0.00     0.011 C 
HETATM   25  C34 UNL     1      -2.182   7.830  13.858  1.00  0.00    -0.030 C 
HETATM   26  C35 UNL     1      -3.610   8.046  13.243  1.00  0.00     0.016 C 
HETATM   27  O9  UNL     1      -0.197   7.431  10.839  1.00  0.00    -0.356 OA
ENDROOT
BRANCH  17  28
HETATM   28  O4  UNL     1      -4.428  14.215  19.388  1.00  0.00    -0.353 OA
BRANCH  28  29
HETATM   29  C22 UNL     1      -5.726  13.756  19.787  1.00  0.00     0.291 C 
HETATM   30  O5  UNL     1      -6.764  14.306  18.978  1.00  0.00    -0.356 OA
HETATM   31  C23 UNL     1      -7.103  15.649  19.334  1.00  0.00     0.205 C 
HETATM   32  C24 UNL     1      -7.707  15.721  20.743  1.00  0.00     0.173 C 
HETATM   33  C25 UNL     1      -7.331  14.490  21.569  1.00  0.00     0.182 C 
HETATM   34  C26 UNL     1      -5.887  14.109  21.287  1.00  0.00     0.204 C 
BRANCH  32  35
HETATM   35  O6  UNL     1      -9.136  15.821  20.688  1.00  0.00    -0.391 OA
HETATM   36  H39 UNL     1      -9.430  15.787  21.622  1.00  0.00     0.210 HD
ENDBRANCH  32  35
BRANCH  33  37
HETATM   37  O7  UNL     1      -7.514  14.780  22.964  1.00  0.00    -0.390 OA
HETATM   38  H41 UNL     1      -7.102  14.026  23.433  1.00  0.00     0.210 HD
ENDBRANCH  33  37
BRANCH  34  39
HETATM   39  O8  UNL     1      -5.513  13.008  22.136  1.00  0.00    -0.388 OA
HETATM   40  H43 UNL     1      -4.579  12.812  21.931  1.00  0.00     0.210 HD
ENDBRANCH  34  39
ENDBRANCH  28  29
ENDBRANCH  17  28
BRANCH  12  41
HETATM   41  O2  UNL     1      -1.388  13.975  14.907  1.00  0.00    -0.316 OA
BRANCH  41  42
HETATM   42  C15 UNL     1      -1.419  14.591  13.692  1.00  0.00     0.255 C 
HETATM   43  C16 UNL     1      -0.082  15.192  13.381  1.00  0.00     0.126 C 
HETATM   44  O3  UNL     1      -2.385  14.646  12.943  1.00  0.00    -0.266 OA
ENDBRANCH  41  42
ENDBRANCH  12  41
BRANCH   1  45
HETATM   45  O1  UNL     1       1.301   5.847   9.955  1.00  0.00    -0.362 OA
BRANCH  45  46
HETATM   46  C2  UNL     1       2.449   6.182  10.729  1.00  0.00     0.166 C 
HETATM   47  C1  UNL     1       3.750   5.823  10.043  1.00  0.00     0.033 C 
ENDBRANCH  45  46
ENDBRANCH   1  45
TORSDOF 9
ENDMDL
