MODEL 1
REMARK minimizedAffinity -8.57992172
REMARK CNNscore 0.653920114
REMARK CNNaffinity 7.49228811
REMARK  18 active torsions:
REMARK  status: ('A' for Active; 'I' for Inactive)
REMARK    1  A    between atoms: C19_20  and  O2_21 
REMARK    2  A    between atoms: C19_20  and  C20_22 
REMARK    3  A    between atoms: C20_22  and  C21_24 
REMARK    4  A    between atoms: C21_24  and  O4_25 
REMARK    5  A    between atoms: O4_25  and  C22_26 
REMARK    6  A    between atoms: C22_26  and  C23_28 
REMARK    7  A    between atoms: C23_28  and  C24_29 
REMARK    8  A    between atoms: C24_29  and  C25_30 
REMARK       I    between atoms: C25_30  and  N1_32 
REMARK    9  A    between atoms: N1_32  and  C26_33 
REMARK   10  A    between atoms: C26_33  and  C27_34 
REMARK   11  A    between atoms: C27_34  and  C28_35 
REMARK   12  A    between atoms: C28_35  and  C29_36 
REMARK   13  A    between atoms: C29_36  and  C30_37 
REMARK   14  A    between atoms: C30_37  and  C31_38 
REMARK       I    between atoms: C31_38  and  N2_40 
REMARK   15  A    between atoms: N2_40  and  C32_41 
REMARK   16  A    between atoms: C32_41  and  C33_42 
REMARK   17  A    between atoms: C36_45  and  C37_46 
REMARK   18  A    between atoms: C37_46  and  O9_48 
ROOT
HETATM    1  C22 UNL     1      -4.544   4.805  13.082  1.00  0.00     0.259 C 
HETATM    2  O5  UNL     1      -5.234   5.786  13.329  1.00  0.00    -0.265 OA
ENDROOT
BRANCH   1   3
HETATM    3  O4  UNL     1      -3.188   4.771  13.192  1.00  0.00    -0.314 OA
BRANCH   3   4
HETATM    4  C21 UNL     1      -2.693   5.116  14.492  1.00  0.00     0.260 C 
BRANCH   4   5
HETATM    5  C20 UNL     1      -2.429   6.617  14.638  1.00  0.00     0.185 C 
HETATM    6  O3  UNL     1      -2.733   7.222  15.668  1.00  0.00    -0.292 OA
BRANCH   5   7
HETATM    7  C19 UNL     1      -1.830   7.340  13.409  1.00  0.00     0.128 C 
HETATM    8  C14 UNL     1      -0.309   7.056  13.103  1.00  0.00    -0.002 C 
HETATM    9  C13 UNL     1      -0.092   5.915  12.100  1.00  0.00     0.013 C 
HETATM   10  C15 UNL     1       0.473   6.746  14.402  1.00  0.00     0.019 C 
HETATM   11  C16 UNL     1       0.230   8.414  12.530  1.00  0.00     0.002 C 
HETATM   12  C12 UNL     1       1.327   5.806  11.535  1.00  0.00     0.007 C 
HETATM   13  C11 UNL     1       2.105   7.134  11.376  1.00  0.00     0.002 C 
HETATM   14  C2  UNL     1       3.148   7.105  10.198  1.00  0.00    -0.016 C 
HETATM   15  C10 UNL     1       1.134   8.343  11.274  1.00  0.00    -0.004 C 
HETATM   16  C1  UNL     1       4.067   8.359  10.295  1.00  0.00     0.020 C 
HETATM   17  C3  UNL     1       4.123   5.891  10.287  1.00  0.00     0.022 C 
HETATM   18  C7  UNL     1       2.378   7.149   8.881  1.00  0.00    -0.068 C 
HETATM   19  C4  UNL     1       3.724   4.643   9.515  1.00  0.00     0.084 C 
HETATM   20  C5  UNL     1       3.276   4.985   8.117  1.00  0.00     0.149 C 
HETATM   21  O1  UNL     1       3.476   4.239   7.161  1.00  0.00    -0.293 OA
HETATM   22  C6  UNL     1       2.473   6.211   7.923  1.00  0.00     0.053 C 
HETATM   23  C8  UNL     1       1.411   8.302   8.728  1.00  0.00     0.035 C 
HETATM   24  C9  UNL     1       0.427   8.380   9.904  1.00  0.00     0.010 C 
HETATM   25  C17 UNL     1      -0.977   9.351  12.442  1.00  0.00     0.009 C 
HETATM   26  C18 UNL     1      -1.876   8.869  13.571  1.00  0.00     0.047 C 
BRANCH   7  27
HETATM   27  O2  UNL     1      -2.643   7.013  12.272  1.00  0.00    -0.381 OA
HETATM   28  H27 UNL     1      -3.480   7.507  12.339  1.00  0.00     0.211 HD
ENDBRANCH   7  27
ENDBRANCH   5   7
ENDBRANCH   4   5
ENDBRANCH   3   4
ENDBRANCH   1   3
BRANCH   1  29
HETATM   29  C23 UNL     1      -5.115   3.462  12.716  1.00  0.00     0.120 C 
BRANCH  29  30
HETATM   30  C24 UNL     1      -6.336   3.548  11.807  1.00  0.00     0.112 C 
BRANCH  30  31
HETATM   31  C25 UNL     1      -7.576   3.925  12.595  1.00  0.00     0.217 C 
HETATM   32  O6  UNL     1      -8.166   3.145  13.337  1.00  0.00    -0.274 OA
HETATM   33  N1  UNL     1      -7.965   5.233  12.409  1.00  0.00    -0.361 N 
HETATM   34  H34 UNL     1      -7.367   5.856  11.880  1.00  0.00     0.162 HD
BRANCH  33  35
HETATM   35  C26 UNL     1      -9.068   5.811  13.151  1.00  0.00     0.122 C 
BRANCH  35  36
HETATM   36  C27 UNL     1      -8.645   6.526  14.438  1.00  0.00     0.020 C 
BRANCH  36  37
HETATM   37  C28 UNL     1      -9.589   7.648  14.890  1.00  0.00     0.002 C 
BRANCH  37  38
HETATM   38  C29 UNL     1     -11.046   7.458  14.463  1.00  0.00     0.009 C 
BRANCH  38  39
HETATM   39  C30 UNL     1     -11.458   8.412  13.341  1.00  0.00     0.103 C 
BRANCH  39  40
HETATM   40  C31 UNL     1     -12.912   8.268  12.923  1.00  0.00     0.217 C 
HETATM   41  O7  UNL     1     -13.519   9.097  12.251  1.00  0.00    -0.274 OA
HETATM   42  N2  UNL     1     -13.478   7.095  13.383  1.00  0.00    -0.357 N 
HETATM   43  H45 UNL     1     -12.874   6.382  13.769  1.00  0.00     0.162 HD
BRANCH  42  44
HETATM   44  C32 UNL     1     -14.830   6.721  13.041  1.00  0.00     0.161 C 
BRANCH  44  45
HETATM   45  C33 UNL     1     -15.584   6.227  14.247  1.00  0.00    -0.040 A 
HETATM   46  C34 UNL     1     -15.764   4.854  14.473  1.00  0.00     0.010 A 
HETATM   47  C35 UNL     1     -16.478   4.410  15.591  1.00  0.00     0.019 A 
HETATM   48  C36 UNL     1     -17.024   5.331  16.493  1.00  0.00     0.037 A 
HETATM   49  C38 UNL     1     -16.856   6.701  16.267  1.00  0.00     0.019 A 
HETATM   50  C39 UNL     1     -16.147   7.143  15.147  1.00  0.00     0.010 A 
BRANCH  48  51
HETATM   51  C37 UNL     1     -17.769   4.812  17.666  1.00  0.00     0.176 C 
HETATM   52  O8  UNL     1     -18.883   4.323  17.643  1.00  0.00    -0.646 OA
BRANCH  51  53
HETATM   53  O9  UNL     1     -17.077   4.922  18.815  1.00  0.00    -0.773 OA
HETATM   54  H50 UNL     1     -17.675   4.531  19.488  1.00  0.00     0.167 HD
ENDBRANCH  51  53
ENDBRANCH  48  51
ENDBRANCH  44  45
ENDBRANCH  42  44
ENDBRANCH  39  40
ENDBRANCH  38  39
ENDBRANCH  37  38
ENDBRANCH  36  37
ENDBRANCH  35  36
ENDBRANCH  33  35
ENDBRANCH  30  31
ENDBRANCH  29  30
ENDBRANCH   1  29
TORSDOF 18
ENDMDL
MODEL 2
REMARK minimizedAffinity -8.84700584
REMARK CNNscore 0.531057298
REMARK CNNaffinity 7.25599051
REMARK  18 active torsions:
REMARK  status: ('A' for Active; 'I' for Inactive)
REMARK    1  A    between atoms: C19_20  and  O2_21 
REMARK    2  A    between atoms: C19_20  and  C20_22 
REMARK    3  A    between atoms: C20_22  and  C21_24 
REMARK    4  A    between atoms: C21_24  and  O4_25 
REMARK    5  A    between atoms: O4_25  and  C22_26 
REMARK    6  A    between atoms: C22_26  and  C23_28 
REMARK    7  A    between atoms: C23_28  and  C24_29 
REMARK    8  A    between atoms: C24_29  and  C25_30 
REMARK       I    between atoms: C25_30  and  N1_32 
REMARK    9  A    between atoms: N1_32  and  C26_33 
REMARK   10  A    between atoms: C26_33  and  C27_34 
REMARK   11  A    between atoms: C27_34  and  C28_35 
REMARK   12  A    between atoms: C28_35  and  C29_36 
REMARK   13  A    between atoms: C29_36  and  C30_37 
REMARK   14  A    between atoms: C30_37  and  C31_38 
REMARK       I    between atoms: C31_38  and  N2_40 
REMARK   15  A    between atoms: N2_40  and  C32_41 
REMARK   16  A    between atoms: C32_41  and  C33_42 
REMARK   17  A    between atoms: C36_45  and  C37_46 
REMARK   18  A    between atoms: C37_46  and  O9_48 
ROOT
HETATM    1  C22 UNL     1      -5.200   3.921  12.815  1.00  0.00     0.259 C 
HETATM    2  O5  UNL     1      -5.090   3.396  11.713  1.00  0.00    -0.265 OA
ENDROOT
BRANCH   1   3
HETATM    3  O4  UNL     1      -4.214   4.627  13.432  1.00  0.00    -0.314 OA
BRANCH   3   4
HETATM    4  C21 UNL     1      -4.030   5.953  12.921  1.00  0.00     0.260 C 
BRANCH   4   5
HETATM    5  C20 UNL     1      -3.227   6.841  13.875  1.00  0.00     0.185 C 
HETATM    6  O3  UNL     1      -3.788   7.643  14.626  1.00  0.00    -0.292 OA
BRANCH   5   7
HETATM    7  C19 UNL     1      -1.687   6.731  13.798  1.00  0.00     0.128 C 
HETATM    8  C14 UNL     1      -1.083   6.336  12.395  1.00  0.00    -0.002 C 
HETATM    9  C13 UNL     1      -0.690   7.547  11.538  1.00  0.00     0.013 C 
HETATM   10  C15 UNL     1      -2.064   5.445  11.596  1.00  0.00     0.019 C 
HETATM   11  C16 UNL     1       0.177   5.469  12.747  1.00  0.00     0.002 C 
HETATM   12  C12 UNL     1       0.177   7.227  10.318  1.00  0.00     0.007 C 
HETATM   13  C11 UNL     1       1.151   6.035  10.463  1.00  0.00     0.002 C 
HETATM   14  C2  UNL     1       2.450   6.183   9.587  1.00  0.00    -0.016 C 
HETATM   15  C10 UNL     1       1.478   5.757  11.957  1.00  0.00    -0.004 C 
HETATM   16  C1  UNL     1       3.221   4.830   9.577  1.00  0.00     0.020 C 
HETATM   17  C3  UNL     1       2.134   6.469   8.086  1.00  0.00     0.022 C 
HETATM   18  C7  UNL     1       3.329   7.257  10.220  1.00  0.00    -0.068 C 
HETATM   19  C4  UNL     1       2.092   7.930   7.669  1.00  0.00     0.084 C 
HETATM   20  C5  UNL     1       3.275   8.689   8.214  1.00  0.00     0.149 C 
HETATM   21  O1  UNL     1       3.801   9.616   7.603  1.00  0.00    -0.293 OA
HETATM   22  C6  UNL     1       3.738   8.367   9.581  1.00  0.00     0.053 C 
HETATM   23  C8  UNL     1       3.675   7.043  11.677  1.00  0.00     0.035 C 
HETATM   24  C9  UNL     1       2.418   6.834  12.535  1.00  0.00     0.010 C 
HETATM   25  C17 UNL     1       0.295   5.484  14.273  1.00  0.00     0.009 C 
HETATM   26  C18 UNL     1      -1.148   5.635  14.733  1.00  0.00     0.047 C 
BRANCH   7  27
HETATM   27  O2  UNL     1      -1.138   7.978  14.251  1.00  0.00    -0.381 OA
HETATM   28  H27 UNL     1      -1.233   8.023  15.219  1.00  0.00     0.211 HD
ENDBRANCH   7  27
ENDBRANCH   5   7
ENDBRANCH   4   5
ENDBRANCH   3   4
ENDBRANCH   1   3
BRANCH   1  29
HETATM   29  C23 UNL     1      -6.484   3.939  13.599  1.00  0.00     0.120 C 
BRANCH  29  30
HETATM   30  C24 UNL     1      -7.566   4.810  12.972  1.00  0.00     0.112 C 
BRANCH  30  31
HETATM   31  C25 UNL     1      -8.133   5.787  13.984  1.00  0.00     0.217 C 
HETATM   32  O6  UNL     1      -7.476   6.259  14.908  1.00  0.00    -0.274 OA
HETATM   33  N1  UNL     1      -9.453   6.105  13.756  1.00  0.00    -0.361 N 
HETATM   34  H34 UNL     1      -9.902   5.777  12.910  1.00  0.00     0.162 HD
BRANCH  33  35
HETATM   35  C26 UNL     1     -10.145   7.098  14.556  1.00  0.00     0.122 C 
BRANCH  35  36
HETATM   36  C27 UNL     1     -11.139   7.952  13.763  1.00  0.00     0.020 C 
BRANCH  36  37
HETATM   37  C28 UNL     1     -12.067   7.161  12.831  1.00  0.00     0.002 C 
BRANCH  37  38
HETATM   38  C29 UNL     1     -13.556   7.307  13.152  1.00  0.00     0.009 C 
BRANCH  38  39
HETATM   39  C30 UNL     1     -13.813   7.593  14.633  1.00  0.00     0.103 C 
BRANCH  39  40
HETATM   40  C31 UNL     1     -14.863   6.688  15.255  1.00  0.00     0.217 C 
HETATM   41  O7  UNL     1     -15.024   6.553  16.464  1.00  0.00    -0.274 OA
HETATM   42  N2  UNL     1     -15.621   6.032  14.305  1.00  0.00    -0.357 N 
HETATM   43  H45 UNL     1     -15.556   6.327  13.341  1.00  0.00     0.162 HD
BRANCH  42  44
HETATM   44  C32 UNL     1     -16.724   5.177  14.675  1.00  0.00     0.161 C 
BRANCH  44  45
HETATM   45  C33 UNL     1     -16.471   3.749  14.270  1.00  0.00    -0.040 A 
HETATM   46  C34 UNL     1     -17.286   3.111  13.324  1.00  0.00     0.010 A 
HETATM   47  C35 UNL     1     -17.047   1.780  12.967  1.00  0.00     0.019 A 
HETATM   48  C36 UNL     1     -15.993   1.069  13.554  1.00  0.00     0.037 A 
HETATM   49  C38 UNL     1     -15.183   1.697  14.505  1.00  0.00     0.019 A 
HETATM   50  C39 UNL     1     -15.426   3.025  14.864  1.00  0.00     0.010 A 
BRANCH  48  51
HETATM   51  C37 UNL     1     -15.775  -0.338  13.140  1.00  0.00     0.176 C 
HETATM   52  O8  UNL     1     -16.208  -0.859  12.128  1.00  0.00    -0.646 OA
BRANCH  51  53
HETATM   53  O9  UNL     1     -15.016  -1.028  14.011  1.00  0.00    -0.773 OA
HETATM   54  H50 UNL     1     -14.945  -1.920  13.606  1.00  0.00     0.167 HD
ENDBRANCH  51  53
ENDBRANCH  48  51
ENDBRANCH  44  45
ENDBRANCH  42  44
ENDBRANCH  39  40
ENDBRANCH  38  39
ENDBRANCH  37  38
ENDBRANCH  36  37
ENDBRANCH  35  36
ENDBRANCH  33  35
ENDBRANCH  30  31
ENDBRANCH  29  30
ENDBRANCH   1  29
TORSDOF 18
ENDMDL
MODEL 3
REMARK minimizedAffinity -8.92010784
REMARK CNNscore 0.499197036
REMARK CNNaffinity 7.14386702
REMARK  18 active torsions:
REMARK  status: ('A' for Active; 'I' for Inactive)
REMARK    1  A    between atoms: C19_20  and  O2_21 
REMARK    2  A    between atoms: C19_20  and  C20_22 
REMARK    3  A    between atoms: C20_22  and  C21_24 
REMARK    4  A    between atoms: C21_24  and  O4_25 
REMARK    5  A    between atoms: O4_25  and  C22_26 
REMARK    6  A    between atoms: C22_26  and  C23_28 
REMARK    7  A    between atoms: C23_28  and  C24_29 
REMARK    8  A    between atoms: C24_29  and  C25_30 
REMARK       I    between atoms: C25_30  and  N1_32 
REMARK    9  A    between atoms: N1_32  and  C26_33 
REMARK   10  A    between atoms: C26_33  and  C27_34 
REMARK   11  A    between atoms: C27_34  and  C28_35 
REMARK   12  A    between atoms: C28_35  and  C29_36 
REMARK   13  A    between atoms: C29_36  and  C30_37 
REMARK   14  A    between atoms: C30_37  and  C31_38 
REMARK       I    between atoms: C31_38  and  N2_40 
REMARK   15  A    between atoms: N2_40  and  C32_41 
REMARK   16  A    between atoms: C32_41  and  C33_42 
REMARK   17  A    between atoms: C36_45  and  C37_46 
REMARK   18  A    between atoms: C37_46  and  O9_48 
ROOT
HETATM    1  C22 UNL     1      -3.805   3.879  12.829  1.00  0.00     0.259 C 
HETATM    2  O5  UNL     1      -3.727   2.836  12.192  1.00  0.00    -0.265 OA
ENDROOT
BRANCH   1   3
HETATM    3  O4  UNL     1      -2.761   4.467  13.474  1.00  0.00    -0.314 OA
BRANCH   3   4
HETATM    4  C21 UNL     1      -3.145   5.458  14.435  1.00  0.00     0.260 C 
BRANCH   4   5
HETATM    5  C20 UNL     1      -2.065   6.523  14.641  1.00  0.00     0.185 C 
HETATM    6  O3  UNL     1      -1.681   6.834  15.771  1.00  0.00    -0.292 OA
BRANCH   5   7
HETATM    7  C19 UNL     1      -1.535   7.230  13.372  1.00  0.00     0.128 C 
HETATM    8  C14 UNL     1      -0.029   6.950  12.992  1.00  0.00    -0.002 C 
HETATM    9  C13 UNL     1       0.143   5.793  11.997  1.00  0.00     0.013 C 
HETATM   10  C15 UNL     1       0.820   6.666  14.253  1.00  0.00     0.019 C 
HETATM   11  C16 UNL     1       0.470   8.301  12.369  1.00  0.00     0.002 C 
HETATM   12  C12 UNL     1       1.531   5.683  11.362  1.00  0.00     0.007 C 
HETATM   13  C11 UNL     1       2.291   7.013  11.141  1.00  0.00     0.002 C 
HETATM   14  C2  UNL     1       3.272   6.971   9.911  1.00  0.00    -0.016 C 
HETATM   15  C10 UNL     1       1.309   8.214  11.070  1.00  0.00    -0.004 C 
HETATM   16  C1  UNL     1       4.187   8.231   9.940  1.00  0.00     0.020 C 
HETATM   17  C3  UNL     1       4.259   5.764   9.969  1.00  0.00     0.022 C 
HETATM   18  C7  UNL     1       2.435   6.988   8.636  1.00  0.00    -0.068 C 
HETATM   19  C4  UNL     1       3.829   4.502   9.239  1.00  0.00     0.084 C 
HETATM   20  C5  UNL     1       3.307   4.817   7.861  1.00  0.00     0.149 C 
HETATM   21  O1  UNL     1       3.463   4.057   6.908  1.00  0.00    -0.293 OA
HETATM   22  C6  UNL     1       2.487   6.035   7.689  1.00  0.00     0.053 C 
HETATM   23  C8  UNL     1       1.454   8.133   8.514  1.00  0.00     0.035 C 
HETATM   24  C9  UNL     1       0.531   8.225   9.738  1.00  0.00     0.010 C 
HETATM   25  C17 UNL     1      -0.746   9.229  12.329  1.00  0.00     0.009 C 
HETATM   26  C18 UNL     1      -1.583   8.760  13.511  1.00  0.00     0.047 C 
BRANCH   7  27
HETATM   27  O2  UNL     1      -2.403   6.879  12.283  1.00  0.00    -0.381 OA
HETATM   28  H27 UNL     1      -3.238   7.369  12.385  1.00  0.00     0.211 HD
ENDBRANCH   7  27
ENDBRANCH   5   7
ENDBRANCH   4   5
ENDBRANCH   3   4
ENDBRANCH   1   3
BRANCH   1  29
HETATM   29  C23 UNL     1      -5.056   4.711  12.904  1.00  0.00     0.120 C 
BRANCH  29  30
HETATM   30  C24 UNL     1      -6.318   3.947  12.519  1.00  0.00     0.112 C 
BRANCH  30  31
HETATM   31  C25 UNL     1      -7.561   4.762  12.820  1.00  0.00     0.217 C 
HETATM   32  O6  UNL     1      -8.560   4.757  12.106  1.00  0.00    -0.274 OA
HETATM   33  N1  UNL     1      -7.466   5.497  13.981  1.00  0.00    -0.361 N 
HETATM   34  H34 UNL     1      -6.664   5.363  14.585  1.00  0.00     0.162 HD
BRANCH  33  35
HETATM   35  C26 UNL     1      -8.587   6.262  14.491  1.00  0.00     0.122 C 
BRANCH  35  36
HETATM   36  C27 UNL     1      -8.489   6.589  15.984  1.00  0.00     0.020 C 
BRANCH  36  37
HETATM   37  C28 UNL     1      -9.157   7.906  16.399  1.00  0.00     0.002 C 
BRANCH  37  38
HETATM   38  C29 UNL     1      -9.871   8.638  15.261  1.00  0.00     0.009 C 
BRANCH  38  39
HETATM   39  C30 UNL     1      -9.786  10.159  15.395  1.00  0.00     0.103 C 
BRANCH  39  40
HETATM   40  C31 UNL     1     -10.884  10.757  16.259  1.00  0.00     0.217 C 
HETATM   41  O7  UNL     1     -12.081  10.541  16.095  1.00  0.00    -0.274 OA
HETATM   42  N2  UNL     1     -10.384  11.572  17.256  1.00  0.00    -0.357 N 
HETATM   43  H45 UNL     1      -9.391  11.558  17.444  1.00  0.00     0.162 HD
BRANCH  42  44
HETATM   44  C32 UNL     1     -11.248  12.185  18.237  1.00  0.00     0.161 C 
BRANCH  44  45
HETATM   45  C33 UNL     1     -11.129  11.503  19.575  1.00  0.00    -0.040 A 
HETATM   46  C34 UNL     1     -10.397  12.087  20.619  1.00  0.00     0.010 A 
HETATM   47  C35 UNL     1     -10.284  11.436  21.852  1.00  0.00     0.019 A 
HETATM   48  C36 UNL     1     -10.897  10.193  22.054  1.00  0.00     0.037 A 
HETATM   49  C38 UNL     1     -11.619   9.602  21.013  1.00  0.00     0.019 A 
HETATM   50  C39 UNL     1     -11.727  10.251  19.781  1.00  0.00     0.010 A 
BRANCH  48  51
HETATM   51  C37 UNL     1     -10.753   9.544  23.380  1.00  0.00     0.176 C 
HETATM   52  O8  UNL     1     -10.583   8.355  23.577  1.00  0.00    -0.646 OA
BRANCH  51  53
HETATM   53  O9  UNL     1     -10.819  10.419  24.401  1.00  0.00    -0.773 OA
HETATM   54  H50 UNL     1     -10.693   9.860  25.198  1.00  0.00     0.167 HD
ENDBRANCH  51  53
ENDBRANCH  48  51
ENDBRANCH  44  45
ENDBRANCH  42  44
ENDBRANCH  39  40
ENDBRANCH  38  39
ENDBRANCH  37  38
ENDBRANCH  36  37
ENDBRANCH  35  36
ENDBRANCH  33  35
ENDBRANCH  30  31
ENDBRANCH  29  30
ENDBRANCH   1  29
TORSDOF 18
ENDMDL
MODEL 4
REMARK minimizedAffinity -8.58759594
REMARK CNNscore 0.461401701
REMARK CNNaffinity 6.83092308
REMARK  18 active torsions:
REMARK  status: ('A' for Active; 'I' for Inactive)
REMARK    1  A    between atoms: C19_20  and  O2_21 
REMARK    2  A    between atoms: C19_20  and  C20_22 
REMARK    3  A    between atoms: C20_22  and  C21_24 
REMARK    4  A    between atoms: C21_24  and  O4_25 
REMARK    5  A    between atoms: O4_25  and  C22_26 
REMARK    6  A    between atoms: C22_26  and  C23_28 
REMARK    7  A    between atoms: C23_28  and  C24_29 
REMARK    8  A    between atoms: C24_29  and  C25_30 
REMARK       I    between atoms: C25_30  and  N1_32 
REMARK    9  A    between atoms: N1_32  and  C26_33 
REMARK   10  A    between atoms: C26_33  and  C27_34 
REMARK   11  A    between atoms: C27_34  and  C28_35 
REMARK   12  A    between atoms: C28_35  and  C29_36 
REMARK   13  A    between atoms: C29_36  and  C30_37 
REMARK   14  A    between atoms: C30_37  and  C31_38 
REMARK       I    between atoms: C31_38  and  N2_40 
REMARK   15  A    between atoms: N2_40  and  C32_41 
REMARK   16  A    between atoms: C32_41  and  C33_42 
REMARK   17  A    between atoms: C36_45  and  C37_46 
REMARK   18  A    between atoms: C37_46  and  O9_48 
ROOT
HETATM    1  C22 UNL     1      -5.991   7.376  14.858  1.00  0.00     0.259 C 
HETATM    2  O5  UNL     1      -6.042   8.066  15.868  1.00  0.00    -0.265 OA
ENDROOT
BRANCH   1   3
HETATM    3  O4  UNL     1      -4.840   6.910  14.301  1.00  0.00    -0.314 OA
BRANCH   3   4
HETATM    4  C21 UNL     1      -3.703   6.960  15.172  1.00  0.00     0.260 C 
BRANCH   4   5
HETATM    5  C20 UNL     1      -2.448   6.360  14.530  1.00  0.00     0.185 C 
HETATM    6  O3  UNL     1      -1.893   5.371  15.014  1.00  0.00    -0.292 OA
BRANCH   5   7
HETATM    7  C19 UNL     1      -1.880   7.096  13.295  1.00  0.00     0.128 C 
HETATM    8  C14 UNL     1      -0.345   6.881  12.997  1.00  0.00    -0.002 C 
HETATM    9  C13 UNL     1      -0.071   5.739  12.009  1.00  0.00     0.013 C 
HETATM   10  C15 UNL     1       0.445   6.626  14.302  1.00  0.00     0.019 C 
HETATM   11  C16 UNL     1       0.130   8.255  12.407  1.00  0.00     0.002 C 
HETATM   12  C12 UNL     1       1.354   5.690  11.450  1.00  0.00     0.007 C 
HETATM   13  C11 UNL     1       2.068   7.051  11.276  1.00  0.00     0.002 C 
HETATM   14  C2  UNL     1       3.115   7.058  10.102  1.00  0.00    -0.016 C 
HETATM   15  C10 UNL     1       1.041   8.211  11.155  1.00  0.00    -0.004 C 
HETATM   16  C1  UNL     1       3.973   8.355  10.185  1.00  0.00     0.020 C 
HETATM   17  C3  UNL     1       4.148   5.893  10.210  1.00  0.00     0.022 C 
HETATM   18  C7  UNL     1       2.349   7.047   8.782  1.00  0.00    -0.068 C 
HETATM   19  C4  UNL     1       3.811   4.618   9.453  1.00  0.00     0.084 C 
HETATM   20  C5  UNL     1       3.353   4.919   8.049  1.00  0.00     0.149 C 
HETATM   21  O1  UNL     1       3.592   4.171   7.104  1.00  0.00    -0.293 OA
HETATM   22  C6  UNL     1       2.492   6.102   7.837  1.00  0.00     0.053 C 
HETATM   23  C8  UNL     1       1.329   8.150   8.611  1.00  0.00     0.035 C 
HETATM   24  C9  UNL     1       0.338   8.196   9.783  1.00  0.00     0.010 C 
HETATM   25  C17 UNL     1      -1.121   9.132  12.303  1.00  0.00     0.009 C 
HETATM   26  C18 UNL     1      -2.000   8.622  13.436  1.00  0.00     0.047 C 
BRANCH   7  27
HETATM   27  O2  UNL     1      -2.672   6.715  12.159  1.00  0.00    -0.381 OA
HETATM   28  H27 UNL     1      -3.531   7.169  12.217  1.00  0.00     0.211 HD
ENDBRANCH   7  27
ENDBRANCH   5   7
ENDBRANCH   4   5
ENDBRANCH   3   4
ENDBRANCH   1   3
BRANCH   1  29
HETATM   29  C23 UNL     1      -7.212   6.861  14.143  1.00  0.00     0.120 C 
BRANCH  29  30
HETATM   30  C24 UNL     1      -8.274   6.302  15.083  1.00  0.00     0.112 C 
BRANCH  30  31
HETATM   31  C25 UNL     1      -9.469   7.232  15.169  1.00  0.00     0.217 C 
HETATM   32  O6  UNL     1      -9.469   8.271  15.824  1.00  0.00    -0.274 OA
HETATM   33  N1  UNL     1     -10.549   6.806  14.428  1.00  0.00    -0.361 N 
HETATM   34  H34 UNL     1     -10.443   6.007  13.816  1.00  0.00     0.162 HD
BRANCH  33  35
HETATM   35  C26 UNL     1     -11.749   7.609  14.303  1.00  0.00     0.122 C 
BRANCH  35  36
HETATM   36  C27 UNL     1     -12.864   6.939  13.495  1.00  0.00     0.020 C 
BRANCH  36  37
HETATM   37  C28 UNL     1     -13.714   5.932  14.282  1.00  0.00     0.002 C 
BRANCH  37  38
HETATM   38  C29 UNL     1     -15.220   6.194  14.221  1.00  0.00     0.009 C 
BRANCH  38  39
HETATM   39  C30 UNL     1     -16.000   5.383  15.258  1.00  0.00     0.103 C 
BRANCH  39  40
HETATM   40  C31 UNL     1     -16.680   4.152  14.682  1.00  0.00     0.217 C 
HETATM   41  O7  UNL     1     -17.851   4.122  14.315  1.00  0.00    -0.274 OA
HETATM   42  N2  UNL     1     -15.830   3.066  14.615  1.00  0.00    -0.357 N 
HETATM   43  H45 UNL     1     -14.840   3.211  14.761  1.00  0.00     0.162 HD
BRANCH  42  44
HETATM   44  C32 UNL     1     -16.248   1.812  14.033  1.00  0.00     0.161 C 
BRANCH  44  45
HETATM   45  C33 UNL     1     -16.292   0.716  15.065  1.00  0.00    -0.040 A 
HETATM   46  C34 UNL     1     -15.159   0.396  15.827  1.00  0.00     0.010 A 
HETATM   47  C35 UNL     1     -15.212  -0.634  16.772  1.00  0.00     0.019 A 
HETATM   48  C36 UNL     1     -16.395  -1.358  16.964  1.00  0.00     0.037 A 
HETATM   49  C38 UNL     1     -17.524  -1.050  16.199  1.00  0.00     0.019 A 
HETATM   50  C39 UNL     1     -17.469  -0.025  15.252  1.00  0.00     0.010 A 
BRANCH  48  51
HETATM   51  C37 UNL     1     -16.403  -2.438  17.981  1.00  0.00     0.176 C 
HETATM   52  O8  UNL     1     -16.440  -2.279  19.188  1.00  0.00    -0.646 OA
BRANCH  51  53
HETATM   53  O9  UNL     1     -16.373  -3.668  17.437  1.00  0.00    -0.773 OA
HETATM   54  H50 UNL     1     -16.399  -4.269  18.214  1.00  0.00     0.167 HD
ENDBRANCH  51  53
ENDBRANCH  48  51
ENDBRANCH  44  45
ENDBRANCH  42  44
ENDBRANCH  39  40
ENDBRANCH  38  39
ENDBRANCH  37  38
ENDBRANCH  36  37
ENDBRANCH  35  36
ENDBRANCH  33  35
ENDBRANCH  30  31
ENDBRANCH  29  30
ENDBRANCH   1  29
TORSDOF 18
ENDMDL
MODEL 5
REMARK minimizedAffinity -9.01595592
REMARK CNNscore 0.40302217
REMARK CNNaffinity 7.69507599
REMARK  18 active torsions:
REMARK  status: ('A' for Active; 'I' for Inactive)
REMARK    1  A    between atoms: C19_20  and  O2_21 
REMARK    2  A    between atoms: C19_20  and  C20_22 
REMARK    3  A    between atoms: C20_22  and  C21_24 
REMARK    4  A    between atoms: C21_24  and  O4_25 
REMARK    5  A    between atoms: O4_25  and  C22_26 
REMARK    6  A    between atoms: C22_26  and  C23_28 
REMARK    7  A    between atoms: C23_28  and  C24_29 
REMARK    8  A    between atoms: C24_29  and  C25_30 
REMARK       I    between atoms: C25_30  and  N1_32 
REMARK    9  A    between atoms: N1_32  and  C26_33 
REMARK   10  A    between atoms: C26_33  and  C27_34 
REMARK   11  A    between atoms: C27_34  and  C28_35 
REMARK   12  A    between atoms: C28_35  and  C29_36 
REMARK   13  A    between atoms: C29_36  and  C30_37 
REMARK   14  A    between atoms: C30_37  and  C31_38 
REMARK       I    between atoms: C31_38  and  N2_40 
REMARK   15  A    between atoms: N2_40  and  C32_41 
REMARK   16  A    between atoms: C32_41  and  C33_42 
REMARK   17  A    between atoms: C36_45  and  C37_46 
REMARK   18  A    between atoms: C37_46  and  O9_48 
ROOT
HETATM    1  C22 UNL     1      -5.591   6.920  15.481  1.00  0.00     0.259 C 
HETATM    2  O5  UNL     1      -6.154   5.858  15.715  1.00  0.00    -0.265 OA
ENDROOT
BRANCH   1   3
HETATM    3  O4  UNL     1      -4.517   7.057  14.655  1.00  0.00    -0.314 OA
BRANCH   3   4
HETATM    4  C21 UNL     1      -3.257   7.128  15.334  1.00  0.00     0.260 C 
BRANCH   4   5
HETATM    5  C20 UNL     1      -2.137   6.427  14.561  1.00  0.00     0.185 C 
HETATM    6  O3  UNL     1      -1.676   5.348  14.942  1.00  0.00    -0.292 OA
BRANCH   5   7
HETATM    7  C19 UNL     1      -1.572   7.169  13.328  1.00  0.00     0.128 C 
HETATM    8  C14 UNL     1      -0.070   6.863  12.955  1.00  0.00    -0.002 C 
HETATM    9  C13 UNL     1       0.084   5.744  11.916  1.00  0.00     0.013 C 
HETATM   10  C15 UNL     1       0.756   6.506  14.213  1.00  0.00     0.019 C 
HETATM   11  C16 UNL     1       0.474   8.224  12.393  1.00  0.00     0.002 C 
HETATM   12  C12 UNL     1       1.476   5.621  11.292  1.00  0.00     0.007 C 
HETATM   13  C11 UNL     1       2.275   6.937  11.134  1.00  0.00     0.002 C 
HETATM   14  C2  UNL     1       3.269   6.918   9.915  1.00  0.00    -0.016 C 
HETATM   15  C10 UNL     1       1.326   8.167  11.100  1.00  0.00    -0.004 C 
HETATM   16  C1  UNL     1       4.218   8.150  10.006  1.00  0.00     0.020 C 
HETATM   17  C3  UNL     1       4.223   5.682   9.936  1.00  0.00     0.022 C 
HETATM   18  C7  UNL     1       2.449   7.009   8.632  1.00  0.00    -0.068 C 
HETATM   19  C4  UNL     1       3.767   4.463   9.150  1.00  0.00     0.084 C 
HETATM   20  C5  UNL     1       3.272   4.848   7.780  1.00  0.00     0.149 C 
HETATM   21  O1  UNL     1       3.419   4.123   6.799  1.00  0.00    -0.293 OA
HETATM   22  C6  UNL     1       2.487   6.094   7.648  1.00  0.00     0.053 C 
HETATM   23  C8  UNL     1       1.501   8.184   8.545  1.00  0.00     0.035 C 
HETATM   24  C9  UNL     1       0.566   8.252   9.762  1.00  0.00     0.010 C 
HETATM   25  C17 UNL     1      -0.717   9.186  12.376  1.00  0.00     0.009 C 
HETATM   26  C18 UNL     1      -1.580   8.694  13.528  1.00  0.00     0.047 C 
BRANCH   7  27
HETATM   27  O2  UNL     1      -2.436   6.886  12.216  1.00  0.00    -0.381 OA
HETATM   28  H27 UNL     1      -3.259   7.394  12.328  1.00  0.00     0.211 HD
ENDBRANCH   7  27
ENDBRANCH   5   7
ENDBRANCH   4   5
ENDBRANCH   3   4
ENDBRANCH   1   3
BRANCH   1  29
HETATM   29  C23 UNL     1      -6.074   8.246  16.003  1.00  0.00     0.120 C 
BRANCH  29  30
HETATM   30  C24 UNL     1      -7.261   8.808  15.228  1.00  0.00     0.112 C 
BRANCH  30  31
HETATM   31  C25 UNL     1      -8.555   8.143  15.656  1.00  0.00     0.217 C 
HETATM   32  O6  UNL     1      -8.770   7.763  16.803  1.00  0.00    -0.274 OA
HETATM   33  N1  UNL     1      -9.471   8.022  14.635  1.00  0.00    -0.361 N 
HETATM   34  H34 UNL     1      -9.279   8.464  13.744  1.00  0.00     0.162 HD
BRANCH  33  35
HETATM   35  C26 UNL     1     -10.805   7.504  14.868  1.00  0.00     0.122 C 
BRANCH  35  36
HETATM   36  C27 UNL     1     -11.785   7.769  13.722  1.00  0.00     0.020 C 
BRANCH  36  37
HETATM   37  C28 UNL     1     -11.548   6.922  12.464  1.00  0.00     0.002 C 
BRANCH  37  38
HETATM   38  C29 UNL     1     -10.284   7.291  11.684  1.00  0.00     0.009 C 
BRANCH  38  39
HETATM   39  C30 UNL     1      -9.506   6.062  11.210  1.00  0.00     0.103 C 
BRANCH  39  40
HETATM   40  C31 UNL     1      -8.498   5.551  12.225  1.00  0.00     0.217 C 
HETATM   41  O7  UNL     1      -7.855   6.275  12.980  1.00  0.00    -0.274 OA
HETATM   42  N2  UNL     1      -8.386   4.174  12.208  1.00  0.00    -0.357 N 
HETATM   43  H45 UNL     1      -9.072   3.636  11.695  1.00  0.00     0.162 HD
BRANCH  42  44
HETATM   44  C32 UNL     1      -7.538   3.471  13.141  1.00  0.00     0.161 C 
BRANCH  44  45
HETATM   45  C33 UNL     1      -6.158   3.260  12.576  1.00  0.00    -0.040 A 
HETATM   46  C34 UNL     1      -5.852   2.116  11.826  1.00  0.00     0.010 A 
HETATM   47  C35 UNL     1      -4.562   1.928  11.319  1.00  0.00     0.019 A 
HETATM   48  C36 UNL     1      -3.562   2.877  11.560  1.00  0.00     0.037 A 
HETATM   49  C38 UNL     1      -3.859   4.015  12.317  1.00  0.00     0.019 A 
HETATM   50  C39 UNL     1      -5.146   4.199  12.827  1.00  0.00     0.010 A 
BRANCH  48  51
HETATM   51  C37 UNL     1      -2.211   2.636  10.997  1.00  0.00     0.176 C 
HETATM   52  O8  UNL     1      -1.198   2.430  11.640  1.00  0.00    -0.646 OA
BRANCH  51  53
HETATM   53  O9  UNL     1      -2.193   2.654   9.652  1.00  0.00    -0.773 OA
HETATM   54  H50 UNL     1      -1.256   2.467   9.426  1.00  0.00     0.167 HD
ENDBRANCH  51  53
ENDBRANCH  48  51
ENDBRANCH  44  45
ENDBRANCH  42  44
ENDBRANCH  39  40
ENDBRANCH  38  39
ENDBRANCH  37  38
ENDBRANCH  36  37
ENDBRANCH  35  36
ENDBRANCH  33  35
ENDBRANCH  30  31
ENDBRANCH  29  30
ENDBRANCH   1  29
TORSDOF 18
ENDMDL
MODEL 6
REMARK minimizedAffinity -8.67733097
REMARK CNNscore 0.357796967
REMARK CNNaffinity 6.64044619
REMARK  18 active torsions:
REMARK  status: ('A' for Active; 'I' for Inactive)
REMARK    1  A    between atoms: C19_20  and  O2_21 
REMARK    2  A    between atoms: C19_20  and  C20_22 
REMARK    3  A    between atoms: C20_22  and  C21_24 
REMARK    4  A    between atoms: C21_24  and  O4_25 
REMARK    5  A    between atoms: O4_25  and  C22_26 
REMARK    6  A    between atoms: C22_26  and  C23_28 
REMARK    7  A    between atoms: C23_28  and  C24_29 
REMARK    8  A    between atoms: C24_29  and  C25_30 
REMARK       I    between atoms: C25_30  and  N1_32 
REMARK    9  A    between atoms: N1_32  and  C26_33 
REMARK   10  A    between atoms: C26_33  and  C27_34 
REMARK   11  A    between atoms: C27_34  and  C28_35 
REMARK   12  A    between atoms: C28_35  and  C29_36 
REMARK   13  A    between atoms: C29_36  and  C30_37 
REMARK   14  A    between atoms: C30_37  and  C31_38 
REMARK       I    between atoms: C31_38  and  N2_40 
REMARK   15  A    between atoms: N2_40  and  C32_41 
REMARK   16  A    between atoms: C32_41  and  C33_42 
REMARK   17  A    between atoms: C36_45  and  C37_46 
REMARK   18  A    between atoms: C37_46  and  O9_48 
ROOT
HETATM    1  C22 UNL     1      -4.581   9.233  14.992  1.00  0.00     0.259 C 
HETATM    2  O5  UNL     1      -5.686   9.204  15.518  1.00  0.00    -0.265 OA
ENDROOT
BRANCH   1   3
HETATM    3  O4  UNL     1      -4.181   8.400  13.994  1.00  0.00    -0.314 OA
BRANCH   3   4
HETATM    4  C21 UNL     1      -4.255   7.007  14.324  1.00  0.00     0.260 C 
BRANCH   4   5
HETATM    5  C20 UNL     1      -3.449   6.134  13.359  1.00  0.00     0.185 C 
HETATM    6  O3  UNL     1      -4.005   5.329  12.608  1.00  0.00    -0.292 OA
BRANCH   5   7
HETATM    7  C19 UNL     1      -1.909   6.263  13.424  1.00  0.00     0.128 C 
HETATM    8  C14 UNL     1      -1.119   5.881  12.113  1.00  0.00    -0.002 C 
HETATM    9  C13 UNL     1      -0.832   7.083  11.203  1.00  0.00     0.013 C 
HETATM   10  C15 UNL     1      -1.871   4.797  11.305  1.00  0.00     0.019 C 
HETATM   11  C16 UNL     1       0.218   5.248  12.639  1.00  0.00     0.002 C 
HETATM   12  C12 UNL     1       0.188   6.827  10.090  1.00  0.00     0.007 C 
HETATM   13  C11 UNL     1       1.313   5.815  10.411  1.00  0.00     0.002 C 
HETATM   14  C2  UNL     1       2.653   6.112   9.642  1.00  0.00    -0.016 C 
HETATM   15  C10 UNL     1       1.530   5.688  11.944  1.00  0.00    -0.004 C 
HETATM   16  C1  UNL     1       3.618   4.899   9.804  1.00  0.00     0.020 C 
HETATM   17  C3  UNL     1       2.445   6.248   8.101  1.00  0.00     0.022 C 
HETATM   18  C7  UNL     1       3.294   7.349  10.263  1.00  0.00    -0.068 C 
HETATM   19  C4  UNL     1       2.223   7.656   7.570  1.00  0.00     0.084 C 
HETATM   20  C5  UNL     1       3.219   8.625   8.155  1.00  0.00     0.149 C 
HETATM   21  O1  UNL     1       3.655   9.583   7.522  1.00  0.00    -0.293 OA
HETATM   22  C6  UNL     1       3.590   8.467   9.578  1.00  0.00     0.053 C 
HETATM   23  C8  UNL     1       3.524   7.285  11.756  1.00  0.00     0.035 C 
HETATM   24  C9  UNL     1       2.236   6.934  12.516  1.00  0.00     0.010 C 
HETATM   25  C17 UNL     1       0.183   5.378  14.164  1.00  0.00     0.009 C 
HETATM   26  C18 UNL     1      -1.304   5.328  14.484  1.00  0.00     0.047 C 
BRANCH   7  27
HETATM   27  O2  UNL     1      -1.602   7.607  13.825  1.00  0.00    -0.381 OA
HETATM   28  H27 UNL     1      -1.797   7.698  14.774  1.00  0.00     0.211 HD
ENDBRANCH   7  27
ENDBRANCH   5   7
ENDBRANCH   4   5
ENDBRANCH   3   4
ENDBRANCH   1   3
BRANCH   1  29
HETATM   29  C23 UNL     1      -3.539  10.270  15.314  1.00  0.00     0.120 C 
BRANCH  29  30
HETATM   30  C24 UNL     1      -3.585  10.750  16.760  1.00  0.00     0.112 C 
BRANCH  30  31
HETATM   31  C25 UNL     1      -2.446  11.706  17.054  1.00  0.00     0.217 C 
HETATM   32  O6  UNL     1      -2.581  12.926  17.085  1.00  0.00    -0.274 OA
HETATM   33  N1  UNL     1      -1.248  11.072  17.297  1.00  0.00    -0.361 N 
HETATM   34  H34 UNL     1      -1.231  10.062  17.374  1.00  0.00     0.162 HD
BRANCH  33  35
HETATM   35  C26 UNL     1      -0.064  11.809  17.694  1.00  0.00     0.122 C 
BRANCH  35  36
HETATM   36  C27 UNL     1       0.024  12.079  19.199  1.00  0.00     0.020 C 
BRANCH  36  37
HETATM   37  C28 UNL     1       0.380  10.855  20.053  1.00  0.00     0.002 C 
BRANCH  37  38
HETATM   38  C29 UNL     1       1.881  10.574  20.158  1.00  0.00     0.009 C 
BRANCH  38  39
HETATM   39  C30 UNL     1       2.238   9.743  21.391  1.00  0.00     0.103 C 
BRANCH  39  40
HETATM   40  C31 UNL     1       2.713  10.575  22.571  1.00  0.00     0.217 C 
HETATM   41  O7  UNL     1       3.013  10.108  23.665  1.00  0.00    -0.274 OA
HETATM   42  N2  UNL     1       2.775  11.922  22.272  1.00  0.00    -0.357 N 
HETATM   43  H45 UNL     1       2.691  12.212  21.307  1.00  0.00     0.162 HD
BRANCH  42  44
HETATM   44  C32 UNL     1       3.270  12.887  23.225  1.00  0.00     0.161 C 
BRANCH  44  45
HETATM   45  C33 UNL     1       4.748  13.121  23.051  1.00  0.00    -0.040 A 
HETATM   46  C34 UNL     1       5.651  12.049  23.029  1.00  0.00     0.010 A 
HETATM   47  C35 UNL     1       7.022  12.282  22.880  1.00  0.00     0.019 A 
HETATM   48  C36 UNL     1       7.507  13.590  22.756  1.00  0.00     0.037 A 
HETATM   49  C38 UNL     1       6.612  14.664  22.788  1.00  0.00     0.019 A 
HETATM   50  C39 UNL     1       5.243  14.429  22.942  1.00  0.00     0.010 A 
BRANCH  48  51
HETATM   51  C37 UNL     1       8.968  13.787  22.596  1.00  0.00     0.176 C 
HETATM   52  O8  UNL     1       9.787  12.911  22.384  1.00  0.00    -0.646 OA
BRANCH  51  53
HETATM   53  O9  UNL     1       9.336  15.078  22.700  1.00  0.00    -0.773 OA
HETATM   54  H50 UNL     1      10.308  15.057  22.558  1.00  0.00     0.167 HD
ENDBRANCH  51  53
ENDBRANCH  48  51
ENDBRANCH  44  45
ENDBRANCH  42  44
ENDBRANCH  39  40
ENDBRANCH  38  39
ENDBRANCH  37  38
ENDBRANCH  36  37
ENDBRANCH  35  36
ENDBRANCH  33  35
ENDBRANCH  30  31
ENDBRANCH  29  30
ENDBRANCH   1  29
TORSDOF 18
ENDMDL
MODEL 7
REMARK minimizedAffinity -8.61514282
REMARK CNNscore 0.349664956
REMARK CNNaffinity 7.65494013
REMARK  18 active torsions:
REMARK  status: ('A' for Active; 'I' for Inactive)
REMARK    1  A    between atoms: C19_20  and  O2_21 
REMARK    2  A    between atoms: C19_20  and  C20_22 
REMARK    3  A    between atoms: C20_22  and  C21_24 
REMARK    4  A    between atoms: C21_24  and  O4_25 
REMARK    5  A    between atoms: O4_25  and  C22_26 
REMARK    6  A    between atoms: C22_26  and  C23_28 
REMARK    7  A    between atoms: C23_28  and  C24_29 
REMARK    8  A    between atoms: C24_29  and  C25_30 
REMARK       I    between atoms: C25_30  and  N1_32 
REMARK    9  A    between atoms: N1_32  and  C26_33 
REMARK   10  A    between atoms: C26_33  and  C27_34 
REMARK   11  A    between atoms: C27_34  and  C28_35 
REMARK   12  A    between atoms: C28_35  and  C29_36 
REMARK   13  A    between atoms: C29_36  and  C30_37 
REMARK   14  A    between atoms: C30_37  and  C31_38 
REMARK       I    between atoms: C31_38  and  N2_40 
REMARK   15  A    between atoms: N2_40  and  C32_41 
REMARK   16  A    between atoms: C32_41  and  C33_42 
REMARK   17  A    between atoms: C36_45  and  C37_46 
REMARK   18  A    between atoms: C37_46  and  O9_48 
ROOT
HETATM    1  C22 UNL     1      -7.465   3.385  13.051  1.00  0.00     0.259 C 
HETATM    2  O5  UNL     1      -8.567   2.880  12.885  1.00  0.00    -0.265 OA
ENDROOT
BRANCH   1   3
HETATM    3  O4  UNL     1      -7.013   3.874  14.238  1.00  0.00    -0.314 OA
BRANCH   3   4
HETATM    4  C21 UNL     1      -7.935   4.742  14.907  1.00  0.00     0.260 C 
BRANCH   4   5
HETATM    5  C20 UNL     1      -7.840   6.189  14.414  1.00  0.00     0.185 C 
HETATM    6  O3  UNL     1      -6.893   6.567  13.721  1.00  0.00    -0.292 OA
BRANCH   5   7
HETATM    7  C19 UNL     1      -8.950   7.158  14.883  1.00  0.00     0.128 C 
HETATM    8  C14 UNL     1     -10.247   7.223  13.986  1.00  0.00    -0.002 C 
HETATM    9  C13 UNL     1     -11.360   6.276  14.456  1.00  0.00     0.013 C 
HETATM   10  C15 UNL     1      -9.916   6.925  12.505  1.00  0.00     0.019 C 
HETATM   11  C16 UNL     1     -10.710   8.719  14.085  1.00  0.00     0.002 C 
HETATM   12  C12 UNL     1     -12.732   6.521  13.823  1.00  0.00     0.007 C 
HETATM   13  C11 UNL     1     -13.067   7.987  13.460  1.00  0.00     0.002 C 
HETATM   14  C2  UNL     1     -14.606   8.308  13.529  1.00  0.00    -0.016 C 
HETATM   15  C10 UNL     1     -12.221   8.980  14.304  1.00  0.00    -0.004 C 
HETATM   16  C1  UNL     1     -14.870   9.700  12.882  1.00  0.00     0.020 C 
HETATM   17  C3  UNL     1     -15.467   7.312  12.690  1.00  0.00     0.022 C 
HETATM   18  C7  UNL     1     -15.017   8.351  14.998  1.00  0.00    -0.068 C 
HETATM   19  C4  UNL     1     -16.027   6.110  13.434  1.00  0.00     0.084 C 
HETATM   20  C5  UNL     1     -16.645   6.518  14.747  1.00  0.00     0.149 C 
HETATM   21  O1  UNL     1     -17.624   5.946  15.220  1.00  0.00    -0.293 OA
HETATM   22  C6  UNL     1     -15.971   7.572  15.535  1.00  0.00     0.053 C 
HETATM   23  C8  UNL     1     -14.222   9.297  15.870  1.00  0.00     0.035 C 
HETATM   24  C9  UNL     1     -12.713   9.036  15.764  1.00  0.00     0.010 C 
HETATM   25  C17 UNL     1      -9.756   9.398  15.071  1.00  0.00     0.009 C 
HETATM   26  C18 UNL     1      -8.462   8.616  14.901  1.00  0.00     0.047 C 
BRANCH   7  27
HETATM   27  O2  UNL     1      -9.289   6.811  16.235  1.00  0.00    -0.381 OA
HETATM   28  H27 UNL     1      -8.572   7.115  16.819  1.00  0.00     0.211 HD
ENDBRANCH   7  27
ENDBRANCH   5   7
ENDBRANCH   4   5
ENDBRANCH   3   4
ENDBRANCH   1   3
BRANCH   1  29
HETATM   29  C23 UNL     1      -6.412   3.446  11.978  1.00  0.00     0.120 C 
BRANCH  29  30
HETATM   30  C24 UNL     1      -5.950   2.074  11.501  1.00  0.00     0.112 C 
BRANCH  30  31
HETATM   31  C25 UNL     1      -4.437   2.004  11.424  1.00  0.00     0.217 C 
HETATM   32  O6  UNL     1      -3.788   1.026  11.785  1.00  0.00    -0.274 OA
HETATM   33  N1  UNL     1      -3.864   3.139  10.896  1.00  0.00    -0.361 N 
HETATM   34  H34 UNL     1      -4.460   3.859  10.508  1.00  0.00     0.162 HD
BRANCH  33  35
HETATM   35  C26 UNL     1      -2.437   3.226  10.650  1.00  0.00     0.122 C 
BRANCH  35  36
HETATM   36  C27 UNL     1      -1.756   4.404  11.352  1.00  0.00     0.020 C 
BRANCH  36  37
HETATM   37  C28 UNL     1      -2.333   4.753  12.730  1.00  0.00     0.002 C 
BRANCH  37  38
HETATM   38  C29 UNL     1      -3.418   5.832  12.705  1.00  0.00     0.009 C 
BRANCH  38  39
HETATM   39  C30 UNL     1      -3.099   7.008  13.630  1.00  0.00     0.103 C 
BRANCH  39  40
HETATM   40  C31 UNL     1      -1.644   7.062  14.067  1.00  0.00     0.217 C 
HETATM   41  O7  UNL     1      -1.196   6.465  15.042  1.00  0.00    -0.274 OA
HETATM   42  N2  UNL     1      -0.876   7.858  13.240  1.00  0.00    -0.357 N 
HETATM   43  H45 UNL     1      -1.268   8.167  12.361  1.00  0.00     0.162 HD
BRANCH  42  44
HETATM   44  C32 UNL     1       0.549   7.992  13.428  1.00  0.00     0.161 C 
BRANCH  44  45
HETATM   45  C33 UNL     1       1.315   7.282  12.343  1.00  0.00    -0.040 A 
HETATM   46  C34 UNL     1       0.647   6.633  11.294  1.00  0.00     0.010 A 
HETATM   47  C35 UNL     1       1.372   5.966  10.300  1.00  0.00     0.019 A 
HETATM   48  C36 UNL     1       2.771   5.937  10.345  1.00  0.00     0.037 A 
HETATM   49  C38 UNL     1       3.441   6.574  11.394  1.00  0.00     0.019 A 
HETATM   50  C39 UNL     1       2.716   7.235  12.389  1.00  0.00     0.010 A 
BRANCH  48  51
HETATM   51  C37 UNL     1       3.495   5.221   9.267  1.00  0.00     0.176 C 
HETATM   52  O8  UNL     1       3.218   5.250   8.082  1.00  0.00    -0.646 OA
BRANCH  51  53
HETATM   53  O9  UNL     1       4.542   4.509   9.723  1.00  0.00    -0.773 OA
HETATM   54  H50 UNL     1       4.928   4.112   8.912  1.00  0.00     0.167 HD
ENDBRANCH  51  53
ENDBRANCH  48  51
ENDBRANCH  44  45
ENDBRANCH  42  44
ENDBRANCH  39  40
ENDBRANCH  38  39
ENDBRANCH  37  38
ENDBRANCH  36  37
ENDBRANCH  35  36
ENDBRANCH  33  35
ENDBRANCH  30  31
ENDBRANCH  29  30
ENDBRANCH   1  29
TORSDOF 18
ENDMDL
MODEL 8
REMARK minimizedAffinity -8.79827976
REMARK CNNscore 0.34231478
REMARK CNNaffinity 7.17891836
REMARK  18 active torsions:
REMARK  status: ('A' for Active; 'I' for Inactive)
REMARK    1  A    between atoms: C19_20  and  O2_21 
REMARK    2  A    between atoms: C19_20  and  C20_22 
REMARK    3  A    between atoms: C20_22  and  C21_24 
REMARK    4  A    between atoms: C21_24  and  O4_25 
REMARK    5  A    between atoms: O4_25  and  C22_26 
REMARK    6  A    between atoms: C22_26  and  C23_28 
REMARK    7  A    between atoms: C23_28  and  C24_29 
REMARK    8  A    between atoms: C24_29  and  C25_30 
REMARK       I    between atoms: C25_30  and  N1_32 
REMARK    9  A    between atoms: N1_32  and  C26_33 
REMARK   10  A    between atoms: C26_33  and  C27_34 
REMARK   11  A    between atoms: C27_34  and  C28_35 
REMARK   12  A    between atoms: C28_35  and  C29_36 
REMARK   13  A    between atoms: C29_36  and  C30_37 
REMARK   14  A    between atoms: C30_37  and  C31_38 
REMARK       I    between atoms: C31_38  and  N2_40 
REMARK   15  A    between atoms: N2_40  and  C32_41 
REMARK   16  A    between atoms: C32_41  and  C33_42 
REMARK   17  A    between atoms: C36_45  and  C37_46 
REMARK   18  A    between atoms: C37_46  and  O9_48 
ROOT
HETATM    1  C22 UNL     1      -6.020   5.407  14.353  1.00  0.00     0.259 C 
HETATM    2  O5  UNL     1      -6.117   6.163  15.312  1.00  0.00    -0.265 OA
ENDROOT
BRANCH   1   3
HETATM    3  O4  UNL     1      -4.982   5.410  13.472  1.00  0.00    -0.314 OA
BRANCH   3   4
HETATM    4  C21 UNL     1      -3.716   5.072  14.052  1.00  0.00     0.260 C 
BRANCH   4   5
HETATM    5  C20 UNL     1      -2.887   6.309  14.409  1.00  0.00     0.185 C 
HETATM    6  O3  UNL     1      -2.779   6.691  15.577  1.00  0.00    -0.292 OA
BRANCH   5   7
HETATM    7  C19 UNL     1      -2.254   7.085  13.231  1.00  0.00     0.128 C 
HETATM    8  C14 UNL     1      -0.707   6.874  13.004  1.00  0.00    -0.002 C 
HETATM    9  C13 UNL     1      -0.386   5.766  11.991  1.00  0.00     0.013 C 
HETATM   10  C15 UNL     1       0.015   6.568  14.338  1.00  0.00     0.019 C 
HETATM   11  C16 UNL     1      -0.198   8.266  12.489  1.00  0.00     0.002 C 
HETATM   12  C12 UNL     1       1.065   5.731  11.504  1.00  0.00     0.007 C 
HETATM   13  C11 UNL     1       1.791   7.094  11.415  1.00  0.00     0.002 C 
HETATM   14  C2  UNL     1       2.897   7.137  10.297  1.00  0.00    -0.016 C 
HETATM   15  C10 UNL     1       0.775   8.262  11.284  1.00  0.00    -0.004 C 
HETATM   16  C1  UNL     1       3.754   8.427  10.470  1.00  0.00     0.020 C 
HETATM   17  C3  UNL     1       3.919   5.964  10.415  1.00  0.00     0.022 C 
HETATM   18  C7  UNL     1       2.199   7.178   8.941  1.00  0.00    -0.068 C 
HETATM   19  C4  UNL     1       3.617   4.719   9.597  1.00  0.00     0.084 C 
HETATM   20  C5  UNL     1       3.232   5.072   8.183  1.00  0.00     0.149 C 
HETATM   21  O1  UNL     1       3.517   4.358   7.225  1.00  0.00    -0.293 OA
HETATM   22  C6  UNL     1       2.387   6.267   7.970  1.00  0.00     0.053 C 
HETATM   23  C8  UNL     1       1.192   8.292   8.757  1.00  0.00     0.035 C 
HETATM   24  C9  UNL     1       0.143   8.300   9.879  1.00  0.00     0.010 C 
HETATM   25  C17 UNL     1      -1.439   9.152  12.353  1.00  0.00     0.009 C 
HETATM   26  C18 UNL     1      -2.377   8.606  13.421  1.00  0.00     0.047 C 
BRANCH   7  27
HETATM   27  O2  UNL     1      -2.989   6.749  12.044  1.00  0.00    -0.381 OA
HETATM   28  H27 UNL     1      -3.848   7.205  12.074  1.00  0.00     0.211 HD
ENDBRANCH   7  27
ENDBRANCH   5   7
ENDBRANCH   4   5
ENDBRANCH   3   4
ENDBRANCH   1   3
BRANCH   1  29
HETATM   29  C23 UNL     1      -6.995   4.296  14.073  1.00  0.00     0.120 C 
BRANCH  29  30
HETATM   30  C24 UNL     1      -7.658   4.401  12.704  1.00  0.00     0.112 C 
BRANCH  30  31
HETATM   31  C25 UNL     1      -8.615   5.576  12.651  1.00  0.00     0.217 C 
HETATM   32  O6  UNL     1      -9.031   6.060  11.602  1.00  0.00    -0.274 OA
HETATM   33  N1  UNL     1      -8.985   6.036  13.895  1.00  0.00    -0.361 N 
HETATM   34  H34 UNL     1      -8.703   5.518  14.717  1.00  0.00     0.162 HD
BRANCH  33  35
HETATM   35  C26 UNL     1      -9.970   7.088  14.054  1.00  0.00     0.122 C 
BRANCH  35  36
HETATM   36  C27 UNL     1     -11.418   6.592  14.036  1.00  0.00     0.020 C 
BRANCH  36  37
HETATM   37  C28 UNL     1     -12.337   7.323  13.048  1.00  0.00     0.002 C 
BRANCH  37  38
HETATM   38  C29 UNL     1     -13.320   8.297  13.703  1.00  0.00     0.009 C 
BRANCH  38  39
HETATM   39  C30 UNL     1     -14.220   7.617  14.736  1.00  0.00     0.103 C 
BRANCH  39  40
HETATM   40  C31 UNL     1     -15.480   7.010  14.142  1.00  0.00     0.217 C 
HETATM   41  O7  UNL     1     -16.134   7.529  13.242  1.00  0.00    -0.274 OA
HETATM   42  N2  UNL     1     -15.807   5.802  14.727  1.00  0.00    -0.357 N 
HETATM   43  H45 UNL     1     -15.130   5.352  15.327  1.00  0.00     0.162 HD
BRANCH  42  44
HETATM   44  C32 UNL     1     -16.927   5.017  14.265  1.00  0.00     0.161 C 
BRANCH  44  45
HETATM   45  C33 UNL     1     -16.548   3.569  14.094  1.00  0.00    -0.040 A 
HETATM   46  C34 UNL     1     -17.273   2.729  13.237  1.00  0.00     0.010 A 
HETATM   47  C35 UNL     1     -16.917   1.383  13.099  1.00  0.00     0.019 A 
HETATM   48  C36 UNL     1     -15.836   0.860  13.819  1.00  0.00     0.037 A 
HETATM   49  C38 UNL     1     -15.116   1.691  14.683  1.00  0.00     0.019 A 
HETATM   50  C39 UNL     1     -15.476   3.033  14.824  1.00  0.00     0.010 A 
BRANCH  48  51
HETATM   51  C37 UNL     1     -15.494  -0.572  13.636  1.00  0.00     0.176 C 
HETATM   52  O8  UNL     1     -15.654  -1.453  14.459  1.00  0.00    -0.646 OA
BRANCH  51  53
HETATM   53  O9  UNL     1     -14.975  -0.834  12.422  1.00  0.00    -0.773 OA
HETATM   54  H50 UNL     1     -14.816  -1.803  12.439  1.00  0.00     0.167 HD
ENDBRANCH  51  53
ENDBRANCH  48  51
ENDBRANCH  44  45
ENDBRANCH  42  44
ENDBRANCH  39  40
ENDBRANCH  38  39
ENDBRANCH  37  38
ENDBRANCH  36  37
ENDBRANCH  35  36
ENDBRANCH  33  35
ENDBRANCH  30  31
ENDBRANCH  29  30
ENDBRANCH   1  29
TORSDOF 18
ENDMDL
MODEL 9
REMARK minimizedAffinity -7.81441927
REMARK CNNscore 0.330501229
REMARK CNNaffinity 7.28171349
REMARK  18 active torsions:
REMARK  status: ('A' for Active; 'I' for Inactive)
REMARK    1  A    between atoms: C19_20  and  O2_21 
REMARK    2  A    between atoms: C19_20  and  C20_22 
REMARK    3  A    between atoms: C20_22  and  C21_24 
REMARK    4  A    between atoms: C21_24  and  O4_25 
REMARK    5  A    between atoms: O4_25  and  C22_26 
REMARK    6  A    between atoms: C22_26  and  C23_28 
REMARK    7  A    between atoms: C23_28  and  C24_29 
REMARK    8  A    between atoms: C24_29  and  C25_30 
REMARK       I    between atoms: C25_30  and  N1_32 
REMARK    9  A    between atoms: N1_32  and  C26_33 
REMARK   10  A    between atoms: C26_33  and  C27_34 
REMARK   11  A    between atoms: C27_34  and  C28_35 
REMARK   12  A    between atoms: C28_35  and  C29_36 
REMARK   13  A    between atoms: C29_36  and  C30_37 
REMARK   14  A    between atoms: C30_37  and  C31_38 
REMARK       I    between atoms: C31_38  and  N2_40 
REMARK   15  A    between atoms: N2_40  and  C32_41 
REMARK   16  A    between atoms: C32_41  and  C33_42 
REMARK   17  A    between atoms: C36_45  and  C37_46 
REMARK   18  A    between atoms: C37_46  and  O9_48 
ROOT
HETATM    1  C22 UNL     1      -4.083   3.054  11.494  1.00  0.00     0.259 C 
HETATM    2  O5  UNL     1      -3.401   2.040  11.583  1.00  0.00    -0.265 OA
ENDROOT
BRANCH   1   3
HETATM    3  O4  UNL     1      -3.584   4.320  11.501  1.00  0.00    -0.314 OA
BRANCH   3   4
HETATM    4  C21 UNL     1      -3.585   4.946  12.790  1.00  0.00     0.260 C 
BRANCH   4   5
HETATM    5  C20 UNL     1      -2.593   6.109  12.876  1.00  0.00     0.185 C 
HETATM    6  O3  UNL     1      -1.398   5.950  12.619  1.00  0.00    -0.292 OA
BRANCH   5   7
HETATM    7  C19 UNL     1      -3.152   7.465  13.365  1.00  0.00     0.128 C 
HETATM    8  C14 UNL     1      -2.809   7.869  14.851  1.00  0.00    -0.002 C 
HETATM    9  C13 UNL     1      -1.551   8.741  14.970  1.00  0.00     0.013 C 
HETATM   10  C15 UNL     1      -2.647   6.617  15.746  1.00  0.00     0.019 C 
HETATM   11  C16 UNL     1      -4.078   8.651  15.342  1.00  0.00     0.002 C 
HETATM   12  C12 UNL     1      -1.351   9.412  16.331  1.00  0.00     0.007 C 
HETATM   13  C11 UNL     1      -2.637   9.802  17.098  1.00  0.00     0.002 C 
HETATM   14  C2  UNL     1      -2.449  11.057  18.029  1.00  0.00    -0.016 C 
HETATM   15  C10 UNL     1      -3.840   9.965  16.128  1.00  0.00    -0.004 C 
HETATM   16  C1  UNL     1      -3.690  11.197  18.960  1.00  0.00     0.020 C 
HETATM   17  C3  UNL     1      -1.239  10.907  19.003  1.00  0.00     0.022 C 
HETATM   18  C7  UNL     1      -2.344  12.294  17.143  1.00  0.00    -0.068 C 
HETATM   19  C4  UNL     1       0.087  11.481  18.529  1.00  0.00     0.084 C 
HETATM   20  C5  UNL     1      -0.089  12.865  17.958  1.00  0.00     0.149 C 
HETATM   21  O1  UNL     1       0.771  13.736  18.067  1.00  0.00    -0.293 OA
HETATM   22  C6  UNL     1      -1.295  13.135  17.146  1.00  0.00     0.053 C 
HETATM   23  C8  UNL     1      -3.485  12.501  16.172  1.00  0.00     0.035 C 
HETATM   24  C9  UNL     1      -3.721  11.259  15.299  1.00  0.00     0.010 C 
HETATM   25  C17 UNL     1      -5.016   8.745  14.136  1.00  0.00     0.009 C 
HETATM   26  C18 UNL     1      -4.689   7.489  13.341  1.00  0.00     0.047 C 
BRANCH   7  27
HETATM   27  O2  UNL     1      -2.702   8.477  12.450  1.00  0.00    -0.381 OA
HETATM   28  H27 UNL     1      -3.213   8.396  11.626  1.00  0.00     0.211 HD
ENDBRANCH   7  27
ENDBRANCH   5   7
ENDBRANCH   4   5
ENDBRANCH   3   4
ENDBRANCH   1   3
BRANCH   1  29
HETATM   29  C23 UNL     1      -5.570   3.034  11.263  1.00  0.00     0.120 C 
BRANCH  29  30
HETATM   30  C24 UNL     1      -6.368   2.587  12.482  1.00  0.00     0.112 C 
BRANCH  30  31
HETATM   31  C25 UNL     1      -7.489   3.562  12.787  1.00  0.00     0.217 C 
HETATM   32  O6  UNL     1      -8.675   3.245  12.794  1.00  0.00    -0.274 OA
HETATM   33  N1  UNL     1      -7.044   4.834  13.072  1.00  0.00    -0.361 N 
HETATM   34  H34 UNL     1      -6.050   4.999  13.168  1.00  0.00     0.162 HD
BRANCH  33  35
HETATM   35  C26 UNL     1      -7.956   5.883  13.486  1.00  0.00     0.122 C 
BRANCH  35  36
HETATM   36  C27 UNL     1      -8.263   5.883  14.986  1.00  0.00     0.020 C 
BRANCH  36  37
HETATM   37  C28 UNL     1      -8.738   7.231  15.545  1.00  0.00     0.002 C 
BRANCH  37  38
HETATM   38  C29 UNL     1     -10.199   7.564  15.233  1.00  0.00     0.009 C 
BRANCH  38  39
HETATM   39  C30 UNL     1     -10.348   8.861  14.436  1.00  0.00     0.103 C 
BRANCH  39  40
HETATM   40  C31 UNL     1     -11.787   9.194  14.077  1.00  0.00     0.217 C 
HETATM   41  O7  UNL     1     -12.339  10.252  14.362  1.00  0.00    -0.274 OA
HETATM   42  N2  UNL     1     -12.407   8.170  13.389  1.00  0.00    -0.357 N 
HETATM   43  H45 UNL     1     -11.843   7.411  13.032  1.00  0.00     0.162 HD
BRANCH  42  44
HETATM   44  C32 UNL     1     -13.754   8.302  12.886  1.00  0.00     0.161 C 
BRANCH  44  45
HETATM   45  C33 UNL     1     -14.608   7.128  13.290  1.00  0.00    -0.040 A 
HETATM   46  C34 UNL     1     -15.896   6.958  12.764  1.00  0.00     0.010 A 
HETATM   47  C35 UNL     1     -16.682   5.869  13.158  1.00  0.00     0.019 A 
HETATM   48  C36 UNL     1     -16.191   4.942  14.085  1.00  0.00     0.037 A 
HETATM   49  C38 UNL     1     -14.911   5.112  14.620  1.00  0.00     0.019 A 
HETATM   50  C39 UNL     1     -14.129   6.203  14.230  1.00  0.00     0.010 A 
BRANCH  48  51
HETATM   51  C37 UNL     1     -17.060   3.802  14.468  1.00  0.00     0.176 C 
HETATM   52  O8  UNL     1     -18.091   3.876  15.111  1.00  0.00    -0.646 OA
BRANCH  51  53
HETATM   53  O9  UNL     1     -16.599   2.620  14.019  1.00  0.00    -0.773 OA
HETATM   54  H50 UNL     1     -17.270   1.973  14.328  1.00  0.00     0.167 HD
ENDBRANCH  51  53
ENDBRANCH  48  51
ENDBRANCH  44  45
ENDBRANCH  42  44
ENDBRANCH  39  40
ENDBRANCH  38  39
ENDBRANCH  37  38
ENDBRANCH  36  37
ENDBRANCH  35  36
ENDBRANCH  33  35
ENDBRANCH  30  31
ENDBRANCH  29  30
ENDBRANCH   1  29
TORSDOF 18
ENDMDL
