MODEL 1
REMARK minimizedAffinity -8.26207829
REMARK CNNscore 0.447981983
REMARK CNNaffinity 6.42179298
REMARK  19 active torsions:
REMARK  status: ('A' for Active; 'I' for Inactive)
REMARK    1  A    between atoms: O1_2  and  C2_3 
REMARK    2  A    between atoms: C2_3  and  C3_4 
REMARK    3  A    between atoms: C2_3  and  C28_36 
REMARK    4  A    between atoms: C3_4  and  C4_5 
REMARK    5  A    between atoms: C4_5  and  C6_7 
REMARK    6  A    between atoms: C6_7  and  O2_8 
REMARK    7  A    between atoms: C6_7  and  C7_9 
REMARK    8  A    between atoms: C8_10  and  C9_11 
REMARK    9  A    between atoms: C10_12  and  C11_13 
REMARK   10  A    between atoms: C11_13  and  N1_14 
REMARK       I    between atoms: N1_14  and  C12_15 
REMARK   11  A    between atoms: C12_15  and  C13_17 
REMARK   12  A    between atoms: C13_17  and  C16_20 
REMARK   13  A    between atoms: C16_20  and  O4_21 
REMARK   14  A    between atoms: C16_20  and  C17_22 
REMARK   15  A    between atoms: C19_24  and  C20_25 
REMARK   16  A    between atoms: C21_26  and  C22_27 
REMARK   17  A    between atoms: C23_28  and  C24_29 
REMARK   18  A    between atoms: C26_31  and  N2_33 
REMARK   19  A    between atoms: C28_36  and  O7_37 
ROOT
HETATM    1  C9  UNL     1      -5.201  47.762 -27.761  1.00  0.00    -0.003 C 
HETATM    2  C10 UNL     1      -6.384  47.467 -28.313  1.00  0.00    -0.007 C 
ENDROOT
BRANCH   1   3
HETATM    3  C8  UNL     1      -5.079  48.471 -26.507  1.00  0.00    -0.002 C 
HETATM    4  C7  UNL     1      -3.950  48.453 -25.782  1.00  0.00     0.005 C 
BRANCH   4   5
HETATM    5  C6  UNL     1      -3.653  49.251 -24.536  1.00  0.00     0.144 C 
BRANCH   5   6
HETATM    6  C4  UNL     1      -4.377  50.611 -24.607  1.00  0.00     0.016 C 
HETATM    7  C5  UNL     1      -4.796  51.122 -23.215  1.00  0.00     0.013 C 
BRANCH   6   8
HETATM    8  C3  UNL     1      -3.526  51.700 -25.311  1.00  0.00     0.042 C 
BRANCH   8   9
HETATM    9  C2  UNL     1      -2.034  51.554 -24.915  1.00  0.00     0.159 C 
BRANCH   9  10
HETATM   10  O1  UNL     1      -1.895  50.577 -23.890  1.00  0.00    -0.388 OA
HETATM   11  C1  UNL     1      -1.411  51.091 -22.657  1.00  0.00     0.202 C 
ENDBRANCH   9  10
BRANCH   9  12
HETATM   12  C28 UNL     1      -1.096  51.190 -26.126  1.00  0.00     0.133 C 
HETATM   13  C29 UNL     1      -1.716  51.559 -27.511  1.00  0.00     0.114 C 
HETATM   14  C30 UNL     1      -3.166  51.169 -27.753  1.00  0.00     0.023 C 
HETATM   15  C31 UNL     1      -1.439  53.039 -27.633  1.00  0.00     0.227 C 
HETATM   16  O8  UNL     1      -2.133  53.853 -28.223  1.00  0.00    -0.273 OA
HETATM   17  N3  UNL     1      -0.234  53.261 -26.967  1.00  0.00    -0.332 N 
HETATM   18  C32 UNL     1       0.138  54.606 -26.607  1.00  0.00     0.154 C 
HETATM   19  C33 UNL     1       0.189  52.051 -26.176  1.00  0.00     0.183 A 
HETATM   20  C34 UNL     1       1.037  52.203 -24.874  1.00  0.00     0.294 A 
HETATM   21  C35 UNL     1       1.499  51.376 -26.699  1.00  0.00     0.169 A 
HETATM   22  O9  UNL     1       0.948  52.680 -23.763  1.00  0.00    -0.262 OA
HETATM   23  O10 UNL     1       2.101  51.526 -25.380  1.00  0.00    -0.311 OA
HETATM   24  C36 UNL     1       2.364  52.042 -27.757  1.00  0.00     0.043 C 
BRANCH  12  25
HETATM   25  O7  UNL     1      -0.815  49.783 -26.166  1.00  0.00    -0.383 OA
HETATM   26  H42 UNL     1      -0.179  49.555 -25.460  1.00  0.00     0.210 HD
ENDBRANCH  12  25
ENDBRANCH   9  12
ENDBRANCH   8   9
ENDBRANCH   6   8
ENDBRANCH   5   6
BRANCH   5  27
HETATM   27  O2  UNL     1      -4.038  48.524 -23.378  1.00  0.00    -0.391 OA
HETATM   28  H12 UNL     1      -3.820  49.072 -22.604  1.00  0.00     0.210 HD
ENDBRANCH   5  27
ENDBRANCH   4   5
ENDBRANCH   1   3
BRANCH   2  29
HETATM   29  C11 UNL     1      -6.523  46.869 -29.680  1.00  0.00     0.149 C 
BRANCH  29  30
HETATM   30  N1  UNL     1      -7.871  47.088 -30.149  1.00  0.00    -0.357 N 
HETATM   31  C12 UNL     1      -8.823  46.093 -30.084  1.00  0.00     0.228 C 
HETATM   32  O3  UNL     1      -8.580  45.006 -29.564  1.00  0.00    -0.273 OA
HETATM   33  H19 UNL     1      -8.026  47.881 -30.760  1.00  0.00     0.162 HD
BRANCH  31  34
HETATM   34  C13 UNL     1     -10.216  46.444 -30.641  1.00  0.00     0.063 C 
HETATM   35  C14 UNL     1     -10.955  45.134 -30.987  1.00  0.00     0.028 C 
HETATM   36  C15 UNL     1     -10.049  47.214 -31.974  1.00  0.00     0.028 C 
BRANCH  34  37
HETATM   37  C16 UNL     1     -10.983  47.309 -29.596  1.00  0.00     0.164 C 
BRANCH  37  38
HETATM   38  O4  UNL     1     -12.314  47.592 -30.047  1.00  0.00    -0.390 OA
HETATM   39  H27 UNL     1     -12.770  48.011 -29.299  1.00  0.00     0.210 HD
ENDBRANCH  37  38
BRANCH  37  40
HETATM   40  C17 UNL     1     -11.029  46.786 -28.158  1.00  0.00    -0.054 C 
HETATM   41  C18 UNL     1     -10.086  47.510 -27.218  1.00  0.00     0.046 C 
HETATM   42  C19 UNL     1     -11.815  45.813 -27.644  1.00  0.00     0.005 C 
BRANCH  42  43
HETATM   43  C20 UNL     1     -12.793  44.992 -28.334  1.00  0.00     0.000 C 
HETATM   44  C21 UNL     1     -14.131  45.014 -28.197  1.00  0.00     0.000 C 
BRANCH  44  45
HETATM   45  C22 UNL     1     -14.919  45.843 -27.308  1.00  0.00     0.001 C 
HETATM   46  C23 UNL     1     -15.676  45.326 -26.323  1.00  0.00     0.009 C 
BRANCH  46  47
HETATM   47  C24 UNL     1     -16.495  46.082 -25.359  1.00  0.00    -0.034 C 
HETATM   48  C25 UNL     1     -15.737  47.035 -24.449  1.00  0.00     0.050 C 
HETATM   49  C26 UNL     1     -17.839  45.919 -25.325  1.00  0.00     0.082 C 
HETATM   50  C27 UNL     1     -18.751  45.041 -26.113  1.00  0.00     0.075 C 
BRANCH  49  51
HETATM   51  N2  UNL     1     -18.595  46.723 -24.386  1.00  0.00    -0.120 N 
HETATM   52  O5  UNL     1     -19.102  47.763 -24.826  1.00  0.00    -0.532 OA
HETATM   53  O6  UNL     1     -18.693  46.290 -23.231  1.00  0.00    -0.532 OA
ENDBRANCH  49  51
ENDBRANCH  46  47
ENDBRANCH  44  45
ENDBRANCH  42  43
ENDBRANCH  37  40
ENDBRANCH  34  37
ENDBRANCH  31  34
ENDBRANCH  29  30
ENDBRANCH   2  29
TORSDOF 19
ENDMDL
MODEL 2
REMARK minimizedAffinity -7.89362812
REMARK CNNscore 0.363980383
REMARK CNNaffinity 6.86927462
REMARK  19 active torsions:
REMARK  status: ('A' for Active; 'I' for Inactive)
REMARK    1  A    between atoms: O1_2  and  C2_3 
REMARK    2  A    between atoms: C2_3  and  C3_4 
REMARK    3  A    between atoms: C2_3  and  C28_36 
REMARK    4  A    between atoms: C3_4  and  C4_5 
REMARK    5  A    between atoms: C4_5  and  C6_7 
REMARK    6  A    between atoms: C6_7  and  O2_8 
REMARK    7  A    between atoms: C6_7  and  C7_9 
REMARK    8  A    between atoms: C8_10  and  C9_11 
REMARK    9  A    between atoms: C10_12  and  C11_13 
REMARK   10  A    between atoms: C11_13  and  N1_14 
REMARK       I    between atoms: N1_14  and  C12_15 
REMARK   11  A    between atoms: C12_15  and  C13_17 
REMARK   12  A    between atoms: C13_17  and  C16_20 
REMARK   13  A    between atoms: C16_20  and  O4_21 
REMARK   14  A    between atoms: C16_20  and  C17_22 
REMARK   15  A    between atoms: C19_24  and  C20_25 
REMARK   16  A    between atoms: C21_26  and  C22_27 
REMARK   17  A    between atoms: C23_28  and  C24_29 
REMARK   18  A    between atoms: C26_31  and  N2_33 
REMARK   19  A    between atoms: C28_36  and  O7_37 
ROOT
HETATM    1  C9  UNL     1       1.421  52.333 -16.579  1.00  0.00    -0.003 C 
HETATM    2  C10 UNL     1       0.588  52.053 -17.591  1.00  0.00    -0.007 C 
ENDROOT
BRANCH   1   3
HETATM    3  C8  UNL     1       1.307  51.711 -15.280  1.00  0.00    -0.002 C 
HETATM    4  C7  UNL     1       0.723  52.327 -14.240  1.00  0.00     0.005 C 
BRANCH   4   5
HETATM    5  C6  UNL     1       0.424  51.740 -12.883  1.00  0.00     0.144 C 
BRANCH   5   6
HETATM    6  C4  UNL     1       0.164  52.877 -11.872  1.00  0.00     0.016 C 
HETATM    7  C5  UNL     1      -1.334  53.046 -11.558  1.00  0.00     0.013 C 
BRANCH   6   8
HETATM    8  C3  UNL     1       0.942  52.680 -10.546  1.00  0.00     0.042 C 
BRANCH   8   9
HETATM    9  C2  UNL     1       1.685  53.986 -10.161  1.00  0.00     0.159 C 
BRANCH   9  10
HETATM   10  O1  UNL     1       1.464  54.286  -8.788  1.00  0.00    -0.388 OA
HETATM   11  C1  UNL     1       0.248  53.767  -8.267  1.00  0.00     0.202 C 
ENDBRANCH   9  10
BRANCH   9  12
HETATM   12  C28 UNL     1       3.232  53.936 -10.450  1.00  0.00     0.133 C 
HETATM   13  C29 UNL     1       3.908  55.344 -10.400  1.00  0.00     0.114 C 
HETATM   14  C30 UNL     1       3.210  56.480 -11.132  1.00  0.00     0.023 C 
HETATM   15  C31 UNL     1       4.107  55.582  -8.923  1.00  0.00     0.227 C 
HETATM   16  O8  UNL     1       4.096  56.668  -8.362  1.00  0.00    -0.273 OA
HETATM   17  N3  UNL     1       4.329  54.327  -8.357  1.00  0.00    -0.332 N 
HETATM   18  C32 UNL     1       4.218  54.165  -6.929  1.00  0.00     0.154 C 
HETATM   19  C33 UNL     1       4.033  53.221  -9.336  1.00  0.00     0.183 A 
HETATM   20  C34 UNL     1       3.540  51.826  -8.841  1.00  0.00     0.294 A 
HETATM   21  C35 UNL     1       5.290  52.393  -9.759  1.00  0.00     0.169 A 
HETATM   22  O9  UNL     1       2.596  51.329  -8.265  1.00  0.00    -0.262 OA
HETATM   23  O10 UNL     1       4.630  51.170  -9.319  1.00  0.00    -0.311 OA
HETATM   24  C36 UNL     1       6.624  52.561  -9.049  1.00  0.00     0.043 C 
BRANCH  12  25
HETATM   25  O7  UNL     1       3.504  53.398 -11.752  1.00  0.00    -0.383 OA
HETATM   26  H42 UNL     1       3.362  52.432 -11.745  1.00  0.00     0.210 HD
ENDBRANCH  12  25
ENDBRANCH   9  12
ENDBRANCH   8   9
ENDBRANCH   6   8
ENDBRANCH   5   6
BRANCH   5  27
HETATM   27  O2  UNL     1      -0.686  50.857 -12.958  1.00  0.00    -0.391 OA
HETATM   28  H12 UNL     1      -0.835  50.499 -12.065  1.00  0.00     0.210 HD
ENDBRANCH   5  27
ENDBRANCH   4   5
ENDBRANCH   1   3
BRANCH   2  29
HETATM   29  C11 UNL     1       0.600  52.799 -18.891  1.00  0.00     0.149 C 
BRANCH  29  30
HETATM   30  N1  UNL     1      -0.044  51.988 -19.897  1.00  0.00    -0.357 N 
HETATM   31  C12 UNL     1      -1.372  51.634 -19.789  1.00  0.00     0.228 C 
HETATM   32  O3  UNL     1      -2.074  52.050 -18.870  1.00  0.00    -0.273 OA
HETATM   33  H19 UNL     1       0.556  51.471 -20.529  1.00  0.00     0.162 HD
BRANCH  31  34
HETATM   34  C13 UNL     1      -1.935  50.744 -20.915  1.00  0.00     0.063 C 
HETATM   35  C14 UNL     1      -3.285  50.157 -20.453  1.00  0.00     0.028 C 
HETATM   36  C15 UNL     1      -0.986  49.538 -21.128  1.00  0.00     0.028 C 
BRANCH  34  37
HETATM   37  C16 UNL     1      -2.058  51.586 -22.220  1.00  0.00     0.164 C 
BRANCH  37  38
HETATM   38  O4  UNL     1      -0.941  51.349 -23.087  1.00  0.00    -0.390 OA
HETATM   39  H27 UNL     1      -1.149  51.793 -23.925  1.00  0.00     0.210 HD
ENDBRANCH  37  38
BRANCH  37  40
HETATM   40  C17 UNL     1      -3.360  51.453 -23.014  1.00  0.00    -0.054 C 
HETATM   41  C18 UNL     1      -4.377  52.531 -22.697  1.00  0.00     0.046 C 
HETATM   42  C19 UNL     1      -3.678  50.538 -23.958  1.00  0.00     0.005 C 
BRANCH  42  43
HETATM   43  C20 UNL     1      -2.875  49.426 -24.435  1.00  0.00     0.000 C 
HETATM   44  C21 UNL     1      -3.164  48.570 -25.432  1.00  0.00     0.000 C 
BRANCH  44  45
HETATM   45  C22 UNL     1      -4.357  48.532 -26.252  1.00  0.00     0.001 C 
HETATM   46  C23 UNL     1      -4.341  48.103 -27.527  1.00  0.00     0.009 C 
BRANCH  46  47
HETATM   47  C24 UNL     1      -5.498  48.010 -28.435  1.00  0.00    -0.034 C 
HETATM   48  C25 UNL     1      -5.217  48.307 -29.899  1.00  0.00     0.050 C 
HETATM   49  C26 UNL     1      -6.719  47.668 -27.958  1.00  0.00     0.082 C 
HETATM   50  C27 UNL     1      -7.191  47.355 -26.579  1.00  0.00     0.075 C 
BRANCH  49  51
HETATM   51  N2  UNL     1      -7.807  47.550 -28.906  1.00  0.00    -0.120 N 
HETATM   52  O5  UNL     1      -8.499  48.561 -29.088  1.00  0.00    -0.532 OA
HETATM   53  O6  UNL     1      -7.939  46.460 -29.475  1.00  0.00    -0.532 OA
ENDBRANCH  49  51
ENDBRANCH  46  47
ENDBRANCH  44  45
ENDBRANCH  42  43
ENDBRANCH  37  40
ENDBRANCH  34  37
ENDBRANCH  31  34
ENDBRANCH  29  30
ENDBRANCH   2  29
TORSDOF 19
ENDMDL
MODEL 3
REMARK minimizedAffinity -7.94457674
REMARK CNNscore 0.272370398
REMARK CNNaffinity 6.00470877
REMARK  19 active torsions:
REMARK  status: ('A' for Active; 'I' for Inactive)
REMARK    1  A    between atoms: O1_2  and  C2_3 
REMARK    2  A    between atoms: C2_3  and  C3_4 
REMARK    3  A    between atoms: C2_3  and  C28_36 
REMARK    4  A    between atoms: C3_4  and  C4_5 
REMARK    5  A    between atoms: C4_5  and  C6_7 
REMARK    6  A    between atoms: C6_7  and  O2_8 
REMARK    7  A    between atoms: C6_7  and  C7_9 
REMARK    8  A    between atoms: C8_10  and  C9_11 
REMARK    9  A    between atoms: C10_12  and  C11_13 
REMARK   10  A    between atoms: C11_13  and  N1_14 
REMARK       I    between atoms: N1_14  and  C12_15 
REMARK   11  A    between atoms: C12_15  and  C13_17 
REMARK   12  A    between atoms: C13_17  and  C16_20 
REMARK   13  A    between atoms: C16_20  and  O4_21 
REMARK   14  A    between atoms: C16_20  and  C17_22 
REMARK   15  A    between atoms: C19_24  and  C20_25 
REMARK   16  A    between atoms: C21_26  and  C22_27 
REMARK   17  A    between atoms: C23_28  and  C24_29 
REMARK   18  A    between atoms: C26_31  and  N2_33 
REMARK   19  A    between atoms: C28_36  and  O7_37 
ROOT
HETATM    1  C9  UNL     1      -7.505  48.824 -23.521  1.00  0.00    -0.003 C 
HETATM    2  C10 UNL     1      -7.785  47.858 -22.637  1.00  0.00    -0.007 C 
ENDROOT
BRANCH   1   3
HETATM    3  C8  UNL     1      -8.230  48.981 -24.762  1.00  0.00    -0.002 C 
HETATM    4  C7  UNL     1      -9.061  48.036 -25.229  1.00  0.00     0.005 C 
BRANCH   4   5
HETATM    5  C6  UNL     1      -9.969  48.132 -26.429  1.00  0.00     0.144 C 
BRANCH   5   6
HETATM    6  C4  UNL     1     -10.692  46.786 -26.642  1.00  0.00     0.016 C 
HETATM    7  C5  UNL     1      -9.706  45.614 -26.806  1.00  0.00     0.013 C 
BRANCH   6   8
HETATM    8  C3  UNL     1     -11.684  46.458 -25.497  1.00  0.00     0.042 C 
BRANCH   8   9
HETATM    9  C2  UNL     1     -12.817  45.534 -26.017  1.00  0.00     0.159 C 
BRANCH   9  10
HETATM   10  O1  UNL     1     -12.966  44.413 -25.152  1.00  0.00    -0.388 OA
HETATM   11  C1  UNL     1     -12.512  43.186 -25.706  1.00  0.00     0.202 C 
ENDBRANCH   9  10
BRANCH   9  12
HETATM   12  C28 UNL     1     -14.200  46.267 -26.178  1.00  0.00     0.133 C 
HETATM   13  C29 UNL     1     -15.018  45.764 -27.410  1.00  0.00     0.114 C 
HETATM   14  C30 UNL     1     -14.274  45.617 -28.728  1.00  0.00     0.023 C 
HETATM   15  C31 UNL     1     -15.657  44.491 -26.908  1.00  0.00     0.227 C 
HETATM   16  O8  UNL     1     -15.929  43.510 -27.582  1.00  0.00    -0.273 OA
HETATM   17  N3  UNL     1     -15.887  44.687 -25.546  1.00  0.00    -0.332 N 
HETATM   18  C32 UNL     1     -16.169  43.551 -24.706  1.00  0.00     0.154 C 
HETATM   19  C33 UNL     1     -15.199  45.931 -25.045  1.00  0.00     0.183 A 
HETATM   20  C34 UNL     1     -14.713  46.034 -23.566  1.00  0.00     0.294 A 
HETATM   21  C35 UNL     1     -16.180  47.055 -24.580  1.00  0.00     0.169 A 
HETATM   22  O9  UNL     1     -13.921  45.506 -22.813  1.00  0.00    -0.262 OA
HETATM   23  O10 UNL     1     -15.539  47.072 -23.271  1.00  0.00    -0.311 OA
HETATM   24  C36 UNL     1     -17.672  46.796 -24.437  1.00  0.00     0.043 C 
BRANCH  12  25
HETATM   25  O7  UNL     1     -14.026  47.681 -26.353  1.00  0.00    -0.383 OA
HETATM   26  H42 UNL     1     -13.783  48.090 -25.500  1.00  0.00     0.210 HD
ENDBRANCH  12  25
ENDBRANCH   9  12
ENDBRANCH   8   9
ENDBRANCH   6   8
ENDBRANCH   5   6
BRANCH   5  27
HETATM   27  O2  UNL     1     -10.900  49.193 -26.263  1.00  0.00    -0.391 OA
HETATM   28  H12 UNL     1     -11.456  49.221 -27.062  1.00  0.00     0.210 HD
ENDBRANCH   5  27
ENDBRANCH   4   5
ENDBRANCH   1   3
BRANCH   2  29
HETATM   29  C11 UNL     1      -6.948  47.592 -21.423  1.00  0.00     0.149 C 
BRANCH  29  30
HETATM   30  N1  UNL     1      -5.669  48.242 -21.588  1.00  0.00    -0.357 N 
HETATM   31  C12 UNL     1      -5.346  49.379 -20.878  1.00  0.00     0.228 C 
HETATM   32  O3  UNL     1      -6.106  49.842 -20.029  1.00  0.00    -0.273 OA
HETATM   33  H19 UNL     1      -5.134  48.007 -22.415  1.00  0.00     0.162 HD
BRANCH  31  34
HETATM   34  C13 UNL     1      -3.962  49.992 -21.164  1.00  0.00     0.063 C 
HETATM   35  C14 UNL     1      -4.042  51.517 -20.944  1.00  0.00     0.028 C 
HETATM   36  C15 UNL     1      -3.617  49.786 -22.660  1.00  0.00     0.028 C 
BRANCH  34  37
HETATM   37  C16 UNL     1      -2.900  49.307 -20.253  1.00  0.00     0.164 C 
BRANCH  37  38
HETATM   38  O4  UNL     1      -3.462  48.172 -19.579  1.00  0.00    -0.390 OA
HETATM   39  H27 UNL     1      -2.720  47.721 -19.144  1.00  0.00     0.210 HD
ENDBRANCH  37  38
BRANCH  37  40
HETATM   40  C17 UNL     1      -1.574  48.910 -20.906  1.00  0.00    -0.054 C 
HETATM   41  C18 UNL     1      -1.587  47.520 -21.509  1.00  0.00     0.046 C 
HETATM   42  C19 UNL     1      -0.447  49.647 -21.034  1.00  0.00     0.005 C 
BRANCH  42  43
HETATM   43  C20 UNL     1      -0.198  50.994 -20.553  1.00  0.00     0.000 C 
HETATM   44  C21 UNL     1      -0.260  52.142 -21.251  1.00  0.00     0.000 C 
BRANCH  44  45
HETATM   45  C22 UNL     1      -0.565  52.311 -22.657  1.00  0.00     0.001 C 
HETATM   46  C23 UNL     1       0.377  52.226 -23.613  1.00  0.00     0.009 C 
BRANCH  46  47
HETATM   47  C24 UNL     1       0.167  52.364 -25.066  1.00  0.00    -0.034 C 
HETATM   48  C25 UNL     1      -0.071  51.071 -25.827  1.00  0.00     0.050 C 
HETATM   49  C26 UNL     1       0.180  53.588 -25.647  1.00  0.00     0.082 C 
HETATM   50  C27 UNL     1       0.402  54.950 -25.084  1.00  0.00     0.075 C 
BRANCH  49  51
HETATM   51  N2  UNL     1      -0.077  53.663 -27.071  1.00  0.00    -0.120 N 
HETATM   52  O5  UNL     1      -0.506  54.741 -27.503  1.00  0.00    -0.532 OA
HETATM   53  O6  UNL     1       0.178  52.654 -27.739  1.00  0.00    -0.532 OA
ENDBRANCH  49  51
ENDBRANCH  46  47
ENDBRANCH  44  45
ENDBRANCH  42  43
ENDBRANCH  37  40
ENDBRANCH  34  37
ENDBRANCH  31  34
ENDBRANCH  29  30
ENDBRANCH   2  29
TORSDOF 19
ENDMDL
MODEL 4
REMARK minimizedAffinity -7.87613726
REMARK CNNscore 0.238874331
REMARK CNNaffinity 6.43080854
REMARK  19 active torsions:
REMARK  status: ('A' for Active; 'I' for Inactive)
REMARK    1  A    between atoms: O1_2  and  C2_3 
REMARK    2  A    between atoms: C2_3  and  C3_4 
REMARK    3  A    between atoms: C2_3  and  C28_36 
REMARK    4  A    between atoms: C3_4  and  C4_5 
REMARK    5  A    between atoms: C4_5  and  C6_7 
REMARK    6  A    between atoms: C6_7  and  O2_8 
REMARK    7  A    between atoms: C6_7  and  C7_9 
REMARK    8  A    between atoms: C8_10  and  C9_11 
REMARK    9  A    between atoms: C10_12  and  C11_13 
REMARK   10  A    between atoms: C11_13  and  N1_14 
REMARK       I    between atoms: N1_14  and  C12_15 
REMARK   11  A    between atoms: C12_15  and  C13_17 
REMARK   12  A    between atoms: C13_17  and  C16_20 
REMARK   13  A    between atoms: C16_20  and  O4_21 
REMARK   14  A    between atoms: C16_20  and  C17_22 
REMARK   15  A    between atoms: C19_24  and  C20_25 
REMARK   16  A    between atoms: C21_26  and  C22_27 
REMARK   17  A    between atoms: C23_28  and  C24_29 
REMARK   18  A    between atoms: C26_31  and  N2_33 
REMARK   19  A    between atoms: C28_36  and  O7_37 
ROOT
HETATM    1  C9  UNL     1       1.710  52.047 -17.075  1.00  0.00    -0.003 C 
HETATM    2  C10 UNL     1       1.694  52.393 -15.781  1.00  0.00    -0.007 C 
ENDROOT
BRANCH   1   3
HETATM    3  C8  UNL     1       0.750  52.551 -18.030  1.00  0.00    -0.002 C 
HETATM    4  C7  UNL     1      -0.010  51.736 -18.778  1.00  0.00     0.005 C 
BRANCH   4   5
HETATM    5  C6  UNL     1      -1.133  52.131 -19.705  1.00  0.00     0.144 C 
BRANCH   5   6
HETATM    6  C4  UNL     1      -0.757  51.774 -21.158  1.00  0.00     0.016 C 
HETATM    7  C5  UNL     1       0.746  51.963 -21.434  1.00  0.00     0.013 C 
BRANCH   6   8
HETATM    8  C3  UNL     1      -1.165  50.327 -21.537  1.00  0.00     0.042 C 
BRANCH   8   9
HETATM    9  C2  UNL     1      -2.145  50.344 -22.739  1.00  0.00     0.159 C 
BRANCH   9  10
HETATM   10  O1  UNL     1      -1.426  50.534 -23.952  1.00  0.00    -0.388 OA
HETATM   11  C1  UNL     1      -1.767  51.724 -24.650  1.00  0.00     0.202 C 
ENDBRANCH   9  10
BRANCH   9  12
HETATM   12  C28 UNL     1      -3.030  49.046 -22.844  1.00  0.00     0.133 C 
HETATM   13  C29 UNL     1      -2.822  48.066 -21.646  1.00  0.00     0.114 C 
HETATM   14  C30 UNL     1      -1.390  47.768 -21.229  1.00  0.00     0.023 C 
HETATM   15  C31 UNL     1      -3.679  48.662 -20.555  1.00  0.00     0.227 C 
HETATM   16  O8  UNL     1      -3.462  48.597 -19.355  1.00  0.00    -0.273 OA
HETATM   17  N3  UNL     1      -4.759  49.264 -21.200  1.00  0.00    -0.332 N 
HETATM   18  C32 UNL     1      -5.577  50.208 -20.480  1.00  0.00     0.154 C 
HETATM   19  C33 UNL     1      -4.543  49.331 -22.690  1.00  0.00     0.183 A 
HETATM   20  C34 UNL     1      -5.178  50.477 -23.539  1.00  0.00     0.294 A 
HETATM   21  C35 UNL     1      -5.539  48.453 -23.516  1.00  0.00     0.169 A 
HETATM   22  O9  UNL     1      -5.121  51.683 -23.654  1.00  0.00    -0.262 OA
HETATM   23  O10 UNL     1      -5.947  49.630 -24.272  1.00  0.00    -0.311 OA
HETATM   24  C36 UNL     1      -6.745  47.797 -22.863  1.00  0.00     0.043 C 
BRANCH  12  25
HETATM   25  O7  UNL     1      -2.731  48.304 -24.036  1.00  0.00    -0.383 OA
HETATM   26  H42 UNL     1      -3.111  48.761 -24.811  1.00  0.00     0.210 HD
ENDBRANCH  12  25
ENDBRANCH   9  12
ENDBRANCH   8   9
ENDBRANCH   6   8
ENDBRANCH   5   6
BRANCH   5  27
HETATM   27  O2  UNL     1      -2.343  51.494 -19.317  1.00  0.00    -0.391 OA
HETATM   28  H12 UNL     1      -3.037  51.785 -19.935  1.00  0.00     0.210 HD
ENDBRANCH   5  27
ENDBRANCH   4   5
ENDBRANCH   1   3
BRANCH   2  29
HETATM   29  C11 UNL     1       2.586  51.764 -14.754  1.00  0.00     0.149 C 
BRANCH  29  30
HETATM   30  N1  UNL     1       2.244  52.293 -13.455  1.00  0.00    -0.357 N 
HETATM   31  C12 UNL     1       1.807  51.470 -12.439  1.00  0.00     0.228 C 
HETATM   32  O3  UNL     1       1.757  50.250 -12.579  1.00  0.00    -0.273 OA
HETATM   33  H19 UNL     1       2.078  53.290 -13.390  1.00  0.00     0.162 HD
BRANCH  31  34
HETATM   34  C13 UNL     1       1.449  52.159 -11.108  1.00  0.00     0.063 C 
HETATM   35  C14 UNL     1       2.679  52.109 -10.178  1.00  0.00     0.028 C 
HETATM   36  C15 UNL     1       0.335  51.348 -10.401  1.00  0.00     0.028 C 
BRANCH  34  37
HETATM   37  C16 UNL     1       0.972  53.614 -11.398  1.00  0.00     0.164 C 
BRANCH  37  38
HETATM   38  O4  UNL     1      -0.353  53.617 -11.944  1.00  0.00    -0.390 OA
HETATM   39  H27 UNL     1      -0.634  54.547 -11.971  1.00  0.00     0.210 HD
ENDBRANCH  37  38
BRANCH  37  40
HETATM   40  C17 UNL     1       1.053  54.616 -10.243  1.00  0.00    -0.054 C 
HETATM   41  C18 UNL     1      -0.093  54.500  -9.258  1.00  0.00     0.046 C 
HETATM   42  C19 UNL     1       2.015  55.533  -9.993  1.00  0.00     0.005 C 
BRANCH  42  43
HETATM   43  C20 UNL     1       3.203  55.823 -10.776  1.00  0.00     0.000 C 
HETATM   44  C21 UNL     1       4.457  55.385 -10.563  1.00  0.00     0.000 C 
BRANCH  44  45
HETATM   45  C22 UNL     1       4.932  54.541  -9.486  1.00  0.00     0.001 C 
HETATM   46  C23 UNL     1       6.188  54.061  -9.449  1.00  0.00     0.009 C 
BRANCH  46  47
HETATM   47  C24 UNL     1       6.770  53.212  -8.393  1.00  0.00    -0.034 C 
HETATM   48  C25 UNL     1       7.049  53.901  -7.068  1.00  0.00     0.050 C 
HETATM   49  C26 UNL     1       7.016  51.900  -8.625  1.00  0.00     0.082 C 
HETATM   50  C27 UNL     1       6.824  51.057  -9.839  1.00  0.00     0.075 C 
BRANCH  49  51
HETATM   51  N2  UNL     1       7.547  51.108  -7.535  1.00  0.00    -0.120 N 
HETATM   52  O5  UNL     1       8.556  50.434  -7.777  1.00  0.00    -0.532 OA
HETATM   53  O6  UNL     1       6.965  51.193  -6.447  1.00  0.00    -0.532 OA
ENDBRANCH  49  51
ENDBRANCH  46  47
ENDBRANCH  44  45
ENDBRANCH  42  43
ENDBRANCH  37  40
ENDBRANCH  34  37
ENDBRANCH  31  34
ENDBRANCH  29  30
ENDBRANCH   2  29
TORSDOF 19
ENDMDL
MODEL 5
REMARK minimizedAffinity -8.36458778
REMARK CNNscore 0.227492541
REMARK CNNaffinity 6.0756588
REMARK  19 active torsions:
REMARK  status: ('A' for Active; 'I' for Inactive)
REMARK    1  A    between atoms: O1_2  and  C2_3 
REMARK    2  A    between atoms: C2_3  and  C3_4 
REMARK    3  A    between atoms: C2_3  and  C28_36 
REMARK    4  A    between atoms: C3_4  and  C4_5 
REMARK    5  A    between atoms: C4_5  and  C6_7 
REMARK    6  A    between atoms: C6_7  and  O2_8 
REMARK    7  A    between atoms: C6_7  and  C7_9 
REMARK    8  A    between atoms: C8_10  and  C9_11 
REMARK    9  A    between atoms: C10_12  and  C11_13 
REMARK   10  A    between atoms: C11_13  and  N1_14 
REMARK       I    between atoms: N1_14  and  C12_15 
REMARK   11  A    between atoms: C12_15  and  C13_17 
REMARK   12  A    between atoms: C13_17  and  C16_20 
REMARK   13  A    between atoms: C16_20  and  O4_21 
REMARK   14  A    between atoms: C16_20  and  C17_22 
REMARK   15  A    between atoms: C19_24  and  C20_25 
REMARK   16  A    between atoms: C21_26  and  C22_27 
REMARK   17  A    between atoms: C23_28  and  C24_29 
REMARK   18  A    between atoms: C26_31  and  N2_33 
REMARK   19  A    between atoms: C28_36  and  O7_37 
ROOT
HETATM    1  C9  UNL     1      -4.216  48.656 -24.792  1.00  0.00    -0.003 C 
HETATM    2  C10 UNL     1      -3.451  48.362 -23.733  1.00  0.00    -0.007 C 
ENDROOT
BRANCH   1   3
HETATM    3  C8  UNL     1      -3.789  48.421 -26.153  1.00  0.00    -0.002 C 
HETATM    4  C7  UNL     1      -4.645  48.447 -27.186  1.00  0.00     0.005 C 
BRANCH   4   5
HETATM    5  C6  UNL     1      -4.308  48.353 -28.654  1.00  0.00     0.144 C 
BRANCH   5   6
HETATM    6  C4  UNL     1      -5.463  47.665 -29.409  1.00  0.00     0.016 C 
HETATM    7  C5  UNL     1      -6.738  47.557 -28.551  1.00  0.00     0.013 C 
BRANCH   6   8
HETATM    8  C3  UNL     1      -5.808  48.377 -30.742  1.00  0.00     0.042 C 
BRANCH   8   9
HETATM    9  C2  UNL     1      -7.237  47.989 -31.204  1.00  0.00     0.159 C 
BRANCH   9  10
HETATM   10  O1  UNL     1      -8.054  49.151 -31.285  1.00  0.00    -0.388 OA
HETATM   11  C1  UNL     1      -9.224  49.098 -30.480  1.00  0.00     0.202 C 
ENDBRANCH   9  10
BRANCH   9  12
HETATM   12  C28 UNL     1      -7.266  47.223 -32.579  1.00  0.00     0.133 C 
HETATM   13  C29 UNL     1      -5.840  46.906 -33.132  1.00  0.00     0.114 C 
HETATM   14  C30 UNL     1      -4.817  48.032 -33.108  1.00  0.00     0.023 C 
HETATM   15  C31 UNL     1      -5.431  45.675 -32.359  1.00  0.00     0.227 C 
HETATM   16  O8  UNL     1      -4.291  45.371 -32.043  1.00  0.00    -0.273 OA
HETATM   17  N3  UNL     1      -6.608  44.967 -32.115  1.00  0.00    -0.332 N 
HETATM   18  C32 UNL     1      -6.613  43.927 -31.116  1.00  0.00     0.154 C 
HETATM   19  C33 UNL     1      -7.825  45.785 -32.458  1.00  0.00     0.183 A 
HETATM   20  C34 UNL     1      -9.173  45.569 -31.701  1.00  0.00     0.294 A 
HETATM   21  C35 UNL     1      -8.652  45.221 -33.659  1.00  0.00     0.169 A 
HETATM   22  O9  UNL     1      -9.634  45.675 -30.584  1.00  0.00    -0.262 OA
HETATM   23  O10 UNL     1      -9.840  45.172 -32.816  1.00  0.00    -0.311 OA
HETATM   24  C36 UNL     1      -8.360  43.848 -34.246  1.00  0.00     0.043 C 
BRANCH  12  25
HETATM   25  O7  UNL     1      -7.936  47.988 -33.591  1.00  0.00    -0.383 OA
HETATM   26  H42 UNL     1      -8.900  47.969 -33.432  1.00  0.00     0.210 HD
ENDBRANCH  12  25
ENDBRANCH   9  12
ENDBRANCH   8   9
ENDBRANCH   6   8
ENDBRANCH   5   6
BRANCH   5  27
HETATM   27  O2  UNL     1      -4.044  49.644 -29.186  1.00  0.00    -0.391 OA
HETATM   28  H12 UNL     1      -3.824  49.532 -30.128  1.00  0.00     0.210 HD
ENDBRANCH   5  27
ENDBRANCH   4   5
ENDBRANCH   1   3
BRANCH   2  29
HETATM   29  C11 UNL     1      -3.818  48.737 -22.329  1.00  0.00     0.149 C 
BRANCH  29  30
HETATM   30  N1  UNL     1      -2.647  49.263 -21.668  1.00  0.00    -0.357 N 
HETATM   31  C12 UNL     1      -2.285  50.587 -21.799  1.00  0.00     0.228 C 
HETATM   32  O3  UNL     1      -2.980  51.383 -22.428  1.00  0.00    -0.273 OA
HETATM   33  H19 UNL     1      -1.964  48.594 -21.334  1.00  0.00     0.162 HD
BRANCH  31  34
HETATM   34  C13 UNL     1      -1.001  51.019 -21.066  1.00  0.00     0.063 C 
HETATM   35  C14 UNL     1      -0.158  51.894 -22.017  1.00  0.00     0.028 C 
HETATM   36  C15 UNL     1      -0.147  49.764 -20.758  1.00  0.00     0.028 C 
BRANCH  34  37
HETATM   37  C16 UNL     1      -1.387  51.760 -19.750  1.00  0.00     0.164 C 
BRANCH  37  38
HETATM   38  O4  UNL     1      -2.269  50.958 -18.954  1.00  0.00    -0.390 OA
HETATM   39  H27 UNL     1      -2.357  51.416 -18.102  1.00  0.00     0.210 HD
ENDBRANCH  37  38
BRANCH  37  40
HETATM   40  C17 UNL     1      -0.239  52.277 -18.880  1.00  0.00    -0.054 C 
HETATM   41  C18 UNL     1       0.166  53.703 -19.194  1.00  0.00     0.046 C 
HETATM   42  C19 UNL     1       0.404  51.641 -17.874  1.00  0.00     0.005 C 
BRANCH  42  43
HETATM   43  C20 UNL     1       0.191  50.290 -17.385  1.00  0.00     0.000 C 
HETATM   44  C21 UNL     1       0.332  49.838 -16.126  1.00  0.00     0.000 C 
BRANCH  44  45
HETATM   45  C22 UNL     1       0.757  50.582 -14.958  1.00  0.00     0.001 C 
HETATM   46  C23 UNL     1      -0.119  51.127 -14.095  1.00  0.00     0.009 C 
BRANCH  46  47
HETATM   47  C24 UNL     1       0.210  51.883 -12.873  1.00  0.00    -0.034 C 
HETATM   48  C25 UNL     1       1.692  52.042 -12.572  1.00  0.00     0.050 C 
HETATM   49  C26 UNL     1      -0.774  52.399 -12.099  1.00  0.00     0.082 C 
HETATM   50  C27 UNL     1      -2.259  52.343 -12.217  1.00  0.00     0.075 C 
BRANCH  49  51
HETATM   51  N2  UNL     1      -0.386  53.170 -10.936  1.00  0.00    -0.120 N 
HETATM   52  O5  UNL     1      -0.323  52.561  -9.860  1.00  0.00    -0.532 OA
HETATM   53  O6  UNL     1      -0.124  54.365 -11.118  1.00  0.00    -0.532 OA
ENDBRANCH  49  51
ENDBRANCH  46  47
ENDBRANCH  44  45
ENDBRANCH  42  43
ENDBRANCH  37  40
ENDBRANCH  34  37
ENDBRANCH  31  34
ENDBRANCH  29  30
ENDBRANCH   2  29
TORSDOF 19
ENDMDL
MODEL 6
REMARK minimizedAffinity -8.06206608
REMARK CNNscore 0.213272467
REMARK CNNaffinity 5.3775363
REMARK  19 active torsions:
REMARK  status: ('A' for Active; 'I' for Inactive)
REMARK    1  A    between atoms: O1_2  and  C2_3 
REMARK    2  A    between atoms: C2_3  and  C3_4 
REMARK    3  A    between atoms: C2_3  and  C28_36 
REMARK    4  A    between atoms: C3_4  and  C4_5 
REMARK    5  A    between atoms: C4_5  and  C6_7 
REMARK    6  A    between atoms: C6_7  and  O2_8 
REMARK    7  A    between atoms: C6_7  and  C7_9 
REMARK    8  A    between atoms: C8_10  and  C9_11 
REMARK    9  A    between atoms: C10_12  and  C11_13 
REMARK   10  A    between atoms: C11_13  and  N1_14 
REMARK       I    between atoms: N1_14  and  C12_15 
REMARK   11  A    between atoms: C12_15  and  C13_17 
REMARK   12  A    between atoms: C13_17  and  C16_20 
REMARK   13  A    between atoms: C16_20  and  O4_21 
REMARK   14  A    between atoms: C16_20  and  C17_22 
REMARK   15  A    between atoms: C19_24  and  C20_25 
REMARK   16  A    between atoms: C21_26  and  C22_27 
REMARK   17  A    between atoms: C23_28  and  C24_29 
REMARK   18  A    between atoms: C26_31  and  N2_33 
REMARK   19  A    between atoms: C28_36  and  O7_37 
ROOT
HETATM    1  C9  UNL     1     -13.549  46.971 -28.196  1.00  0.00    -0.003 C 
HETATM    2  C10 UNL     1     -12.648  47.227 -27.239  1.00  0.00    -0.007 C 
ENDROOT
BRANCH   1   3
HETATM    3  C8  UNL     1     -14.281  45.727 -28.266  1.00  0.00    -0.002 C 
HETATM    4  C7  UNL     1     -15.425  45.530 -27.592  1.00  0.00     0.005 C 
BRANCH   4   5
HETATM    5  C6  UNL     1     -16.346  44.339 -27.685  1.00  0.00     0.144 C 
BRANCH   5   6
HETATM    6  C4  UNL     1     -17.404  44.413 -26.564  1.00  0.00     0.016 C 
HETATM    7  C5  UNL     1     -17.631  43.049 -25.885  1.00  0.00     0.013 C 
BRANCH   6   8
HETATM    8  C3  UNL     1     -17.050  45.466 -25.483  1.00  0.00     0.042 C 
BRANCH   8   9
HETATM    9  C2  UNL     1     -16.739  44.766 -24.134  1.00  0.00     0.159 C 
BRANCH   9  10
HETATM   10  O1  UNL     1     -15.332  44.654 -23.957  1.00  0.00    -0.388 OA
HETATM   11  C1  UNL     1     -14.614  45.852 -24.219  1.00  0.00     0.202 C 
ENDBRANCH   9  10
BRANCH   9  12
HETATM   12  C28 UNL     1     -17.375  45.491 -22.890  1.00  0.00     0.133 C 
HETATM   13  C29 UNL     1     -18.774  46.114 -23.195  1.00  0.00     0.114 C 
HETATM   14  C30 UNL     1     -18.916  46.917 -24.478  1.00  0.00     0.023 C 
HETATM   15  C31 UNL     1     -19.711  44.934 -23.091  1.00  0.00     0.227 C 
HETATM   16  O8  UNL     1     -20.747  44.782 -23.719  1.00  0.00    -0.273 OA
HETATM   17  N3  UNL     1     -19.162  44.091 -22.125  1.00  0.00    -0.332 N 
HETATM   18  C32 UNL     1     -19.622  42.728 -22.030  1.00  0.00     0.154 C 
HETATM   19  C33 UNL     1     -17.764  44.515 -21.755  1.00  0.00     0.183 A 
HETATM   20  C34 UNL     1     -16.711  43.466 -21.278  1.00  0.00     0.294 A 
HETATM   21  C35 UNL     1     -17.622  45.016 -20.280  1.00  0.00     0.169 A 
HETATM   22  O9  UNL     1     -16.116  42.495 -21.697  1.00  0.00    -0.262 OA
HETATM   23  O10 UNL     1     -16.584  44.021 -20.044  1.00  0.00    -0.311 OA
HETATM   24  C36 UNL     1     -18.752  44.853 -19.276  1.00  0.00     0.043 C 
BRANCH  12  25
HETATM   25  O7  UNL     1     -16.542  46.564 -22.427  1.00  0.00    -0.383 OA
HETATM   26  H42 UNL     1     -15.766  46.200 -21.959  1.00  0.00     0.210 HD
ENDBRANCH  12  25
ENDBRANCH   9  12
ENDBRANCH   8   9
ENDBRANCH   6   8
ENDBRANCH   5   6
BRANCH   5  27
HETATM   27  O2  UNL     1     -16.959  44.285 -28.966  1.00  0.00    -0.391 OA
HETATM   28  H12 UNL     1     -17.534  43.499 -28.981  1.00  0.00     0.210 HD
ENDBRANCH   5  27
ENDBRANCH   4   5
ENDBRANCH   1   3
BRANCH   2  29
HETATM   29  C11 UNL     1     -11.776  48.445 -27.240  1.00  0.00     0.149 C 
BRANCH  29  30
HETATM   30  N1  UNL     1     -10.414  48.043 -26.979  1.00  0.00    -0.357 N 
HETATM   31  C12 UNL     1     -10.001  47.696 -25.710  1.00  0.00     0.228 C 
HETATM   32  O3  UNL     1     -10.790  47.650 -24.769  1.00  0.00    -0.273 OA
HETATM   33  H19 UNL     1      -9.720  48.277 -27.679  1.00  0.00     0.162 HD
BRANCH  31  34
HETATM   34  C13 UNL     1      -8.517  47.311 -25.558  1.00  0.00     0.063 C 
HETATM   35  C14 UNL     1      -8.076  46.531 -26.814  1.00  0.00     0.028 C 
HETATM   36  C15 UNL     1      -8.367  46.334 -24.365  1.00  0.00     0.028 C 
BRANCH  34  37
HETATM   37  C16 UNL     1      -7.674  48.601 -25.324  1.00  0.00     0.164 C 
BRANCH  37  38
HETATM   38  O4  UNL     1      -8.488  49.650 -24.782  1.00  0.00    -0.390 OA
HETATM   39  H27 UNL     1      -7.880  50.366 -24.538  1.00  0.00     0.210 HD
ENDBRANCH  37  38
BRANCH  37  40
HETATM   40  C17 UNL     1      -6.400  48.458 -24.488  1.00  0.00    -0.054 C 
HETATM   41  C18 UNL     1      -6.641  48.546 -22.994  1.00  0.00     0.046 C 
HETATM   42  C19 UNL     1      -5.137  48.234 -24.915  1.00  0.00     0.005 C 
BRANCH  42  43
HETATM   43  C20 UNL     1      -4.662  48.103 -26.281  1.00  0.00     0.000 C 
HETATM   44  C21 UNL     1      -3.499  48.544 -26.795  1.00  0.00     0.000 C 
BRANCH  44  45
HETATM   45  C22 UNL     1      -2.450  49.278 -26.116  1.00  0.00     0.001 C 
HETATM   46  C23 UNL     1      -1.808  50.311 -26.691  1.00  0.00     0.009 C 
BRANCH  46  47
HETATM   47  C24 UNL     1      -0.744  51.129 -26.080  1.00  0.00    -0.034 C 
HETATM   48  C25 UNL     1      -0.707  51.140 -24.561  1.00  0.00     0.050 C 
HETATM   49  C26 UNL     1       0.133  51.805 -26.860  1.00  0.00     0.082 C 
HETATM   50  C27 UNL     1       0.253  51.927 -28.341  1.00  0.00     0.075 C 
BRANCH  49  51
HETATM   51  N2  UNL     1       1.183  52.556 -26.202  1.00  0.00    -0.120 N 
HETATM   52  O5  UNL     1       2.277  51.989 -26.076  1.00  0.00    -0.532 OA
HETATM   53  O6  UNL     1       0.908  53.708 -25.846  1.00  0.00    -0.532 OA
ENDBRANCH  49  51
ENDBRANCH  46  47
ENDBRANCH  44  45
ENDBRANCH  42  43
ENDBRANCH  37  40
ENDBRANCH  34  37
ENDBRANCH  31  34
ENDBRANCH  29  30
ENDBRANCH   2  29
TORSDOF 19
ENDMDL
MODEL 7
REMARK minimizedAffinity -8.23849297
REMARK CNNscore 0.170399204
REMARK CNNaffinity 6.07860565
REMARK  19 active torsions:
REMARK  status: ('A' for Active; 'I' for Inactive)
REMARK    1  A    between atoms: O1_2  and  C2_3 
REMARK    2  A    between atoms: C2_3  and  C3_4 
REMARK    3  A    between atoms: C2_3  and  C28_36 
REMARK    4  A    between atoms: C3_4  and  C4_5 
REMARK    5  A    between atoms: C4_5  and  C6_7 
REMARK    6  A    between atoms: C6_7  and  O2_8 
REMARK    7  A    between atoms: C6_7  and  C7_9 
REMARK    8  A    between atoms: C8_10  and  C9_11 
REMARK    9  A    between atoms: C10_12  and  C11_13 
REMARK   10  A    between atoms: C11_13  and  N1_14 
REMARK       I    between atoms: N1_14  and  C12_15 
REMARK   11  A    between atoms: C12_15  and  C13_17 
REMARK   12  A    between atoms: C13_17  and  C16_20 
REMARK   13  A    between atoms: C16_20  and  O4_21 
REMARK   14  A    between atoms: C16_20  and  C17_22 
REMARK   15  A    between atoms: C19_24  and  C20_25 
REMARK   16  A    between atoms: C21_26  and  C22_27 
REMARK   17  A    between atoms: C23_28  and  C24_29 
REMARK   18  A    between atoms: C26_31  and  N2_33 
REMARK   19  A    between atoms: C28_36  and  O7_37 
ROOT
HETATM    1  C9  UNL     1      -7.244  47.149 -24.206  1.00  0.00    -0.003 C 
HETATM    2  C10 UNL     1      -7.351  48.004 -23.180  1.00  0.00    -0.007 C 
ENDROOT
BRANCH   1   3
HETATM    3  C8  UNL     1      -8.070  47.241 -25.388  1.00  0.00    -0.002 C 
HETATM    4  C7  UNL     1      -9.286  47.809 -25.369  1.00  0.00     0.005 C 
BRANCH   4   5
HETATM    5  C6  UNL     1     -10.183  48.086 -26.550  1.00  0.00     0.144 C 
BRANCH   5   6
HETATM    6  C4  UNL     1     -11.122  46.884 -26.782  1.00  0.00     0.016 C 
HETATM    7  C5  UNL     1     -12.542  47.141 -26.242  1.00  0.00     0.013 C 
BRANCH   6   8
HETATM    8  C3  UNL     1     -11.213  46.482 -28.276  1.00  0.00     0.042 C 
BRANCH   8   9
HETATM    9  C2  UNL     1     -10.133  45.420 -28.612  1.00  0.00     0.159 C 
BRANCH   9  10
HETATM   10  O1  UNL     1     -10.699  44.115 -28.559  1.00  0.00    -0.388 OA
HETATM   11  C1  UNL     1     -12.110  44.085 -28.728  1.00  0.00     0.202 C 
ENDBRANCH   9  10
BRANCH   9  12
HETATM   12  C28 UNL     1      -9.448  45.643 -30.012  1.00  0.00     0.133 C 
HETATM   13  C29 UNL     1      -9.607  47.104 -30.543  1.00  0.00     0.114 C 
HETATM   14  C30 UNL     1     -10.991  47.729 -30.461  1.00  0.00     0.023 C 
HETATM   15  C31 UNL     1      -8.533  47.863 -29.802  1.00  0.00     0.227 C 
HETATM   16  O8  UNL     1      -8.583  49.038 -29.472  1.00  0.00    -0.273 OA
HETATM   17  N3  UNL     1      -7.488  46.961 -29.608  1.00  0.00    -0.332 N 
HETATM   18  C32 UNL     1      -6.460  47.265 -28.643  1.00  0.00     0.154 C 
HETATM   19  C33 UNL     1      -7.904  45.554 -29.950  1.00  0.00     0.183 A 
HETATM   20  C34 UNL     1      -7.255  44.331 -29.230  1.00  0.00     0.294 A 
HETATM   21  C35 UNL     1      -7.158  44.955 -31.187  1.00  0.00     0.169 A 
HETATM   22  O9  UNL     1      -7.171  43.847 -28.121  1.00  0.00    -0.262 OA
HETATM   23  O10 UNL     1      -6.714  43.830 -30.372  1.00  0.00    -0.311 OA
HETATM   24  C36 UNL     1      -5.966  45.661 -31.812  1.00  0.00     0.043 C 
BRANCH  12  25
HETATM   25  O7  UNL     1     -10.007  44.780 -31.013  1.00  0.00    -0.383 OA
HETATM   26  H42 UNL     1      -9.686  43.868 -30.876  1.00  0.00     0.210 HD
ENDBRANCH  12  25
ENDBRANCH   9  12
ENDBRANCH   8   9
ENDBRANCH   6   8
ENDBRANCH   5   6
BRANCH   5  27
HETATM   27  O2  UNL     1     -10.922  49.282 -26.342  1.00  0.00    -0.391 OA
HETATM   28  H12 UNL     1     -11.476  49.423 -27.130  1.00  0.00     0.210 HD
ENDBRANCH   5  27
ENDBRANCH   4   5
ENDBRANCH   1   3
BRANCH   2  29
HETATM   29  C11 UNL     1      -6.610  47.831 -21.889  1.00  0.00     0.149 C 
BRANCH  29  30
HETATM   30  N1  UNL     1      -5.330  48.491 -21.997  1.00  0.00    -0.357 N 
HETATM   31  C12 UNL     1      -5.117  49.734 -21.437  1.00  0.00     0.228 C 
HETATM   32  O3  UNL     1      -5.984  50.295 -20.771  1.00  0.00    -0.273 OA
HETATM   33  H19 UNL     1      -4.691  48.152 -22.705  1.00  0.00     0.162 HD
BRANCH  31  34
HETATM   34  C13 UNL     1      -3.717  50.343 -21.644  1.00  0.00     0.063 C 
HETATM   35  C14 UNL     1      -3.853  51.878 -21.725  1.00  0.00     0.028 C 
HETATM   36  C15 UNL     1      -3.162  49.883 -23.015  1.00  0.00     0.028 C 
BRANCH  34  37
HETATM   37  C16 UNL     1      -2.781  49.882 -20.487  1.00  0.00     0.164 C 
BRANCH  37  38
HETATM   38  O4  UNL     1      -3.474  49.003 -19.590  1.00  0.00    -0.390 OA
HETATM   39  H27 UNL     1      -2.804  48.653 -18.982  1.00  0.00     0.210 HD
ENDBRANCH  37  38
BRANCH  37  40
HETATM   40  C17 UNL     1      -1.441  49.257 -20.882  1.00  0.00    -0.054 C 
HETATM   41  C18 UNL     1      -1.538  47.785 -21.231  1.00  0.00     0.046 C 
HETATM   42  C19 UNL     1      -0.234  49.856 -20.988  1.00  0.00     0.005 C 
BRANCH  42  43
HETATM   43  C20 UNL     1       0.105  51.242 -20.721  1.00  0.00     0.000 C 
HETATM   44  C21 UNL     1      -0.051  52.301 -21.536  1.00  0.00     0.000 C 
BRANCH  44  45
HETATM   45  C22 UNL     1      -0.570  52.310 -22.889  1.00  0.00     0.001 C 
HETATM   46  C23 UNL     1       0.230  52.225 -23.967  1.00  0.00     0.009 C 
BRANCH  46  47
HETATM   47  C24 UNL     1      -0.200  52.208 -25.377  1.00  0.00    -0.034 C 
HETATM   48  C25 UNL     1      -0.643  50.859 -25.919  1.00  0.00     0.050 C 
HETATM   49  C26 UNL     1      -0.197  53.349 -26.108  1.00  0.00     0.082 C 
HETATM   50  C27 UNL     1       0.203  54.743 -25.767  1.00  0.00     0.075 C 
BRANCH  49  51
HETATM   51  N2  UNL     1      -0.673  53.277 -27.474  1.00  0.00    -0.120 N 
HETATM   52  O5  UNL     1      -1.868  53.542 -27.662  1.00  0.00    -0.532 OA
HETATM   53  O6  UNL     1       0.159  52.985 -28.342  1.00  0.00    -0.532 OA
ENDBRANCH  49  51
ENDBRANCH  46  47
ENDBRANCH  44  45
ENDBRANCH  42  43
ENDBRANCH  37  40
ENDBRANCH  34  37
ENDBRANCH  31  34
ENDBRANCH  29  30
ENDBRANCH   2  29
TORSDOF 19
ENDMDL
MODEL 8
REMARK minimizedAffinity -9.16401482
REMARK CNNscore 0.16372171
REMARK CNNaffinity 6.41308784
REMARK  19 active torsions:
REMARK  status: ('A' for Active; 'I' for Inactive)
REMARK    1  A    between atoms: O1_2  and  C2_3 
REMARK    2  A    between atoms: C2_3  and  C3_4 
REMARK    3  A    between atoms: C2_3  and  C28_36 
REMARK    4  A    between atoms: C3_4  and  C4_5 
REMARK    5  A    between atoms: C4_5  and  C6_7 
REMARK    6  A    between atoms: C6_7  and  O2_8 
REMARK    7  A    between atoms: C6_7  and  C7_9 
REMARK    8  A    between atoms: C8_10  and  C9_11 
REMARK    9  A    between atoms: C10_12  and  C11_13 
REMARK   10  A    between atoms: C11_13  and  N1_14 
REMARK       I    between atoms: N1_14  and  C12_15 
REMARK   11  A    between atoms: C12_15  and  C13_17 
REMARK   12  A    between atoms: C13_17  and  C16_20 
REMARK   13  A    between atoms: C16_20  and  O4_21 
REMARK   14  A    between atoms: C16_20  and  C17_22 
REMARK   15  A    between atoms: C19_24  and  C20_25 
REMARK   16  A    between atoms: C21_26  and  C22_27 
REMARK   17  A    between atoms: C23_28  and  C24_29 
REMARK   18  A    between atoms: C26_31  and  N2_33 
REMARK   19  A    between atoms: C28_36  and  O7_37 
ROOT
HETATM    1  C9  UNL     1      -3.839  48.389 -26.683  1.00  0.00    -0.003 C 
HETATM    2  C10 UNL     1      -4.823  48.607 -25.802  1.00  0.00    -0.007 C 
ENDROOT
BRANCH   1   3
HETATM    3  C8  UNL     1      -4.004  48.593 -28.104  1.00  0.00    -0.002 C 
HETATM    4  C7  UNL     1      -5.053  48.098 -28.781  1.00  0.00     0.005 C 
BRANCH   4   5
HETATM    5  C6  UNL     1      -5.409  48.351 -30.225  1.00  0.00     0.144 C 
BRANCH   5   6
HETATM    6  C4  UNL     1      -6.942  48.438 -30.374  1.00  0.00     0.016 C 
HETATM    7  C5  UNL     1      -7.449  47.702 -31.629  1.00  0.00     0.013 C 
BRANCH   6   8
HETATM    8  C3  UNL     1      -7.690  47.894 -29.130  1.00  0.00     0.042 C 
BRANCH   8   9
HETATM    9  C2  UNL     1      -8.735  46.829 -29.556  1.00  0.00     0.159 C 
BRANCH   9  10
HETATM   10  O1  UNL     1      -8.561  45.642 -28.790  1.00  0.00    -0.388 OA
HETATM   11  C1  UNL     1      -7.289  45.029 -28.948  1.00  0.00     0.202 C 
ENDBRANCH   9  10
BRANCH   9  12
HETATM   12  C28 UNL     1     -10.224  47.327 -29.432  1.00  0.00     0.133 C 
HETATM   13  C29 UNL     1     -11.201  46.574 -30.390  1.00  0.00     0.114 C 
HETATM   14  C30 UNL     1     -10.760  46.394 -31.835  1.00  0.00     0.023 C 
HETATM   15  C31 UNL     1     -11.483  45.284 -29.658  1.00  0.00     0.227 C 
HETATM   16  O8  UNL     1     -11.729  44.205 -30.174  1.00  0.00    -0.273 OA
HETATM   17  N3  UNL     1     -11.429  45.593 -28.299  1.00  0.00    -0.332 N 
HETATM   18  C32 UNL     1     -11.316  44.527 -27.335  1.00  0.00     0.154 C 
HETATM   19  C33 UNL     1     -10.868  46.972 -28.070  1.00  0.00     0.183 A 
HETATM   20  C34 UNL     1     -10.085  47.309 -26.763  1.00  0.00     0.294 A 
HETATM   21  C35 UNL     1     -11.896  47.983 -27.465  1.00  0.00     0.169 A 
HETATM   22  O9  UNL     1      -9.066  46.992 -26.186  1.00  0.00    -0.262 OA
HETATM   23  O10 UNL     1     -10.987  48.239 -26.354  1.00  0.00    -0.311 OA
HETATM   24  C36 UNL     1     -13.250  47.522 -26.948  1.00  0.00     0.043 C 
BRANCH  12  25
HETATM   25  O7  UNL     1     -10.337  48.723 -29.745  1.00  0.00    -0.383 OA
HETATM   26  H42 UNL     1      -9.981  49.255 -29.007  1.00  0.00     0.210 HD
ENDBRANCH  12  25
ENDBRANCH   9  12
ENDBRANCH   8   9
ENDBRANCH   6   8
ENDBRANCH   5   6
BRANCH   5  27
HETATM   27  O2  UNL     1      -4.780  49.537 -30.690  1.00  0.00    -0.391 OA
HETATM   28  H12 UNL     1      -5.031  49.653 -31.624  1.00  0.00     0.210 HD
ENDBRANCH   5  27
ENDBRANCH   4   5
ENDBRANCH   1   3
BRANCH   2  29
HETATM   29  C11 UNL     1      -4.713  48.257 -24.349  1.00  0.00     0.149 C 
BRANCH  29  30
HETATM   30  N1  UNL     1      -4.682  49.478 -23.578  1.00  0.00    -0.357 N 
HETATM   31  C12 UNL     1      -3.516  50.198 -23.424  1.00  0.00     0.228 C 
HETATM   32  O3  UNL     1      -2.477  49.864 -23.990  1.00  0.00    -0.273 OA
HETATM   33  H19 UNL     1      -5.454  49.646 -22.945  1.00  0.00     0.162 HD
BRANCH  31  34
HETATM   34  C13 UNL     1      -3.608  51.467 -22.556  1.00  0.00     0.063 C 
HETATM   35  C14 UNL     1      -5.084  51.910 -22.481  1.00  0.00     0.028 C 
HETATM   36  C15 UNL     1      -2.844  52.617 -23.259  1.00  0.00     0.028 C 
BRANCH  34  37
HETATM   37  C16 UNL     1      -2.995  51.176 -21.154  1.00  0.00     0.164 C 
BRANCH  37  38
HETATM   38  O4  UNL     1      -4.026  51.028 -20.168  1.00  0.00    -0.390 OA
HETATM   39  H27 UNL     1      -3.586  50.717 -19.360  1.00  0.00     0.210 HD
ENDBRANCH  37  38
BRANCH  37  40
HETATM   40  C17 UNL     1      -2.016  50.003 -21.051  1.00  0.00    -0.054 C 
HETATM   41  C18 UNL     1      -2.691  48.646 -21.071  1.00  0.00     0.046 C 
HETATM   42  C19 UNL     1      -0.666  50.040 -20.986  1.00  0.00     0.005 C 
BRANCH  42  43
HETATM   43  C20 UNL     1       0.199  51.206 -20.963  1.00  0.00     0.000 C 
HETATM   44  C21 UNL     1       0.488  52.038 -21.980  1.00  0.00     0.000 C 
BRANCH  44  45
HETATM   45  C22 UNL     1       0.027  51.957 -23.351  1.00  0.00     0.001 C 
HETATM   46  C23 UNL     1       0.674  52.562 -24.364  1.00  0.00     0.009 C 
BRANCH  46  47
HETATM   47  C24 UNL     1       0.297  52.525 -25.789  1.00  0.00    -0.034 C 
HETATM   48  C25 UNL     1       0.184  51.143 -26.409  1.00  0.00     0.050 C 
HETATM   49  C26 UNL     1       0.064  53.675 -26.466  1.00  0.00     0.082 C 
HETATM   50  C27 UNL     1       0.132  55.104 -26.046  1.00  0.00     0.075 C 
BRANCH  49  51
HETATM   51  N2  UNL     1      -0.345  53.572 -27.852  1.00  0.00    -0.120 N 
HETATM   52  O5  UNL     1      -1.378  54.176 -28.173  1.00  0.00    -0.532 OA
HETATM   53  O6  UNL     1       0.384  52.914 -28.604  1.00  0.00    -0.532 OA
ENDBRANCH  49  51
ENDBRANCH  46  47
ENDBRANCH  44  45
ENDBRANCH  42  43
ENDBRANCH  37  40
ENDBRANCH  34  37
ENDBRANCH  31  34
ENDBRANCH  29  30
ENDBRANCH   2  29
TORSDOF 19
ENDMDL
MODEL 9
REMARK minimizedAffinity -8.44657898
REMARK CNNscore 0.153458267
REMARK CNNaffinity 6.08173704
REMARK  19 active torsions:
REMARK  status: ('A' for Active; 'I' for Inactive)
REMARK    1  A    between atoms: O1_2  and  C2_3 
REMARK    2  A    between atoms: C2_3  and  C3_4 
REMARK    3  A    between atoms: C2_3  and  C28_36 
REMARK    4  A    between atoms: C3_4  and  C4_5 
REMARK    5  A    between atoms: C4_5  and  C6_7 
REMARK    6  A    between atoms: C6_7  and  O2_8 
REMARK    7  A    between atoms: C6_7  and  C7_9 
REMARK    8  A    between atoms: C8_10  and  C9_11 
REMARK    9  A    between atoms: C10_12  and  C11_13 
REMARK   10  A    between atoms: C11_13  and  N1_14 
REMARK       I    between atoms: N1_14  and  C12_15 
REMARK   11  A    between atoms: C12_15  and  C13_17 
REMARK   12  A    between atoms: C13_17  and  C16_20 
REMARK   13  A    between atoms: C16_20  and  O4_21 
REMARK   14  A    between atoms: C16_20  and  C17_22 
REMARK   15  A    between atoms: C19_24  and  C20_25 
REMARK   16  A    between atoms: C21_26  and  C22_27 
REMARK   17  A    between atoms: C23_28  and  C24_29 
REMARK   18  A    between atoms: C26_31  and  N2_33 
REMARK   19  A    between atoms: C28_36  and  O7_37 
ROOT
HETATM    1  C9  UNL     1      -3.985  48.349 -27.062  1.00  0.00    -0.003 C 
HETATM    2  C10 UNL     1      -4.487  48.571 -25.841  1.00  0.00    -0.007 C 
ENDROOT
BRANCH   1   3
HETATM    3  C8  UNL     1      -4.790  48.416 -28.261  1.00  0.00    -0.002 C 
HETATM    4  C7  UNL     1      -5.837  47.602 -28.466  1.00  0.00     0.005 C 
BRANCH   4   5
HETATM    5  C6  UNL     1      -6.829  47.660 -29.601  1.00  0.00     0.144 C 
BRANCH   5   6
HETATM    6  C4  UNL     1      -7.794  46.459 -29.509  1.00  0.00     0.016 C 
HETATM    7  C5  UNL     1      -7.242  45.335 -28.612  1.00  0.00     0.013 C 
BRANCH   6   8
HETATM    8  C3  UNL     1      -9.202  46.867 -29.004  1.00  0.00     0.042 C 
BRANCH   8   9
HETATM    9  C2  UNL     1      -9.457  46.275 -27.593  1.00  0.00     0.159 C 
BRANCH   9  10
HETATM   10  O1  UNL     1      -9.304  47.287 -26.605  1.00  0.00    -0.388 OA
HETATM   11  C1  UNL     1      -8.166  47.120 -25.771  1.00  0.00     0.202 C 
ENDBRANCH   9  10
BRANCH   9  12
HETATM   12  C28 UNL     1     -10.870  45.598 -27.444  1.00  0.00     0.133 C 
HETATM   13  C29 UNL     1     -10.808  44.202 -26.745  1.00  0.00     0.114 C 
HETATM   14  C30 UNL     1      -9.739  43.231 -27.220  1.00  0.00     0.023 C 
HETATM   15  C31 UNL     1     -10.727  44.550 -25.278  1.00  0.00     0.227 C 
HETATM   16  O8  UNL     1     -10.158  43.899 -24.415  1.00  0.00    -0.273 OA
HETATM   17  N3  UNL     1     -11.449  45.733 -25.123  1.00  0.00    -0.332 N 
HETATM   18  C32 UNL     1     -11.285  46.510 -23.920  1.00  0.00     0.154 C 
HETATM   19  C33 UNL     1     -11.798  46.344 -26.455  1.00  0.00     0.183 A 
HETATM   20  C34 UNL     1     -11.962  47.889 -26.608  1.00  0.00     0.294 A 
HETATM   21  C35 UNL     1     -13.330  46.362 -26.764  1.00  0.00     0.169 A 
HETATM   22  O9  UNL     1     -11.304  48.904 -26.514  1.00  0.00    -0.262 OA
HETATM   23  O10 UNL     1     -13.273  47.806 -26.956  1.00  0.00    -0.311 OA
HETATM   24  C36 UNL     1     -14.357  46.007 -25.700  1.00  0.00     0.043 C 
BRANCH  12  25
HETATM   25  O7  UNL     1     -11.488  45.387 -28.722  1.00  0.00    -0.383 OA
HETATM   26  H42 UNL     1     -11.810  46.239 -29.075  1.00  0.00     0.210 HD
ENDBRANCH  12  25
ENDBRANCH   9  12
ENDBRANCH   8   9
ENDBRANCH   6   8
ENDBRANCH   5   6
BRANCH   5  27
HETATM   27  O2  UNL     1      -7.539  48.891 -29.577  1.00  0.00    -0.391 OA
HETATM   28  H12 UNL     1      -8.158  48.885 -30.330  1.00  0.00     0.210 HD
ENDBRANCH   5  27
ENDBRANCH   4   5
ENDBRANCH   1   3
BRANCH   2  29
HETATM   29  C11 UNL     1      -3.702  48.357 -24.582  1.00  0.00     0.149 C 
BRANCH  29  30
HETATM   30  N1  UNL     1      -3.677  49.593 -23.835  1.00  0.00    -0.357 N 
HETATM   31  C12 UNL     1      -2.627  50.480 -23.953  1.00  0.00     0.228 C 
HETATM   32  O3  UNL     1      -1.709  50.284 -24.747  1.00  0.00    -0.273 OA
HETATM   33  H19 UNL     1      -4.298  49.666 -23.039  1.00  0.00     0.162 HD
BRANCH  31  34
HETATM   34  C13 UNL     1      -2.705  51.749 -23.084  1.00  0.00     0.063 C 
HETATM   35  C14 UNL     1      -4.119  52.353 -23.216  1.00  0.00     0.028 C 
HETATM   36  C15 UNL     1      -1.725  52.808 -23.645  1.00  0.00     0.028 C 
BRANCH  34  37
HETATM   37  C16 UNL     1      -2.341  51.385 -21.613  1.00  0.00     0.164 C 
BRANCH  37  38
HETATM   38  O4  UNL     1      -3.365  50.576 -21.020  1.00  0.00    -0.390 OA
HETATM   39  H27 UNL     1      -3.015  50.278 -20.165  1.00  0.00     0.210 HD
ENDBRANCH  37  38
BRANCH  37  40
HETATM   40  C17 UNL     1      -0.975  50.739 -21.373  1.00  0.00    -0.054 C 
HETATM   41  C18 UNL     1      -1.018  49.225 -21.332  1.00  0.00     0.046 C 
HETATM   42  C19 UNL     1       0.227  51.344 -21.236  1.00  0.00     0.005 C 
BRANCH  42  43
HETATM   43  C20 UNL     1       0.522  52.765 -21.249  1.00  0.00     0.000 C 
HETATM   44  C21 UNL     1       0.981  53.521 -20.234  1.00  0.00     0.000 C 
BRANCH  44  45
HETATM   45  C22 UNL     1       1.267  53.105 -18.876  1.00  0.00     0.001 C 
HETATM   46  C23 UNL     1       0.485  52.235 -18.211  1.00  0.00     0.009 C 
BRANCH  46  47
HETATM   47  C24 UNL     1       0.699  51.737 -16.840  1.00  0.00    -0.034 C 
HETATM   48  C25 UNL     1      -0.428  50.903 -16.255  1.00  0.00     0.050 C 
HETATM   49  C26 UNL     1       1.848  52.019 -16.179  1.00  0.00     0.082 C 
HETATM   50  C27 UNL     1       3.046  52.815 -16.571  1.00  0.00     0.075 C 
BRANCH  49  51
HETATM   51  N2  UNL     1       2.017  51.465 -14.852  1.00  0.00    -0.120 N 
HETATM   52  O5  UNL     1       1.308  51.941 -13.955  1.00  0.00    -0.532 OA
HETATM   53  O6  UNL     1       2.836  50.546 -14.729  1.00  0.00    -0.532 OA
ENDBRANCH  49  51
ENDBRANCH  46  47
ENDBRANCH  44  45
ENDBRANCH  42  43
ENDBRANCH  37  40
ENDBRANCH  34  37
ENDBRANCH  31  34
ENDBRANCH  29  30
ENDBRANCH   2  29
TORSDOF 19
ENDMDL
