MODEL 1
REMARK minimizedAffinity -6.25281382
REMARK CNNscore 0.580280721
REMARK CNNaffinity 6.3396821
REMARK  6 active torsions:
REMARK  status: ('A' for Active; 'I' for Inactive)
REMARK    1  A    between atoms: O1_2  and  C2_3 
REMARK    2  A    between atoms: C17_20  and  C18_21 
REMARK    3  A    between atoms: C22_27  and  O6_28 
REMARK    4  A    between atoms: O6_28  and  C23_29 
REMARK    5  A    between atoms: C26_33  and  O8_34 
REMARK    6  A    between atoms: C31_40  and  O10_41 
ROOT
HETATM    1  C2  UNL     1     -14.617  10.582  -2.308  1.00  0.00     0.190 C 
HETATM    2  C3  UNL     1     -15.432  10.256  -3.567  1.00  0.00     0.064 C 
HETATM    3  C4  UNL     1     -15.505  11.422  -4.539  1.00  0.00     0.174 C 
HETATM    4  O2  UNL     1     -15.586  12.639  -3.819  1.00  0.00    -0.356 OA
HETATM    5  C5  UNL     1     -14.351  12.982  -3.166  1.00  0.00     0.325 C 
HETATM    6  O3  UNL     1     -14.668  14.047  -2.257  1.00  0.00    -0.344 OA
HETATM    7  C6  UNL     1     -13.937  14.033  -1.036  1.00  0.00     0.177 C 
HETATM    8  C7  UNL     1     -13.795  15.442  -0.548  1.00  0.00     0.011 C 
HETATM    9  C8  UNL     1     -12.685  15.925   0.044  1.00  0.00    -0.072 C 
HETATM   10  C9  UNL     1     -12.613  17.367   0.476  1.00  0.00     0.035 C 
HETATM   11  C10 UNL     1     -12.249  17.479   1.952  1.00  0.00     0.012 C 
HETATM   12  C11 UNL     1     -10.939  16.733   2.289  1.00  0.00     0.026 C 
HETATM   13  C12 UNL     1     -11.042  15.244   1.846  1.00  0.00     0.005 C 
HETATM   14  C13 UNL     1      -9.759  14.484   2.219  1.00  0.00     0.007 C 
HETATM   15  C14 UNL     1      -9.454  14.597   3.709  1.00  0.00     0.013 C 
HETATM   16  C15 UNL     1      -9.291  16.064   4.202  1.00  0.00    -0.003 C 
HETATM   17  C16 UNL     1      -7.954  16.610   3.663  1.00  0.00     0.019 C 
HETATM   18  C17 UNL     1      -9.362  16.069   5.769  1.00  0.00     0.058 C 
HETATM   19  C22 UNL     1     -10.889  16.012   6.060  1.00  0.00     0.143 C 
HETATM   20  C25 UNL     1     -11.613  16.545   4.811  1.00  0.00     0.072 C 
HETATM   21  C26 UNL     1     -10.526  16.910   3.781  1.00  0.00     0.072 C 
HETATM   22  C27 UNL     1     -11.443  15.070   0.330  1.00  0.00    -0.014 C 
HETATM   23  C28 UNL     1     -10.313  15.523  -0.628  1.00  0.00     0.020 C 
HETATM   24  C29 UNL     1     -11.735  13.561   0.054  1.00  0.00     0.049 C 
HETATM   25  C30 UNL     1     -12.578  13.352  -1.200  1.00  0.00     0.159 C 
HETATM   26  O9  UNL     1     -12.827  11.959  -1.379  1.00  0.00    -0.341 OA
HETATM   27  C31 UNL     1     -13.594  11.716  -2.567  1.00  0.00     0.240 C 
ENDROOT
BRANCH  18  28
HETATM   28  C18 UNL     1      -8.600  17.119   6.548  1.00  0.00    -0.043 A 
HETATM   29  C19 UNL     1      -9.153  17.959   7.425  1.00  0.00     0.087 A 
HETATM   30  C20 UNL     1      -8.109  18.876   7.875  1.00  0.00     0.283 A 
HETATM   31  O4  UNL     1      -8.275  19.778   8.676  1.00  0.00    -0.260 OA
HETATM   32  O5  UNL     1      -6.949  18.571   7.243  1.00  0.00    -0.314 OA
HETATM   33  C21 UNL     1      -7.155  17.426   6.408  1.00  0.00     0.214 A 
ENDBRANCH  18  28
BRANCH  19  34
HETATM   34  O6  UNL     1     -11.245  16.739   7.244  1.00  0.00    -0.316 OA
BRANCH  34  35
HETATM   35  C23 UNL     1     -12.481  16.475   7.751  1.00  0.00     0.255 C 
HETATM   36  C24 UNL     1     -13.190  17.756   8.069  1.00  0.00     0.126 C 
HETATM   37  O7  UNL     1     -12.964  15.362   7.895  1.00  0.00    -0.266 OA
ENDBRANCH  34  35
ENDBRANCH  19  34
BRANCH  21  38
HETATM   38  O8  UNL     1     -10.215  18.297   3.977  1.00  0.00    -0.389 OA
HETATM   39  H35 UNL     1     -11.023  18.824   3.852  1.00  0.00     0.210 HD
ENDBRANCH  21  38
BRANCH  27  40
HETATM   40  O10 UNL     1     -12.647  11.232  -3.534  1.00  0.00    -0.360 OA
HETATM   41  H42 UNL     1     -12.416  10.347  -3.184  1.00  0.00     0.213 HD
ENDBRANCH  27  40
BRANCH   1  42
HETATM   42  O1  UNL     1     -13.892   9.396  -1.905  1.00  0.00    -0.385 OA
HETATM   43  C1  UNL     1     -13.842   9.232  -0.493  1.00  0.00     0.202 C 
ENDBRANCH   1  42
TORSDOF 6
ENDMDL
MODEL 2
REMARK minimizedAffinity -6.84948301
REMARK CNNscore 0.575557232
REMARK CNNaffinity 6.19496489
REMARK  6 active torsions:
REMARK  status: ('A' for Active; 'I' for Inactive)
REMARK    1  A    between atoms: O1_2  and  C2_3 
REMARK    2  A    between atoms: C17_20  and  C18_21 
REMARK    3  A    between atoms: C22_27  and  O6_28 
REMARK    4  A    between atoms: O6_28  and  C23_29 
REMARK    5  A    between atoms: C26_33  and  O8_34 
REMARK    6  A    between atoms: C31_40  and  O10_41 
ROOT
HETATM    1  C2  UNL     1     -18.201 -10.293   6.845  1.00  0.00     0.190 C 
HETATM    2  C3  UNL     1     -18.087 -11.286   5.682  1.00  0.00     0.064 C 
HETATM    3  C4  UNL     1     -16.743 -11.214   4.975  1.00  0.00     0.174 C 
HETATM    4  O2  UNL     1     -16.296  -9.871   4.936  1.00  0.00    -0.356 OA
HETATM    5  C5  UNL     1     -15.887  -9.382   6.225  1.00  0.00     0.325 C 
HETATM    6  O3  UNL     1     -15.754  -7.960   6.084  1.00  0.00    -0.344 OA
HETATM    7  C6  UNL     1     -16.127  -7.204   7.230  1.00  0.00     0.177 C 
HETATM    8  C7  UNL     1     -15.321  -5.942   7.254  1.00  0.00     0.011 C 
HETATM    9  C8  UNL     1     -14.830  -5.383   8.378  1.00  0.00    -0.072 C 
HETATM   10  C9  UNL     1     -13.999  -4.129   8.310  1.00  0.00     0.035 C 
HETATM   11  C10 UNL     1     -14.576  -3.039   9.206  1.00  0.00     0.012 C 
HETATM   12  C11 UNL     1     -14.747  -3.513  10.666  1.00  0.00     0.026 C 
HETATM   13  C12 UNL     1     -15.619  -4.802  10.712  1.00  0.00     0.005 C 
HETATM   14  C13 UNL     1     -15.830  -5.254  12.166  1.00  0.00     0.007 C 
HETATM   15  C14 UNL     1     -16.440  -4.143  13.015  1.00  0.00     0.013 C 
HETATM   16  C15 UNL     1     -15.586  -2.844  13.047  1.00  0.00    -0.003 C 
HETATM   17  C16 UNL     1     -14.332  -3.109  13.903  1.00  0.00     0.019 C 
HETATM   18  C17 UNL     1     -16.474  -1.682  13.616  1.00  0.00     0.058 C 
HETATM   19  C22 UNL     1     -17.320  -1.241  12.387  1.00  0.00     0.143 C 
HETATM   20  C25 UNL     1     -16.554  -1.677  11.125  1.00  0.00     0.072 C 
HETATM   21  C26 UNL     1     -15.266  -2.377  11.598  1.00  0.00     0.072 C 
HETATM   22  C27 UNL     1     -15.079  -5.955   9.781  1.00  0.00    -0.014 C 
HETATM   23  C28 UNL     1     -13.749  -6.553  10.303  1.00  0.00     0.020 C 
HETATM   24  C29 UNL     1     -16.138  -7.101   9.730  1.00  0.00     0.049 C 
HETATM   25  C30 UNL     1     -15.954  -8.010   8.518  1.00  0.00     0.159 C 
HETATM   26  O9  UNL     1     -16.965  -9.016   8.520  1.00  0.00    -0.341 OA
HETATM   27  C31 UNL     1     -16.810  -9.911   7.410  1.00  0.00     0.240 C 
ENDROOT
BRANCH  18  28
HETATM   28  C18 UNL     1     -15.824  -0.553  14.385  1.00  0.00    -0.043 A 
HETATM   29  C19 UNL     1     -15.577   0.659  13.883  1.00  0.00     0.087 A 
HETATM   30  C20 UNL     1     -14.853   1.417  14.900  1.00  0.00     0.283 A 
HETATM   31  O4  UNL     1     -14.465   2.563  14.767  1.00  0.00    -0.260 OA
HETATM   32  O5  UNL     1     -14.668   0.632  15.991  1.00  0.00    -0.314 OA
HETATM   33  C21 UNL     1     -15.300  -0.634  15.771  1.00  0.00     0.214 A 
ENDBRANCH  18  28
BRANCH  19  34
HETATM   34  O6  UNL     1     -17.598   0.166  12.394  1.00  0.00    -0.316 OA
BRANCH  34  35
HETATM   35  C23 UNL     1     -18.780   0.538  11.831  1.00  0.00     0.255 C 
HETATM   36  C24 UNL     1     -19.637   1.231  12.845  1.00  0.00     0.126 C 
HETATM   37  O7  UNL     1     -19.091   0.368  10.661  1.00  0.00    -0.266 OA
ENDBRANCH  34  35
ENDBRANCH  19  34
BRANCH  21  38
HETATM   38  O8  UNL     1     -14.243  -1.373  11.659  1.00  0.00    -0.389 OA
HETATM   39  H35 UNL     1     -14.135  -0.976  10.777  1.00  0.00     0.210 HD
ENDBRANCH  21  38
BRANCH  27  40
HETATM   40  O10 UNL     1     -16.227 -11.102   7.965  1.00  0.00    -0.360 OA
HETATM   41  H42 UNL     1     -16.959 -11.470   8.500  1.00  0.00     0.213 HD
ENDBRANCH  27  40
BRANCH   1  42
HETATM   42  O1  UNL     1     -18.972 -10.907   7.905  1.00  0.00    -0.385 OA
HETATM   43  C1  UNL     1     -19.987 -11.775   7.418  1.00  0.00     0.202 C 
ENDBRANCH   1  42
TORSDOF 6
ENDMDL
MODEL 3
REMARK minimizedAffinity -10.0343142
REMARK CNNscore 0.448322505
REMARK CNNaffinity 6.90185356
REMARK  6 active torsions:
REMARK  status: ('A' for Active; 'I' for Inactive)
REMARK    1  A    between atoms: O1_2  and  C2_3 
REMARK    2  A    between atoms: C17_20  and  C18_21 
REMARK    3  A    between atoms: C22_27  and  O6_28 
REMARK    4  A    between atoms: O6_28  and  C23_29 
REMARK    5  A    between atoms: C26_33  and  O8_34 
REMARK    6  A    between atoms: C31_40  and  O10_41 
ROOT
HETATM    1  C2  UNL     1      -7.543   7.475  14.309  1.00  0.00     0.190 C 
HETATM    2  C3  UNL     1      -8.893   6.877  14.729  1.00  0.00     0.064 C 
HETATM    3  C4  UNL     1      -8.782   5.429  15.178  1.00  0.00     0.174 C 
HETATM    4  O2  UNL     1      -7.813   4.759  14.391  1.00  0.00    -0.356 OA
HETATM    5  C5  UNL     1      -6.469   5.178  14.686  1.00  0.00     0.325 C 
HETATM    6  O3  UNL     1      -5.651   4.651  13.632  1.00  0.00    -0.344 OA
HETATM    7  C6  UNL     1      -4.563   5.481  13.242  1.00  0.00     0.177 C 
HETATM    8  C7  UNL     1      -3.454   4.611  12.738  1.00  0.00     0.011 C 
HETATM    9  C8  UNL     1      -2.147   4.847  12.969  1.00  0.00    -0.072 C 
HETATM   10  C9  UNL     1      -1.094   3.901  12.454  1.00  0.00     0.035 C 
HETATM   11  C10 UNL     1      -0.060   4.638  11.612  1.00  0.00     0.012 C 
HETATM   12  C11 UNL     1       0.581   5.818  12.376  1.00  0.00     0.026 C 
HETATM   13  C12 UNL     1      -0.523   6.788  12.887  1.00  0.00     0.005 C 
HETATM   14  C13 UNL     1       0.110   7.988  13.610  1.00  0.00     0.007 C 
HETATM   15  C14 UNL     1       1.113   8.713  12.719  1.00  0.00     0.013 C 
HETATM   16  C15 UNL     1       2.270   7.804  12.215  1.00  0.00    -0.003 C 
HETATM   17  C16 UNL     1       3.207   7.511  13.404  1.00  0.00     0.019 C 
HETATM   18  C17 UNL     1       2.998   8.538  11.036  1.00  0.00     0.058 C 
HETATM   19  C22 UNL     1       2.080   8.253   9.813  1.00  0.00     0.143 C 
HETATM   20  C25 UNL     1       1.267   6.987  10.138  1.00  0.00     0.072 C 
HETATM   21  C26 UNL     1       1.693   6.525  11.544  1.00  0.00     0.072 C 
HETATM   22  C27 UNL     1      -1.637   6.070  13.744  1.00  0.00    -0.014 C 
HETATM   23  C28 UNL     1      -1.098   5.585  15.113  1.00  0.00     0.020 C 
HETATM   24  C29 UNL     1      -2.798   7.079  14.012  1.00  0.00     0.049 C 
HETATM   25  C30 UNL     1      -4.100   6.380  14.390  1.00  0.00     0.159 C 
HETATM   26  O9  UNL     1      -5.121   7.355  14.595  1.00  0.00    -0.341 OA
HETATM   27  C31 UNL     1      -6.358   6.739  14.982  1.00  0.00     0.240 C 
ENDROOT
BRANCH  18  28
HETATM   28  C18 UNL     1       4.473   8.294  10.800  1.00  0.00    -0.043 A 
HETATM   29  C19 UNL     1       5.050   7.091  10.805  1.00  0.00     0.087 A 
HETATM   30  C20 UNL     1       6.488   7.292  10.646  1.00  0.00     0.283 A 
HETATM   31  O4  UNL     1       7.315   6.399  10.616  1.00  0.00    -0.260 OA
HETATM   32  O5  UNL     1       6.743   8.621  10.563  1.00  0.00    -0.314 OA
HETATM   33  C21 UNL     1       5.506   9.341  10.603  1.00  0.00     0.214 A 
ENDBRANCH  18  28
BRANCH  19  34
HETATM   34  O6  UNL     1       2.821   8.124   8.592  1.00  0.00    -0.316 OA
BRANCH  34  35
HETATM   35  C23 UNL     1       2.631   6.965   7.904  1.00  0.00     0.255 C 
HETATM   36  C24 UNL     1       1.787   7.219   6.693  1.00  0.00     0.126 C 
HETATM   37  O7  UNL     1       3.106   5.879   8.202  1.00  0.00    -0.266 OA
ENDBRANCH  34  35
ENDBRANCH  19  34
BRANCH  21  38
HETATM   38  O8  UNL     1       2.761   5.583  11.368  1.00  0.00    -0.389 OA
HETATM   39  H35 UNL     1       2.443   4.841  10.826  1.00  0.00     0.210 HD
ENDBRANCH  21  38
BRANCH  27  40
HETATM   40  O10 UNL     1      -6.461   6.959  16.399  1.00  0.00    -0.360 OA
HETATM   41  H42 UNL     1      -6.617   7.923  16.456  1.00  0.00     0.213 HD
ENDBRANCH  27  40
BRANCH   1  42
HETATM   42  O1  UNL     1      -7.506   8.864  14.710  1.00  0.00    -0.385 OA
HETATM   43  C1  UNL     1      -8.717   9.295  15.321  1.00  0.00     0.202 C 
ENDBRANCH   1  42
TORSDOF 6
ENDMDL
MODEL 4
REMARK minimizedAffinity -6.8193202
REMARK CNNscore 0.42433098
REMARK CNNaffinity 5.46007156
REMARK  6 active torsions:
REMARK  status: ('A' for Active; 'I' for Inactive)
REMARK    1  A    between atoms: O1_2  and  C2_3 
REMARK    2  A    between atoms: C17_20  and  C18_21 
REMARK    3  A    between atoms: C22_27  and  O6_28 
REMARK    4  A    between atoms: O6_28  and  C23_29 
REMARK    5  A    between atoms: C26_33  and  O8_34 
REMARK    6  A    between atoms: C31_40  and  O10_41 
ROOT
HETATM    1  C2  UNL     1     -19.260   9.673  10.314  1.00  0.00     0.190 C 
HETATM    2  C3  UNL     1     -19.340  11.180  10.035  1.00  0.00     0.064 C 
HETATM    3  C4  UNL     1     -18.511  12.004  11.008  1.00  0.00     0.174 C 
HETATM    4  O2  UNL     1     -18.565  11.418  12.296  1.00  0.00    -0.356 OA
HETATM    5  C5  UNL     1     -17.829  10.185  12.378  1.00  0.00     0.325 C 
HETATM    6  O3  UNL     1     -18.217   9.575  13.618  1.00  0.00    -0.344 OA
HETATM    7  C6  UNL     1     -18.290   8.155  13.593  1.00  0.00     0.177 C 
HETATM    8  C7  UNL     1     -17.986   7.636  14.964  1.00  0.00     0.011 C 
HETATM    9  C8  UNL     1     -17.271   6.519  15.205  1.00  0.00    -0.072 C 
HETATM   10  C9  UNL     1     -16.980   6.084  16.618  1.00  0.00     0.035 C 
HETATM   11  C10 UNL     1     -17.437   4.650  16.855  1.00  0.00     0.012 C 
HETATM   12  C11 UNL     1     -16.824   3.666  15.835  1.00  0.00     0.026 C 
HETATM   13  C12 UNL     1     -17.148   4.127  14.384  1.00  0.00     0.005 C 
HETATM   14  C13 UNL     1     -16.579   3.128  13.364  1.00  0.00     0.007 C 
HETATM   15  C14 UNL     1     -17.089   1.714  13.620  1.00  0.00     0.013 C 
HETATM   16  C15 UNL     1     -16.752   1.178  15.041  1.00  0.00    -0.003 C 
HETATM   17  C16 UNL     1     -15.241   0.878  15.099  1.00  0.00     0.019 C 
HETATM   18  C17 UNL     1     -17.633  -0.091  15.313  1.00  0.00     0.058 C 
HETATM   19  C22 UNL     1     -19.006   0.508  15.732  1.00  0.00     0.143 C 
HETATM   20  C25 UNL     1     -18.745   1.936  16.242  1.00  0.00     0.072 C 
HETATM   21  C26 UNL     1     -17.230   2.189  16.122  1.00  0.00     0.072 C 
HETATM   22  C27 UNL     1     -16.718   5.617  14.092  1.00  0.00    -0.014 C 
HETATM   23  C28 UNL     1     -15.179   5.783  14.054  1.00  0.00     0.020 C 
HETATM   24  C29 UNL     1     -17.286   6.044  12.701  1.00  0.00     0.049 C 
HETATM   25  C30 UNL     1     -17.353   7.560  12.542  1.00  0.00     0.159 C 
HETATM   26  O9  UNL     1     -17.901   7.880  11.264  1.00  0.00    -0.341 OA
HETATM   27  C31 UNL     1     -17.955   9.299  11.062  1.00  0.00     0.240 C 
ENDROOT
BRANCH  18  28
HETATM   28  C18 UNL     1     -17.109  -1.186  16.217  1.00  0.00    -0.043 A 
HETATM   29  C19 UNL     1     -17.113  -1.131  17.550  1.00  0.00     0.087 A 
HETATM   30  C20 UNL     1     -16.430  -2.325  18.041  1.00  0.00     0.283 A 
HETATM   31  O4  UNL     1     -16.250  -2.588  19.216  1.00  0.00    -0.260 OA
HETATM   32  O5  UNL     1     -16.017  -3.066  16.983  1.00  0.00    -0.314 OA
HETATM   33  C21 UNL     1     -16.451  -2.439  15.771  1.00  0.00     0.214 A 
ENDBRANCH  18  28
BRANCH  19  34
HETATM   34  O6  UNL     1     -19.679  -0.301  16.706  1.00  0.00    -0.316 OA
BRANCH  34  35
HETATM   35  C23 UNL     1     -20.849   0.201  17.188  1.00  0.00     0.255 C 
HETATM   36  C24 UNL     1     -20.789   0.303  18.681  1.00  0.00     0.126 C 
HETATM   37  O7  UNL     1     -21.800   0.555  16.507  1.00  0.00    -0.266 OA
ENDBRANCH  34  35
ENDBRANCH  19  34
BRANCH  21  38
HETATM   38  O8  UNL     1     -16.645   1.821  17.379  1.00  0.00    -0.389 OA
HETATM   39  H35 UNL     1     -17.046   2.358  18.085  1.00  0.00     0.210 HD
ENDBRANCH  21  38
BRANCH  27  40
HETATM   40  O10 UNL     1     -16.854   9.596  10.186  1.00  0.00    -0.360 OA
HETATM   41  H42 UNL     1     -17.141   9.198   9.339  1.00  0.00     0.213 HD
ENDBRANCH  27  40
BRANCH   1  42
HETATM   42  O1  UNL     1     -19.282   8.966   9.052  1.00  0.00    -0.385 OA
HETATM   43  C1  UNL     1     -20.552   8.396   8.761  1.00  0.00     0.202 C 
ENDBRANCH   1  42
TORSDOF 6
ENDMDL
MODEL 5
REMARK minimizedAffinity -8.04801655
REMARK CNNscore 0.362768024
REMARK CNNaffinity 6.60302019
REMARK  6 active torsions:
REMARK  status: ('A' for Active; 'I' for Inactive)
REMARK    1  A    between atoms: O1_2  and  C2_3 
REMARK    2  A    between atoms: C17_20  and  C18_21 
REMARK    3  A    between atoms: C22_27  and  O6_28 
REMARK    4  A    between atoms: O6_28  and  C23_29 
REMARK    5  A    between atoms: C26_33  and  O8_34 
REMARK    6  A    between atoms: C31_40  and  O10_41 
ROOT
HETATM    1  C2  UNL     1      -3.371   2.221  11.996  1.00  0.00     0.190 C 
HETATM    2  C3  UNL     1      -4.312   1.122  11.484  1.00  0.00     0.064 C 
HETATM    3  C4  UNL     1      -5.748   1.598  11.337  1.00  0.00     0.174 C 
HETATM    4  O2  UNL     1      -6.060   2.506  12.379  1.00  0.00    -0.356 OA
HETATM    5  C5  UNL     1      -5.397   3.774  12.228  1.00  0.00     0.325 C 
HETATM    6  O3  UNL     1      -5.565   4.457  13.479  1.00  0.00    -0.344 OA
HETATM    7  C6  UNL     1      -4.463   5.266  13.875  1.00  0.00     0.177 C 
HETATM    8  C7  UNL     1      -4.978   6.402  14.703  1.00  0.00     0.011 C 
HETATM    9  C8  UNL     1      -4.491   7.658  14.643  1.00  0.00    -0.072 C 
HETATM   10  C9  UNL     1      -5.089   8.753  15.487  1.00  0.00     0.035 C 
HETATM   11  C10 UNL     1      -4.022   9.441  16.330  1.00  0.00     0.012 C 
HETATM   12  C11 UNL     1      -2.855   9.977  15.472  1.00  0.00     0.026 C 
HETATM   13  C12 UNL     1      -2.245   8.826  14.619  1.00  0.00     0.005 C 
HETATM   14  C13 UNL     1      -1.054   9.343  13.796  1.00  0.00     0.007 C 
HETATM   15  C14 UNL     1       0.002   9.992  14.684  1.00  0.00     0.013 C 
HETATM   16  C15 UNL     1      -0.539  11.183  15.526  1.00  0.00    -0.003 C 
HETATM   17  C16 UNL     1      -0.787  12.373  14.577  1.00  0.00     0.019 C 
HETATM   18  C17 UNL     1       0.507  11.510  16.648  1.00  0.00     0.058 C 
HETATM   19  C22 UNL     1       0.207  10.444  17.741  1.00  0.00     0.143 C 
HETATM   20  C25 UNL     1      -1.244   9.972  17.533  1.00  0.00     0.072 C 
HETATM   21  C26 UNL     1      -1.801  10.746  16.323  1.00  0.00     0.072 C 
HETATM   22  C27 UNL     1      -3.313   8.063  13.745  1.00  0.00    -0.014 C 
HETATM   23  C28 UNL     1      -3.862   8.942  12.594  1.00  0.00     0.020 C 
HETATM   24  C29 UNL     1      -2.642   6.802  13.113  1.00  0.00     0.049 C 
HETATM   25  C30 UNL     1      -3.664   5.760  12.669  1.00  0.00     0.159 C 
HETATM   26  O9  UNL     1      -2.985   4.629  12.126  1.00  0.00    -0.341 OA
HETATM   27  C31 UNL     1      -3.913   3.636  11.669  1.00  0.00     0.240 C 
ENDROOT
BRANCH  18  28
HETATM   28  C18 UNL     1       0.638  12.929  17.157  1.00  0.00    -0.043 A 
HETATM   29  C19 UNL     1       1.729  13.685  17.015  1.00  0.00     0.087 A 
HETATM   30  C20 UNL     1       1.493  14.937  17.730  1.00  0.00     0.283 A 
HETATM   31  O4  UNL     1       2.291  15.852  17.809  1.00  0.00    -0.260 OA
HETATM   32  O5  UNL     1       0.263  14.897  18.300  1.00  0.00    -0.314 OA
HETATM   33  C21 UNL     1      -0.380  13.666  17.946  1.00  0.00     0.214 A 
ENDBRANCH  18  28
BRANCH  19  34
HETATM   34  O6  UNL     1       0.430  10.944  19.067  1.00  0.00    -0.316 OA
BRANCH  34  35
HETATM   35  C23 UNL     1       1.671  10.729  19.580  1.00  0.00     0.255 C 
HETATM   36  C24 UNL     1       1.999  11.782  20.594  1.00  0.00     0.126 C 
HETATM   37  O7  UNL     1       2.405   9.795  19.288  1.00  0.00    -0.266 OA
ENDBRANCH  34  35
ENDBRANCH  19  34
BRANCH  21  38
HETATM   38  O8  UNL     1      -2.442  11.921  16.839  1.00  0.00    -0.389 OA
HETATM   39  H35 UNL     1      -3.148  11.653  17.453  1.00  0.00     0.210 HD
ENDBRANCH  21  38
BRANCH  27  40
HETATM   40  O10 UNL     1      -3.935   3.771  10.237  1.00  0.00    -0.360 OA
HETATM   41  H42 UNL     1      -3.049   3.444   9.978  1.00  0.00     0.213 HD
ENDBRANCH  27  40
BRANCH   1  42
HETATM   42  O1  UNL     1      -2.084   2.066  11.353  1.00  0.00    -0.385 OA
HETATM   43  C1  UNL     1      -1.085   2.916  11.904  1.00  0.00     0.202 C 
ENDBRANCH   1  42
TORSDOF 6
ENDMDL
MODEL 6
REMARK minimizedAffinity -7.51277018
REMARK CNNscore 0.313624769
REMARK CNNaffinity 7.05172968
REMARK  6 active torsions:
REMARK  status: ('A' for Active; 'I' for Inactive)
REMARK    1  A    between atoms: O1_2  and  C2_3 
REMARK    2  A    between atoms: C17_20  and  C18_21 
REMARK    3  A    between atoms: C22_27  and  O6_28 
REMARK    4  A    between atoms: O6_28  and  C23_29 
REMARK    5  A    between atoms: C26_33  and  O8_34 
REMARK    6  A    between atoms: C31_40  and  O10_41 
ROOT
HETATM    1  C2  UNL     1      -4.425   3.972  10.828  1.00  0.00     0.190 C 
HETATM    2  C3  UNL     1      -2.962   3.511  10.788  1.00  0.00     0.064 C 
HETATM    3  C4  UNL     1      -2.226   3.775  12.091  1.00  0.00     0.174 C 
HETATM    4  O2  UNL     1      -2.671   4.996  12.652  1.00  0.00    -0.356 OA
HETATM    5  C5  UNL     1      -4.009   4.914  13.175  1.00  0.00     0.325 C 
HETATM    6  O3  UNL     1      -4.419   6.266  13.425  1.00  0.00    -0.344 OA
HETATM    7  C6  UNL     1      -5.796   6.532  13.187  1.00  0.00     0.177 C 
HETATM    8  C7  UNL     1      -6.237   7.632  14.101  1.00  0.00     0.011 C 
HETATM    9  C8  UNL     1      -7.442   7.674  14.702  1.00  0.00    -0.072 C 
HETATM   10  C9  UNL     1      -7.794   8.802  15.637  1.00  0.00     0.035 C 
HETATM   11  C10 UNL     1      -9.088   9.484  15.209  1.00  0.00     0.012 C 
HETATM   12  C11 UNL     1     -10.260   8.485  15.080  1.00  0.00     0.026 C 
HETATM   13  C12 UNL     1      -9.879   7.337  14.101  1.00  0.00     0.005 C 
HETATM   14  C13 UNL     1     -11.056   6.363  13.933  1.00  0.00     0.007 C 
HETATM   15  C14 UNL     1     -12.319   7.084  13.473  1.00  0.00     0.013 C 
HETATM   16  C15 UNL     1     -12.777   8.213  14.440  1.00  0.00    -0.003 C 
HETATM   17  C16 UNL     1     -13.351   7.558  15.712  1.00  0.00     0.019 C 
HETATM   18  C17 UNL     1     -13.827   9.108  13.692  1.00  0.00     0.058 C 
HETATM   19  C22 UNL     1     -12.943  10.046  12.820  1.00  0.00     0.143 C 
HETATM   20  C25 UNL     1     -11.550  10.097  13.472  1.00  0.00     0.072 C 
HETATM   21  C26 UNL     1     -11.601   9.192  14.718  1.00  0.00     0.072 C 
HETATM   22  C27 UNL     1      -8.530   6.612  14.483  1.00  0.00    -0.014 C 
HETATM   23  C28 UNL     1      -8.662   5.780  15.782  1.00  0.00     0.020 C 
HETATM   24  C29 UNL     1      -8.131   5.643  13.326  1.00  0.00     0.049 C 
HETATM   25  C30 UNL     1      -6.651   5.276  13.359  1.00  0.00     0.159 C 
HETATM   26  O9  UNL     1      -6.350   4.411  12.265  1.00  0.00    -0.341 OA
HETATM   27  C31 UNL     1      -4.971   4.017  12.277  1.00  0.00     0.240 C 
ENDROOT
BRANCH  18  28
HETATM   28  C18 UNL     1     -14.914   9.804  14.481  1.00  0.00    -0.043 A 
HETATM   29  C19 UNL     1     -16.156  10.009  14.037  1.00  0.00     0.087 A 
HETATM   30  C20 UNL     1     -16.858  10.799  15.046  1.00  0.00     0.283 A 
HETATM   31  O4  UNL     1     -18.014  11.171  14.956  1.00  0.00    -0.260 OA
HETATM   32  O5  UNL     1     -16.011  11.063  16.072  1.00  0.00    -0.314 OA
HETATM   33  C21 UNL     1     -14.755  10.422  15.820  1.00  0.00     0.214 A 
ENDBRANCH  18  28
BRANCH  19  34
HETATM   34  O6  UNL     1     -13.518  11.351  12.668  1.00  0.00    -0.316 OA
BRANCH  34  35
HETATM   35  C23 UNL     1     -13.060  12.304  13.525  1.00  0.00     0.255 C 
HETATM   36  C24 UNL     1     -14.102  13.361  13.724  1.00  0.00     0.126 C 
HETATM   37  O7  UNL     1     -11.973  12.289  14.084  1.00  0.00    -0.266 OA
ENDBRANCH  34  35
ENDBRANCH  19  34
BRANCH  21  38
HETATM   38  O8  UNL     1     -11.957  10.028  15.827  1.00  0.00    -0.389 OA
HETATM   39  H35 UNL     1     -11.292  10.733  15.919  1.00  0.00     0.210 HD
ENDBRANCH  21  38
BRANCH  27  40
HETATM   40  O10 UNL     1      -4.968   2.671  12.783  1.00  0.00    -0.360 OA
HETATM   41  H42 UNL     1      -5.380   2.167  12.052  1.00  0.00     0.213 HD
ENDBRANCH  27  40
BRANCH   1  42
HETATM   42  O1  UNL     1      -5.227   3.037  10.067  1.00  0.00    -0.385 OA
HETATM   43  C1  UNL     1      -5.594   3.539   8.788  1.00  0.00     0.202 C 
ENDBRANCH   1  42
TORSDOF 6
ENDMDL
MODEL 7
REMARK minimizedAffinity -7.52863359
REMARK CNNscore 0.300232679
REMARK CNNaffinity 6.20372629
REMARK  6 active torsions:
REMARK  status: ('A' for Active; 'I' for Inactive)
REMARK    1  A    between atoms: O1_2  and  C2_3 
REMARK    2  A    between atoms: C17_20  and  C18_21 
REMARK    3  A    between atoms: C22_27  and  O6_28 
REMARK    4  A    between atoms: O6_28  and  C23_29 
REMARK    5  A    between atoms: C26_33  and  O8_34 
REMARK    6  A    between atoms: C31_40  and  O10_41 
ROOT
HETATM    1  C2  UNL     1      -1.923   2.568  12.032  1.00  0.00     0.190 C 
HETATM    2  C3  UNL     1      -3.011   1.596  11.555  1.00  0.00     0.064 C 
HETATM    3  C4  UNL     1      -4.377   2.253  11.437  1.00  0.00     0.174 C 
HETATM    4  O2  UNL     1      -4.542   3.201  12.476  1.00  0.00    -0.356 OA
HETATM    5  C5  UNL     1      -3.725   4.371  12.297  1.00  0.00     0.325 C 
HETATM    6  O3  UNL     1      -3.771   5.080  13.544  1.00  0.00    -0.344 OA
HETATM    7  C6  UNL     1      -2.565   5.742  13.905  1.00  0.00     0.177 C 
HETATM    8  C7  UNL     1      -2.907   6.942  14.732  1.00  0.00     0.011 C 
HETATM    9  C8  UNL     1      -2.263   8.123  14.647  1.00  0.00    -0.072 C 
HETATM   10  C9  UNL     1      -2.693   9.293  15.493  1.00  0.00     0.035 C 
HETATM   11  C10 UNL     1      -1.525   9.843  16.303  1.00  0.00     0.012 C 
HETATM   12  C11 UNL     1      -0.321  10.216  15.412  1.00  0.00     0.026 C 
HETATM   13  C12 UNL     1       0.114   8.990  14.557  1.00  0.00     0.005 C 
HETATM   14  C13 UNL     1       1.341   9.342  13.700  1.00  0.00     0.007 C 
HETATM   15  C14 UNL     1       2.494   9.855  14.556  1.00  0.00     0.013 C 
HETATM   16  C15 UNL     1       2.133  11.113  15.398  1.00  0.00    -0.003 C 
HETATM   17  C16 UNL     1       2.017  12.317  14.443  1.00  0.00     0.019 C 
HETATM   18  C17 UNL     1       3.240  11.310  16.491  1.00  0.00     0.058 C 
HETATM   19  C22 UNL     1       2.832  10.300  17.602  1.00  0.00     0.143 C 
HETATM   20  C25 UNL     1       1.328  10.018  17.434  1.00  0.00     0.072 C 
HETATM   21  C26 UNL     1       0.846  10.849  16.230  1.00  0.00     0.072 C 
HETATM   22  C27 UNL     1      -1.066   8.365  13.717  1.00  0.00    -0.014 C 
HETATM   23  C28 UNL     1      -1.525   9.300  12.570  1.00  0.00     0.020 C 
HETATM   24  C29 UNL     1      -0.579   7.024  13.082  1.00  0.00     0.049 C 
HETATM   25  C30 UNL     1      -1.739   6.119  12.675  1.00  0.00     0.159 C 
HETATM   26  O9  UNL     1      -1.226   4.906  12.127  1.00  0.00    -0.341 OA
HETATM   27  C31 UNL     1      -2.286   4.038  11.703  1.00  0.00     0.240 C 
ENDROOT
BRANCH  18  28
HETATM   28  C18 UNL     1       3.567  12.704  16.982  1.00  0.00    -0.043 A 
HETATM   29  C19 UNL     1       2.753  13.451  17.731  1.00  0.00     0.087 A 
HETATM   30  C20 UNL     1       3.386  14.756  17.900  1.00  0.00     0.283 A 
HETATM   31  O4  UNL     1       2.908  15.684  18.526  1.00  0.00    -0.260 OA
HETATM   32  O5  UNL     1       4.566  14.767  17.231  1.00  0.00    -0.314 OA
HETATM   33  C21 UNL     1       4.789  13.476  16.651  1.00  0.00     0.214 A 
ENDBRANCH  18  28
BRANCH  19  34
HETATM   34  O6  UNL     1       3.151  10.776  18.916  1.00  0.00    -0.316 OA
BRANCH  34  35
HETATM   35  C23 UNL     1       2.372  10.298  19.925  1.00  0.00     0.255 C 
HETATM   36  C24 UNL     1       1.226  11.230  20.175  1.00  0.00     0.126 C 
HETATM   37  O7  UNL     1       2.552   9.246  20.520  1.00  0.00    -0.266 OA
ENDBRANCH  34  35
ENDBRANCH  19  34
BRANCH  21  38
HETATM   38  O8  UNL     1       0.375  12.101  16.748  1.00  0.00    -0.389 OA
HETATM   39  H35 UNL     1      -0.344  11.931  17.382  1.00  0.00     0.210 HD
ENDBRANCH  21  38
BRANCH  27  40
HETATM   40  O10 UNL     1      -2.325   4.164  10.271  1.00  0.00    -0.360 OA
HETATM   41  H42 UNL     1      -1.497   3.723   9.994  1.00  0.00     0.213 HD
ENDBRANCH  27  40
BRANCH   1  42
HETATM   42  O1  UNL     1      -0.683   2.242  11.360  1.00  0.00    -0.385 OA
HETATM   43  C1  UNL     1      -0.726   0.980  10.704  1.00  0.00     0.202 C 
ENDBRANCH   1  42
TORSDOF 6
ENDMDL
MODEL 8
REMARK minimizedAffinity -10.5273657
REMARK CNNscore 0.291165382
REMARK CNNaffinity 6.82124329
REMARK  6 active torsions:
REMARK  status: ('A' for Active; 'I' for Inactive)
REMARK    1  A    between atoms: O1_2  and  C2_3 
REMARK    2  A    between atoms: C17_20  and  C18_21 
REMARK    3  A    between atoms: C22_27  and  O6_28 
REMARK    4  A    between atoms: O6_28  and  C23_29 
REMARK    5  A    between atoms: C26_33  and  O8_34 
REMARK    6  A    between atoms: C31_40  and  O10_41 
ROOT
HETATM    1  C2  UNL     1      -9.092   8.787  14.543  1.00  0.00     0.190 C 
HETATM    2  C3  UNL     1     -10.561   8.442  14.821  1.00  0.00     0.064 C 
HETATM    3  C4  UNL     1     -10.781   6.957  15.062  1.00  0.00     0.174 C 
HETATM    4  O2  UNL     1      -9.920   6.205  14.226  1.00  0.00    -0.356 OA
HETATM    5  C5  UNL     1      -8.542   6.286  14.630  1.00  0.00     0.325 C 
HETATM    6  O3  UNL     1      -7.779   5.740  13.543  1.00  0.00    -0.344 OA
HETATM    7  C6  UNL     1      -6.520   6.362  13.319  1.00  0.00     0.177 C 
HETATM    8  C7  UNL     1      -5.582   5.349  12.739  1.00  0.00     0.011 C 
HETATM    9  C8  UNL     1      -4.273   5.269  13.053  1.00  0.00    -0.072 C 
HETATM   10  C9  UNL     1      -3.405   4.196  12.449  1.00  0.00     0.035 C 
HETATM   11  C10 UNL     1      -2.186   4.800  11.762  1.00  0.00     0.012 C 
HETATM   12  C11 UNL     1      -1.370   5.705  12.711  1.00  0.00     0.026 C 
HETATM   13  C12 UNL     1      -2.283   6.812  13.313  1.00  0.00     0.005 C 
HETATM   14  C13 UNL     1      -1.468   7.744  14.224  1.00  0.00     0.007 C 
HETATM   15  C14 UNL     1      -0.279   8.350  13.485  1.00  0.00     0.013 C 
HETATM   16  C15 UNL     1       0.698   7.289  12.903  1.00  0.00    -0.003 C 
HETATM   17  C16 UNL     1       1.472   6.649  14.073  1.00  0.00     0.019 C 
HETATM   18  C17 UNL     1       1.641   8.000  11.870  1.00  0.00     0.058 C 
HETATM   19  C22 UNL     1       0.769   8.080  10.584  1.00  0.00     0.143 C 
HETATM   20  C25 UNL     1      -0.307   6.985  10.692  1.00  0.00     0.072 C 
HETATM   21  C26 UNL     1      -0.082   6.262  12.033  1.00  0.00     0.072 C 
HETATM   22  C27 UNL     1      -3.576   6.242  14.014  1.00  0.00    -0.014 C 
HETATM   23  C28 UNL     1      -3.243   5.478  15.320  1.00  0.00     0.020 C 
HETATM   24  C29 UNL     1      -4.521   7.432  14.378  1.00  0.00     0.049 C 
HETATM   25  C30 UNL     1      -5.962   6.983  14.601  1.00  0.00     0.159 C 
HETATM   26  O9  UNL     1      -6.772   8.117  14.904  1.00  0.00    -0.341 OA
HETATM   27  C31 UNL     1      -8.132   7.733  15.149  1.00  0.00     0.240 C 
ENDROOT
BRANCH  18  28
HETATM   28  C18 UNL     1       3.047   7.480  11.659  1.00  0.00    -0.043 A 
HETATM   29  C19 UNL     1       3.386   6.567  10.746  1.00  0.00     0.087 A 
HETATM   30  C20 UNL     1       4.802   6.262  10.934  1.00  0.00     0.283 A 
HETATM   31  O4  UNL     1       5.433   5.461  10.270  1.00  0.00    -0.260 OA
HETATM   32  O5  UNL     1       5.278   6.993  11.973  1.00  0.00    -0.314 OA
HETATM   33  C21 UNL     1       4.236   7.840  12.469  1.00  0.00     0.214 A 
ENDBRANCH  18  28
BRANCH  19  34
HETATM   34  O6  UNL     1       1.550   7.957   9.387  1.00  0.00    -0.316 OA
BRANCH  34  35
HETATM   35  C23 UNL     1       0.856   8.024   8.218  1.00  0.00     0.255 C 
HETATM   36  C24 UNL     1       1.668   7.438   7.104  1.00  0.00     0.126 C 
HETATM   37  O7  UNL     1      -0.278   8.464   8.092  1.00  0.00    -0.266 OA
ENDBRANCH  34  35
ENDBRANCH  19  34
BRANCH  21  38
HETATM   38  O8  UNL     1       0.778   5.145  11.766  1.00  0.00    -0.389 OA
HETATM   39  H35 UNL     1       0.352   4.566  11.111  1.00  0.00     0.210 HD
ENDBRANCH  21  38
BRANCH  27  40
HETATM   40  O10 UNL     1      -8.284   7.782  16.579  1.00  0.00    -0.360 OA
HETATM   41  H42 UNL     1      -8.242   8.742  16.766  1.00  0.00     0.213 HD
ENDBRANCH  27  40
BRANCH   1  42
HETATM   42  O1  UNL     1      -8.797  10.072  15.140  1.00  0.00    -0.385 OA
HETATM   43  C1  UNL     1      -9.923  10.941  15.165  1.00  0.00     0.202 C 
ENDBRANCH   1  42
TORSDOF 6
ENDMDL
MODEL 9
REMARK minimizedAffinity -7.85892582
REMARK CNNscore 0.26707226
REMARK CNNaffinity 6.83825254
REMARK  6 active torsions:
REMARK  status: ('A' for Active; 'I' for Inactive)
REMARK    1  A    between atoms: O1_2  and  C2_3 
REMARK    2  A    between atoms: C17_20  and  C18_21 
REMARK    3  A    between atoms: C22_27  and  O6_28 
REMARK    4  A    between atoms: O6_28  and  C23_29 
REMARK    5  A    between atoms: C26_33  and  O8_34 
REMARK    6  A    between atoms: C31_40  and  O10_41 
ROOT
HETATM    1  C2  UNL     1      -1.529   6.972  12.740  1.00  0.00     0.190 C 
HETATM    2  C3  UNL     1      -0.078   6.745  13.183  1.00  0.00     0.064 C 
HETATM    3  C4  UNL     1       0.025   6.150  14.579  1.00  0.00     0.174 C 
HETATM    4  O2  UNL     1      -0.996   6.684  15.402  1.00  0.00    -0.356 OA
HETATM    5  C5  UNL     1      -2.303   6.195  15.056  1.00  0.00     0.325 C 
HETATM    6  O3  UNL     1      -3.236   7.031  15.755  1.00  0.00    -0.344 OA
HETATM    7  C6  UNL     1      -4.447   7.296  15.058  1.00  0.00     0.177 C 
HETATM    8  C7  UNL     1      -5.539   7.510  16.060  1.00  0.00     0.011 C 
HETATM    9  C8  UNL     1      -6.804   7.073  15.900  1.00  0.00    -0.072 C 
HETATM   10  C9  UNL     1      -7.836   7.300  16.974  1.00  0.00     0.035 C 
HETATM   11  C10 UNL     1      -9.063   8.009  16.413  1.00  0.00     0.012 C 
HETATM   12  C11 UNL     1      -9.672   7.257  15.210  1.00  0.00     0.026 C 
HETATM   13  C12 UNL     1      -8.593   7.045  14.109  1.00  0.00     0.005 C 
HETATM   14  C13 UNL     1      -9.204   6.337  12.889  1.00  0.00     0.007 C 
HETATM   15  C14 UNL     1     -10.407   7.098  12.343  1.00  0.00     0.013 C 
HETATM   16  C15 UNL     1     -11.543   7.299  13.387  1.00  0.00    -0.003 C 
HETATM   17  C16 UNL     1     -12.232   5.940  13.619  1.00  0.00     0.019 C 
HETATM   18  C17 UNL     1     -12.526   8.393  12.843  1.00  0.00     0.058 C 
HETATM   19  C22 UNL     1     -11.806   9.728  13.189  1.00  0.00     0.143 C 
HETATM   20  C25 UNL     1     -10.835   9.437  14.347  1.00  0.00     0.072 C 
HETATM   21  C26 UNL     1     -10.971   7.939  14.684  1.00  0.00     0.072 C 
HETATM   22  C27 UNL     1      -7.288   6.337  14.642  1.00  0.00    -0.014 C 
HETATM   23  C28 UNL     1      -7.538   4.855  15.014  1.00  0.00     0.020 C 
HETATM   24  C29 UNL     1      -6.198   6.378  13.524  1.00  0.00     0.049 C 
HETATM   25  C30 UNL     1      -4.790   6.175  14.078  1.00  0.00     0.159 C 
HETATM   26  O9  UNL     1      -3.845   6.247  13.011  1.00  0.00    -0.341 OA
HETATM   27  C31 UNL     1      -2.509   6.032  13.486  1.00  0.00     0.240 C 
ENDROOT
BRANCH  18  28
HETATM   28  C18 UNL     1     -13.990   8.338  13.222  1.00  0.00    -0.043 A 
HETATM   29  C19 UNL     1     -14.978   8.028  12.380  1.00  0.00     0.087 A 
HETATM   30  C20 UNL     1     -16.238   8.189  13.101  1.00  0.00     0.283 A 
HETATM   31  O4  UNL     1     -17.341   7.994  12.624  1.00  0.00    -0.260 OA
HETATM   32  O5  UNL     1     -15.975   8.609  14.363  1.00  0.00    -0.314 OA
HETATM   33  C21 UNL     1     -14.557   8.685  14.548  1.00  0.00     0.214 A 
ENDBRANCH  18  28
BRANCH  19  34
HETATM   34  O6  UNL     1     -12.729  10.779  13.507  1.00  0.00    -0.316 OA
BRANCH  34  35
HETATM   35  C23 UNL     1     -12.341  11.629  14.496  1.00  0.00     0.255 C 
HETATM   36  C24 UNL     1     -12.446  13.047  14.026  1.00  0.00     0.126 C 
HETATM   37  O7  UNL     1     -11.991  11.295  15.619  1.00  0.00    -0.266 OA
ENDBRANCH  34  35
ENDBRANCH  19  34
BRANCH  21  38
HETATM   38  O8  UNL     1     -11.959   7.832  15.718  1.00  0.00    -0.389 OA
HETATM   39  H35 UNL     1     -11.670   8.351  16.488  1.00  0.00     0.210 HD
ENDBRANCH  21  38
BRANCH  27  40
HETATM   40  O10 UNL     1      -2.187   4.683  13.105  1.00  0.00    -0.360 OA
HETATM   41  H42 UNL     1      -2.115   4.746  12.131  1.00  0.00     0.213 HD
ENDBRANCH  27  40
BRANCH   1  42
HETATM   42  O1  UNL     1      -1.628   6.703  11.321  1.00  0.00    -0.385 OA
HETATM   43  C1  UNL     1      -0.359   6.513  10.706  1.00  0.00     0.202 C 
ENDBRANCH   1  42
TORSDOF 6
ENDMDL
