MODEL 1
REMARK minimizedAffinity -8.25205421
REMARK CNNscore 0.483842462
REMARK CNNaffinity 6.93193579
REMARK  9 active torsions:
REMARK  status: ('A' for Active; 'I' for Inactive)
REMARK    1  A    between atoms: C11_11  and  C13_13 
REMARK    2  A    between atoms: C13_13  and  O2_15 
REMARK    3  A    between atoms: C15_17  and  C16_18 
REMARK    4  A    between atoms: C16_18  and  C17_19 
REMARK    5  A    between atoms: C17_19  and  C18_20 
REMARK    6  A    between atoms: C19_21  and  C20_22 
REMARK    7  A    between atoms: C20_22  and  O3_23 
REMARK    8  A    between atoms: O3_23  and  C21_24 
REMARK    9  A    between atoms: C21_24  and  C22_26 
ROOT
HETATM    1  C16 UNL     1      -2.464  51.271 -25.023  1.00  0.00     0.014 C 
ENDROOT
BRANCH   1   2
HETATM    2  C15 UNL     1      -3.700  50.384 -24.695  1.00  0.00     0.022 C 
HETATM    3  C2  UNL     1      -3.833  49.111 -25.534  1.00  0.00    -0.084 C 
HETATM    4  C1  UNL     1      -2.891  48.575 -26.329  1.00  0.00     0.014 C 
HETATM    5  C3  UNL     1      -5.160  48.419 -25.365  1.00  0.00     0.034 C 
HETATM    6  C4  UNL     1      -5.388  48.054 -23.899  1.00  0.00     0.011 C 
HETATM    7  C5  UNL     1      -5.250  49.284 -22.971  1.00  0.00     0.012 C 
HETATM    8  C6  UNL     1      -3.856  50.014 -23.153  1.00  0.00    -0.032 C 
HETATM    9  C11 UNL     1      -5.697  49.046 -21.482  1.00  0.00     0.049 C 
HETATM   10  C7  UNL     1      -2.660  49.141 -22.702  1.00  0.00     0.016 C 
HETATM   11  C8  UNL     1      -3.871  51.313 -22.299  1.00  0.00     0.010 C 
HETATM   12  C9  UNL     1      -4.287  51.103 -20.847  1.00  0.00     0.002 C 
HETATM   13  C10 UNL     1      -5.634  50.403 -20.735  1.00  0.00     0.020 C 
HETATM   14  C12 UNL     1      -7.172  48.577 -21.419  1.00  0.00     0.026 C 
BRANCH   9  15
HETATM   15  C13 UNL     1      -4.908  47.924 -20.777  1.00  0.00     0.267 C 
HETATM   16  O1  UNL     1      -4.849  46.768 -21.177  1.00  0.00    -0.264 OA
BRANCH  15  17
HETATM   17  O2  UNL     1      -4.331  48.347 -19.619  1.00  0.00    -0.326 OA
HETATM   18  C14 UNL     1      -4.225  47.341 -18.610  1.00  0.00     0.213 C 
ENDBRANCH  15  17
ENDBRANCH   9  15
ENDBRANCH   1   2
BRANCH   1  19
HETATM   19  C17 UNL     1      -1.144  50.806 -24.380  1.00  0.00     0.042 C 
BRANCH  19  20
HETATM   20  C18 UNL     1      -0.349  51.921 -23.780  1.00  0.00    -0.024 A 
HETATM   21  C19 UNL     1       0.011  52.085 -22.451  1.00  0.00     0.083 A 
HETATM   22  O5  UNL     1       0.752  53.222 -22.300  1.00  0.00    -0.324 OA
HETATM   23  C28 UNL     1       0.857  53.797 -23.523  1.00  0.00     0.143 A 
HETATM   24  C29 UNL     1       0.201  53.043 -24.464  1.00  0.00     0.034 A 
BRANCH  21  25
HETATM   25  C20 UNL     1      -0.237  51.296 -21.217  1.00  0.00     0.244 C 
BRANCH  25  26
HETATM   26  O3  UNL     1       0.397  51.979 -20.127  1.00  0.00    -0.311 OA
BRANCH  26  27
HETATM   27  C21 UNL     1      -0.321  52.054 -18.984  1.00  0.00     0.293 C 
HETATM   28  O4  UNL     1      -1.532  52.182 -18.893  1.00  0.00    -0.259 OA
BRANCH  27  29
HETATM   29  C22 UNL     1       0.579  51.937 -17.803  1.00  0.00     0.039 A 
HETATM   30  C23 UNL     1       0.284  50.961 -16.839  1.00  0.00     0.019 A 
HETATM   31  C24 UNL     1       1.100  50.813 -15.714  1.00  0.00     0.025 A 
HETATM   32  C25 UNL     1       2.209  51.640 -15.547  1.00  0.00     0.034 A 
HETATM   33 CL1  UNL     1       3.213  51.458 -14.162  1.00  0.00    -0.084 Cl
HETATM   34  C26 UNL     1       2.510  52.617 -16.496  1.00  0.00     0.025 A 
HETATM   35  C27 UNL     1       1.695  52.767 -17.623  1.00  0.00     0.019 A 
ENDBRANCH  27  29
ENDBRANCH  26  27
ENDBRANCH  25  26
ENDBRANCH  21  25
ENDBRANCH  19  20
ENDBRANCH   1  19
TORSDOF 9
ENDMDL
MODEL 2
REMARK minimizedAffinity -9.23182583
REMARK CNNscore 0.445333987
REMARK CNNaffinity 6.97108889
REMARK  9 active torsions:
REMARK  status: ('A' for Active; 'I' for Inactive)
REMARK    1  A    between atoms: C11_11  and  C13_13 
REMARK    2  A    between atoms: C13_13  and  O2_15 
REMARK    3  A    between atoms: C15_17  and  C16_18 
REMARK    4  A    between atoms: C16_18  and  C17_19 
REMARK    5  A    between atoms: C17_19  and  C18_20 
REMARK    6  A    between atoms: C19_21  and  C20_22 
REMARK    7  A    between atoms: C20_22  and  O3_23 
REMARK    8  A    between atoms: O3_23  and  C21_24 
REMARK    9  A    between atoms: C21_24  and  C22_26 
ROOT
HETATM    1  C16 UNL     1      -2.527  51.264 -25.244  1.00  0.00     0.014 C 
ENDROOT
BRANCH   1   2
HETATM    2  C15 UNL     1      -3.691  50.381 -24.707  1.00  0.00     0.022 C 
HETATM    3  C2  UNL     1      -3.896  49.053 -25.441  1.00  0.00    -0.084 C 
HETATM    4  C1  UNL     1      -3.048  48.481 -26.312  1.00  0.00     0.014 C 
HETATM    5  C3  UNL     1      -5.176  48.352 -25.064  1.00  0.00     0.034 C 
HETATM    6  C4  UNL     1      -5.210  48.081 -23.560  1.00  0.00     0.011 C 
HETATM    7  C5  UNL     1      -4.988  49.372 -22.736  1.00  0.00     0.012 C 
HETATM    8  C6  UNL     1      -3.645  50.111 -23.138  1.00  0.00    -0.032 C 
HETATM    9  C11 UNL     1      -5.240  49.225 -21.191  1.00  0.00     0.049 C 
HETATM   10  C7  UNL     1      -2.382  49.289 -22.787  1.00  0.00     0.016 C 
HETATM   11  C8  UNL     1      -3.586  51.462 -22.373  1.00  0.00     0.010 C 
HETATM   12  C9  UNL     1      -3.812  51.342 -20.870  1.00  0.00     0.002 C 
HETATM   13  C10 UNL     1      -5.118  50.630 -20.545  1.00  0.00     0.020 C 
HETATM   14  C12 UNL     1      -6.684  48.738 -20.914  1.00  0.00     0.026 C 
BRANCH   9  15
HETATM   15  C13 UNL     1      -4.343  48.165 -20.522  1.00  0.00     0.267 C 
HETATM   16  O1  UNL     1      -3.199  48.374 -20.138  1.00  0.00    -0.264 OA
BRANCH  15  17
HETATM   17  O2  UNL     1      -4.943  46.944 -20.460  1.00  0.00    -0.326 OA
HETATM   18  C14 UNL     1      -4.090  45.849 -20.797  1.00  0.00     0.213 C 
ENDBRANCH  15  17
ENDBRANCH   9  15
ENDBRANCH   1   2
BRANCH   1  19
HETATM   19  C17 UNL     1      -1.122  50.832 -24.784  1.00  0.00     0.042 C 
BRANCH  19  20
HETATM   20  C18 UNL     1      -0.018  51.444 -25.586  1.00  0.00    -0.024 A 
HETATM   21  C19 UNL     1       0.743  52.557 -25.267  1.00  0.00     0.083 A 
HETATM   22  O5  UNL     1       1.665  52.794 -26.246  1.00  0.00    -0.324 OA
HETATM   23  C28 UNL     1       1.489  51.847 -27.200  1.00  0.00     0.143 A 
HETATM   24  C29 UNL     1       0.471  50.996 -26.847  1.00  0.00     0.034 A 
BRANCH  21  25
HETATM   25  C20 UNL     1       0.755  53.496 -24.116  1.00  0.00     0.244 C 
BRANCH  25  26
HETATM   26  O3  UNL     1       0.841  52.715 -22.916  1.00  0.00    -0.311 OA
BRANCH  26  27
HETATM   27  C21 UNL     1       1.069  53.410 -21.779  1.00  0.00     0.293 C 
HETATM   28  O4  UNL     1       1.550  54.530 -21.695  1.00  0.00    -0.259 OA
BRANCH  27  29
HETATM   29  C22 UNL     1       0.629  52.619 -20.597  1.00  0.00     0.039 A 
HETATM   30  C23 UNL     1       0.866  53.149 -19.320  1.00  0.00     0.019 A 
HETATM   31  C24 UNL     1       0.470  52.444 -18.180  1.00  0.00     0.025 A 
HETATM   32  C25 UNL     1      -0.160  51.207 -18.312  1.00  0.00     0.034 A 
HETATM   33 CL1  UNL     1      -0.647  50.340 -16.909  1.00  0.00    -0.084 Cl
HETATM   34  C26 UNL     1      -0.396  50.668 -19.577  1.00  0.00     0.025 A 
HETATM   35  C27 UNL     1      -0.001  51.372 -20.719  1.00  0.00     0.019 A 
ENDBRANCH  27  29
ENDBRANCH  26  27
ENDBRANCH  25  26
ENDBRANCH  21  25
ENDBRANCH  19  20
ENDBRANCH   1  19
TORSDOF 9
ENDMDL
MODEL 3
REMARK minimizedAffinity -9.15999985
REMARK CNNscore 0.371797234
REMARK CNNaffinity 6.72932816
REMARK  9 active torsions:
REMARK  status: ('A' for Active; 'I' for Inactive)
REMARK    1  A    between atoms: C11_11  and  C13_13 
REMARK    2  A    between atoms: C13_13  and  O2_15 
REMARK    3  A    between atoms: C15_17  and  C16_18 
REMARK    4  A    between atoms: C16_18  and  C17_19 
REMARK    5  A    between atoms: C17_19  and  C18_20 
REMARK    6  A    between atoms: C19_21  and  C20_22 
REMARK    7  A    between atoms: C20_22  and  O3_23 
REMARK    8  A    between atoms: O3_23  and  C21_24 
REMARK    9  A    between atoms: C21_24  and  C22_26 
ROOT
HETATM    1  C16 UNL     1      -2.688  49.592 -22.790  1.00  0.00     0.014 C 
ENDROOT
BRANCH   1   2
HETATM    2  C15 UNL     1      -2.283  49.596 -24.293  1.00  0.00     0.022 C 
HETATM    3  C2  UNL     1      -3.386  49.180 -25.268  1.00  0.00    -0.084 C 
HETATM    4  C1  UNL     1      -4.694  49.053 -24.989  1.00  0.00     0.014 C 
HETATM    5  C3  UNL     1      -2.889  48.952 -26.672  1.00  0.00     0.034 C 
HETATM    6  C4  UNL     1      -2.221  50.217 -27.212  1.00  0.00     0.011 C 
HETATM    7  C5  UNL     1      -1.101  50.723 -26.273  1.00  0.00     0.012 C 
HETATM    8  C6  UNL     1      -1.624  50.956 -24.795  1.00  0.00    -0.032 C 
HETATM    9  C11 UNL     1      -0.210  51.876 -26.863  1.00  0.00     0.049 C 
HETATM   10  C7  UNL     1      -2.659  52.103 -24.701  1.00  0.00     0.016 C 
HETATM   11  C8  UNL     1      -0.406  51.314 -23.899  1.00  0.00     0.010 C 
HETATM   12  C9  UNL     1       0.464  52.441 -24.445  1.00  0.00     0.002 C 
HETATM   13  C10 UNL     1       0.941  52.159 -25.862  1.00  0.00     0.020 C 
HETATM   14  C12 UNL     1       0.458  51.431 -28.187  1.00  0.00     0.026 C 
BRANCH   9  15
HETATM   15  C13 UNL     1      -1.012  53.137 -27.243  1.00  0.00     0.267 C 
HETATM   16  O1  UNL     1      -2.229  53.234 -27.144  1.00  0.00    -0.264 OA
BRANCH  15  17
HETATM   17  O2  UNL     1      -0.222  54.115 -27.763  1.00  0.00    -0.326 OA
HETATM   18  C14 UNL     1      -0.126  55.290 -26.956  1.00  0.00     0.213 C 
ENDBRANCH  15  17
ENDBRANCH   9  15
ENDBRANCH   1   2
BRANCH   1  19
HETATM   19  C17 UNL     1      -2.417  48.268 -22.051  1.00  0.00     0.042 C 
BRANCH  19  20
HETATM   20  C18 UNL     1      -3.548  47.835 -21.172  1.00  0.00    -0.024 A 
HETATM   21  C19 UNL     1      -3.766  48.172 -19.845  1.00  0.00     0.083 A 
HETATM   22  O5  UNL     1      -4.916  47.592 -19.394  1.00  0.00    -0.324 OA
HETATM   23  C28 UNL     1      -5.431  46.872 -20.421  1.00  0.00     0.143 A 
HETATM   24  C29 UNL     1      -4.632  46.984 -21.532  1.00  0.00     0.034 A 
BRANCH  21  25
HETATM   25  C20 UNL     1      -3.028  49.010 -18.866  1.00  0.00     0.244 C 
BRANCH  25  26
HETATM   26  O3  UNL     1      -1.758  48.386 -18.626  1.00  0.00    -0.311 OA
BRANCH  26  27
HETATM   27  C21 UNL     1      -0.890  49.095 -17.871  1.00  0.00     0.293 C 
HETATM   28  O4  UNL     1      -0.508  48.814 -16.745  1.00  0.00    -0.259 OA
BRANCH  27  29
HETATM   29  C22 UNL     1      -0.423  50.297 -18.615  1.00  0.00     0.039 A 
HETATM   30  C23 UNL     1      -0.091  51.445 -17.880  1.00  0.00     0.019 A 
HETATM   31  C24 UNL     1       0.353  52.597 -18.534  1.00  0.00     0.025 A 
HETATM   32  C25 UNL     1       0.463  52.608 -19.924  1.00  0.00     0.034 A 
HETATM   33 CL1  UNL     1       1.009  54.026 -20.728  1.00  0.00    -0.084 Cl
HETATM   34  C26 UNL     1       0.131  51.475 -20.666  1.00  0.00     0.025 A 
HETATM   35  C27 UNL     1      -0.313  50.320 -20.013  1.00  0.00     0.019 A 
ENDBRANCH  27  29
ENDBRANCH  26  27
ENDBRANCH  25  26
ENDBRANCH  21  25
ENDBRANCH  19  20
ENDBRANCH   1  19
TORSDOF 9
ENDMDL
MODEL 4
REMARK minimizedAffinity -7.92776442
REMARK CNNscore 0.274971604
REMARK CNNaffinity 5.99089766
REMARK  9 active torsions:
REMARK  status: ('A' for Active; 'I' for Inactive)
REMARK    1  A    between atoms: C11_11  and  C13_13 
REMARK    2  A    between atoms: C13_13  and  O2_15 
REMARK    3  A    between atoms: C15_17  and  C16_18 
REMARK    4  A    between atoms: C16_18  and  C17_19 
REMARK    5  A    between atoms: C17_19  and  C18_20 
REMARK    6  A    between atoms: C19_21  and  C20_22 
REMARK    7  A    between atoms: C20_22  and  O3_23 
REMARK    8  A    between atoms: O3_23  and  C21_24 
REMARK    9  A    between atoms: C21_24  and  C22_26 
ROOT
HETATM    1  C16 UNL     1      -6.054  47.064 -28.605  1.00  0.00     0.014 C 
ENDROOT
BRANCH   1   2
HETATM    2  C15 UNL     1      -7.393  47.684 -29.099  1.00  0.00     0.022 C 
HETATM    3  C2  UNL     1      -7.374  48.226 -30.531  1.00  0.00    -0.084 C 
HETATM    4  C1  UNL     1      -6.424  48.008 -31.456  1.00  0.00     0.014 C 
HETATM    5  C3  UNL     1      -8.594  49.038 -30.880  1.00  0.00     0.034 C 
HETATM    6  C4  UNL     1      -9.860  48.200 -30.701  1.00  0.00     0.011 C 
HETATM    7  C5  UNL     1      -9.952  47.591 -29.282  1.00  0.00     0.012 C 
HETATM    8  C6  UNL     1      -8.665  46.742 -28.913  1.00  0.00    -0.032 C 
HETATM    9  C11 UNL     1     -11.328  46.912 -28.938  1.00  0.00     0.049 C 
HETATM   10  C7  UNL     1      -8.511  45.478 -29.792  1.00  0.00     0.016 C 
HETATM   11  C8  UNL     1      -8.782  46.302 -27.427  1.00  0.00     0.010 C 
HETATM   12  C9  UNL     1     -10.103  45.628 -27.075  1.00  0.00     0.002 C 
HETATM   13  C10 UNL     1     -11.301  46.491 -27.446  1.00  0.00     0.020 C 
HETATM   14  C12 UNL     1     -12.491  47.923 -29.088  1.00  0.00     0.026 C 
BRANCH   9  15
HETATM   15  C13 UNL     1     -11.697  45.758 -29.892  1.00  0.00     0.267 C 
HETATM   16  O1  UNL     1     -11.061  45.466 -30.897  1.00  0.00    -0.264 OA
BRANCH  15  17
HETATM   17  O2  UNL     1     -12.852  45.136 -29.529  1.00  0.00    -0.326 OA
HETATM   18  C14 UNL     1     -13.284  45.422 -28.197  1.00  0.00     0.213 C 
ENDBRANCH  15  17
ENDBRANCH   9  15
ENDBRANCH   1   2
BRANCH   1  19
HETATM   19  C17 UNL     1      -5.062  48.071 -27.993  1.00  0.00     0.042 C 
BRANCH  19  20
HETATM   20  C18 UNL     1      -5.217  48.235 -26.515  1.00  0.00    -0.024 A 
HETATM   21  C19 UNL     1      -4.366  48.896 -25.642  1.00  0.00     0.083 A 
HETATM   22  O5  UNL     1      -4.858  48.843 -24.371  1.00  0.00    -0.324 OA
HETATM   23  C28 UNL     1      -6.015  48.138 -24.419  1.00  0.00     0.143 A 
HETATM   24  C29 UNL     1      -6.281  47.741 -25.706  1.00  0.00     0.034 A 
BRANCH  21  25
HETATM   25  C20 UNL     1      -3.083  49.624 -25.817  1.00  0.00     0.244 C 
BRANCH  25  26
HETATM   26  O3  UNL     1      -3.332  50.750 -26.671  1.00  0.00    -0.311 OA
BRANCH  26  27
HETATM   27  C21 UNL     1      -2.774  51.918 -26.280  1.00  0.00     0.293 C 
HETATM   28  O4  UNL     1      -3.357  52.880 -25.804  1.00  0.00    -0.259 OA
BRANCH  27  29
HETATM   29  C22 UNL     1      -1.300  51.879 -26.491  1.00  0.00     0.039 A 
HETATM   30  C23 UNL     1      -0.822  51.780 -27.806  1.00  0.00     0.019 A 
HETATM   31  C24 UNL     1       0.553  51.741 -28.055  1.00  0.00     0.025 A 
HETATM   32  C25 UNL     1       1.453  51.799 -26.992  1.00  0.00     0.034 A 
HETATM   33 CL1  UNL     1       3.145  51.752 -27.299  1.00  0.00    -0.084 Cl
HETATM   34  C26 UNL     1       0.989  51.893 -25.680  1.00  0.00     0.025 A 
HETATM   35  C27 UNL     1      -0.386  51.932 -25.429  1.00  0.00     0.019 A 
ENDBRANCH  27  29
ENDBRANCH  26  27
ENDBRANCH  25  26
ENDBRANCH  21  25
ENDBRANCH  19  20
ENDBRANCH   1  19
TORSDOF 9
ENDMDL
MODEL 5
REMARK minimizedAffinity -9.29691982
REMARK CNNscore 0.25201264
REMARK CNNaffinity 6.3260808
REMARK  9 active torsions:
REMARK  status: ('A' for Active; 'I' for Inactive)
REMARK    1  A    between atoms: C11_11  and  C13_13 
REMARK    2  A    between atoms: C13_13  and  O2_15 
REMARK    3  A    between atoms: C15_17  and  C16_18 
REMARK    4  A    between atoms: C16_18  and  C17_19 
REMARK    5  A    between atoms: C17_19  and  C18_20 
REMARK    6  A    between atoms: C19_21  and  C20_22 
REMARK    7  A    between atoms: C20_22  and  O3_23 
REMARK    8  A    between atoms: O3_23  and  C21_24 
REMARK    9  A    between atoms: C21_24  and  C22_26 
ROOT
HETATM    1  C16 UNL     1      -2.995  48.858 -22.838  1.00  0.00     0.014 C 
ENDROOT
BRANCH   1   2
HETATM    2  C15 UNL     1      -2.579  49.013 -24.330  1.00  0.00     0.022 C 
HETATM    3  C2  UNL     1      -3.637  48.589 -25.351  1.00  0.00    -0.084 C 
HETATM    4  C1  UNL     1      -4.933  48.338 -25.102  1.00  0.00     0.014 C 
HETATM    5  C3  UNL     1      -3.112  48.513 -26.761  1.00  0.00     0.034 C 
HETATM    6  C4  UNL     1      -2.543  49.865 -27.191  1.00  0.00     0.011 C 
HETATM    7  C5  UNL     1      -1.475  50.383 -26.198  1.00  0.00     0.012 C 
HETATM    8  C6  UNL     1      -2.027  50.456 -24.715  1.00  0.00    -0.032 C 
HETATM    9  C11 UNL     1      -0.674  51.646 -26.684  1.00  0.00     0.049 C 
HETATM   10  C7  UNL     1      -3.151  51.507 -24.547  1.00  0.00     0.016 C 
HETATM   11  C8  UNL     1      -0.849  50.838 -23.776  1.00  0.00     0.010 C 
HETATM   12  C9  UNL     1      -0.068  52.070 -24.219  1.00  0.00     0.002 C 
HETATM   13  C10 UNL     1       0.442  51.939 -25.647  1.00  0.00     0.020 C 
HETATM   14  C12 UNL     1       0.039  51.361 -28.029  1.00  0.00     0.026 C 
BRANCH   9  15
HETATM   15  C13 UNL     1      -1.572  52.865 -26.975  1.00  0.00     0.267 C 
HETATM   16  O1  UNL     1      -2.672  53.047 -26.469  1.00  0.00    -0.264 OA
BRANCH  15  17
HETATM   17  O2  UNL     1      -1.032  53.692 -27.913  1.00  0.00    -0.326 OA
HETATM   18  C14 UNL     1      -0.342  54.822 -27.378  1.00  0.00     0.213 C 
ENDBRANCH  15  17
ENDBRANCH   9  15
ENDBRANCH   1   2
BRANCH   1  19
HETATM   19  C17 UNL     1      -2.195  47.803 -22.050  1.00  0.00     0.042 C 
BRANCH  19  20
HETATM   20  C18 UNL     1      -2.809  47.453 -20.732  1.00  0.00    -0.024 A 
HETATM   21  C19 UNL     1      -2.400  47.862 -19.472  1.00  0.00     0.083 A 
HETATM   22  O5  UNL     1      -3.227  47.345 -18.517  1.00  0.00    -0.324 OA
HETATM   23  C28 UNL     1      -4.157  46.594 -19.156  1.00  0.00     0.143 A 
HETATM   24  C29 UNL     1      -3.947  46.624 -20.513  1.00  0.00     0.034 A 
BRANCH  21  25
HETATM   25  C20 UNL     1      -1.291  48.720 -18.983  1.00  0.00     0.244 C 
BRANCH  25  26
HETATM   26  O3  UNL     1      -1.590  50.074 -19.351  1.00  0.00    -0.311 OA
BRANCH  26  27
HETATM   27  C21 UNL     1      -1.766  50.936 -18.325  1.00  0.00     0.293 C 
HETATM   28  O4  UNL     1      -2.832  51.272 -17.832  1.00  0.00    -0.259 OA
BRANCH  27  29
HETATM   29  C22 UNL     1      -0.449  51.432 -17.839  1.00  0.00     0.039 A 
HETATM   30  C23 UNL     1       0.022  50.961 -16.604  1.00  0.00     0.019 A 
HETATM   31  C24 UNL     1       1.253  51.396 -16.106  1.00  0.00     0.025 A 
HETATM   32  C25 UNL     1       2.015  52.306 -16.838  1.00  0.00     0.034 A 
HETATM   33 CL1  UNL     1       3.530  52.842 -16.225  1.00  0.00    -0.084 Cl
HETATM   34  C26 UNL     1       1.555  52.785 -18.064  1.00  0.00     0.025 A 
HETATM   35  C27 UNL     1       0.324  52.350 -18.565  1.00  0.00     0.019 A 
ENDBRANCH  27  29
ENDBRANCH  26  27
ENDBRANCH  25  26
ENDBRANCH  21  25
ENDBRANCH  19  20
ENDBRANCH   1  19
TORSDOF 9
ENDMDL
MODEL 6
REMARK minimizedAffinity -7.41484308
REMARK CNNscore 0.214118809
REMARK CNNaffinity 5.89249945
REMARK  9 active torsions:
REMARK  status: ('A' for Active; 'I' for Inactive)
REMARK    1  A    between atoms: C11_11  and  C13_13 
REMARK    2  A    between atoms: C13_13  and  O2_15 
REMARK    3  A    between atoms: C15_17  and  C16_18 
REMARK    4  A    between atoms: C16_18  and  C17_19 
REMARK    5  A    between atoms: C17_19  and  C18_20 
REMARK    6  A    between atoms: C19_21  and  C20_22 
REMARK    7  A    between atoms: C20_22  and  O3_23 
REMARK    8  A    between atoms: O3_23  and  C21_24 
REMARK    9  A    between atoms: C21_24  and  C22_26 
ROOT
HETATM    1  C16 UNL     1       0.771  50.855 -16.020  1.00  0.00     0.014 C 
ENDROOT
BRANCH   1   2
HETATM    2  C15 UNL     1       0.515  50.240 -14.614  1.00  0.00     0.022 C 
HETATM    3  C2  UNL     1       1.768  49.992 -13.771  1.00  0.00    -0.084 C 
HETATM    4  C1  UNL     1       3.002  50.463 -14.015  1.00  0.00     0.014 C 
HETATM    5  C3  UNL     1       1.505  49.170 -12.535  1.00  0.00     0.034 C 
HETATM    6  C4  UNL     1       0.459  49.853 -11.654  1.00  0.00     0.011 C 
HETATM    7  C5  UNL     1      -0.840  50.162 -12.436  1.00  0.00     0.012 C 
HETATM    8  C6  UNL     1      -0.561  51.022 -13.738  1.00  0.00    -0.032 C 
HETATM    9  C11 UNL     1      -2.047  50.649 -11.552  1.00  0.00     0.049 C 
HETATM   10  C7  UNL     1      -0.039  52.443 -13.416  1.00  0.00     0.016 C 
HETATM   11  C8  UNL     1      -1.892  51.151 -14.529  1.00  0.00     0.010 C 
HETATM   12  C9  UNL     1      -3.073  51.636 -13.695  1.00  0.00     0.002 C 
HETATM   13  C10 UNL     1      -3.295  50.770 -12.463  1.00  0.00     0.020 C 
HETATM   14  C12 UNL     1      -2.393  49.597 -10.469  1.00  0.00     0.026 C 
BRANCH   9  15
HETATM   15  C13 UNL     1      -1.744  51.934 -10.756  1.00  0.00     0.267 C 
HETATM   16  O1  UNL     1      -0.940  52.000  -9.835  1.00  0.00    -0.264 OA
BRANCH  15  17
HETATM   17  O2  UNL     1      -2.520  52.981 -11.150  1.00  0.00    -0.326 OA
HETATM   18  C14 UNL     1      -3.229  53.623 -10.089  1.00  0.00     0.213 C 
ENDBRANCH  15  17
ENDBRANCH   9  15
ENDBRANCH   1   2
BRANCH   1  19
HETATM   19  C17 UNL     1       0.262  50.006 -17.201  1.00  0.00     0.042 C 
BRANCH  19  20
HETATM   20  C18 UNL     1      -0.897  50.618 -17.919  1.00  0.00    -0.024 A 
HETATM   21  C19 UNL     1      -0.920  51.807 -18.632  1.00  0.00     0.083 A 
HETATM   22  O5  UNL     1      -2.162  52.019 -19.157  1.00  0.00    -0.324 OA
HETATM   23  C28 UNL     1      -2.942  50.979 -18.773  1.00  0.00     0.143 A 
HETATM   24  C29 UNL     1      -2.219  50.094 -18.011  1.00  0.00     0.034 A 
BRANCH  21  25
HETATM   25  C20 UNL     1       0.102  52.844 -18.928  1.00  0.00     0.244 C 
BRANCH  25  26
HETATM   26  O3  UNL     1       0.825  52.425 -20.093  1.00  0.00    -0.311 OA
BRANCH  26  27
HETATM   27  C21 UNL     1       0.868  53.316 -21.109  1.00  0.00     0.293 C 
HETATM   28  O4  UNL     1       1.275  54.466 -21.052  1.00  0.00    -0.259 OA
BRANCH  27  29
HETATM   29  C22 UNL     1       0.354  52.693 -22.360  1.00  0.00     0.039 A 
HETATM   30  C23 UNL     1       0.738  53.256 -23.587  1.00  0.00     0.019 A 
HETATM   31  C24 UNL     1       0.283  52.706 -24.788  1.00  0.00     0.025 A 
HETATM   32  C25 UNL     1      -0.560  51.595 -24.767  1.00  0.00     0.034 A 
HETATM   33 CL1  UNL     1      -1.121  50.919 -26.246  1.00  0.00    -0.084 Cl
HETATM   34  C26 UNL     1      -0.953  51.030 -23.554  1.00  0.00     0.025 A 
HETATM   35  C27 UNL     1      -0.497  51.579 -22.351  1.00  0.00     0.019 A 
ENDBRANCH  27  29
ENDBRANCH  26  27
ENDBRANCH  25  26
ENDBRANCH  21  25
ENDBRANCH  19  20
ENDBRANCH   1  19
TORSDOF 9
ENDMDL
MODEL 7
REMARK minimizedAffinity -9.2787714
REMARK CNNscore 0.19817166
REMARK CNNaffinity 6.13238478
REMARK  9 active torsions:
REMARK  status: ('A' for Active; 'I' for Inactive)
REMARK    1  A    between atoms: C11_11  and  C13_13 
REMARK    2  A    between atoms: C13_13  and  O2_15 
REMARK    3  A    between atoms: C15_17  and  C16_18 
REMARK    4  A    between atoms: C16_18  and  C17_19 
REMARK    5  A    between atoms: C17_19  and  C18_20 
REMARK    6  A    between atoms: C19_21  and  C20_22 
REMARK    7  A    between atoms: C20_22  and  O3_23 
REMARK    8  A    between atoms: O3_23  and  C21_24 
REMARK    9  A    between atoms: C21_24  and  C22_26 
ROOT
HETATM    1  C16 UNL     1      -4.273  48.544 -23.109  1.00  0.00     0.014 C 
ENDROOT
BRANCH   1   2
HETATM    2  C15 UNL     1      -3.468  48.732 -24.427  1.00  0.00     0.022 C 
HETATM    3  C2  UNL     1      -4.241  48.436 -25.715  1.00  0.00    -0.084 C 
HETATM    4  C1  UNL     1      -5.570  48.273 -25.829  1.00  0.00     0.014 C 
HETATM    5  C3  UNL     1      -3.367  48.383 -26.940  1.00  0.00     0.034 C 
HETATM    6  C4  UNL     1      -2.622  49.705 -27.120  1.00  0.00     0.011 C 
HETATM    7  C5  UNL     1      -1.826  50.096 -25.853  1.00  0.00     0.012 C 
HETATM    8  C6  UNL     1      -2.746  50.145 -24.564  1.00  0.00    -0.032 C 
HETATM    9  C11 UNL     1      -0.849  51.315 -26.032  1.00  0.00     0.049 C 
HETATM   10  C7  UNL     1      -3.808  51.270 -24.630  1.00  0.00     0.016 C 
HETATM   11  C8  UNL     1      -1.837  50.395 -23.327  1.00  0.00     0.010 C 
HETATM   12  C9  UNL     1      -0.892  51.582 -23.473  1.00  0.00     0.002 C 
HETATM   13  C10 UNL     1      -0.031  51.476 -24.724  1.00  0.00     0.020 C 
HETATM   14  C12 UNL     1       0.176  51.036 -27.159  1.00  0.00     0.026 C 
BRANCH   9  15
HETATM   15  C13 UNL     1      -1.560  52.610 -26.471  1.00  0.00     0.267 C 
HETATM   16  O1  UNL     1      -2.727  52.665 -26.838  1.00  0.00    -0.264 OA
BRANCH  15  17
HETATM   17  O2  UNL     1      -0.725  53.685 -26.468  1.00  0.00    -0.326 OA
HETATM   18  C14 UNL     1      -0.553  54.305 -27.743  1.00  0.00     0.213 C 
ENDBRANCH  15  17
ENDBRANCH   9  15
ENDBRANCH   1   2
BRANCH   1  19
HETATM   19  C17 UNL     1      -3.510  47.820 -21.983  1.00  0.00     0.042 C 
BRANCH  19  20
HETATM   20  C18 UNL     1      -4.033  48.129 -20.617  1.00  0.00    -0.024 A 
HETATM   21  C19 UNL     1      -3.339  48.676 -19.548  1.00  0.00     0.083 A 
HETATM   22  O5  UNL     1      -4.167  48.822 -18.473  1.00  0.00    -0.324 OA
HETATM   23  C28 UNL     1      -5.386  48.358 -18.840  1.00  0.00     0.143 A 
HETATM   24  C29 UNL     1      -5.360  47.921 -20.142  1.00  0.00     0.034 A 
BRANCH  21  25
HETATM   25  C20 UNL     1      -1.934  49.119 -19.358  1.00  0.00     0.244 C 
BRANCH  25  26
HETATM   26  O3  UNL     1      -1.858  49.802 -18.099  1.00  0.00    -0.311 OA
BRANCH  26  27
HETATM   27  C21 UNL     1      -1.730  51.146 -18.166  1.00  0.00     0.293 C 
HETATM   28  O4  UNL     1      -2.585  51.940 -18.529  1.00  0.00    -0.259 OA
BRANCH  27  29
HETATM   29  C22 UNL     1      -0.374  51.557 -17.710  1.00  0.00     0.039 A 
HETATM   30  C23 UNL     1       0.131  50.988 -16.532  1.00  0.00     0.019 A 
HETATM   31  C24 UNL     1       1.399  51.342 -16.064  1.00  0.00     0.025 A 
HETATM   32  C25 UNL     1       2.166  52.268 -16.771  1.00  0.00     0.034 A 
HETATM   33 CL1  UNL     1       3.727  52.703 -16.195  1.00  0.00    -0.084 Cl
HETATM   34  C26 UNL     1       1.673  52.844 -17.941  1.00  0.00     0.025 A 
HETATM   35  C27 UNL     1       0.404  52.491 -18.411  1.00  0.00     0.019 A 
ENDBRANCH  27  29
ENDBRANCH  26  27
ENDBRANCH  25  26
ENDBRANCH  21  25
ENDBRANCH  19  20
ENDBRANCH   1  19
TORSDOF 9
ENDMDL
MODEL 8
REMARK minimizedAffinity -7.4883461
REMARK CNNscore 0.194783092
REMARK CNNaffinity 5.73670197
REMARK  9 active torsions:
REMARK  status: ('A' for Active; 'I' for Inactive)
REMARK    1  A    between atoms: C11_11  and  C13_13 
REMARK    2  A    between atoms: C13_13  and  O2_15 
REMARK    3  A    between atoms: C15_17  and  C16_18 
REMARK    4  A    between atoms: C16_18  and  C17_19 
REMARK    5  A    between atoms: C17_19  and  C18_20 
REMARK    6  A    between atoms: C19_21  and  C20_22 
REMARK    7  A    between atoms: C20_22  and  O3_23 
REMARK    8  A    between atoms: O3_23  and  C21_24 
REMARK    9  A    between atoms: C21_24  and  C22_26 
ROOT
HETATM    1  C16 UNL     1      -6.271  48.257 -26.675  1.00  0.00     0.014 C 
ENDROOT
BRANCH   1   2
HETATM    2  C15 UNL     1      -4.876  48.155 -25.993  1.00  0.00     0.022 C 
HETATM    3  C2  UNL     1      -3.735  48.861 -26.730  1.00  0.00    -0.084 C 
HETATM    4  C1  UNL     1      -3.858  49.736 -27.742  1.00  0.00     0.014 C 
HETATM    5  C3  UNL     1      -2.372  48.529 -26.181  1.00  0.00     0.034 C 
HETATM    6  C4  UNL     1      -2.290  48.899 -24.700  1.00  0.00     0.011 C 
HETATM    7  C5  UNL     1      -3.425  48.244 -23.878  1.00  0.00     0.012 C 
HETATM    8  C6  UNL     1      -4.858  48.589 -24.460  1.00  0.00    -0.032 C 
HETATM    9  C11 UNL     1      -3.280  48.381 -22.318  1.00  0.00     0.049 C 
HETATM   10  C7  UNL     1      -5.206  50.092 -24.339  1.00  0.00     0.016 C 
HETATM   11  C8  UNL     1      -5.915  47.770 -23.668  1.00  0.00     0.010 C 
HETATM   12  C9  UNL     1      -5.802  47.900 -22.153  1.00  0.00     0.002 C 
HETATM   13  C10 UNL     1      -4.408  47.551 -21.652  1.00  0.00     0.020 C 
HETATM   14  C12 UNL     1      -1.941  47.769 -21.836  1.00  0.00     0.026 C 
BRANCH   9  15
HETATM   15  C13 UNL     1      -3.230  49.844 -21.834  1.00  0.00     0.267 C 
HETATM   16  O1  UNL     1      -2.498  50.702 -22.310  1.00  0.00    -0.264 OA
BRANCH  15  17
HETATM   17  O2  UNL     1      -4.049  50.064 -20.769  1.00  0.00    -0.326 OA
HETATM   18  C14 UNL     1      -4.753  51.306 -20.811  1.00  0.00     0.213 C 
ENDBRANCH  15  17
ENDBRANCH   9  15
ENDBRANCH   1   2
BRANCH   1  19
HETATM   19  C17 UNL     1      -6.461  47.341 -27.899  1.00  0.00     0.042 C 
BRANCH  19  20
HETATM   20  C18 UNL     1      -7.273  47.965 -28.989  1.00  0.00    -0.024 A 
HETATM   21  C19 UNL     1      -6.845  48.350 -30.250  1.00  0.00     0.083 A 
HETATM   22  O5  UNL     1      -7.887  48.866 -30.965  1.00  0.00    -0.324 OA
HETATM   23  C28 UNL     1      -8.980  48.828 -30.164  1.00  0.00     0.143 A 
HETATM   24  C29 UNL     1      -8.660  48.288 -28.943  1.00  0.00     0.034 A 
BRANCH  21  25
HETATM   25  C20 UNL     1      -5.533  48.306 -30.945  1.00  0.00     0.244 C 
BRANCH  25  26
HETATM   26  O3  UNL     1      -5.620  47.319 -31.982  1.00  0.00    -0.311 OA
BRANCH  26  27
HETATM   27  C21 UNL     1      -4.638  46.390 -31.992  1.00  0.00     0.293 C 
HETATM   28  O4  UNL     1      -3.435  46.603 -32.006  1.00  0.00    -0.259 OA
BRANCH  27  29
HETATM   29  C22 UNL     1      -5.224  45.021 -31.966  1.00  0.00     0.039 A 
HETATM   30  C23 UNL     1      -6.354  44.800 -31.164  1.00  0.00     0.019 A 
HETATM   31  C24 UNL     1      -6.940  43.532 -31.107  1.00  0.00     0.025 A 
HETATM   32  C25 UNL     1      -6.398  42.483 -31.848  1.00  0.00     0.034 A 
HETATM   33 CL1  UNL     1      -7.120  40.923 -31.778  1.00  0.00    -0.084 Cl
HETATM   34  C26 UNL     1      -5.272  42.690 -32.645  1.00  0.00     0.025 A 
HETATM   35  C27 UNL     1      -4.684  43.958 -32.704  1.00  0.00     0.019 A 
ENDBRANCH  27  29
ENDBRANCH  26  27
ENDBRANCH  25  26
ENDBRANCH  21  25
ENDBRANCH  19  20
ENDBRANCH   1  19
TORSDOF 9
ENDMDL
MODEL 9
REMARK minimizedAffinity -7.62214613
REMARK CNNscore 0.174155533
REMARK CNNaffinity 6.51878166
REMARK  9 active torsions:
REMARK  status: ('A' for Active; 'I' for Inactive)
REMARK    1  A    between atoms: C11_11  and  C13_13 
REMARK    2  A    between atoms: C13_13  and  O2_15 
REMARK    3  A    between atoms: C15_17  and  C16_18 
REMARK    4  A    between atoms: C16_18  and  C17_19 
REMARK    5  A    between atoms: C17_19  and  C18_20 
REMARK    6  A    between atoms: C19_21  and  C20_22 
REMARK    7  A    between atoms: C20_22  and  O3_23 
REMARK    8  A    between atoms: O3_23  and  C21_24 
REMARK    9  A    between atoms: C21_24  and  C22_26 
ROOT
HETATM    1  C16 UNL     1      -1.106  50.350 -18.945  1.00  0.00     0.014 C 
ENDROOT
BRANCH   1   2
HETATM    2  C15 UNL     1      -1.421  50.769 -17.479  1.00  0.00     0.022 C 
HETATM    3  C2  UNL     1      -2.646  50.094 -16.855  1.00  0.00    -0.084 C 
HETATM    4  C1  UNL     1      -3.308  49.031 -17.342  1.00  0.00     0.014 C 
HETATM    5  C3  UNL     1      -3.063  50.707 -15.544  1.00  0.00     0.034 C 
HETATM    6  C4  UNL     1      -1.914  50.645 -14.537  1.00  0.00     0.011 C 
HETATM    7  C5  UNL     1      -0.623  51.288 -15.096  1.00  0.00     0.012 C 
HETATM    8  C6  UNL     1      -0.189  50.647 -16.478  1.00  0.00    -0.032 C 
HETATM    9  C11 UNL     1       0.533  51.477 -14.047  1.00  0.00     0.049 C 
HETATM   10  C7  UNL     1       0.229  49.162 -16.344  1.00  0.00     0.016 C 
HETATM   11  C8  UNL     1       1.020  51.453 -17.030  1.00  0.00     0.010 C 
HETATM   12  C9  UNL     1       2.160  51.635 -16.034  1.00  0.00     0.002 C 
HETATM   13  C10 UNL     1       1.684  52.260 -14.730  1.00  0.00     0.020 C 
HETATM   14  C12 UNL     1       0.057  52.345 -12.856  1.00  0.00     0.026 C 
BRANCH   9  15
HETATM   15  C13 UNL     1       0.993  50.155 -13.399  1.00  0.00     0.267 C 
HETATM   16  O1  UNL     1       0.247  49.220 -13.137  1.00  0.00    -0.264 OA
BRANCH  15  17
HETATM   17  O2  UNL     1       2.318  50.166 -13.089  1.00  0.00    -0.326 OA
HETATM   18  C14 UNL     1       2.913  48.871 -12.991  1.00  0.00     0.213 C 
ENDBRANCH  15  17
ENDBRANCH   9  15
ENDBRANCH   1   2
BRANCH   1  19
HETATM   19  C17 UNL     1      -1.920  51.095 -20.020  1.00  0.00     0.042 C 
BRANCH  19  20
HETATM   20  C18 UNL     1      -1.070  51.749 -21.062  1.00  0.00    -0.024 A 
HETATM   21  C19 UNL     1      -1.459  52.189 -22.318  1.00  0.00     0.083 A 
HETATM   22  O5  UNL     1      -0.399  52.748 -22.971  1.00  0.00    -0.324 OA
HETATM   23  C28 UNL     1       0.673  52.657 -22.147  1.00  0.00     0.143 A 
HETATM   24  C29 UNL     1       0.319  52.053 -20.966  1.00  0.00     0.034 A 
BRANCH  21  25
HETATM   25  C20 UNL     1      -2.749  52.176 -23.055  1.00  0.00     0.244 C 
BRANCH  25  26
HETATM   26  O3  UNL     1      -2.572  52.932 -24.260  1.00  0.00    -0.311 OA
BRANCH  26  27
HETATM   27  C21 UNL     1      -2.668  52.232 -25.412  1.00  0.00     0.293 C 
HETATM   28  O4  UNL     1      -3.693  51.800 -25.918  1.00  0.00    -0.259 OA
BRANCH  27  29
HETATM   29  C22 UNL     1      -1.321  52.061 -26.023  1.00  0.00     0.039 A 
HETATM   30  C23 UNL     1      -0.815  53.102 -26.816  1.00  0.00     0.019 A 
HETATM   31  C24 UNL     1       0.445  52.988 -27.410  1.00  0.00     0.025 A 
HETATM   32  C25 UNL     1       1.201  51.832 -27.217  1.00  0.00     0.034 A 
HETATM   33 CL1  UNL     1       2.751  51.692 -27.948  1.00  0.00    -0.084 Cl
HETATM   34  C26 UNL     1       0.707  50.789 -26.435  1.00  0.00     0.025 A 
HETATM   35  C27 UNL     1      -0.554  50.901 -25.839  1.00  0.00     0.019 A 
ENDBRANCH  27  29
ENDBRANCH  26  27
ENDBRANCH  25  26
ENDBRANCH  21  25
ENDBRANCH  19  20
ENDBRANCH   1  19
TORSDOF 9
ENDMDL
