MODEL 1
REMARK minimizedAffinity -9.04434299
REMARK CNNscore 0.784823835
REMARK CNNaffinity 6.65506935
REMARK  12 active torsions:
REMARK  status: ('A' for Active; 'I' for Inactive)
REMARK    1  A    between atoms: N1_6  and  O1_8 
REMARK    2  A    between atoms: O1_8  and  C6_9 
REMARK    3  A    between atoms: C6_9  and  C7_10 
REMARK       I    between atoms: C7_10  and  N2_12 
REMARK    4  A    between atoms: N2_12  and  C8_13 
REMARK    5  A    between atoms: C8_13  and  C9_14 
REMARK    6  A    between atoms: C12_17  and  C13_18 
REMARK    7  A    between atoms: C13_18  and  O4_20 
REMARK    8  A    between atoms: C22_29  and  O5_30 
REMARK    9  A    between atoms: C29_37  and  O6_38 
REMARK   10  A    between atoms: C29_37  and  C30_39 
REMARK   11  A    between atoms: C30_39  and  C31_41 
REMARK   12  A    between atoms: C31_41  and  O8_42 
ROOT
HETATM    1  C1  UNL     1      -1.552   7.031  14.886  1.00  0.00     0.020 C 
HETATM    2  C2  UNL     1      -0.896   8.382  14.527  1.00  0.00    -0.014 C 
HETATM    3  C3  UNL     1      -0.296   9.011  15.820  1.00  0.00     0.020 C 
HETATM    4  C4  UNL     1      -1.339   9.582  16.772  1.00  0.00     0.060 C 
HETATM    5  C5  UNL     1      -2.187  10.606  16.049  1.00  0.00     0.032 C 
HETATM    6  N1  UNL     1      -2.667  11.691  16.582  1.00  0.00    -0.271 N 
ATOM      7  H1  UNL     1      -3.230  12.372  16.072  1.00  0.00     0.194 HD
HETATM    8  C16 UNL     1      -2.542  10.319  14.637  1.00  0.00     0.030 C 
HETATM    9  C17 UNL     1      -1.998   9.290  13.964  1.00  0.00    -0.069 C 
HETATM   10  C18 UNL     1      -2.491   8.959  12.576  1.00  0.00     0.035 C 
HETATM   11  C19 UNL     1      -1.346   8.877  11.578  1.00  0.00     0.010 C 
HETATM   12  C20 UNL     1      -0.260   7.887  12.030  1.00  0.00    -0.002 C 
HETATM   13  C21 UNL     1       0.261   8.262  13.454  1.00  0.00     0.031 C 
HETATM   14  C22 UNL     1       1.483   7.397  13.878  1.00  0.00     0.124 C 
HETATM   15  C23 UNL     1       2.583   7.322  12.796  1.00  0.00     0.045 C 
HETATM   16  C24 UNL     1       2.054   6.913  11.402  1.00  0.00     0.001 C 
HETATM   17  C25 UNL     1       1.586   5.433  11.403  1.00  0.00     0.019 C 
HETATM   18  C26 UNL     1       0.922   7.908  11.049  1.00  0.00     0.002 C 
HETATM   19  C27 UNL     1       0.645   7.630   9.578  1.00  0.00     0.009 C 
HETATM   20  C28 UNL     1       2.033   7.324   8.987  1.00  0.00     0.047 C 
HETATM   21  C29 UNL     1       3.012   7.154  10.188  1.00  0.00     0.128 C 
ENDROOT
BRANCH   6  22
HETATM   22  O1  UNL     1      -2.323  11.820  17.933  1.00  0.00    -0.271 OA
BRANCH  22  23
HETATM   23  C6  UNL     1      -3.447  11.453  18.730  1.00  0.00     0.303 C 
BRANCH  23  24
HETATM   24  C7  UNL     1      -4.447  12.599  18.815  1.00  0.00     0.244 C 
HETATM   25  O2  UNL     1      -4.905  13.147  17.816  1.00  0.00    -0.271 OA
HETATM   26  N2  UNL     1      -4.840  12.909  20.101  1.00  0.00    -0.355 N 
HETATM   27  H10 UNL     1      -4.267  12.540  20.851  1.00  0.00     0.162 HD
BRANCH  26  28
HETATM   28  C8  UNL     1      -5.743  13.996  20.386  1.00  0.00     0.161 C 
BRANCH  28  29
HETATM   29  C9  UNL     1      -6.907  13.535  21.224  1.00  0.00    -0.040 A 
HETATM   30  C10 UNL     1      -6.733  13.289  22.595  1.00  0.00     0.010 A 
HETATM   31  C11 UNL     1      -7.802  12.848  23.378  1.00  0.00     0.019 A 
HETATM   32  C12 UNL     1      -9.060  12.644  22.798  1.00  0.00     0.037 A 
HETATM   33  C14 UNL     1      -9.238  12.879  21.431  1.00  0.00     0.019 A 
HETATM   34  C15 UNL     1      -8.165  13.317  20.648  1.00  0.00     0.010 A 
BRANCH  32  35
HETATM   35  C13 UNL     1     -10.167  12.180  23.669  1.00  0.00     0.176 C 
HETATM   36  O3  UNL     1     -11.281  11.856  23.299  1.00  0.00    -0.646 OA
BRANCH  35  37
HETATM   37  O4  UNL     1      -9.825  12.137  24.969  1.00  0.00    -0.773 OA
HETATM   38  H15 UNL     1     -10.637  11.810  25.411  1.00  0.00     0.167 HD
ENDBRANCH  35  37
ENDBRANCH  32  35
ENDBRANCH  28  29
ENDBRANCH  26  28
ENDBRANCH  23  24
ENDBRANCH  22  23
ENDBRANCH   6  22
BRANCH  14  39
HETATM   39  O5  UNL     1       1.087   6.080  14.232  1.00  0.00    -0.395 OA
HETATM   40  H26 UNL     1       1.850   5.644  14.650  1.00  0.00     0.210 HD
ENDBRANCH  14  39
BRANCH  21  41
HETATM   41  O6  UNL     1       3.690   8.413  10.318  1.00  0.00    -0.381 OA
HETATM   42  H37 UNL     1       4.376   8.313  11.007  1.00  0.00     0.211 HD
ENDBRANCH  21  41
BRANCH  21  43
HETATM   43  C30 UNL     1       4.049   6.030   9.920  1.00  0.00     0.184 C 
HETATM   44  O7  UNL     1       3.898   5.166   9.054  1.00  0.00    -0.292 OA
BRANCH  43  45
HETATM   45  C31 UNL     1       5.289   5.996  10.810  1.00  0.00     0.245 C 
BRANCH  45  46
HETATM   46  O8  UNL     1       6.165   4.922  10.507  1.00  0.00    -0.393 OA
HETATM   47  H40 UNL     1       5.735   4.113  10.845  1.00  0.00     0.209 HD
ENDBRANCH  45  46
ENDBRANCH  43  45
ENDBRANCH  21  43
TORSDOF 12
ENDMDL
MODEL 2
REMARK minimizedAffinity -9.99571896
REMARK CNNscore 0.735264957
REMARK CNNaffinity 7.13001633
REMARK  12 active torsions:
REMARK  status: ('A' for Active; 'I' for Inactive)
REMARK    1  A    between atoms: N1_6  and  O1_8 
REMARK    2  A    between atoms: O1_8  and  C6_9 
REMARK    3  A    between atoms: C6_9  and  C7_10 
REMARK       I    between atoms: C7_10  and  N2_12 
REMARK    4  A    between atoms: N2_12  and  C8_13 
REMARK    5  A    between atoms: C8_13  and  C9_14 
REMARK    6  A    between atoms: C12_17  and  C13_18 
REMARK    7  A    between atoms: C13_18  and  O4_20 
REMARK    8  A    between atoms: C22_29  and  O5_30 
REMARK    9  A    between atoms: C29_37  and  O6_38 
REMARK   10  A    between atoms: C29_37  and  C30_39 
REMARK   11  A    between atoms: C30_39  and  C31_41 
REMARK   12  A    between atoms: C31_41  and  O8_42 
ROOT
HETATM    1  C1  UNL     1      -7.341   5.244  15.777  1.00  0.00     0.020 C 
HETATM    2  C2  UNL     1      -7.341   6.109  14.498  1.00  0.00    -0.014 C 
HETATM    3  C3  UNL     1      -8.093   7.442  14.790  1.00  0.00     0.020 C 
HETATM    4  C4  UNL     1      -9.607   7.290  14.887  1.00  0.00     0.060 C 
HETATM    5  C5  UNL     1     -10.141   6.667  13.615  1.00  0.00     0.032 C 
HETATM    6  N1  UNL     1     -11.281   6.958  13.060  1.00  0.00    -0.271 N 
ATOM      7  H1  UNL     1     -11.618   6.530  12.198  1.00  0.00     0.194 HD
HETATM    8  C16 UNL     1      -9.322   5.602  12.983  1.00  0.00     0.030 C 
HETATM    9  C17 UNL     1      -8.079   5.317  13.409  1.00  0.00    -0.069 C 
HETATM   10  C18 UNL     1      -7.340   4.138  12.824  1.00  0.00     0.035 C 
HETATM   11  C19 UNL     1      -5.963   4.536  12.313  1.00  0.00     0.010 C 
HETATM   12  C20 UNL     1      -5.126   5.231  13.399  1.00  0.00    -0.002 C 
HETATM   13  C21 UNL     1      -5.892   6.466  13.972  1.00  0.00     0.031 C 
HETATM   14  C22 UNL     1      -5.012   7.303  14.944  1.00  0.00     0.124 C 
HETATM   15  C23 UNL     1      -3.613   7.628  14.376  1.00  0.00     0.045 C 
HETATM   16  C24 UNL     1      -2.855   6.388  13.848  1.00  0.00     0.001 C 
HETATM   17  C25 UNL     1      -2.451   5.451  15.017  1.00  0.00     0.019 C 
HETATM   18  C26 UNL     1      -3.786   5.706  12.817  1.00  0.00     0.002 C 
HETATM   19  C27 UNL     1      -2.885   4.679  12.144  1.00  0.00     0.009 C 
HETATM   20  C28 UNL     1      -1.516   5.377  12.062  1.00  0.00     0.047 C 
HETATM   21  C29 UNL     1      -1.606   6.659  12.944  1.00  0.00     0.128 C 
ENDROOT
BRANCH   6  22
HETATM   22  O1  UNL     1     -11.994   7.924  13.781  1.00  0.00    -0.271 OA
BRANCH  22  23
HETATM   23  C6  UNL     1     -12.845   7.264  14.716  1.00  0.00     0.303 C 
BRANCH  23  24
HETATM   24  C7  UNL     1     -13.984   6.550  14.001  1.00  0.00     0.244 C 
HETATM   25  O2  UNL     1     -14.250   6.757  12.819  1.00  0.00    -0.271 OA
HETATM   26  N2  UNL     1     -14.632   5.607  14.773  1.00  0.00    -0.355 N 
HETATM   27  H10 UNL     1     -14.471   5.652  15.772  1.00  0.00     0.162 HD
BRANCH  26  28
HETATM   28  C8  UNL     1     -15.768   4.865  14.284  1.00  0.00     0.161 C 
BRANCH  28  29
HETATM   29  C9  UNL     1     -15.877   3.524  14.964  1.00  0.00    -0.040 A 
HETATM   30  C10 UNL     1     -14.943   2.515  14.685  1.00  0.00     0.010 A 
HETATM   31  C11 UNL     1     -15.042   1.265  15.299  1.00  0.00     0.019 A 
HETATM   32  C12 UNL     1     -16.083   1.007  16.199  1.00  0.00     0.037 A 
HETATM   33  C14 UNL     1     -17.023   2.005  16.475  1.00  0.00     0.019 A 
HETATM   34  C15 UNL     1     -16.923   3.255  15.856  1.00  0.00     0.010 A 
BRANCH  32  35
HETATM   35  C13 UNL     1     -16.147  -0.333  16.831  1.00  0.00     0.176 C 
HETATM   36  O3  UNL     1     -16.185  -0.559  18.027  1.00  0.00    -0.646 OA
BRANCH  35  37
HETATM   37  O4  UNL     1     -16.167  -1.333  15.933  1.00  0.00    -0.773 OA
HETATM   38  H15 UNL     1     -16.219  -2.141  16.486  1.00  0.00     0.167 HD
ENDBRANCH  35  37
ENDBRANCH  32  35
ENDBRANCH  28  29
ENDBRANCH  26  28
ENDBRANCH  23  24
ENDBRANCH  22  23
ENDBRANCH   6  22
BRANCH  14  39
HETATM   39  O5  UNL     1      -4.866   6.654  16.198  1.00  0.00    -0.395 OA
HETATM   40  H26 UNL     1      -4.463   7.289  16.815  1.00  0.00     0.210 HD
ENDBRANCH  14  39
BRANCH  21  41
HETATM   41  O6  UNL     1      -1.862   7.740  12.035  1.00  0.00    -0.381 OA
HETATM   42  H37 UNL     1      -1.836   8.573  12.547  1.00  0.00     0.211 HD
ENDBRANCH  21  41
BRANCH  21  43
HETATM   43  C30 UNL     1      -0.276   6.920  13.702  1.00  0.00     0.184 C 
HETATM   44  O7  UNL     1      -0.077   7.925  14.388  1.00  0.00    -0.292 OA
BRANCH  43  45
HETATM   45  C31 UNL     1       0.835   5.885  13.542  1.00  0.00     0.245 C 
BRANCH  45  46
HETATM   46  O8  UNL     1       1.955   6.133  14.377  1.00  0.00    -0.393 OA
HETATM   47  H40 UNL     1       2.424   6.896  13.986  1.00  0.00     0.209 HD
ENDBRANCH  45  46
ENDBRANCH  43  45
ENDBRANCH  21  43
TORSDOF 12
ENDMDL
MODEL 3
REMARK minimizedAffinity -7.52110767
REMARK CNNscore 0.724984884
REMARK CNNaffinity 6.59602118
REMARK  12 active torsions:
REMARK  status: ('A' for Active; 'I' for Inactive)
REMARK    1  A    between atoms: N1_6  and  O1_8 
REMARK    2  A    between atoms: O1_8  and  C6_9 
REMARK    3  A    between atoms: C6_9  and  C7_10 
REMARK       I    between atoms: C7_10  and  N2_12 
REMARK    4  A    between atoms: N2_12  and  C8_13 
REMARK    5  A    between atoms: C8_13  and  C9_14 
REMARK    6  A    between atoms: C12_17  and  C13_18 
REMARK    7  A    between atoms: C13_18  and  O4_20 
REMARK    8  A    between atoms: C22_29  and  O5_30 
REMARK    9  A    between atoms: C29_37  and  O6_38 
REMARK   10  A    between atoms: C29_37  and  C30_39 
REMARK   11  A    between atoms: C30_39  and  C31_41 
REMARK   12  A    between atoms: C31_41  and  O8_42 
ROOT
HETATM    1  C1  UNL     1      -2.222   6.415  14.589  1.00  0.00     0.020 C 
HETATM    2  C2  UNL     1      -1.494   7.777  14.555  1.00  0.00    -0.014 C 
HETATM    3  C3  UNL     1      -1.028   8.137  15.998  1.00  0.00     0.020 C 
HETATM    4  C4  UNL     1      -2.158   8.576  16.921  1.00  0.00     0.060 C 
HETATM    5  C5  UNL     1      -2.892   9.751  16.311  1.00  0.00     0.032 C 
HETATM    6  N1  UNL     1      -3.400  10.745  16.978  1.00  0.00    -0.271 N 
ATOM      7  H1  UNL     1      -3.884  11.531  16.543  1.00  0.00     0.194 HD
HETATM    8  C16 UNL     1      -3.091   9.738  14.840  1.00  0.00     0.030 C 
HETATM    9  C17 UNL     1      -2.501   8.821  14.052  1.00  0.00    -0.069 C 
HETATM   10  C18 UNL     1      -2.842   8.767  12.583  1.00  0.00     0.035 C 
HETATM   11  C19 UNL     1      -1.593   8.811  11.715  1.00  0.00     0.010 C 
HETATM   12  C20 UNL     1      -0.592   7.707  12.092  1.00  0.00    -0.002 C 
HETATM   13  C21 UNL     1      -0.227   7.797  13.608  1.00  0.00     0.031 C 
HETATM   14  C22 UNL     1       0.917   6.815  13.996  1.00  0.00     0.124 C 
HETATM   15  C23 UNL     1       2.130   6.883  13.042  1.00  0.00     0.045 C 
HETATM   16  C24 UNL     1       1.753   6.755  11.549  1.00  0.00     0.001 C 
HETATM   17  C25 UNL     1       1.249   5.322  11.229  1.00  0.00     0.019 C 
HETATM   18  C26 UNL     1       0.695   7.848  11.264  1.00  0.00     0.002 C 
HETATM   19  C27 UNL     1       0.580   7.850   9.746  1.00  0.00     0.009 C 
HETATM   20  C28 UNL     1       2.018   7.591   9.261  1.00  0.00     0.047 C 
HETATM   21  C29 UNL     1       2.848   7.164  10.509  1.00  0.00     0.128 C 
ENDROOT
BRANCH   6  22
HETATM   22  O1  UNL     1      -3.209  10.614  18.359  1.00  0.00    -0.271 OA
BRANCH  22  23
HETATM   23  C6  UNL     1      -2.586  11.799  18.850  1.00  0.00     0.303 C 
BRANCH  23  24
HETATM   24  C7  UNL     1      -3.590  12.941  18.939  1.00  0.00     0.244 C 
HETATM   25  O2  UNL     1      -4.799  12.747  19.027  1.00  0.00    -0.271 OA
HETATM   26  N2  UNL     1      -3.015  14.195  18.986  1.00  0.00    -0.355 N 
HETATM   27  H10 UNL     1      -2.041  14.257  18.712  1.00  0.00     0.162 HD
BRANCH  26  28
HETATM   28  C8  UNL     1      -3.805  15.400  19.022  1.00  0.00     0.161 C 
BRANCH  28  29
HETATM   29  C9  UNL     1      -4.197  15.755  20.433  1.00  0.00    -0.040 A 
HETATM   30  C10 UNL     1      -5.487  16.232  20.706  1.00  0.00     0.010 A 
HETATM   31  C11 UNL     1      -5.856  16.576  22.009  1.00  0.00     0.019 A 
HETATM   32  C12 UNL     1      -4.935  16.450  23.055  1.00  0.00     0.037 A 
HETATM   33  C14 UNL     1      -3.644  15.983  22.788  1.00  0.00     0.019 A 
HETATM   34  C15 UNL     1      -3.276  15.643  21.483  1.00  0.00     0.010 A 
BRANCH  32  35
HETATM   35  C13 UNL     1      -5.371  16.822  24.423  1.00  0.00     0.176 C 
HETATM   36  O3  UNL     1      -5.466  16.069  25.374  1.00  0.00    -0.646 OA
BRANCH  35  37
HETATM   37  O4  UNL     1      -5.665  18.130  24.539  1.00  0.00    -0.773 OA
HETATM   38  H15 UNL     1      -5.923  18.226  25.479  1.00  0.00     0.167 HD
ENDBRANCH  35  37
ENDBRANCH  32  35
ENDBRANCH  28  29
ENDBRANCH  26  28
ENDBRANCH  23  24
ENDBRANCH  22  23
ENDBRANCH   6  22
BRANCH  14  39
HETATM   39  O5  UNL     1       0.449   5.476  14.059  1.00  0.00    -0.395 OA
HETATM   40  H26 UNL     1       1.147   4.937  14.470  1.00  0.00     0.210 HD
ENDBRANCH  14  39
BRANCH  21  41
HETATM   41  O6  UNL     1       3.540   8.346  10.938  1.00  0.00    -0.381 OA
HETATM   42  H37 UNL     1       4.141   8.093  11.667  1.00  0.00     0.211 HD
ENDBRANCH  21  41
BRANCH  21  43
HETATM   43  C30 UNL     1       3.879   6.059  10.153  1.00  0.00     0.184 C 
HETATM   44  O7  UNL     1       5.089   6.172  10.363  1.00  0.00    -0.292 OA
BRANCH  43  45
HETATM   45  C31 UNL     1       3.347   4.798   9.476  1.00  0.00     0.245 C 
BRANCH  45  46
HETATM   46  O8  UNL     1       3.520   4.803   8.068  1.00  0.00    -0.393 OA
HETATM   47  H40 UNL     1       2.862   5.433   7.714  1.00  0.00     0.209 HD
ENDBRANCH  45  46
ENDBRANCH  43  45
ENDBRANCH  21  43
TORSDOF 12
ENDMDL
MODEL 4
REMARK minimizedAffinity -8.68369102
REMARK CNNscore 0.655342758
REMARK CNNaffinity 6.63180351
REMARK  12 active torsions:
REMARK  status: ('A' for Active; 'I' for Inactive)
REMARK    1  A    between atoms: N1_6  and  O1_8 
REMARK    2  A    between atoms: O1_8  and  C6_9 
REMARK    3  A    between atoms: C6_9  and  C7_10 
REMARK       I    between atoms: C7_10  and  N2_12 
REMARK    4  A    between atoms: N2_12  and  C8_13 
REMARK    5  A    between atoms: C8_13  and  C9_14 
REMARK    6  A    between atoms: C12_17  and  C13_18 
REMARK    7  A    between atoms: C13_18  and  O4_20 
REMARK    8  A    between atoms: C22_29  and  O5_30 
REMARK    9  A    between atoms: C29_37  and  O6_38 
REMARK   10  A    between atoms: C29_37  and  C30_39 
REMARK   11  A    between atoms: C30_39  and  C31_41 
REMARK   12  A    between atoms: C31_41  and  O8_42 
ROOT
HETATM    1  C1  UNL     1      -1.908   6.719  14.815  1.00  0.00     0.020 C 
HETATM    2  C2  UNL     1      -0.989   7.956  14.710  1.00  0.00    -0.014 C 
HETATM    3  C3  UNL     1      -0.220   8.129  16.054  1.00  0.00     0.020 C 
HETATM    4  C4  UNL     1      -1.080   8.658  17.195  1.00  0.00     0.060 C 
HETATM    5  C5  UNL     1      -1.713   9.973  16.793  1.00  0.00     0.032 C 
HETATM    6  N1  UNL     1      -1.927  10.977  17.592  1.00  0.00    -0.271 N 
ATOM      7  H1  UNL     1      -2.348  11.857  17.296  1.00  0.00     0.194 HD
HETATM    8  C16 UNL     1      -2.173  10.104  15.388  1.00  0.00     0.030 C 
HETATM    9  C17 UNL     1      -1.889   9.174  14.459  1.00  0.00    -0.069 C 
HETATM   10  C18 UNL     1      -2.493   9.285  13.080  1.00  0.00     0.035 C 
HETATM   11  C19 UNL     1      -1.430   9.211  11.994  1.00  0.00     0.010 C 
HETATM   12  C20 UNL     1      -0.567   7.944  12.121  1.00  0.00    -0.002 C 
HETATM   13  C21 UNL     1       0.074   7.861  13.542  1.00  0.00     0.031 C 
HETATM   14  C22 UNL     1       1.095   6.692  13.658  1.00  0.00     0.124 C 
HETATM   15  C23 UNL     1       2.113   6.653  12.496  1.00  0.00     0.045 C 
HETATM   16  C24 UNL     1       1.458   6.699  11.097  1.00  0.00     0.001 C 
HETATM   17  C25 UNL     1       0.681   5.386  10.809  1.00  0.00     0.019 C 
HETATM   18  C26 UNL     1       0.555   7.956  11.072  1.00  0.00     0.002 C 
HETATM   19  C27 UNL     1       0.171   8.093   9.604  1.00  0.00     0.009 C 
HETATM   20  C28 UNL     1       1.438   7.662   8.844  1.00  0.00     0.047 C 
HETATM   21  C29 UNL     1       2.400   7.021   9.889  1.00  0.00     0.128 C 
ENDROOT
BRANCH   6  22
HETATM   22  O1  UNL     1      -1.514  10.712  18.904  1.00  0.00    -0.271 OA
BRANCH  22  23
HETATM   23  C6  UNL     1      -0.388  11.532  19.205  1.00  0.00     0.303 C 
BRANCH  23  24
HETATM   24  C7  UNL     1       0.879  10.693  19.311  1.00  0.00     0.244 C 
HETATM   25  O2  UNL     1       1.539  10.372  18.326  1.00  0.00    -0.271 OA
HETATM   26  N2  UNL     1       1.252  10.397  20.606  1.00  0.00    -0.355 N 
HETATM   27  H10 UNL     1       0.549  10.535  21.322  1.00  0.00     0.162 HD
BRANCH  26  28
HETATM   28  C8  UNL     1       2.396   9.572  20.905  1.00  0.00     0.161 C 
BRANCH  28  29
HETATM   29  C9  UNL     1       3.538  10.395  21.443  1.00  0.00    -0.040 A 
HETATM   30  C10 UNL     1       4.031  10.156  22.734  1.00  0.00     0.010 A 
HETATM   31  C11 UNL     1       5.080  10.922  23.247  1.00  0.00     0.019 A 
HETATM   32  C12 UNL     1       5.647  11.942  22.474  1.00  0.00     0.037 A 
HETATM   33  C14 UNL     1       5.154  12.192  21.189  1.00  0.00     0.019 A 
HETATM   34  C15 UNL     1       4.101  11.426  20.679  1.00  0.00     0.010 A 
BRANCH  32  35
HETATM   35  C13 UNL     1       6.762  12.728  23.057  1.00  0.00     0.176 C 
HETATM   36  O3  UNL     1       7.829  12.283  23.437  1.00  0.00    -0.646 OA
BRANCH  35  37
HETATM   37  O4  UNL     1       6.490  14.043  23.132  1.00  0.00    -0.773 OA
HETATM   38  H15 UNL     1       7.304  14.426  23.520  1.00  0.00     0.167 HD
ENDBRANCH  35  37
ENDBRANCH  32  35
ENDBRANCH  28  29
ENDBRANCH  26  28
ENDBRANCH  23  24
ENDBRANCH  22  23
ENDBRANCH   6  22
BRANCH  14  39
HETATM   39  O5  UNL     1       0.438   5.437  13.743  1.00  0.00    -0.395 OA
HETATM   40  H26 UNL     1       1.103   4.770  13.987  1.00  0.00     0.210 HD
ENDBRANCH  14  39
BRANCH  21  41
HETATM   41  O6  UNL     1       3.338   8.050  10.237  1.00  0.00    -0.381 OA
HETATM   42  H37 UNL     1       4.012   7.654  10.825  1.00  0.00     0.211 HD
ENDBRANCH  21  41
BRANCH  21  43
HETATM   43  C30 UNL     1       3.159   5.806   9.290  1.00  0.00     0.184 C 
HETATM   44  O7  UNL     1       2.778   5.201   8.286  1.00  0.00    -0.292 OA
BRANCH  43  45
HETATM   45  C31 UNL     1       4.414   5.335  10.022  1.00  0.00     0.245 C 
BRANCH  45  46
HETATM   46  O8  UNL     1       4.628   6.007  11.254  1.00  0.00    -0.393 OA
HETATM   47  H40 UNL     1       4.934   6.906  11.026  1.00  0.00     0.209 HD
ENDBRANCH  45  46
ENDBRANCH  43  45
ENDBRANCH  21  43
TORSDOF 12
ENDMDL
MODEL 5
REMARK minimizedAffinity -9.38810539
REMARK CNNscore 0.590436757
REMARK CNNaffinity 6.94737053
REMARK  12 active torsions:
REMARK  status: ('A' for Active; 'I' for Inactive)
REMARK    1  A    between atoms: N1_6  and  O1_8 
REMARK    2  A    between atoms: O1_8  and  C6_9 
REMARK    3  A    between atoms: C6_9  and  C7_10 
REMARK       I    between atoms: C7_10  and  N2_12 
REMARK    4  A    between atoms: N2_12  and  C8_13 
REMARK    5  A    between atoms: C8_13  and  C9_14 
REMARK    6  A    between atoms: C12_17  and  C13_18 
REMARK    7  A    between atoms: C13_18  and  O4_20 
REMARK    8  A    between atoms: C22_29  and  O5_30 
REMARK    9  A    between atoms: C29_37  and  O6_38 
REMARK   10  A    between atoms: C29_37  and  C30_39 
REMARK   11  A    between atoms: C30_39  and  C31_41 
REMARK   12  A    between atoms: C31_41  and  O8_42 
ROOT
HETATM    1  C1  UNL     1      -1.997   6.564  14.674  1.00  0.00     0.020 C 
HETATM    2  C2  UNL     1      -1.341   7.959  14.575  1.00  0.00    -0.014 C 
HETATM    3  C3  UNL     1      -0.892   8.407  15.998  1.00  0.00     0.020 C 
HETATM    4  C4  UNL     1      -2.042   8.829  16.906  1.00  0.00     0.060 C 
HETATM    5  C5  UNL     1      -2.837   9.934  16.246  1.00  0.00     0.032 C 
HETATM    6  N1  UNL     1      -3.395  10.930  16.869  1.00  0.00    -0.271 N 
ATOM      7  H1  UNL     1      -3.920  11.669  16.402  1.00  0.00     0.194 HD
HETATM    8  C16 UNL     1      -3.038   9.844  14.778  1.00  0.00     0.030 C 
HETATM    9  C17 UNL     1      -2.402   8.925  14.030  1.00  0.00    -0.069 C 
HETATM   10  C18 UNL     1      -2.743   8.787  12.566  1.00  0.00     0.035 C 
HETATM   11  C19 UNL     1      -1.500   8.856  11.692  1.00  0.00     0.010 C 
HETATM   12  C20 UNL     1      -0.441   7.824  12.114  1.00  0.00    -0.002 C 
HETATM   13  C21 UNL     1      -0.078   8.002  13.623  1.00  0.00     0.031 C 
HETATM   14  C22 UNL     1       1.115   7.099  14.049  1.00  0.00     0.124 C 
HETATM   15  C23 UNL     1       2.322   7.187  13.089  1.00  0.00     0.045 C 
HETATM   16  C24 UNL     1       1.949   6.972  11.604  1.00  0.00     0.001 C 
HETATM   17  C25 UNL     1       1.520   5.502  11.351  1.00  0.00     0.019 C 
HETATM   18  C26 UNL     1       0.834   7.995  11.275  1.00  0.00     0.002 C 
HETATM   19  C27 UNL     1       0.717   7.922   9.759  1.00  0.00     0.009 C 
HETATM   20  C28 UNL     1       2.165   7.716   9.280  1.00  0.00     0.047 C 
HETATM   21  C29 UNL     1       3.020   7.391  10.542  1.00  0.00     0.128 C 
ENDROOT
BRANCH   6  22
HETATM   22  O1  UNL     1      -3.195  10.872  18.254  1.00  0.00    -0.271 OA
BRANCH  22  23
HETATM   23  C6  UNL     1      -3.388  12.175  18.801  1.00  0.00     0.303 C 
BRANCH  23  24
HETATM   24  C7  UNL     1      -2.072  12.941  18.850  1.00  0.00     0.244 C 
HETATM   25  O2  UNL     1      -2.013  14.156  18.682  1.00  0.00    -0.271 OA
HETATM   26  N2  UNL     1      -0.978  12.163  19.171  1.00  0.00    -0.355 N 
HETATM   27  H10 UNL     1      -1.099  11.160  19.096  1.00  0.00     0.162 HD
BRANCH  26  28
HETATM   28  C8  UNL     1       0.359  12.702  19.217  1.00  0.00     0.161 C 
BRANCH  28  29
HETATM   29  C9  UNL     1       1.182  12.029  20.285  1.00  0.00    -0.040 A 
HETATM   30  C10 UNL     1       1.943  12.799  21.176  1.00  0.00     0.010 A 
HETATM   31  C11 UNL     1       2.720  12.186  22.161  1.00  0.00     0.019 A 
HETATM   32  C12 UNL     1       2.747  10.790  22.265  1.00  0.00     0.037 A 
HETATM   33  C14 UNL     1       1.997  10.015  21.373  1.00  0.00     0.019 A 
HETATM   34  C15 UNL     1       1.223  10.632  20.386  1.00  0.00     0.010 A 
BRANCH  32  35
HETATM   35  C13 UNL     1       3.582  10.181  23.328  1.00  0.00     0.176 C 
HETATM   36  O3  UNL     1       3.176   9.710  24.375  1.00  0.00    -0.646 OA
BRANCH  35  37
HETATM   37  O4  UNL     1       4.893  10.184  23.028  1.00  0.00    -0.773 OA
HETATM   38  H15 UNL     1       5.308   9.751  23.803  1.00  0.00     0.167 HD
ENDBRANCH  35  37
ENDBRANCH  32  35
ENDBRANCH  28  29
ENDBRANCH  26  28
ENDBRANCH  23  24
ENDBRANCH  22  23
ENDBRANCH   6  22
BRANCH  14  39
HETATM   39  O5  UNL     1       0.718   5.742  14.175  1.00  0.00    -0.395 OA
HETATM   40  H26 UNL     1       1.445   5.259  14.606  1.00  0.00     0.210 HD
ENDBRANCH  14  39
BRANCH  21  41
HETATM   41  O6  UNL     1       3.649   8.625  10.915  1.00  0.00    -0.381 OA
HETATM   42  H37 UNL     1       4.264   8.437  11.652  1.00  0.00     0.211 HD
ENDBRANCH  21  41
BRANCH  21  43
HETATM   43  C30 UNL     1       4.106   6.326  10.232  1.00  0.00     0.184 C 
HETATM   44  O7  UNL     1       3.981   5.470   9.353  1.00  0.00    -0.292 OA
BRANCH  43  45
HETATM   45  C31 UNL     1       5.365   6.338  11.096  1.00  0.00     0.245 C 
BRANCH  45  46
HETATM   46  O8  UNL     1       6.207   5.219  10.873  1.00  0.00    -0.393 OA
HETATM   47  H40 UNL     1       5.765   4.455  11.292  1.00  0.00     0.209 HD
ENDBRANCH  45  46
ENDBRANCH  43  45
ENDBRANCH  21  43
TORSDOF 12
ENDMDL
MODEL 6
REMARK minimizedAffinity -9.6932888
REMARK CNNscore 0.571250319
REMARK CNNaffinity 7.46864462
REMARK  12 active torsions:
REMARK  status: ('A' for Active; 'I' for Inactive)
REMARK    1  A    between atoms: N1_6  and  O1_8 
REMARK    2  A    between atoms: O1_8  and  C6_9 
REMARK    3  A    between atoms: C6_9  and  C7_10 
REMARK       I    between atoms: C7_10  and  N2_12 
REMARK    4  A    between atoms: N2_12  and  C8_13 
REMARK    5  A    between atoms: C8_13  and  C9_14 
REMARK    6  A    between atoms: C12_17  and  C13_18 
REMARK    7  A    between atoms: C13_18  and  O4_20 
REMARK    8  A    between atoms: C22_29  and  O5_30 
REMARK    9  A    between atoms: C29_37  and  O6_38 
REMARK   10  A    between atoms: C29_37  and  C30_39 
REMARK   11  A    between atoms: C30_39  and  C31_41 
REMARK   12  A    between atoms: C31_41  and  O8_42 
ROOT
HETATM    1  C1  UNL     1      -2.979   8.482  12.530  1.00  0.00     0.020 C 
HETATM    2  C2  UNL     1      -2.705   8.090  13.998  1.00  0.00    -0.014 C 
HETATM    3  C3  UNL     1      -3.310   6.679  14.264  1.00  0.00     0.020 C 
HETATM    4  C4  UNL     1      -4.831   6.667  14.370  1.00  0.00     0.060 C 
HETATM    5  C5  UNL     1      -5.276   7.629  15.450  1.00  0.00     0.032 C 
HETATM    6  N1  UNL     1      -6.290   7.446  16.244  1.00  0.00    -0.271 N 
ATOM      7  H1  UNL     1      -6.568   8.106  16.971  1.00  0.00     0.194 HD
HETATM    8  C16 UNL     1      -4.528   8.905  15.575  1.00  0.00     0.030 C 
HETATM    9  C17 UNL     1      -3.396   9.134  14.887  1.00  0.00    -0.069 C 
HETATM   10  C18 UNL     1      -2.748  10.496  14.945  1.00  0.00     0.035 C 
HETATM   11  C19 UNL     1      -1.278  10.401  15.326  1.00  0.00     0.010 C 
HETATM   12  C20 UNL     1      -0.502   9.458  14.393  1.00  0.00    -0.002 C 
HETATM   13  C21 UNL     1      -1.168   8.045  14.369  1.00  0.00     0.031 C 
HETATM   14  C22 UNL     1      -0.317   7.008  13.581  1.00  0.00     0.124 C 
HETATM   15  C23 UNL     1       1.173   7.003  13.989  1.00  0.00     0.045 C 
HETATM   16  C24 UNL     1       1.825   8.405  13.971  1.00  0.00     0.001 C 
HETATM   17  C25 UNL     1       1.954   8.934  12.517  1.00  0.00     0.019 C 
HETATM   18  C26 UNL     1       0.951   9.311  14.871  1.00  0.00     0.002 C 
HETATM   19  C27 UNL     1       1.790  10.572  15.033  1.00  0.00     0.009 C 
HETATM   20  C28 UNL     1       3.237  10.053  15.108  1.00  0.00     0.047 C 
HETATM   21  C29 UNL     1       3.202   8.549  14.700  1.00  0.00     0.128 C 
ENDROOT
BRANCH   6  22
HETATM   22  O1  UNL     1      -6.958   6.242  15.988  1.00  0.00    -0.271 OA
BRANCH  22  23
HETATM   23  C6  UNL     1      -8.178   6.530  15.308  1.00  0.00     0.303 C 
BRANCH  23  24
HETATM   24  C7  UNL     1      -8.295   5.702  14.035  1.00  0.00     0.244 C 
HETATM   25  O2  UNL     1      -8.726   6.171  12.984  1.00  0.00    -0.271 OA
HETATM   26  N2  UNL     1      -7.808   4.416  14.151  1.00  0.00    -0.355 N 
HETATM   27  H10 UNL     1      -7.660   4.072  15.093  1.00  0.00     0.162 HD
BRANCH  26  28
HETATM   28  C8  UNL     1      -7.877   3.468  13.067  1.00  0.00     0.161 C 
BRANCH  28  29
HETATM   29  C9  UNL     1      -6.505   3.143  12.536  1.00  0.00    -0.040 A 
HETATM   30  C10 UNL     1      -6.295   1.969  11.798  1.00  0.00     0.010 A 
HETATM   31  C11 UNL     1      -5.025   1.652  11.313  1.00  0.00     0.019 A 
HETATM   32  C12 UNL     1      -3.944   2.506  11.565  1.00  0.00     0.037 A 
HETATM   33  C14 UNL     1      -4.144   3.673  12.309  1.00  0.00     0.019 A 
HETATM   34  C15 UNL     1      -5.417   3.987  12.796  1.00  0.00     0.010 A 
BRANCH  32  35
HETATM   35  C13 UNL     1      -2.614   2.132  11.028  1.00  0.00     0.176 C 
HETATM   36  O3  UNL     1      -1.783   2.898  10.577  1.00  0.00    -0.646 OA
BRANCH  35  37
HETATM   37  O4  UNL     1      -2.381   0.808  11.085  1.00  0.00    -0.773 OA
HETATM   38  H15 UNL     1      -1.480   0.715  10.712  1.00  0.00     0.167 HD
ENDBRANCH  35  37
ENDBRANCH  32  35
ENDBRANCH  28  29
ENDBRANCH  26  28
ENDBRANCH  23  24
ENDBRANCH  22  23
ENDBRANCH   6  22
BRANCH  14  39
HETATM   39  O5  UNL     1      -0.415   7.217  12.180  1.00  0.00    -0.395 OA
HETATM   40  H26 UNL     1      -0.014   6.449  11.736  1.00  0.00     0.210 HD
ENDBRANCH  14  39
BRANCH  21  41
HETATM   41  O6  UNL     1       3.205   7.812  15.931  1.00  0.00    -0.381 OA
HETATM   42  H37 UNL     1       3.274   6.861  15.711  1.00  0.00     0.211 HD
ENDBRANCH  21  41
BRANCH  21  43
HETATM   43  C30 UNL     1       4.448   8.162  13.859  1.00  0.00     0.184 C 
HETATM   44  O7  UNL     1       5.600   8.217  14.295  1.00  0.00    -0.292 OA
BRANCH  43  45
HETATM   45  C31 UNL     1       4.211   7.731  12.414  1.00  0.00     0.245 C 
BRANCH  45  46
HETATM   46  O8  UNL     1       4.765   6.460  12.111  1.00  0.00    -0.393 OA
HETATM   47  H40 UNL     1       5.731   6.589  12.055  1.00  0.00     0.209 HD
ENDBRANCH  45  46
ENDBRANCH  43  45
ENDBRANCH  21  43
TORSDOF 12
ENDMDL
MODEL 7
REMARK minimizedAffinity -7.51435518
REMARK CNNscore 0.526956081
REMARK CNNaffinity 6.53211069
REMARK  12 active torsions:
REMARK  status: ('A' for Active; 'I' for Inactive)
REMARK    1  A    between atoms: N1_6  and  O1_8 
REMARK    2  A    between atoms: O1_8  and  C6_9 
REMARK    3  A    between atoms: C6_9  and  C7_10 
REMARK       I    between atoms: C7_10  and  N2_12 
REMARK    4  A    between atoms: N2_12  and  C8_13 
REMARK    5  A    between atoms: C8_13  and  C9_14 
REMARK    6  A    between atoms: C12_17  and  C13_18 
REMARK    7  A    between atoms: C13_18  and  O4_20 
REMARK    8  A    between atoms: C22_29  and  O5_30 
REMARK    9  A    between atoms: C29_37  and  O6_38 
REMARK   10  A    between atoms: C29_37  and  C30_39 
REMARK   11  A    between atoms: C30_39  and  C31_41 
REMARK   12  A    between atoms: C31_41  and  O8_42 
ROOT
HETATM    1  C1  UNL     1      -2.239   6.350  14.559  1.00  0.00     0.020 C 
HETATM    2  C2  UNL     1      -1.493   7.703  14.559  1.00  0.00    -0.014 C 
HETATM    3  C3  UNL     1      -1.025   8.021  16.011  1.00  0.00     0.020 C 
HETATM    4  C4  UNL     1      -2.151   8.453  16.943  1.00  0.00     0.060 C 
HETATM    5  C5  UNL     1      -2.868   9.651  16.360  1.00  0.00     0.032 C 
HETATM    6  N1  UNL     1      -3.364  10.636  17.051  1.00  0.00    -0.271 N 
ATOM      7  H1  UNL     1      -3.837  11.438  16.635  1.00  0.00     0.194 HD
HETATM    8  C16 UNL     1      -3.064   9.677  14.889  1.00  0.00     0.030 C 
HETATM    9  C17 UNL     1      -2.485   8.772  14.081  1.00  0.00    -0.069 C 
HETATM   10  C18 UNL     1      -2.824   8.758  12.610  1.00  0.00     0.035 C 
HETATM   11  C19 UNL     1      -1.573   8.806  11.745  1.00  0.00     0.010 C 
HETATM   12  C20 UNL     1      -0.587   7.680  12.097  1.00  0.00    -0.002 C 
HETATM   13  C21 UNL     1      -0.223   7.729  13.615  1.00  0.00     0.031 C 
HETATM   14  C22 UNL     1       0.906   6.723  13.981  1.00  0.00     0.124 C 
HETATM   15  C23 UNL     1       2.122   6.798  13.031  1.00  0.00     0.045 C 
HETATM   16  C24 UNL     1       1.746   6.711  11.535  1.00  0.00     0.001 C 
HETATM   17  C25 UNL     1       1.224   5.293  11.179  1.00  0.00     0.019 C 
HETATM   18  C26 UNL     1       0.703   7.825  11.275  1.00  0.00     0.002 C 
HETATM   19  C27 UNL     1       0.591   7.865   9.757  1.00  0.00     0.009 C 
HETATM   20  C28 UNL     1       2.026   7.599   9.268  1.00  0.00     0.047 C 
HETATM   21  C29 UNL     1       2.849   7.131  10.507  1.00  0.00     0.128 C 
ENDROOT
BRANCH   6  22
HETATM   22  O1  UNL     1      -3.177  10.469  18.428  1.00  0.00    -0.271 OA
BRANCH  22  23
HETATM   23  C6  UNL     1      -1.818  10.759  18.745  1.00  0.00     0.303 C 
BRANCH  23  24
HETATM   24  C7  UNL     1      -1.574  12.262  18.759  1.00  0.00     0.244 C 
HETATM   25  O2  UNL     1      -2.487  13.074  18.877  1.00  0.00    -0.271 OA
HETATM   26  N2  UNL     1      -0.242  12.617  18.704  1.00  0.00    -0.355 N 
HETATM   27  H10 UNL     1       0.408  11.895  18.415  1.00  0.00     0.162 HD
BRANCH  26  28
HETATM   28  C8  UNL     1       0.183  13.995  18.658  1.00  0.00     0.161 C 
BRANCH  28  29
HETATM   29  C9  UNL     1       1.163  14.301  19.762  1.00  0.00    -0.040 A 
HETATM   30  C10 UNL     1       1.465  13.327  20.725  1.00  0.00     0.010 A 
HETATM   31  C11 UNL     1       2.362  13.605  21.759  1.00  0.00     0.019 A 
HETATM   32  C12 UNL     1       2.965  14.865  21.845  1.00  0.00     0.037 A 
HETATM   33  C14 UNL     1       2.661  15.844  20.894  1.00  0.00     0.019 A 
HETATM   34  C15 UNL     1       1.761  15.565  19.861  1.00  0.00     0.010 A 
BRANCH  32  35
HETATM   35  C13 UNL     1       3.914  15.114  22.957  1.00  0.00     0.176 C 
HETATM   36  O3  UNL     1       5.124  15.202  22.860  1.00  0.00    -0.646 OA
BRANCH  35  37
HETATM   37  O4  UNL     1       3.300  15.249  24.146  1.00  0.00    -0.773 OA
HETATM   38  H15 UNL     1       4.037  15.415  24.770  1.00  0.00     0.167 HD
ENDBRANCH  35  37
ENDBRANCH  32  35
ENDBRANCH  28  29
ENDBRANCH  26  28
ENDBRANCH  23  24
ENDBRANCH  22  23
ENDBRANCH   6  22
BRANCH  14  39
HETATM   39  O5  UNL     1       0.420   5.389  14.010  1.00  0.00    -0.395 OA
HETATM   40  H26 UNL     1       1.111   4.831  14.409  1.00  0.00     0.210 HD
ENDBRANCH  14  39
BRANCH  21  41
HETATM   41  O6  UNL     1       3.555   8.293  10.966  1.00  0.00    -0.381 OA
HETATM   42  H37 UNL     1       4.151   8.014  11.690  1.00  0.00     0.211 HD
ENDBRANCH  21  41
BRANCH  21  43
HETATM   43  C30 UNL     1       3.866   6.022  10.125  1.00  0.00     0.184 C 
HETATM   44  O7  UNL     1       5.072   6.101  10.365  1.00  0.00    -0.292 OA
BRANCH  43  45
HETATM   45  C31 UNL     1       3.324   4.801   9.385  1.00  0.00     0.245 C 
BRANCH  45  46
HETATM   46  O8  UNL     1       3.571   4.838   7.989  1.00  0.00    -0.393 OA
HETATM   47  H40 UNL     1       2.957   5.502   7.620  1.00  0.00     0.209 HD
ENDBRANCH  45  46
ENDBRANCH  43  45
ENDBRANCH  21  43
TORSDOF 12
ENDMDL
MODEL 8
REMARK minimizedAffinity -11.10009
REMARK CNNscore 0.486276537
REMARK CNNaffinity 7.38489676
REMARK  12 active torsions:
REMARK  status: ('A' for Active; 'I' for Inactive)
REMARK    1  A    between atoms: N1_6  and  O1_8 
REMARK    2  A    between atoms: O1_8  and  C6_9 
REMARK    3  A    between atoms: C6_9  and  C7_10 
REMARK       I    between atoms: C7_10  and  N2_12 
REMARK    4  A    between atoms: N2_12  and  C8_13 
REMARK    5  A    between atoms: C8_13  and  C9_14 
REMARK    6  A    between atoms: C12_17  and  C13_18 
REMARK    7  A    between atoms: C13_18  and  O4_20 
REMARK    8  A    between atoms: C22_29  and  O5_30 
REMARK    9  A    between atoms: C29_37  and  O6_38 
REMARK   10  A    between atoms: C29_37  and  C30_39 
REMARK   11  A    between atoms: C30_39  and  C31_41 
REMARK   12  A    between atoms: C31_41  and  O8_42 
ROOT
HETATM    1  C1  UNL     1      -2.333   9.159  14.807  1.00  0.00     0.020 C 
HETATM    2  C2  UNL     1      -2.814   8.044  13.853  1.00  0.00    -0.014 C 
HETATM    3  C3  UNL     1      -4.133   8.504  13.164  1.00  0.00     0.020 C 
HETATM    4  C4  UNL     1      -5.352   8.476  14.079  1.00  0.00     0.060 C 
HETATM    5  C5  UNL     1      -5.530   7.087  14.653  1.00  0.00     0.032 C 
HETATM    6  N1  UNL     1      -6.674   6.516  14.891  1.00  0.00    -0.271 N 
ATOM      7  H1  UNL     1      -6.769   5.574  15.271  1.00  0.00     0.194 HD
HETATM    8  C16 UNL     1      -4.300   6.342  15.023  1.00  0.00     0.030 C 
HETATM    9  C17 UNL     1      -3.074   6.794  14.705  1.00  0.00    -0.069 C 
HETATM   10  C18 UNL     1      -1.854   6.071  15.220  1.00  0.00     0.035 C 
HETATM   11  C19 UNL     1      -0.891   5.723  14.095  1.00  0.00     0.010 C 
HETATM   12  C20 UNL     1      -0.496   6.961  13.274  1.00  0.00    -0.002 C 
HETATM   13  C21 UNL     1      -1.768   7.679  12.723  1.00  0.00     0.031 C 
HETATM   14  C22 UNL     1      -1.413   8.832  11.740  1.00  0.00     0.124 C 
HETATM   15  C23 UNL     1      -0.395   8.417  10.654  1.00  0.00     0.045 C 
HETATM   16  C24 UNL     1       0.875   7.741  11.221  1.00  0.00     0.001 C 
HETATM   17  C25 UNL     1       1.736   8.762  12.011  1.00  0.00     0.019 C 
HETATM   18  C26 UNL     1       0.394   6.553  12.089  1.00  0.00     0.002 C 
HETATM   19  C27 UNL     1       1.673   5.779  12.379  1.00  0.00     0.009 C 
HETATM   20  C28 UNL     1       2.488   5.903  11.079  1.00  0.00     0.047 C 
HETATM   21  C29 UNL     1       1.781   6.977  10.199  1.00  0.00     0.128 C 
ENDROOT
BRANCH   6  22
HETATM   22  O1  UNL     1      -7.759   7.339  14.566  1.00  0.00    -0.271 OA
BRANCH  22  23
HETATM   23  C6  UNL     1      -8.917   6.526  14.395  1.00  0.00     0.303 C 
BRANCH  23  24
HETATM   24  C7  UNL     1      -8.738   5.568  13.224  1.00  0.00     0.244 C 
HETATM   25  O2  UNL     1      -8.880   5.923  12.057  1.00  0.00    -0.271 OA
HETATM   26  N2  UNL     1      -8.331   4.301  13.589  1.00  0.00    -0.355 N 
HETATM   27  H10 UNL     1      -8.432   4.058  14.568  1.00  0.00     0.162 HD
BRANCH  26  28
HETATM   28  C8  UNL     1      -8.155   3.244  12.624  1.00  0.00     0.161 C 
BRANCH  28  29
HETATM   29  C9  UNL     1      -6.696   3.015  12.324  1.00  0.00    -0.040 A 
HETATM   30  C10 UNL     1      -6.287   1.842  11.673  1.00  0.00     0.010 A 
HETATM   31  C11 UNL     1      -4.937   1.614  11.402  1.00  0.00     0.019 A 
HETATM   32  C12 UNL     1      -3.975   2.558  11.783  1.00  0.00     0.037 A 
HETATM   33  C14 UNL     1      -4.375   3.725  12.441  1.00  0.00     0.019 A 
HETATM   34  C15 UNL     1      -5.728   3.950  12.714  1.00  0.00     0.010 A 
BRANCH  32  35
HETATM   35  C13 UNL     1      -2.553   2.277  11.471  1.00  0.00     0.176 C 
HETATM   36  O3  UNL     1      -1.626   3.056  11.592  1.00  0.00    -0.646 OA
BRANCH  35  37
HETATM   37  O4  UNL     1      -2.355   1.024  11.024  1.00  0.00    -0.773 OA
HETATM   38  H15 UNL     1      -1.388   0.983  10.871  1.00  0.00     0.167 HD
ENDBRANCH  35  37
ENDBRANCH  32  35
ENDBRANCH  28  29
ENDBRANCH  26  28
ENDBRANCH  23  24
ENDBRANCH  22  23
ENDBRANCH   6  22
BRANCH  14  39
HETATM   39  O5  UNL     1      -0.917   9.968  12.432  1.00  0.00    -0.395 OA
HETATM   40  H26 UNL     1      -0.878  10.707  11.800  1.00  0.00     0.210 HD
ENDBRANCH  14  39
BRANCH  21  41
HETATM   41  O6  UNL     1       0.981   6.245   9.259  1.00  0.00    -0.381 OA
HETATM   42  H37 UNL     1       0.592   6.888   8.633  1.00  0.00     0.211 HD
ENDBRANCH  21  41
BRANCH  21  43
HETATM   43  C30 UNL     1       2.812   7.852   9.435  1.00  0.00     0.184 C 
HETATM   44  O7  UNL     1       3.937   8.103   9.870  1.00  0.00    -0.292 OA
BRANCH  43  45
HETATM   45  C31 UNL     1       2.370   8.448   8.100  1.00  0.00     0.245 C 
BRANCH  45  46
HETATM   46  O8  UNL     1       3.353   9.283   7.509  1.00  0.00    -0.393 OA
HETATM   47  H40 UNL     1       3.359  10.110   8.029  1.00  0.00     0.209 HD
ENDBRANCH  45  46
ENDBRANCH  43  45
ENDBRANCH  21  43
TORSDOF 12
ENDMDL
MODEL 9
REMARK minimizedAffinity -8.97327805
REMARK CNNscore 0.477396369
REMARK CNNaffinity 6.71127081
REMARK  12 active torsions:
REMARK  status: ('A' for Active; 'I' for Inactive)
REMARK    1  A    between atoms: N1_6  and  O1_8 
REMARK    2  A    between atoms: O1_8  and  C6_9 
REMARK    3  A    between atoms: C6_9  and  C7_10 
REMARK       I    between atoms: C7_10  and  N2_12 
REMARK    4  A    between atoms: N2_12  and  C8_13 
REMARK    5  A    between atoms: C8_13  and  C9_14 
REMARK    6  A    between atoms: C12_17  and  C13_18 
REMARK    7  A    between atoms: C13_18  and  O4_20 
REMARK    8  A    between atoms: C22_29  and  O5_30 
REMARK    9  A    between atoms: C29_37  and  O6_38 
REMARK   10  A    between atoms: C29_37  and  C30_39 
REMARK   11  A    between atoms: C30_39  and  C31_41 
REMARK   12  A    between atoms: C31_41  and  O8_42 
ROOT
HETATM    1  C1  UNL     1       1.451   7.234  14.888  1.00  0.00     0.020 C 
HETATM    2  C2  UNL     1       1.649   8.649  14.302  1.00  0.00    -0.014 C 
HETATM    3  C3  UNL     1       2.961   9.256  14.884  1.00  0.00     0.020 C 
HETATM    4  C4  UNL     1       2.849   9.694  16.339  1.00  0.00     0.060 C 
HETATM    5  C5  UNL     1       1.714  10.683  16.490  1.00  0.00     0.032 C 
HETATM    6  N1  UNL     1       1.709  11.699  17.303  1.00  0.00    -0.271 N 
ATOM      7  H1  UNL     1       0.935  12.359  17.382  1.00  0.00     0.194 HD
HETATM    8  C16 UNL     1       0.490  10.442  15.686  1.00  0.00     0.030 C 
HETATM    9  C17 UNL     1       0.443   9.495  14.733  1.00  0.00    -0.069 C 
HETATM   10  C18 UNL     1      -0.863   9.198  14.037  1.00  0.00     0.035 C 
HETATM   11  C19 UNL     1      -0.720   9.257  12.524  1.00  0.00     0.010 C 
HETATM   12  C20 UNL     1       0.400   8.333  12.017  1.00  0.00    -0.002 C 
HETATM   13  C21 UNL     1       1.750   8.675  12.724  1.00  0.00     0.031 C 
HETATM   14  C22 UNL     1       2.947   7.889  12.115  1.00  0.00     0.124 C 
HETATM   15  C23 UNL     1       3.001   7.955  10.572  1.00  0.00     0.045 C 
HETATM   16  C24 UNL     1       1.666   7.578   9.889  1.00  0.00     0.001 C 
HETATM   17  C25 UNL     1       1.359   6.068  10.076  1.00  0.00     0.019 C 
HETATM   18  C26 UNL     1       0.581   8.497  10.500  1.00  0.00     0.002 C 
HETATM   19  C27 UNL     1      -0.627   8.274   9.600  1.00  0.00     0.009 C 
HETATM   20  C28 UNL     1      -0.022   8.109   8.195  1.00  0.00     0.047 C 
HETATM   21  C29 UNL     1       1.518   7.956   8.378  1.00  0.00     0.128 C 
ENDROOT
BRANCH   6  22
HETATM   22  O1  UNL     1       2.887  11.785  18.056  1.00  0.00    -0.271 OA
BRANCH  22  23
HETATM   23  C6  UNL     1       2.542  11.937  19.431  1.00  0.00     0.303 C 
BRANCH  23  24
HETATM   24  C7  UNL     1       3.669  11.443  20.329  1.00  0.00     0.244 C 
HETATM   25  O2  UNL     1       4.752  11.075  19.881  1.00  0.00    -0.271 OA
HETATM   26  N2  UNL     1       3.390  11.520  21.678  1.00  0.00    -0.355 N 
HETATM   27  H10 UNL     1       2.417  11.648  21.932  1.00  0.00     0.162 HD
BRANCH  26  28
HETATM   28  C8  UNL     1       4.315  11.054  22.681  1.00  0.00     0.161 C 
BRANCH  28  29
HETATM   29  C9  UNL     1       5.452  12.025  22.869  1.00  0.00    -0.040 A 
HETATM   30  C10 UNL     1       6.763  11.552  23.029  1.00  0.00     0.010 A 
HETATM   31  C11 UNL     1       7.821  12.444  23.217  1.00  0.00     0.019 A 
HETATM   32  C12 UNL     1       7.580  13.822  23.252  1.00  0.00     0.037 A 
HETATM   33  C14 UNL     1       6.274  14.300  23.102  1.00  0.00     0.019 A 
HETATM   34  C15 UNL     1       5.215  13.406  22.917  1.00  0.00     0.010 A 
BRANCH  32  35
HETATM   35  C13 UNL     1       8.735  14.732  23.449  1.00  0.00     0.176 C 
HETATM   36  O3  UNL     1       8.980  15.368  24.457  1.00  0.00    -0.646 OA
BRANCH  35  37
HETATM   37  O4  UNL     1       9.536  14.799  22.371  1.00  0.00    -0.773 OA
HETATM   38  H15 UNL     1      10.244  15.418  22.648  1.00  0.00     0.167 HD
ENDBRANCH  35  37
ENDBRANCH  32  35
ENDBRANCH  28  29
ENDBRANCH  26  28
ENDBRANCH  23  24
ENDBRANCH  22  23
ENDBRANCH   6  22
BRANCH  14  39
HETATM   39  O5  UNL     1       2.933   6.528  12.521  1.00  0.00    -0.395 OA
HETATM   40  H26 UNL     1       3.783   6.132  12.262  1.00  0.00     0.210 HD
ENDBRANCH  14  39
BRANCH  21  41
HETATM   41  O6  UNL     1       2.071   9.255   8.122  1.00  0.00    -0.381 OA
HETATM   42  H37 UNL     1       3.046   9.174   8.141  1.00  0.00     0.211 HD
ENDBRANCH  21  41
BRANCH  21  43
HETATM   43  C30 UNL     1       2.109   6.932   7.371  1.00  0.00     0.184 C 
HETATM   44  O7  UNL     1       1.947   7.013   6.152  1.00  0.00    -0.292 OA
BRANCH  43  45
HETATM   45  C31 UNL     1       2.894   5.756   7.949  1.00  0.00     0.245 C 
BRANCH  45  46
HETATM   46  O8  UNL     1       3.116   4.716   7.010  1.00  0.00    -0.393 OA
HETATM   47  H40 UNL     1       2.258   4.262   6.897  1.00  0.00     0.209 HD
ENDBRANCH  45  46
ENDBRANCH  43  45
ENDBRANCH  21  43
TORSDOF 12
ENDMDL
