MODEL 1
REMARK minimizedAffinity -7.33053732
REMARK CNNscore 0.800255895
REMARK CNNaffinity 6.81147385
REMARK  5 active torsions:
REMARK  status: ('A' for Active; 'I' for Inactive)
REMARK    1  A    between atoms: C2_2  and  C4_4 
REMARK    2  A    between atoms: C7_7  and  C8_8 
REMARK    3  A    between atoms: C8_8  and  O2_10 
REMARK    4  A    between atoms: C11_13  and  C12_14 
REMARK    5  A    between atoms: C12_14  and  O4_16 
ROOT
HETATM    1  C4  UNL     1       2.870  56.210  -8.847  1.00  0.00     0.019 C 
HETATM    2  C5  UNL     1       3.455  56.066  -7.441  1.00  0.00     0.011 C 
HETATM    3  C6  UNL     1       2.346  56.630  -6.562  1.00  0.00     0.021 C 
HETATM    4  C7  UNL     1       1.040  56.048  -7.149  1.00  0.00     0.050 C 
HETATM    5  C9  UNL     1       0.701  54.729  -6.433  1.00  0.00     0.022 C 
HETATM    6  C10 UNL     1      -0.291  53.846  -7.186  1.00  0.00     0.023 C 
HETATM    7  C11 UNL     1       0.117  53.507  -8.642  1.00  0.00     0.057 C 
HETATM    8  C13 UNL     1       0.520  54.807  -9.419  1.00  0.00     0.011 C 
HETATM    9  C14 UNL     1       0.952  54.490 -10.856  1.00  0.00     0.007 C 
HETATM   10  C15 UNL     1      -0.101  53.706 -11.650  1.00  0.00     0.006 C 
HETATM   11  C16 UNL     1      -0.609  52.442 -10.914  1.00  0.00     0.003 C 
HETATM   12  C17 UNL     1      -1.545  51.485 -11.777  1.00  0.00    -0.035 C 
HETATM   13  C18 UNL     1      -2.813  52.215 -12.280  1.00  0.00     0.016 C 
HETATM   14  C19 UNL     1      -0.745  51.002 -13.026  1.00  0.00     0.017 C 
HETATM   15  C20 UNL     1      -1.413  49.884 -13.814  1.00  0.00     0.080 C 
HETATM   16  C21 UNL     1      -1.772  48.714 -12.934  1.00  0.00     0.135 C 
HETATM   17  O5  UNL     1      -1.542  47.567 -13.323  1.00  0.00    -0.297 OA
HETATM   18  C22 UNL     1      -2.530  49.004 -11.627  1.00  0.00     0.017 C 
HETATM   19  C23 UNL     1      -4.014  49.206 -11.965  1.00  0.00     0.023 C 
HETATM   20  C24 UNL     1      -2.432  47.735 -10.742  1.00  0.00     0.023 C 
HETATM   21  C25 UNL     1      -1.844  50.213 -10.898  1.00  0.00     0.009 C 
HETATM   22  C26 UNL     1      -2.518  50.601  -9.567  1.00  0.00     0.007 C 
HETATM   23  C27 UNL     1      -1.634  51.523  -8.722  1.00  0.00     0.011 C 
HETATM   24  C28 UNL     1      -1.120  52.797  -9.458  1.00  0.00    -0.022 C 
HETATM   25  C29 UNL     1      -2.360  53.750  -9.528  1.00  0.00     0.017 C 
HETATM   26  C30 UNL     1       1.338  55.918  -8.686  1.00  0.00     0.018 C 
ENDROOT
BRANCH   4  27
HETATM   27  C8  UNL     1      -0.126  57.009  -6.916  1.00  0.00     0.149 C 
HETATM   28  O1  UNL     1      -0.803  57.549  -7.776  1.00  0.00    -0.649 OA
BRANCH  27  29
HETATM   29  O2  UNL     1      -0.436  57.180  -5.617  1.00  0.00    -0.776 OA
HETATM   30  H11 UNL     1      -1.212  57.779  -5.635  1.00  0.00     0.167 HD
ENDBRANCH  27  29
ENDBRANCH   4  27
BRANCH   1  31
HETATM   31  C2  UNL     1       3.718  55.712 -10.002  1.00  0.00    -0.088 C 
HETATM   32  C1  UNL     1       3.683  56.350 -11.188  1.00  0.00     0.014 C 
HETATM   33  C3  UNL     1       4.691  54.583  -9.805  1.00  0.00     0.043 C 
ENDBRANCH   1  31
BRANCH   7  34
HETATM   34  C12 UNL     1       1.318  52.530  -8.543  1.00  0.00     0.149 C 
HETATM   35  O3  UNL     1       2.280  52.428  -9.288  1.00  0.00    -0.649 OA
BRANCH  34  36
HETATM   36  O4  UNL     1       1.240  51.666  -7.522  1.00  0.00    -0.776 OA
HETATM   37  H16 UNL     1       2.044  51.115  -7.633  1.00  0.00     0.167 HD
ENDBRANCH  34  36
ENDBRANCH   7  34
TORSDOF 5
ENDMDL
MODEL 2
REMARK minimizedAffinity -6.89893866
REMARK CNNscore 0.72966212
REMARK CNNaffinity 6.46153688
REMARK  5 active torsions:
REMARK  status: ('A' for Active; 'I' for Inactive)
REMARK    1  A    between atoms: C2_2  and  C4_4 
REMARK    2  A    between atoms: C7_7  and  C8_8 
REMARK    3  A    between atoms: C8_8  and  O2_10 
REMARK    4  A    between atoms: C11_13  and  C12_14 
REMARK    5  A    between atoms: C12_14  and  O4_16 
ROOT
HETATM    1  C4  UNL     1     -12.594  46.737 -41.107  1.00  0.00     0.019 C 
HETATM    2  C5  UNL     1     -11.751  47.843 -41.745  1.00  0.00     0.011 C 
HETATM    3  C6  UNL     1     -12.064  49.046 -40.865  1.00  0.00     0.021 C 
HETATM    4  C7  UNL     1     -12.038  48.497 -39.419  1.00  0.00     0.050 C 
HETATM    5  C9  UNL     1     -10.623  48.658 -38.838  1.00  0.00     0.022 C 
HETATM    6  C10 UNL     1     -10.347  47.785 -37.616  1.00  0.00     0.023 C 
HETATM    7  C11 UNL     1     -10.608  46.271 -37.826  1.00  0.00     0.057 C 
HETATM    8  C13 UNL     1     -12.022  46.039 -38.461  1.00  0.00     0.011 C 
HETATM    9  C14 UNL     1     -12.291  44.549 -38.701  1.00  0.00     0.007 C 
HETATM   10  C15 UNL     1     -12.131  43.690 -37.439  1.00  0.00     0.006 C 
HETATM   11  C16 UNL     1     -10.785  43.918 -36.708  1.00  0.00     0.003 C 
HETATM   12  C17 UNL     1     -10.482  42.907 -35.515  1.00  0.00    -0.035 C 
HETATM   13  C18 UNL     1     -11.571  42.964 -34.417  1.00  0.00     0.016 C 
HETATM   14  C19 UNL     1     -10.457  41.456 -36.087  1.00  0.00     0.017 C 
HETATM   15  C20 UNL     1      -9.932  40.403 -35.122  1.00  0.00     0.080 C 
HETATM   16  C21 UNL     1      -8.580  40.774 -34.567  1.00  0.00     0.135 C 
HETATM   17  O5  UNL     1      -7.695  39.917 -34.497  1.00  0.00    -0.297 OA
HETATM   18  C22 UNL     1      -8.402  42.191 -33.996  1.00  0.00     0.017 C 
HETATM   19  C23 UNL     1      -8.991  42.217 -32.578  1.00  0.00     0.023 C 
HETATM   20  C24 UNL     1      -6.879  42.450 -33.862  1.00  0.00     0.023 C 
HETATM   21  C25 UNL     1      -9.030  43.226 -34.994  1.00  0.00     0.009 C 
HETATM   22  C26 UNL     1      -8.913  44.691 -34.529  1.00  0.00     0.007 C 
HETATM   23  C27 UNL     1      -9.203  45.679 -35.662  1.00  0.00     0.011 C 
HETATM   24  C28 UNL     1     -10.556  45.454 -36.402  1.00  0.00    -0.022 C 
HETATM   25  C29 UNL     1     -11.648  45.986 -35.415  1.00  0.00     0.017 C 
HETATM   26  C30 UNL     1     -12.538  47.015 -39.566  1.00  0.00     0.018 C 
ENDROOT
BRANCH   4  27
HETATM   27  C8  UNL     1     -12.992  49.292 -38.529  1.00  0.00     0.149 C 
HETATM   28  O1  UNL     1     -13.317  49.016 -37.385  1.00  0.00    -0.649 OA
BRANCH  27  29
HETATM   29  O2  UNL     1     -13.427  50.438 -39.087  1.00  0.00    -0.776 OA
HETATM   30  H11 UNL     1     -13.986  50.844 -38.391  1.00  0.00     0.167 HD
ENDBRANCH  27  29
ENDBRANCH   4  27
BRANCH   1  31
HETATM   31  C2  UNL     1     -12.506  45.356 -41.729  1.00  0.00    -0.088 C 
HETATM   32  C1  UNL     1     -13.631  44.692 -42.060  1.00  0.00     0.014 C 
HETATM   33  C3  UNL     1     -11.173  44.765 -42.094  1.00  0.00     0.043 C 
ENDBRANCH   1  31
BRANCH   7  34
HETATM   34  C12 UNL     1      -9.490  45.762 -38.772  1.00  0.00     0.149 C 
HETATM   35  O3  UNL     1      -8.695  46.412 -39.432  1.00  0.00    -0.649 OA
BRANCH  34  36
HETATM   36  O4  UNL     1      -9.443  44.428 -38.898  1.00  0.00    -0.776 OA
HETATM   37  H16 UNL     1      -8.720  44.290 -39.546  1.00  0.00     0.167 HD
ENDBRANCH  34  36
ENDBRANCH   7  34
TORSDOF 5
ENDMDL
MODEL 3
REMARK minimizedAffinity -7.53967047
REMARK CNNscore 0.516791523
REMARK CNNaffinity 5.9690876
REMARK  5 active torsions:
REMARK  status: ('A' for Active; 'I' for Inactive)
REMARK    1  A    between atoms: C2_2  and  C4_4 
REMARK    2  A    between atoms: C7_7  and  C8_8 
REMARK    3  A    between atoms: C8_8  and  O2_10 
REMARK    4  A    between atoms: C11_13  and  C12_14 
REMARK    5  A    between atoms: C12_14  and  O4_16 
ROOT
HETATM    1  C4  UNL     1       5.522  56.019  -7.994  1.00  0.00     0.019 C 
HETATM    2  C5  UNL     1       6.117  55.603  -6.647  1.00  0.00     0.011 C 
HETATM    3  C6  UNL     1       5.446  56.568  -5.678  1.00  0.00     0.021 C 
HETATM    4  C7  UNL     1       3.968  56.619  -6.128  1.00  0.00     0.050 C 
HETATM    5  C9  UNL     1       3.162  55.559  -5.358  1.00  0.00     0.022 C 
HETATM    6  C10 UNL     1       1.821  55.206  -5.997  1.00  0.00     0.023 C 
HETATM    7  C11 UNL     1       1.905  54.760  -7.480  1.00  0.00     0.057 C 
HETATM    8  C13 UNL     1       2.755  55.778  -8.315  1.00  0.00     0.011 C 
HETATM    9  C14 UNL     1       2.872  55.341  -9.780  1.00  0.00     0.007 C 
HETATM   10  C15 UNL     1       1.515  55.105 -10.457  1.00  0.00     0.006 C 
HETATM   11  C16 UNL     1       0.583  54.166  -9.652  1.00  0.00     0.003 C 
HETATM   12  C17 UNL     1      -0.749  53.726 -10.405  1.00  0.00    -0.035 C 
HETATM   13  C18 UNL     1      -1.620  54.942 -10.799  1.00  0.00     0.016 C 
HETATM   14  C19 UNL     1      -0.356  52.975 -11.714  1.00  0.00     0.017 C 
HETATM   15  C20 UNL     1      -1.511  52.273 -12.415  1.00  0.00     0.080 C 
HETATM   16  C21 UNL     1      -2.255  51.351 -11.483  1.00  0.00     0.135 C 
HETATM   17  O5  UNL     1      -2.578  50.226 -11.871  1.00  0.00    -0.297 OA
HETATM   18  C22 UNL     1      -2.688  51.908 -10.116  1.00  0.00     0.017 C 
HETATM   19  C23 UNL     1      -3.965  52.737 -10.315  1.00  0.00     0.023 C 
HETATM   20  C24 UNL     1      -3.065  50.699  -9.220  1.00  0.00     0.023 C 
HETATM   21  C25 UNL     1      -1.484  52.685  -9.477  1.00  0.00     0.009 C 
HETATM   22  C26 UNL     1      -1.797  53.294  -8.096  1.00  0.00     0.007 C 
HETATM   23  C27 UNL     1      -0.528  53.725  -7.356  1.00  0.00     0.011 C 
HETATM   24  C28 UNL     1       0.414  54.671  -8.161  1.00  0.00    -0.022 C 
HETATM   25  C29 UNL     1      -0.296  56.066  -8.132  1.00  0.00     0.017 C 
HETATM   26  C30 UNL     1       4.036  56.410  -7.684  1.00  0.00     0.018 C 
ENDROOT
BRANCH   4  27
HETATM   27  C8  UNL     1       3.357  57.983  -5.804  1.00  0.00     0.149 C 
HETATM   28  O1  UNL     1       3.389  58.554  -4.726  1.00  0.00    -0.649 OA
BRANCH  27  29
HETATM   29  O2  UNL     1       2.809  58.598  -6.869  1.00  0.00    -0.776 OA
HETATM   30  H11 UNL     1       2.502  59.459  -6.515  1.00  0.00     0.167 HD
ENDBRANCH  27  29
ENDBRANCH   4  27
BRANCH   1  31
HETATM   31  C2  UNL     1       5.961  55.232  -9.214  1.00  0.00    -0.088 C 
HETATM   32  C1  UNL     1       6.682  54.104  -9.066  1.00  0.00     0.014 C 
HETATM   33  C3  UNL     1       5.499  55.632 -10.588  1.00  0.00     0.043 C 
ENDBRANCH   1  31
BRANCH   7  34
HETATM   34  C12 UNL     1       2.572  53.359  -7.476  1.00  0.00     0.149 C 
HETATM   35  O3  UNL     1       2.414  52.442  -6.689  1.00  0.00    -0.649 OA
BRANCH  34  36
HETATM   36  O4  UNL     1       3.472  53.178  -8.454  1.00  0.00    -0.776 OA
HETATM   37  H16 UNL     1       3.812  52.275  -8.280  1.00  0.00     0.167 HD
ENDBRANCH  34  36
ENDBRANCH   7  34
TORSDOF 5
ENDMDL
MODEL 4
REMARK minimizedAffinity -6.94307327
REMARK CNNscore 0.451724648
REMARK CNNaffinity 5.47402
REMARK  5 active torsions:
REMARK  status: ('A' for Active; 'I' for Inactive)
REMARK    1  A    between atoms: C2_2  and  C4_4 
REMARK    2  A    between atoms: C7_7  and  C8_8 
REMARK    3  A    between atoms: C8_8  and  O2_10 
REMARK    4  A    between atoms: C11_13  and  C12_14 
REMARK    5  A    between atoms: C12_14  and  O4_16 
ROOT
HETATM    1  C4  UNL     1     -18.159  46.004 -21.360  1.00  0.00     0.019 C 
HETATM    2  C5  UNL     1     -19.151  44.840 -21.401  1.00  0.00     0.011 C 
HETATM    3  C6  UNL     1     -19.905  45.095 -22.699  1.00  0.00     0.021 C 
HETATM    4  C7  UNL     1     -18.814  45.495 -23.720  1.00  0.00     0.050 C 
HETATM    5  C9  UNL     1     -18.318  44.239 -24.456  1.00  0.00     0.022 C 
HETATM    6  C10 UNL     1     -16.972  44.416 -25.156  1.00  0.00     0.023 C 
HETATM    7  C11 UNL     1     -15.826  44.919 -24.243  1.00  0.00     0.057 C 
HETATM    8  C13 UNL     1     -16.282  46.176 -23.426  1.00  0.00     0.011 C 
HETATM    9  C14 UNL     1     -15.170  46.675 -22.496  1.00  0.00     0.007 C 
HETATM   10  C15 UNL     1     -13.852  46.969 -23.225  1.00  0.00     0.006 C 
HETATM   11  C16 UNL     1     -13.370  45.798 -24.117  1.00  0.00     0.003 C 
HETATM   12  C17 UNL     1     -11.910  45.970 -24.730  1.00  0.00    -0.035 C 
HETATM   13  C18 UNL     1     -11.796  47.240 -25.607  1.00  0.00     0.016 C 
HETATM   14  C19 UNL     1     -10.891  46.107 -23.557  1.00  0.00     0.017 C 
HETATM   15  C20 UNL     1      -9.429  46.025 -23.974  1.00  0.00     0.080 C 
HETATM   16  C21 UNL     1      -9.143  44.782 -24.778  1.00  0.00     0.135 C 
HETATM   17  O5  UNL     1      -8.130  44.122 -24.537  1.00  0.00    -0.297 OA
HETATM   18  C22 UNL     1     -10.078  44.458 -25.956  1.00  0.00     0.017 C 
HETATM   19  C23 UNL     1      -9.664  45.327 -27.152  1.00  0.00     0.023 C 
HETATM   20  C24 UNL     1      -9.826  42.981 -26.356  1.00  0.00     0.023 C 
HETATM   21  C25 UNL     1     -11.566  44.634 -25.490  1.00  0.00     0.009 C 
HETATM   22  C26 UNL     1     -12.603  44.335 -26.591  1.00  0.00     0.007 C 
HETATM   23  C27 UNL     1     -14.014  44.168 -26.021  1.00  0.00     0.011 C 
HETATM   24  C28 UNL     1     -14.505  45.343 -25.122  1.00  0.00    -0.022 C 
HETATM   25  C29 UNL     1     -14.849  46.498 -26.121  1.00  0.00     0.017 C 
HETATM   26  C30 UNL     1     -17.734  46.234 -22.851  1.00  0.00     0.018 C 
ENDROOT
BRANCH   4  27
HETATM   27  C8  UNL     1     -19.388  46.446 -24.770  1.00  0.00     0.149 C 
HETATM   28  O1  UNL     1     -20.324  46.218 -25.521  1.00  0.00    -0.649 OA
BRANCH  27  29
HETATM   29  O2  UNL     1     -18.814  47.664 -24.771  1.00  0.00    -0.776 OA
HETATM   30  H11 UNL     1     -19.308  48.159 -25.458  1.00  0.00     0.167 HD
ENDBRANCH  27  29
ENDBRANCH   4  27
BRANCH   1  31
HETATM   31  C2  UNL     1     -17.204  46.056 -20.182  1.00  0.00    -0.088 C 
HETATM   32  C1  UNL     1     -16.467  44.974 -19.863  1.00  0.00     0.014 C 
HETATM   33  C3  UNL     1     -16.980  47.342 -19.436  1.00  0.00     0.043 C 
ENDBRANCH   1  31
BRANCH   7  34
HETATM   34  C12 UNL     1     -15.476  43.743 -23.293  1.00  0.00     0.149 C 
HETATM   35  O3  UNL     1     -14.380  43.382 -22.899  1.00  0.00    -0.649 OA
BRANCH  34  36
HETATM   36  O4  UNL     1     -16.535  43.017 -22.907  1.00  0.00    -0.776 OA
HETATM   37  H16 UNL     1     -16.134  42.313 -22.355  1.00  0.00     0.167 HD
ENDBRANCH  34  36
ENDBRANCH   7  34
TORSDOF 5
ENDMDL
MODEL 5
REMARK minimizedAffinity -7.60345507
REMARK CNNscore 0.368552536
REMARK CNNaffinity 6.27414465
REMARK  5 active torsions:
REMARK  status: ('A' for Active; 'I' for Inactive)
REMARK    1  A    between atoms: C2_2  and  C4_4 
REMARK    2  A    between atoms: C7_7  and  C8_8 
REMARK    3  A    between atoms: C8_8  and  O2_10 
REMARK    4  A    between atoms: C11_13  and  C12_14 
REMARK    5  A    between atoms: C12_14  and  O4_16 
ROOT
HETATM    1  C4  UNL     1      -3.120  50.473  -9.231  1.00  0.00     0.019 C 
HETATM    2  C5  UNL     1      -3.054  49.689 -10.543  1.00  0.00     0.011 C 
HETATM    3  C6  UNL     1      -3.654  50.669 -11.544  1.00  0.00     0.021 C 
HETATM    4  C7  UNL     1      -3.031  52.037 -11.181  1.00  0.00     0.050 C 
HETATM    5  C9  UNL     1      -1.749  52.249 -12.004  1.00  0.00     0.022 C 
HETATM    6  C10 UNL     1      -0.820  53.325 -11.448  1.00  0.00     0.023 C 
HETATM    7  C11 UNL     1      -0.408  53.126  -9.966  1.00  0.00     0.057 C 
HETATM    8  C13 UNL     1      -1.670  52.858  -9.076  1.00  0.00     0.011 C 
HETATM    9  C14 UNL     1      -1.282  52.632  -7.609  1.00  0.00     0.007 C 
HETATM   10  C15 UNL     1      -0.449  53.777  -7.015  1.00  0.00     0.006 C 
HETATM   11  C16 UNL     1       0.779  54.154  -7.880  1.00  0.00     0.003 C 
HETATM   12  C17 UNL     1       1.787  55.189  -7.210  1.00  0.00    -0.035 C 
HETATM   13  C18 UNL     1       1.094  56.527  -6.859  1.00  0.00     0.016 C 
HETATM   14  C19 UNL     1       2.328  54.569  -5.885  1.00  0.00     0.017 C 
HETATM   15  C20 UNL     1       3.490  55.326  -5.259  1.00  0.00     0.080 C 
HETATM   16  C21 UNL     1       4.616  55.537  -6.239  1.00  0.00     0.135 C 
HETATM   17  O5  UNL     1       5.780  55.347  -5.879  1.00  0.00    -0.297 OA
HETATM   18  C22 UNL     1       4.264  56.104  -7.625  1.00  0.00     0.017 C 
HETATM   19  C23 UNL     1       4.092  57.624  -7.496  1.00  0.00     0.023 C 
HETATM   20  C24 UNL     1       5.485  55.861  -8.550  1.00  0.00     0.023 C 
HETATM   21  C25 UNL     1       3.014  55.339  -8.187  1.00  0.00     0.009 C 
HETATM   22  C26 UNL     1       2.563  55.820  -9.580  1.00  0.00     0.007 C 
HETATM   23  C27 UNL     1       1.591  54.839 -10.240  1.00  0.00     0.011 C 
HETATM   24  C28 UNL     1       0.353  54.455  -9.375  1.00  0.00    -0.022 C 
HETATM   25  C29 UNL     1      -0.585  55.707  -9.436  1.00  0.00     0.017 C 
HETATM   26  C30 UNL     1      -2.824  51.961  -9.626  1.00  0.00     0.018 C 
ENDROOT
BRANCH   4  27
HETATM   27  C8  UNL     1      -3.994  53.172 -11.531  1.00  0.00     0.149 C 
HETATM   28  O1  UNL     1      -4.539  53.930 -10.744  1.00  0.00    -0.649 OA
BRANCH  27  29
HETATM   29  O2  UNL     1      -4.160  53.352 -12.855  1.00  0.00    -0.776 OA
HETATM   30  H11 UNL     1      -4.761  54.124 -12.915  1.00  0.00     0.167 HD
ENDBRANCH  27  29
ENDBRANCH   4  27
BRANCH   1  31
HETATM   31  C2  UNL     1      -2.569  49.792  -7.992  1.00  0.00    -0.088 C 
HETATM   32  C1  UNL     1      -1.592  50.382  -7.277  1.00  0.00     0.014 C 
HETATM   33  C3  UNL     1      -3.184  48.518  -7.482  1.00  0.00     0.043 C 
ENDBRANCH   1  31
BRANCH   7  34
HETATM   34  C12 UNL     1       0.552  51.908  -9.940  1.00  0.00     0.149 C 
HETATM   35  O3  UNL     1       1.506  51.705  -9.207  1.00  0.00    -0.649 OA
BRANCH  34  36
HETATM   36  O4  UNL     1       0.305  50.994 -10.889  1.00  0.00    -0.776 OA
HETATM   37  H16 UNL     1       1.013  50.330 -10.750  1.00  0.00     0.167 HD
ENDBRANCH  34  36
ENDBRANCH   7  34
TORSDOF 5
ENDMDL
MODEL 6
REMARK minimizedAffinity -6.9724679
REMARK CNNscore 0.365925431
REMARK CNNaffinity 5.83220863
REMARK  5 active torsions:
REMARK  status: ('A' for Active; 'I' for Inactive)
REMARK    1  A    between atoms: C2_2  and  C4_4 
REMARK    2  A    between atoms: C7_7  and  C8_8 
REMARK    3  A    between atoms: C8_8  and  O2_10 
REMARK    4  A    between atoms: C11_13  and  C12_14 
REMARK    5  A    between atoms: C12_14  and  O4_16 
ROOT
HETATM    1  C4  UNL     1      -8.163  48.041 -28.426  1.00  0.00     0.019 C 
HETATM    2  C5  UNL     1      -6.828  47.382 -28.070  1.00  0.00     0.011 C 
HETATM    3  C6  UNL     1      -6.655  47.756 -26.604  1.00  0.00     0.021 C 
HETATM    4  C7  UNL     1      -8.053  47.551 -25.975  1.00  0.00     0.050 C 
HETATM    5  C9  UNL     1      -8.158  46.120 -25.419  1.00  0.00     0.022 C 
HETATM    6  C10 UNL     1      -9.589  45.649 -25.172  1.00  0.00     0.023 C 
HETATM    7  C11 UNL     1     -10.529  45.755 -26.400  1.00  0.00     0.057 C 
HETATM    8  C13 UNL     1     -10.436  47.180 -27.044  1.00  0.00     0.011 C 
HETATM    9  C14 UNL     1     -11.340  47.298 -28.278  1.00  0.00     0.007 C 
HETATM   10  C15 UNL     1     -12.806  46.940 -27.995  1.00  0.00     0.006 C 
HETATM   11  C16 UNL     1     -12.979  45.574 -27.288  1.00  0.00     0.003 C 
HETATM   12  C17 UNL     1     -14.482  45.063 -27.159  1.00  0.00    -0.035 C 
HETATM   13  C18 UNL     1     -15.366  46.058 -26.370  1.00  0.00     0.016 C 
HETATM   14  C19 UNL     1     -15.083  44.921 -28.591  1.00  0.00     0.017 C 
HETATM   15  C20 UNL     1     -16.424  44.203 -28.647  1.00  0.00     0.080 C 
HETATM   16  C21 UNL     1     -16.373  42.861 -27.962  1.00  0.00     0.135 C 
HETATM   17  O5  UNL     1     -16.897  41.883 -28.500  1.00  0.00    -0.297 OA
HETATM   18  C22 UNL     1     -15.766  42.799 -26.550  1.00  0.00     0.017 C 
HETATM   19  C23 UNL     1     -16.830  43.270 -25.547  1.00  0.00     0.023 C 
HETATM   20  C24 UNL     1     -15.472  41.309 -26.236  1.00  0.00     0.023 C 
HETATM   21  C25 UNL     1     -14.428  43.618 -26.532  1.00  0.00     0.009 C 
HETATM   22  C26 UNL     1     -13.722  43.630 -25.162  1.00  0.00     0.007 C 
HETATM   23  C27 UNL     1     -12.275  44.120 -25.265  1.00  0.00     0.011 C 
HETATM   24  C28 UNL     1     -12.095  45.495 -25.977  1.00  0.00    -0.022 C 
HETATM   25  C29 UNL     1     -12.571  46.556 -24.929  1.00  0.00     0.017 C 
HETATM   26  C30 UNL     1      -9.049  47.891 -27.141  1.00  0.00     0.018 C 
ENDROOT
BRANCH   4  27
HETATM   27  C8  UNL     1      -8.260  48.513 -24.806  1.00  0.00     0.149 C 
HETATM   28  O1  UNL     1      -7.866  48.359 -23.660  1.00  0.00    -0.649 OA
BRANCH  27  29
HETATM   29  O2  UNL     1      -8.878  49.659 -25.149  1.00  0.00    -0.776 OA
HETATM   30  H11 UNL     1      -8.900  50.176 -24.317  1.00  0.00     0.167 HD
ENDBRANCH  27  29
ENDBRANCH   4  27
BRANCH   1  31
HETATM   31  C2  UNL     1      -8.672  47.848 -29.842  1.00  0.00    -0.088 C 
HETATM   32  C1  UNL     1      -9.234  48.879 -30.502  1.00  0.00     0.014 C 
HETATM   33  C3  UNL     1      -8.448  46.549 -30.564  1.00  0.00     0.043 C 
ENDBRANCH   1  31
BRANCH   7  34
HETATM   34  C12 UNL     1     -10.063  44.666 -27.402  1.00  0.00     0.149 C 
HETATM   35  O3  UNL     1     -10.139  44.669 -28.620  1.00  0.00    -0.649 OA
BRANCH  34  36
HETATM   36  O4  UNL     1      -9.554  43.569 -26.823  1.00  0.00    -0.776 OA
HETATM   37  H16 UNL     1      -9.351  42.988 -27.586  1.00  0.00     0.167 HD
ENDBRANCH  34  36
ENDBRANCH   7  34
TORSDOF 5
ENDMDL
MODEL 7
REMARK minimizedAffinity -6.65673685
REMARK CNNscore 0.353106797
REMARK CNNaffinity 5.61957932
REMARK  5 active torsions:
REMARK  status: ('A' for Active; 'I' for Inactive)
REMARK    1  A    between atoms: C2_2  and  C4_4 
REMARK    2  A    between atoms: C7_7  and  C8_8 
REMARK    3  A    between atoms: C8_8  and  O2_10 
REMARK    4  A    between atoms: C11_13  and  C12_14 
REMARK    5  A    between atoms: C12_14  and  O4_16 
ROOT
HETATM    1  C4  UNL     1     -13.890  43.308 -24.808  1.00  0.00     0.019 C 
HETATM    2  C5  UNL     1     -15.189  42.719 -25.361  1.00  0.00     0.011 C 
HETATM    3  C6  UNL     1     -16.142  43.905 -25.301  1.00  0.00     0.021 C 
HETATM    4  C7  UNL     1     -15.312  45.107 -25.808  1.00  0.00     0.050 C 
HETATM    5  C9  UNL     1     -15.501  45.253 -27.327  1.00  0.00     0.022 C 
HETATM    6  C10 UNL     1     -14.430  46.098 -28.012  1.00  0.00     0.023 C 
HETATM    7  C11 UNL     1     -12.973  45.634 -27.755  1.00  0.00     0.057 C 
HETATM    8  C13 UNL     1     -12.726  45.421 -26.222  1.00  0.00     0.011 C 
HETATM    9  C14 UNL     1     -11.297  44.936 -25.947  1.00  0.00     0.007 C 
HETATM   10  C15 UNL     1     -10.217  45.856 -26.534  1.00  0.00     0.006 C 
HETATM   11  C16 UNL     1     -10.434  46.177 -28.033  1.00  0.00     0.003 C 
HETATM   12  C17 UNL     1      -9.237  46.955 -28.739  1.00  0.00    -0.035 C 
HETATM   13  C18 UNL     1      -8.947  48.313 -28.057  1.00  0.00     0.016 C 
HETATM   14  C19 UNL     1      -7.948  46.083 -28.635  1.00  0.00     0.017 C 
HETATM   15  C20 UNL     1      -6.781  46.573 -29.481  1.00  0.00     0.080 C 
HETATM   16  C21 UNL     1      -7.174  46.763 -30.924  1.00  0.00     0.135 C 
HETATM   17  O5  UNL     1      -6.422  46.363 -31.816  1.00  0.00    -0.297 OA
HETATM   18  C22 UNL     1      -8.452  47.565 -31.221  1.00  0.00     0.017 C 
HETATM   19  C23 UNL     1      -8.119  49.060 -31.115  1.00  0.00     0.023 C 
HETATM   20  C24 UNL     1      -8.842  47.288 -32.696  1.00  0.00     0.023 C 
HETATM   21  C25 UNL     1      -9.597  47.071 -30.269  1.00  0.00     0.009 C 
HETATM   22  C26 UNL     1     -10.937  47.804 -30.472  1.00  0.00     0.007 C 
HETATM   23  C27 UNL     1     -12.102  47.072 -29.799  1.00  0.00     0.011 C 
HETATM   24  C28 UNL     1     -11.889  46.746 -28.290  1.00  0.00    -0.022 C 
HETATM   25  C29 UNL     1     -12.083  48.112 -27.551  1.00  0.00     0.017 C 
HETATM   26  C30 UNL     1     -13.847  44.781 -25.343  1.00  0.00     0.018 C 
ENDROOT
BRANCH   4  27
HETATM   27  C8  UNL     1     -15.797  46.403 -25.159  1.00  0.00     0.149 C 
HETATM   28  O1  UNL     1     -16.948  46.680 -24.862  1.00  0.00    -0.649 OA
BRANCH  27  29
HETATM   29  O2  UNL     1     -14.803  47.254 -24.839  1.00  0.00    -0.776 OA
HETATM   30  H11 UNL     1     -15.262  48.004 -24.405  1.00  0.00     0.167 HD
ENDBRANCH  27  29
ENDBRANCH   4  27
BRANCH   1  31
HETATM   31  C2  UNL     1     -12.686  42.387 -24.745  1.00  0.00    -0.088 C 
HETATM   32  C1  UNL     1     -12.413  41.562 -25.775  1.00  0.00     0.014 C 
HETATM   33  C3  UNL     1     -11.721  42.468 -23.595  1.00  0.00     0.043 C 
ENDBRANCH   1  31
BRANCH   7  34
HETATM   34  C12 UNL     1     -12.796  44.303 -28.531  1.00  0.00     0.149 C 
HETATM   35  O3  UNL     1     -13.410  43.257 -28.400  1.00  0.00    -0.649 OA
BRANCH  34  36
HETATM   36  O4  UNL     1     -11.797  44.318 -29.426  1.00  0.00    -0.776 OA
HETATM   37  H16 UNL     1     -11.806  43.406 -29.786  1.00  0.00     0.167 HD
ENDBRANCH  34  36
ENDBRANCH   7  34
TORSDOF 5
ENDMDL
MODEL 8
REMARK minimizedAffinity -6.61566067
REMARK CNNscore 0.300470173
REMARK CNNaffinity 5.43047142
REMARK  5 active torsions:
REMARK  status: ('A' for Active; 'I' for Inactive)
REMARK    1  A    between atoms: C2_2  and  C4_4 
REMARK    2  A    between atoms: C7_7  and  C8_8 
REMARK    3  A    between atoms: C8_8  and  O2_10 
REMARK    4  A    between atoms: C11_13  and  C12_14 
REMARK    5  A    between atoms: C12_14  and  O4_16 
ROOT
HETATM    1  C4  UNL     1      -7.731  46.126 -24.517  1.00  0.00     0.019 C 
HETATM    2  C5  UNL     1      -7.487  47.612 -24.246  1.00  0.00     0.011 C 
HETATM    3  C6  UNL     1      -7.113  48.142 -25.624  1.00  0.00     0.021 C 
HETATM    4  C7  UNL     1      -8.114  47.468 -26.592  1.00  0.00     0.050 C 
HETATM    5  C9  UNL     1      -9.344  48.375 -26.768  1.00  0.00     0.022 C 
HETATM    6  C10 UNL     1     -10.571  47.662 -27.331  1.00  0.00     0.023 C 
HETATM    7  C11 UNL     1     -11.013  46.406 -26.538  1.00  0.00     0.057 C 
HETATM    8  C13 UNL     1      -9.792  45.457 -26.284  1.00  0.00     0.011 C 
HETATM    9  C14 UNL     1     -10.203  44.218 -25.478  1.00  0.00     0.007 C 
HETATM   10  C15 UNL     1     -11.359  43.433 -26.113  1.00  0.00     0.006 C 
HETATM   11  C16 UNL     1     -12.580  44.318 -26.465  1.00  0.00     0.003 C 
HETATM   12  C17 UNL     1     -13.879  43.524 -26.933  1.00  0.00    -0.035 C 
HETATM   13  C18 UNL     1     -13.610  42.663 -28.189  1.00  0.00     0.016 C 
HETATM   14  C19 UNL     1     -14.318  42.567 -25.783  1.00  0.00     0.017 C 
HETATM   15  C20 UNL     1     -15.686  41.927 -25.977  1.00  0.00     0.080 C 
HETATM   16  C21 UNL     1     -16.755  42.957 -26.243  1.00  0.00     0.135 C 
HETATM   17  O5  UNL     1     -17.843  42.865 -25.670  1.00  0.00    -0.297 OA
HETATM   18  C22 UNL     1     -16.478  44.017 -27.321  1.00  0.00     0.017 C 
HETATM   19  C23 UNL     1     -16.742  43.388 -28.697  1.00  0.00     0.023 C 
HETATM   20  C24 UNL     1     -17.516  45.153 -27.133  1.00  0.00     0.023 C 
HETATM   21  C25 UNL     1     -15.029  44.585 -27.118  1.00  0.00     0.009 C 
HETATM   22  C26 UNL     1     -14.633  45.664 -28.146  1.00  0.00     0.007 C 
HETATM   23  C27 UNL     1     -13.384  46.438 -27.714  1.00  0.00     0.011 C 
HETATM   24  C28 UNL     1     -12.152  45.553 -27.359  1.00  0.00    -0.022 C 
HETATM   25  C29 UNL     1     -11.594  45.065 -28.738  1.00  0.00     0.017 C 
HETATM   26  C30 UNL     1      -8.399  46.071 -25.934  1.00  0.00     0.018 C 
ENDROOT
BRANCH   4  27
HETATM   27  C8  UNL     1      -7.480  47.283 -27.971  1.00  0.00     0.149 C 
HETATM   28  O1  UNL     1      -7.433  46.247 -28.615  1.00  0.00    -0.649 OA
BRANCH  27  29
HETATM   29  O2  UNL     1      -7.011  48.425 -28.510  1.00  0.00    -0.776 OA
HETATM   30  H11 UNL     1      -6.679  48.153 -29.391  1.00  0.00     0.167 HD
ENDBRANCH  27  29
ENDBRANCH   4  27
BRANCH   1  31
HETATM   31  C2  UNL     1      -8.157  45.271 -23.338  1.00  0.00    -0.088 C 
HETATM   32  C1  UNL     1      -8.921  45.799 -22.362  1.00  0.00     0.014 C 
HETATM   33  C3  UNL     1      -7.837  43.802 -23.304  1.00  0.00     0.043 C 
ENDBRANCH   1  31
BRANCH   7  34
HETATM   34  C12 UNL     1     -11.598  46.919 -25.196  1.00  0.00     0.149 C 
HETATM   35  O3  UNL     1     -11.102  46.876 -24.083  1.00  0.00    -0.649 OA
BRANCH  34  36
HETATM   36  O4  UNL     1     -12.833  47.431 -25.297  1.00  0.00    -0.776 OA
HETATM   37  H16 UNL     1     -13.054  47.665 -24.370  1.00  0.00     0.167 HD
ENDBRANCH  34  36
ENDBRANCH   7  34
TORSDOF 5
ENDMDL
MODEL 9
REMARK minimizedAffinity -6.46143389
REMARK CNNscore 0.267327398
REMARK CNNaffinity 5.7824688
REMARK  5 active torsions:
REMARK  status: ('A' for Active; 'I' for Inactive)
REMARK    1  A    between atoms: C2_2  and  C4_4 
REMARK    2  A    between atoms: C7_7  and  C8_8 
REMARK    3  A    between atoms: C8_8  and  O2_10 
REMARK    4  A    between atoms: C11_13  and  C12_14 
REMARK    5  A    between atoms: C12_14  and  O4_16 
ROOT
HETATM    1  C4  UNL     1     -11.484  45.724 -23.778  1.00  0.00     0.019 C 
HETATM    2  C5  UNL     1     -12.196  44.380 -23.610  1.00  0.00     0.011 C 
HETATM    3  C6  UNL     1     -13.518  44.615 -24.329  1.00  0.00     0.021 C 
HETATM    4  C7  UNL     1     -13.137  45.374 -25.622  1.00  0.00     0.050 C 
HETATM    5  C9  UNL     1     -12.899  44.362 -26.756  1.00  0.00     0.022 C 
HETATM    6  C10 UNL     1     -12.111  44.922 -27.938  1.00  0.00     0.023 C 
HETATM    7  C11 UNL     1     -10.745  45.554 -27.567  1.00  0.00     0.057 C 
HETATM    8  C13 UNL     1     -10.910  46.566 -26.382  1.00  0.00     0.011 C 
HETATM    9  C14 UNL     1      -9.565  47.185 -25.981  1.00  0.00     0.007 C 
HETATM   10  C15 UNL     1      -8.831  47.856 -27.151  1.00  0.00     0.006 C 
HETATM   11  C16 UNL     1      -8.694  46.942 -28.393  1.00  0.00     0.003 C 
HETATM   12  C17 UNL     1      -7.764  47.513 -29.554  1.00  0.00    -0.035 C 
HETATM   13  C18 UNL     1      -8.272  48.873 -30.087  1.00  0.00     0.016 C 
HETATM   14  C19 UNL     1      -6.330  47.731 -28.980  1.00  0.00     0.017 C 
HETATM   15  C20 UNL     1      -5.267  48.032 -30.027  1.00  0.00     0.080 C 
HETATM   16  C21 UNL     1      -5.244  46.994 -31.120  1.00  0.00     0.135 C 
HETATM   17  O5  UNL     1      -4.164  46.555 -31.519  1.00  0.00    -0.297 OA
HETATM   18  C22 UNL     1      -6.582  46.615 -31.777  1.00  0.00     0.017 C 
HETATM   19  C23 UNL     1      -6.935  47.694 -32.810  1.00  0.00     0.023 C 
HETATM   20  C24 UNL     1      -6.358  45.293 -32.557  1.00  0.00     0.023 C 
HETATM   21  C25 UNL     1      -7.657  46.392 -30.656  1.00  0.00     0.009 C 
HETATM   22  C26 UNL     1      -9.048  46.005 -31.194  1.00  0.00     0.007 C 
HETATM   23  C27 UNL     1      -9.959  45.455 -30.092  1.00  0.00     0.011 C 
HETATM   24  C28 UNL     1     -10.100  46.370 -28.839  1.00  0.00    -0.022 C 
HETATM   25  C29 UNL     1     -11.047  47.531 -29.292  1.00  0.00     0.017 C 
HETATM   26  C30 UNL     1     -11.883  46.225 -25.209  1.00  0.00     0.018 C 
ENDROOT
BRANCH   4  27
HETATM   27  C8  UNL     1     -14.279  46.291 -26.059  1.00  0.00     0.149 C 
HETATM   28  O1  UNL     1     -15.026  46.119 -27.009  1.00  0.00    -0.649 OA
BRANCH  27  29
HETATM   29  O2  UNL     1     -14.479  47.338 -25.235  1.00  0.00    -0.776 OA
HETATM   30  H11 UNL     1     -15.253  47.799 -25.621  1.00  0.00     0.167 HD
ENDBRANCH  27  29
ENDBRANCH   4  27
BRANCH   1  31
HETATM   31  C2  UNL     1     -10.091  45.845 -23.189  1.00  0.00    -0.088 C 
HETATM   32  C1  UNL     1      -9.724  46.974 -22.551  1.00  0.00     0.014 C 
HETATM   33  C3  UNL     1      -9.151  44.672 -23.202  1.00  0.00     0.043 C 
ENDBRANCH   1  31
BRANCH   7  34
HETATM   34  C12 UNL     1      -9.816  44.380 -27.162  1.00  0.00     0.149 C 
HETATM   35  O3  UNL     1      -8.905  44.375 -26.350  1.00  0.00    -0.649 OA
BRANCH  34  36
HETATM   36  O4  UNL     1     -10.035  43.247 -27.844  1.00  0.00    -0.776 OA
HETATM   37  H16 UNL     1      -9.350  42.639 -27.493  1.00  0.00     0.167 HD
ENDBRANCH  34  36
ENDBRANCH   7  34
TORSDOF 5
ENDMDL
