MODEL 1
REMARK minimizedAffinity -3.64752889
REMARK  3 active torsions:
REMARK  status: ('A' for Active; 'I' for Inactive)
REMARK    1  A    between atoms: N1_2  and  C4_5 
REMARK    2  A    between atoms: C4_5  and  C5_6 
REMARK    3  A    between atoms: C5_6  and  O2_8 
ROOT
HETATM    1  C4  UNL     1       3.835   5.550   9.917  1.00  0.00     0.345 C 
ENDROOT
BRANCH   1   2
HETATM    2  N1  UNL     1       2.857   6.581   9.258  1.00  0.00    -0.069 N 
HETATM    3  C1  UNL     1       2.561   6.189   7.815  1.00  0.00     0.272 C 
HETATM    4  C2  UNL     1       3.455   7.983   9.293  1.00  0.00     0.272 C 
HETATM    5  C3  UNL     1       1.556   6.576  10.051  1.00  0.00     0.272 C 
ENDBRANCH   1   2
BRANCH   1   6
HETATM    6  C5  UNL     1       3.836   4.133   9.348  1.00  0.00     0.166 C 
HETATM    7  O1  UNL     1       4.549   3.705   8.457  1.00  0.00    -0.649 OA
BRANCH   6   8
HETATM    8  O2  UNL     1       2.926   3.345   9.951  1.00  0.00    -0.775 OA
HETATM    9  H12 UNL     1       2.996   2.461   9.525  1.00  0.00     0.167 HD
ENDBRANCH   6   8
ENDBRANCH   1   6
TORSDOF 3
ENDMDL
MODEL 2
REMARK minimizedAffinity -3.6297152
REMARK  3 active torsions:
REMARK  status: ('A' for Active; 'I' for Inactive)
REMARK    1  A    between atoms: N1_2  and  C4_5 
REMARK    2  A    between atoms: C4_5  and  C5_6 
REMARK    3  A    between atoms: C5_6  and  O2_8 
ROOT
HETATM    1  C4  UNL     1      -7.502 -11.602  23.610  1.00  0.00     0.345 C 
ENDROOT
BRANCH   1   2
HETATM    2  N1  UNL     1      -8.344 -12.896  23.878  1.00  0.00    -0.069 N 
HETATM    3  C1  UNL     1      -7.431 -14.063  24.240  1.00  0.00     0.272 C 
HETATM    4  C2  UNL     1      -9.171 -13.259  22.650  1.00  0.00     0.272 C 
HETATM    5  C3  UNL     1      -9.283 -12.620  25.045  1.00  0.00     0.272 C 
ENDBRANCH   1   2
BRANCH   1   6
HETATM    6  C5  UNL     1      -7.970 -10.692  22.478  1.00  0.00     0.166 C 
HETATM    7  O1  UNL     1      -7.542 -10.666  21.337  1.00  0.00    -0.649 OA
BRANCH   6   8
HETATM    8  O2  UNL     1      -8.959  -9.866  22.869  1.00  0.00    -0.775 OA
HETATM    9  H12 UNL     1      -9.196  -9.321  22.084  1.00  0.00     0.167 HD
ENDBRANCH   6   8
ENDBRANCH   1   6
TORSDOF 3
ENDMDL
MODEL 3
REMARK minimizedAffinity -3.57718229
REMARK  3 active torsions:
REMARK  status: ('A' for Active; 'I' for Inactive)
REMARK    1  A    between atoms: N1_2  and  C4_5 
REMARK    2  A    between atoms: C4_5  and  C5_6 
REMARK    3  A    between atoms: C5_6  and  O2_8 
ROOT
HETATM    1  C4  UNL     1      -6.997  -8.968  11.165  1.00  0.00     0.345 C 
ENDROOT
BRANCH   1   2
HETATM    2  N1  UNL     1      -5.902 -10.033  10.821  1.00  0.00    -0.069 N 
HETATM    3  C1  UNL     1      -6.066 -11.271  11.696  1.00  0.00     0.272 C 
HETATM    4  C2  UNL     1      -4.507  -9.451  11.021  1.00  0.00     0.272 C 
HETATM    5  C3  UNL     1      -6.068 -10.432   9.360  1.00  0.00     0.272 C 
ENDBRANCH   1   2
BRANCH   1   6
HETATM    6  C5  UNL     1      -6.628  -7.900  12.193  1.00  0.00     0.166 C 
HETATM    7  O1  UNL     1      -6.523  -6.703  11.995  1.00  0.00    -0.649 OA
BRANCH   6   8
HETATM    8  O2  UNL     1      -6.413  -8.426  13.413  1.00  0.00    -0.775 OA
HETATM    9  H12 UNL     1      -6.182  -7.674  14.005  1.00  0.00     0.167 HD
ENDBRANCH   6   8
ENDBRANCH   1   6
TORSDOF 3
ENDMDL
MODEL 4
REMARK minimizedAffinity -3.56166959
REMARK  3 active torsions:
REMARK  status: ('A' for Active; 'I' for Inactive)
REMARK    1  A    between atoms: N1_2  and  C4_5 
REMARK    2  A    between atoms: C4_5  and  C5_6 
REMARK    3  A    between atoms: C5_6  and  O2_8 
ROOT
HETATM    1  C4  UNL     1       3.806   5.803  10.157  1.00  0.00     0.345 C 
ENDROOT
BRANCH   1   2
HETATM    2  N1  UNL     1       2.820   7.015  10.053  1.00  0.00    -0.069 N 
HETATM    3  C1  UNL     1       1.378   6.526   9.967  1.00  0.00     0.272 C 
HETATM    4  C2  UNL     1       3.143   7.864   8.829  1.00  0.00     0.272 C 
HETATM    5  C3  UNL     1       2.981   7.869  11.305  1.00  0.00     0.272 C 
ENDBRANCH   1   2
BRANCH   1   6
HETATM    6  C5  UNL     1       3.506   4.587   9.284  1.00  0.00     0.166 C 
HETATM    7  O1  UNL     1       3.584   4.524   8.070  1.00  0.00    -0.649 OA
BRANCH   6   8
HETATM    8  O2  UNL     1       3.122   3.523  10.013  1.00  0.00    -0.775 OA
HETATM    9  H12 UNL     1       2.950   2.793   9.375  1.00  0.00     0.167 HD
ENDBRANCH   6   8
ENDBRANCH   1   6
TORSDOF 3
ENDMDL
MODEL 5
REMARK minimizedAffinity -3.55180502
REMARK  3 active torsions:
REMARK  status: ('A' for Active; 'I' for Inactive)
REMARK    1  A    between atoms: N1_2  and  C4_5 
REMARK    2  A    between atoms: C4_5  and  C5_6 
REMARK    3  A    between atoms: C5_6  and  O2_8 
ROOT
HETATM    1  C4  UNL     1      -2.595   1.580  11.486  1.00  0.00     0.345 C 
ENDROOT
BRANCH   1   2
HETATM    2  N1  UNL     1      -3.489   2.862  11.390  1.00  0.00    -0.069 N 
HETATM    3  C1  UNL     1      -4.966   2.484  11.369  1.00  0.00     0.272 C 
HETATM    4  C2  UNL     1      -3.150   3.659  10.136  1.00  0.00     0.272 C 
HETATM    5  C3  UNL     1      -3.215   3.726  12.616  1.00  0.00     0.272 C 
ENDBRANCH   1   2
BRANCH   1   6
HETATM    6  C5  UNL     1      -1.191   1.668  10.893  1.00  0.00     0.166 C 
HETATM    7  O1  UNL     1      -0.238   2.267  11.359  1.00  0.00    -0.649 OA
BRANCH   6   8
HETATM    8  O2  UNL     1      -1.086   0.984   9.738  1.00  0.00    -0.775 OA
HETATM    9  H12 UNL     1      -0.158   1.096   9.430  1.00  0.00     0.167 HD
ENDBRANCH   6   8
ENDBRANCH   1   6
TORSDOF 3
ENDMDL
MODEL 6
REMARK minimizedAffinity -3.43394446
REMARK  3 active torsions:
REMARK  status: ('A' for Active; 'I' for Inactive)
REMARK    1  A    between atoms: N1_2  and  C4_5 
REMARK    2  A    between atoms: C4_5  and  C5_6 
REMARK    3  A    between atoms: C5_6  and  O2_8 
ROOT
HETATM    1  C4  UNL     1      -7.379   3.686  13.972  1.00  0.00     0.345 C 
ENDROOT
BRANCH   1   2
HETATM    2  N1  UNL     1      -7.435   5.228  13.702  1.00  0.00    -0.069 N 
HETATM    3  C1  UNL     1      -6.039   5.772  13.420  1.00  0.00     0.272 C 
HETATM    4  C2  UNL     1      -8.034   5.959  14.898  1.00  0.00     0.272 C 
HETATM    5  C3  UNL     1      -8.316   5.466  12.482  1.00  0.00     0.272 C 
ENDBRANCH   1   2
BRANCH   1   6
HETATM    6  C5  UNL     1      -7.232   2.774  12.756  1.00  0.00     0.166 C 
HETATM    7  O1  UNL     1      -6.287   2.730  11.988  1.00  0.00    -0.649 OA
BRANCH   6   8
HETATM    8  O2  UNL     1      -8.301   1.973  12.593  1.00  0.00    -0.775 OA
HETATM    9  H12 UNL     1      -8.121   1.426  11.794  1.00  0.00     0.167 HD
ENDBRANCH   6   8
ENDBRANCH   1   6
TORSDOF 3
ENDMDL
MODEL 7
REMARK minimizedAffinity -3.42927337
REMARK  3 active torsions:
REMARK  status: ('A' for Active; 'I' for Inactive)
REMARK    1  A    between atoms: N1_2  and  C4_5 
REMARK    2  A    between atoms: C4_5  and  C5_6 
REMARK    3  A    between atoms: C5_6  and  O2_8 
ROOT
HETATM    1  C4  UNL     1       2.889   5.775  10.546  1.00  0.00     0.345 C 
ENDROOT
BRANCH   1   2
HETATM    2  N1  UNL     1       3.970   6.857  10.886  1.00  0.00    -0.069 N 
HETATM    3  C1  UNL     1       5.359   6.230  10.930  1.00  0.00     0.272 C 
HETATM    4  C2  UNL     1       3.665   7.515  12.226  1.00  0.00     0.272 C 
HETATM    5  C3  UNL     1       3.939   7.919   9.793  1.00  0.00     0.272 C 
ENDBRANCH   1   2
BRANCH   1   6
HETATM    6  C5  UNL     1       3.247   4.750   9.473  1.00  0.00     0.166 C 
HETATM    7  O1  UNL     1       3.475   4.974   8.297  1.00  0.00    -0.649 OA
BRANCH   6   8
HETATM    8  O2  UNL     1       3.293   3.497   9.964  1.00  0.00    -0.775 OA
HETATM    9  H12 UNL     1       3.528   2.909   9.210  1.00  0.00     0.167 HD
ENDBRANCH   6   8
ENDBRANCH   1   6
TORSDOF 3
ENDMDL
MODEL 8
REMARK minimizedAffinity -3.42445016
REMARK  3 active torsions:
REMARK  status: ('A' for Active; 'I' for Inactive)
REMARK    1  A    between atoms: N1_2  and  C4_5 
REMARK    2  A    between atoms: C4_5  and  C5_6 
REMARK    3  A    between atoms: C5_6  and  O2_8 
ROOT
HETATM    1  C4  UNL     1      -7.454   3.867  13.976  1.00  0.00     0.345 C 
ENDROOT
BRANCH   1   2
HETATM    2  N1  UNL     1      -7.611   5.384  13.621  1.00  0.00    -0.069 N 
HETATM    3  C1  UNL     1      -8.306   6.129  14.755  1.00  0.00     0.272 C 
HETATM    4  C2  UNL     1      -8.412   5.553  12.335  1.00  0.00     0.272 C 
HETATM    5  C3  UNL     1      -6.220   5.973  13.420  1.00  0.00     0.272 C 
ENDBRANCH   1   2
BRANCH   1   6
HETATM    6  C5  UNL     1      -7.263   2.898  12.811  1.00  0.00     0.166 C 
HETATM    7  O1  UNL     1      -6.296   2.827  12.073  1.00  0.00    -0.649 OA
BRANCH   6   8
HETATM    8  O2  UNL     1      -8.319   2.078  12.656  1.00  0.00    -0.775 OA
HETATM    9  H12 UNL     1      -8.112   1.496  11.891  1.00  0.00     0.167 HD
ENDBRANCH   6   8
ENDBRANCH   1   6
TORSDOF 3
ENDMDL
MODEL 9
REMARK minimizedAffinity -3.39473128
REMARK  3 active torsions:
REMARK  status: ('A' for Active; 'I' for Inactive)
REMARK    1  A    between atoms: N1_2  and  C4_5 
REMARK    2  A    between atoms: C4_5  and  C5_6 
REMARK    3  A    between atoms: C5_6  and  O2_8 
ROOT
HETATM    1  C4  UNL     1      -5.841 -10.167  11.203  1.00  0.00     0.345 C 
ENDROOT
BRANCH   1   2
HETATM    2  N1  UNL     1      -6.950  -9.073  11.039  1.00  0.00    -0.069 N 
HETATM    3  C1  UNL     1      -6.703  -7.913  11.997  1.00  0.00     0.272 C 
HETATM    4  C2  UNL     1      -8.329  -9.666  11.304  1.00  0.00     0.272 C 
HETATM    5  C3  UNL     1      -6.900  -8.555   9.608  1.00  0.00     0.272 C 
ENDBRANCH   1   2
BRANCH   1   6
HETATM    6  C5  UNL     1      -4.440  -9.812  10.712  1.00  0.00     0.166 C 
HETATM    7  O1  UNL     1      -4.011  -9.937   9.578  1.00  0.00    -0.649 OA
BRANCH   6   8
HETATM    8  O2  UNL     1      -3.667  -9.318  11.698  1.00  0.00    -0.775 OA
HETATM    9  H12 UNL     1      -2.792  -9.120  11.294  1.00  0.00     0.167 HD
ENDBRANCH   6   8
ENDBRANCH   1   6
TORSDOF 3
ENDMDL
