MODEL 1
REMARK minimizedAffinity -8.78000069
REMARK  14 active torsions:
REMARK  status: ('A' for Active; 'I' for Inactive)
REMARK    1  A    between atoms: C4_4  and  C5_5 
REMARK    2  A    between atoms: C5_5  and  C6_6 
REMARK    3  A    between atoms: C6_6  and  C7_7 
REMARK    4  A    between atoms: C9_10  and  C10_11 
REMARK    5  A    between atoms: C12_13  and  C13_14 
REMARK    6  A    between atoms: C13_14  and  C14_15 
REMARK    7  A    between atoms: C14_15  and  C15_16 
REMARK    8  A    between atoms: C17_18  and  C18_19 
REMARK    9  A    between atoms: C18_19  and  C19_20 
REMARK   10  A    between atoms: C19_20  and  C20_21 
REMARK   11  A    between atoms: C20_21  and  O2_22 
REMARK   12  A    between atoms: C22_24  and  C24_26 
REMARK   13  A    between atoms: C27_30  and  O4_32 
REMARK   14  A    between atoms: C30_34  and  O5_35 
ROOT
HETATM    1  C15 UNL     1       0.145   7.018  13.210  1.00  0.00    -0.006 C 
HETATM    2  C16 UNL     1       0.307   5.713  14.046  1.00  0.00     0.019 C 
HETATM    3  C17 UNL     1      -0.154   6.696  11.653  1.00  0.00     0.026 C 
HETATM    4  C21 UNL     1       1.091   6.845  10.765  1.00  0.00    -0.066 C 
HETATM    5  C22 UNL     1       1.141   7.428   9.539  1.00  0.00    -0.021 C 
HETATM    6  C23 UNL     1       2.390   7.591   8.714  1.00  0.00     0.052 C 
HETATM    7  C25 UNL     1       2.330   6.322  11.444  1.00  0.00     0.038 C 
HETATM    8  C26 UNL     1       2.678   7.174  12.663  1.00  0.00     0.042 C 
HETATM    9  C27 UNL     1       1.468   7.882  13.334  1.00  0.00     0.062 C 
HETATM   10  C28 UNL     1       1.317   9.311  12.774  1.00  0.00     0.046 C 
ENDROOT
BRANCH   1  11
HETATM   11  C14 UNL     1      -1.132   7.759  13.767  1.00  0.00     0.016 C 
BRANCH  11  12
HETATM   12  C13 UNL     1      -2.417   7.694  12.926  1.00  0.00     0.028 C 
BRANCH  12  13
HETATM   13  C12 UNL     1      -3.490   6.891  13.625  1.00  0.00    -0.022 C 
HETATM   14  C10 UNL     1      -4.545   7.345  14.333  1.00  0.00    -0.059 C 
HETATM   15  C11 UNL     1      -4.858   8.810  14.521  1.00  0.00     0.046 C 
BRANCH  14  16
HETATM   16  C9  UNL     1      -5.582   6.428  14.964  1.00  0.00     0.153 C 
HETATM   17  O1  UNL     1      -6.139   5.555  13.958  1.00  0.00    -0.368 OA
HETATM   18  C7  UNL     1      -7.517   5.264  14.292  1.00  0.00     0.084 C 
HETATM   19  C8  UNL     1      -8.397   5.899  13.210  1.00  0.00     0.049 C 
HETATM   20  C30 UNL     1      -7.746   5.894  15.685  1.00  0.00     0.155 C 
HETATM   21  C29 UNL     1      -6.774   7.052  15.678  1.00  0.00     0.071 C 
BRANCH  18  22
HETATM   22  C6  UNL     1      -7.691   3.732  14.377  1.00  0.00     0.044 C 
BRANCH  22  23
HETATM   23  C5  UNL     1      -7.576   2.963  13.050  1.00  0.00     0.030 C 
BRANCH  23  24
HETATM   24  C4  UNL     1      -6.333   3.305  12.271  1.00  0.00    -0.025 C 
HETATM   25  C2  UNL     1      -5.641   2.522  11.421  1.00  0.00    -0.091 C 
HETATM   26  C1  UNL     1      -4.411   3.049  10.726  1.00  0.00     0.042 C 
HETATM   27  C3  UNL     1      -5.981   1.102  11.065  1.00  0.00     0.042 C 
ENDBRANCH  23  24
ENDBRANCH  22  23
ENDBRANCH  18  22
BRANCH  20  28
HETATM   28  O5  UNL     1      -9.081   6.306  15.920  1.00  0.00    -0.392 OA
HETATM   29  H50 UNL     1      -9.094   6.802  16.758  1.00  0.00     0.210 HD
ENDBRANCH  20  28
ENDBRANCH  14  16
ENDBRANCH  12  13
ENDBRANCH  11  12
ENDBRANCH   1  11
BRANCH   3  30
HETATM   30  C18 UNL     1      -0.876   5.333  11.446  1.00  0.00     0.012 C 
BRANCH  30  31
HETATM   31  C19 UNL     1       0.029   4.097  11.380  1.00  0.00     0.027 C 
BRANCH  31  32
HETATM   32  C20 UNL     1      -0.721   2.783  11.568  1.00  0.00     0.164 C 
BRANCH  32  33
HETATM   33  O2  UNL     1      -0.002   1.720  10.952  1.00  0.00    -0.401 OA
HETATM   34  H34 UNL     1       0.082   1.938  10.007  1.00  0.00     0.209 HD
ENDBRANCH  32  33
ENDBRANCH  31  32
ENDBRANCH  30  31
ENDBRANCH   3  30
BRANCH   9  35
HETATM   35  O4  UNL     1       1.825   8.088  14.711  1.00  0.00    -0.389 OA
HETATM   36  H46 UNL     1       2.191   7.267  15.074  1.00  0.00     0.210 HD
ENDBRANCH   9  35
BRANCH   5  37
HETATM   37  C24 UNL     1      -0.057   8.003   8.846  1.00  0.00     0.265 C 
HETATM   38  O3  UNL     1      -0.337   9.195   8.817  1.00  0.00    -0.302 OA
ENDBRANCH   5  37
TORSDOF 14
ENDMDL
MODEL 2
REMARK minimizedAffinity -8.56183338
REMARK  14 active torsions:
REMARK  status: ('A' for Active; 'I' for Inactive)
REMARK    1  A    between atoms: C4_4  and  C5_5 
REMARK    2  A    between atoms: C5_5  and  C6_6 
REMARK    3  A    between atoms: C6_6  and  C7_7 
REMARK    4  A    between atoms: C9_10  and  C10_11 
REMARK    5  A    between atoms: C12_13  and  C13_14 
REMARK    6  A    between atoms: C13_14  and  C14_15 
REMARK    7  A    between atoms: C14_15  and  C15_16 
REMARK    8  A    between atoms: C17_18  and  C18_19 
REMARK    9  A    between atoms: C18_19  and  C19_20 
REMARK   10  A    between atoms: C19_20  and  C20_21 
REMARK   11  A    between atoms: C20_21  and  O2_22 
REMARK   12  A    between atoms: C22_24  and  C24_26 
REMARK   13  A    between atoms: C27_30  and  O4_32 
REMARK   14  A    between atoms: C30_34  and  O5_35 
ROOT
HETATM    1  C15 UNL     1       1.751   7.485  11.838  1.00  0.00    -0.006 C 
HETATM    2  C16 UNL     1       2.167   8.926  12.261  1.00  0.00     0.019 C 
HETATM    3  C17 UNL     1       2.976   6.690  11.142  1.00  0.00     0.026 C 
HETATM    4  C21 UNL     1       2.871   6.660   9.609  1.00  0.00    -0.066 C 
HETATM    5  C22 UNL     1       3.114   5.592   8.806  1.00  0.00    -0.021 C 
HETATM    6  C23 UNL     1       2.961   5.590   7.308  1.00  0.00     0.052 C 
HETATM    7  C25 UNL     1       2.379   7.971   9.055  1.00  0.00     0.038 C 
HETATM    8  C26 UNL     1       0.938   8.234   9.489  1.00  0.00     0.042 C 
HETATM    9  C27 UNL     1       0.529   7.571  10.834  1.00  0.00     0.062 C 
HETATM   10  C28 UNL     1      -0.137   6.205  10.566  1.00  0.00     0.046 C 
ENDROOT
BRANCH   1  11
HETATM   11  C14 UNL     1       1.408   6.703  13.165  1.00  0.00     0.016 C 
BRANCH  11  12
HETATM   12  C13 UNL     1       0.555   5.430  13.042  1.00  0.00     0.028 C 
BRANCH  12  13
HETATM   13  C12 UNL     1      -0.829   5.640  13.609  1.00  0.00    -0.022 C 
HETATM   14  C10 UNL     1      -1.979   5.027  13.258  1.00  0.00    -0.059 C 
HETATM   15  C11 UNL     1      -2.062   3.948  12.204  1.00  0.00     0.046 C 
BRANCH  14  16
HETATM   16  C9  UNL     1      -3.312   5.304  13.936  1.00  0.00     0.153 C 
HETATM   17  O1  UNL     1      -4.207   5.953  13.008  1.00  0.00    -0.368 OA
HETATM   18  C7  UNL     1      -5.080   6.849  13.736  1.00  0.00     0.084 C 
HETATM   19  C8  UNL     1      -4.739   8.278  13.302  1.00  0.00     0.049 C 
HETATM   20  C30 UNL     1      -4.777   6.596  15.230  1.00  0.00     0.155 C 
HETATM   21  C29 UNL     1      -3.329   6.160  15.195  1.00  0.00     0.071 C 
BRANCH  18  22
HETATM   22  C6  UNL     1      -6.545   6.467  13.430  1.00  0.00     0.044 C 
BRANCH  22  23
HETATM   23  C5  UNL     1      -6.900   4.978  13.567  1.00  0.00     0.030 C 
BRANCH  23  24
HETATM   24  C4  UNL     1      -6.242   4.111  12.525  1.00  0.00    -0.025 C 
HETATM   25  C2  UNL     1      -6.545   2.844  12.183  1.00  0.00    -0.091 C 
HETATM   26  C1  UNL     1      -5.766   2.138  11.102  1.00  0.00     0.042 C 
HETATM   27  C3  UNL     1      -7.637   2.011  12.792  1.00  0.00     0.042 C 
ENDBRANCH  23  24
ENDBRANCH  22  23
ENDBRANCH  18  22
BRANCH  20  28
HETATM   28  O5  UNL     1      -4.985   7.724  16.061  1.00  0.00    -0.392 OA
HETATM   29  H50 UNL     1      -4.644   7.506  16.947  1.00  0.00     0.210 HD
ENDBRANCH  20  28
ENDBRANCH  14  16
ENDBRANCH  12  13
ENDBRANCH  11  12
ENDBRANCH   1  11
BRANCH   3  30
HETATM   30  C18 UNL     1       4.370   7.176  11.636  1.00  0.00     0.012 C 
BRANCH  30  31
HETATM   31  C19 UNL     1       5.358   7.603  10.543  1.00  0.00     0.027 C 
BRANCH  31  32
HETATM   32  C20 UNL     1       6.084   8.906  10.856  1.00  0.00     0.164 C 
BRANCH  32  33
HETATM   33  O2  UNL     1       5.649   9.931   9.969  1.00  0.00    -0.401 OA
HETATM   34  H34 UNL     1       5.847   9.633   9.063  1.00  0.00     0.209 HD
ENDBRANCH  32  33
ENDBRANCH  31  32
ENDBRANCH  30  31
ENDBRANCH   3  30
BRANCH   9  35
HETATM   35  O4  UNL     1      -0.534   8.370  11.380  1.00  0.00    -0.389 OA
HETATM   36  H46 UNL     1      -0.287   9.307  11.336  1.00  0.00     0.210 HD
ENDBRANCH   9  35
BRANCH   5  37
HETATM   37  C24 UNL     1       3.560   4.255   9.318  1.00  0.00     0.265 C 
HETATM   38  O3  UNL     1       4.372   3.532   8.756  1.00  0.00    -0.302 OA
ENDBRANCH   5  37
TORSDOF 14
ENDMDL
MODEL 3
REMARK minimizedAffinity -8.51841068
REMARK  14 active torsions:
REMARK  status: ('A' for Active; 'I' for Inactive)
REMARK    1  A    between atoms: C4_4  and  C5_5 
REMARK    2  A    between atoms: C5_5  and  C6_6 
REMARK    3  A    between atoms: C6_6  and  C7_7 
REMARK    4  A    between atoms: C9_10  and  C10_11 
REMARK    5  A    between atoms: C12_13  and  C13_14 
REMARK    6  A    between atoms: C13_14  and  C14_15 
REMARK    7  A    between atoms: C14_15  and  C15_16 
REMARK    8  A    between atoms: C17_18  and  C18_19 
REMARK    9  A    between atoms: C18_19  and  C19_20 
REMARK   10  A    between atoms: C19_20  and  C20_21 
REMARK   11  A    between atoms: C20_21  and  O2_22 
REMARK   12  A    between atoms: C22_24  and  C24_26 
REMARK   13  A    between atoms: C27_30  and  O4_32 
REMARK   14  A    between atoms: C30_34  and  O5_35 
ROOT
HETATM    1  C15 UNL     1       1.504   7.421  11.861  1.00  0.00    -0.006 C 
HETATM    2  C16 UNL     1       1.667   8.893  12.345  1.00  0.00     0.019 C 
HETATM    3  C17 UNL     1       2.772   6.939  10.979  1.00  0.00     0.026 C 
HETATM    4  C21 UNL     1       2.491   6.969   9.468  1.00  0.00    -0.066 C 
HETATM    5  C22 UNL     1       2.848   6.019   8.565  1.00  0.00    -0.021 C 
HETATM    6  C23 UNL     1       2.519   6.063   7.096  1.00  0.00     0.052 C 
HETATM    7  C25 UNL     1       1.680   8.174   9.071  1.00  0.00     0.038 C 
HETATM    8  C26 UNL     1       0.279   8.105   9.676  1.00  0.00     0.042 C 
HETATM    9  C27 UNL     1       0.178   7.300  11.002  1.00  0.00     0.062 C 
HETATM   10  C28 UNL     1      -0.224   5.841  10.703  1.00  0.00     0.046 C 
ENDROOT
BRANCH   1  11
HETATM   11  C14 UNL     1       1.489   6.516  13.153  1.00  0.00     0.016 C 
BRANCH  11  12
HETATM   12  C13 UNL     1       0.356   5.486  13.288  1.00  0.00     0.028 C 
BRANCH  12  13
HETATM   13  C12 UNL     1      -0.764   6.012  14.156  1.00  0.00    -0.022 C 
HETATM   14  C10 UNL     1      -2.080   5.721  14.091  1.00  0.00    -0.059 C 
HETATM   15  C11 UNL     1      -2.670   4.740  13.107  1.00  0.00     0.046 C 
BRANCH  14  16
HETATM   16  C9  UNL     1      -3.109   6.295  15.053  1.00  0.00     0.153 C 
HETATM   17  O1  UNL     1      -4.428   5.839  14.687  1.00  0.00    -0.368 OA
HETATM   18  C7  UNL     1      -5.396   6.862  15.023  1.00  0.00     0.084 C 
HETATM   19  C8  UNL     1      -5.989   7.383  13.710  1.00  0.00     0.049 C 
HETATM   20  C30 UNL     1      -4.601   7.946  15.785  1.00  0.00     0.155 C 
HETATM   21  C29 UNL     1      -3.217   7.808  15.191  1.00  0.00     0.071 C 
BRANCH  18  22
HETATM   22  C6  UNL     1      -6.463   6.245  15.954  1.00  0.00     0.044 C 
BRANCH  22  23
HETATM   23  C5  UNL     1      -7.728   5.705  15.269  1.00  0.00     0.030 C 
BRANCH  23  24
HETATM   24  C4  UNL     1      -7.529   4.352  14.635  1.00  0.00    -0.025 C 
HETATM   25  C2  UNL     1      -7.752   3.990  13.357  1.00  0.00    -0.091 C 
HETATM   26  C1  UNL     1      -7.487   2.576  12.907  1.00  0.00     0.042 C 
HETATM   27  C3  UNL     1      -8.259   4.892  12.268  1.00  0.00     0.042 C 
ENDBRANCH  23  24
ENDBRANCH  22  23
ENDBRANCH  18  22
BRANCH  20  28
HETATM   28  O5  UNL     1      -5.126   9.254  15.642  1.00  0.00    -0.392 OA
HETATM   29  H50 UNL     1      -4.490   9.874  16.043  1.00  0.00     0.210 HD
ENDBRANCH  20  28
ENDBRANCH  14  16
ENDBRANCH  12  13
ENDBRANCH  11  12
ENDBRANCH   1  11
BRANCH   3  30
HETATM   30  C18 UNL     1       4.087   7.682  11.356  1.00  0.00     0.012 C 
BRANCH  30  31
HETATM   31  C19 UNL     1       5.361   7.185  10.661  1.00  0.00     0.027 C 
BRANCH  31  32
HETATM   32  C20 UNL     1       6.151   6.177  11.488  1.00  0.00     0.164 C 
BRANCH  32  33
HETATM   33  O2  UNL     1       6.485   5.048  10.688  1.00  0.00    -0.401 OA
HETATM   34  H34 UNL     1       5.650   4.659  10.374  1.00  0.00     0.209 HD
ENDBRANCH  32  33
ENDBRANCH  31  32
ENDBRANCH  30  31
ENDBRANCH   3  30
BRANCH   9  35
HETATM   35  O4  UNL     1      -0.952   7.829  11.718  1.00  0.00    -0.389 OA
HETATM   36  H46 UNL     1      -0.906   8.797  11.720  1.00  0.00     0.210 HD
ENDBRANCH   9  35
BRANCH   5  37
HETATM   37  C24 UNL     1       3.614   4.781   8.922  1.00  0.00     0.265 C 
HETATM   38  O3  UNL     1       3.875   3.876   8.140  1.00  0.00    -0.302 OA
ENDBRANCH   5  37
TORSDOF 14
ENDMDL
MODEL 4
REMARK minimizedAffinity -8.46314526
REMARK  14 active torsions:
REMARK  status: ('A' for Active; 'I' for Inactive)
REMARK    1  A    between atoms: C4_4  and  C5_5 
REMARK    2  A    between atoms: C5_5  and  C6_6 
REMARK    3  A    between atoms: C6_6  and  C7_7 
REMARK    4  A    between atoms: C9_10  and  C10_11 
REMARK    5  A    between atoms: C12_13  and  C13_14 
REMARK    6  A    between atoms: C13_14  and  C14_15 
REMARK    7  A    between atoms: C14_15  and  C15_16 
REMARK    8  A    between atoms: C17_18  and  C18_19 
REMARK    9  A    between atoms: C18_19  and  C19_20 
REMARK   10  A    between atoms: C19_20  and  C20_21 
REMARK   11  A    between atoms: C20_21  and  O2_22 
REMARK   12  A    between atoms: C22_24  and  C24_26 
REMARK   13  A    between atoms: C27_30  and  O4_32 
REMARK   14  A    between atoms: C30_34  and  O5_35 
ROOT
HETATM    1  C15 UNL     1       1.402   7.367  12.073  1.00  0.00    -0.006 C 
HETATM    2  C16 UNL     1       1.523   8.823  12.614  1.00  0.00     0.019 C 
HETATM    3  C17 UNL     1       2.673   6.963  11.156  1.00  0.00     0.026 C 
HETATM    4  C21 UNL     1       2.370   7.042   9.652  1.00  0.00    -0.066 C 
HETATM    5  C22 UNL     1       2.745   6.142   8.707  1.00  0.00    -0.021 C 
HETATM    6  C23 UNL     1       2.395   6.233   7.245  1.00  0.00     0.052 C 
HETATM    7  C25 UNL     1       1.514   8.234   9.314  1.00  0.00     0.038 C 
HETATM    8  C26 UNL     1       0.124   8.095   9.933  1.00  0.00     0.042 C 
HETATM    9  C27 UNL     1       0.069   7.236  11.227  1.00  0.00     0.062 C 
HETATM   10  C28 UNL     1      -0.289   5.777  10.875  1.00  0.00     0.046 C 
ENDROOT
BRANCH   1  11
HETATM   11  C14 UNL     1       1.435   6.411  13.328  1.00  0.00     0.016 C 
BRANCH  11  12
HETATM   12  C13 UNL     1       1.153   7.035  14.705  1.00  0.00     0.028 C 
BRANCH  12  13
HETATM   13  C12 UNL     1      -0.324   7.023  15.021  1.00  0.00    -0.022 C 
HETATM   14  C10 UNL     1      -1.059   7.984  15.621  1.00  0.00    -0.059 C 
HETATM   15  C11 UNL     1      -0.494   9.311  16.066  1.00  0.00     0.046 C 
BRANCH  14  16
HETATM   16  C9  UNL     1      -2.558   7.864  15.851  1.00  0.00     0.153 C 
HETATM   17  O1  UNL     1      -3.151   7.064  14.806  1.00  0.00    -0.368 OA
HETATM   18  C7  UNL     1      -4.498   7.530  14.556  1.00  0.00     0.084 C 
HETATM   19  C8  UNL     1      -4.527   8.117  13.141  1.00  0.00     0.049 C 
HETATM   20  C30 UNL     1      -4.775   8.593  15.643  1.00  0.00     0.155 C 
HETATM   21  C29 UNL     1      -3.391   9.138  15.921  1.00  0.00     0.071 C 
BRANCH  18  22
HETATM   22  C6  UNL     1      -5.471   6.343  14.728  1.00  0.00     0.044 C 
BRANCH  22  23
HETATM   23  C5  UNL     1      -6.381   6.035  13.527  1.00  0.00     0.030 C 
BRANCH  23  24
HETATM   24  C4  UNL     1      -5.924   4.842  12.727  1.00  0.00    -0.025 C 
HETATM   25  C2  UNL     1      -6.427   3.592  12.735  1.00  0.00    -0.091 C 
HETATM   26  C1  UNL     1      -5.832   2.525  11.852  1.00  0.00     0.042 C 
HETATM   27  C3  UNL     1      -7.583   3.119  13.570  1.00  0.00     0.042 C 
ENDBRANCH  23  24
ENDBRANCH  22  23
ENDBRANCH  18  22
BRANCH  20  28
HETATM   28  O5  UNL     1      -5.686   9.603  15.245  1.00  0.00    -0.392 OA
HETATM   29  H50 UNL     1      -5.691  10.287  15.939  1.00  0.00     0.210 HD
ENDBRANCH  20  28
ENDBRANCH  14  16
ENDBRANCH  12  13
ENDBRANCH  11  12
ENDBRANCH   1  11
BRANCH   3  30
HETATM   30  C18 UNL     1       3.968   7.733  11.547  1.00  0.00     0.012 C 
BRANCH  30  31
HETATM   31  C19 UNL     1       5.196   7.471  10.666  1.00  0.00     0.027 C 
BRANCH  31  32
HETATM   32  C20 UNL     1       6.287   6.671  11.367  1.00  0.00     0.164 C 
BRANCH  32  33
HETATM   33  O2  UNL     1       6.312   5.339  10.865  1.00  0.00    -0.401 OA
HETATM   34  H34 UNL     1       5.436   4.950  11.032  1.00  0.00     0.209 HD
ENDBRANCH  32  33
ENDBRANCH  31  32
ENDBRANCH  30  31
ENDBRANCH   3  30
BRANCH   9  35
HETATM   35  O4  UNL     1      -1.068   7.697  11.978  1.00  0.00    -0.389 OA
HETATM   36  H46 UNL     1      -1.054   8.666  12.017  1.00  0.00     0.210 HD
ENDBRANCH   9  35
BRANCH   5  37
HETATM   37  C24 UNL     1       3.556   4.917   9.005  1.00  0.00     0.265 C 
HETATM   38  O3  UNL     1       3.689   3.969   8.241  1.00  0.00    -0.302 OA
ENDBRANCH   5  37
TORSDOF 14
ENDMDL
MODEL 5
REMARK minimizedAffinity -8.03452015
REMARK  14 active torsions:
REMARK  status: ('A' for Active; 'I' for Inactive)
REMARK    1  A    between atoms: C4_4  and  C5_5 
REMARK    2  A    between atoms: C5_5  and  C6_6 
REMARK    3  A    between atoms: C6_6  and  C7_7 
REMARK    4  A    between atoms: C9_10  and  C10_11 
REMARK    5  A    between atoms: C12_13  and  C13_14 
REMARK    6  A    between atoms: C13_14  and  C14_15 
REMARK    7  A    between atoms: C14_15  and  C15_16 
REMARK    8  A    between atoms: C17_18  and  C18_19 
REMARK    9  A    between atoms: C18_19  and  C19_20 
REMARK   10  A    between atoms: C19_20  and  C20_21 
REMARK   11  A    between atoms: C20_21  and  O2_22 
REMARK   12  A    between atoms: C22_24  and  C24_26 
REMARK   13  A    between atoms: C27_30  and  O4_32 
REMARK   14  A    between atoms: C30_34  and  O5_35 
ROOT
HETATM    1  C15 UNL     1      -0.468   7.737  14.001  1.00  0.00    -0.006 C 
HETATM    2  C16 UNL     1      -1.310   6.657  14.745  1.00  0.00     0.019 C 
HETATM    3  C17 UNL     1       0.916   7.125  13.427  1.00  0.00     0.026 C 
HETATM    4  C21 UNL     1       2.127   7.468  14.308  1.00  0.00    -0.066 C 
HETATM    5  C22 UNL     1       3.353   7.858  13.873  1.00  0.00    -0.021 C 
HETATM    6  C23 UNL     1       4.507   8.225  14.769  1.00  0.00     0.052 C 
HETATM    7  C25 UNL     1       1.793   7.396  15.775  1.00  0.00     0.038 C 
HETATM    8  C26 UNL     1       0.782   8.478  16.152  1.00  0.00     0.042 C 
HETATM    9  C27 UNL     1      -0.154   8.929  14.996  1.00  0.00     0.062 C 
HETATM   10  C28 UNL     1       0.435  10.170  14.295  1.00  0.00     0.046 C 
ENDROOT
BRANCH   1  11
HETATM   11  C14 UNL     1      -1.312   8.186  12.746  1.00  0.00     0.016 C 
BRANCH  11  12
HETATM   12  C13 UNL     1      -2.742   8.695  12.994  1.00  0.00     0.028 C 
BRANCH  12  13
HETATM   13  C12 UNL     1      -3.694   7.550  13.252  1.00  0.00    -0.022 C 
HETATM   14  C10 UNL     1      -4.774   7.528  14.062  1.00  0.00    -0.059 C 
HETATM   15  C11 UNL     1      -5.248   8.722  14.855  1.00  0.00     0.046 C 
BRANCH  14  16
HETATM   16  C9  UNL     1      -5.679   6.315  14.209  1.00  0.00     0.153 C 
HETATM   17  O1  UNL     1      -6.761   6.393  13.257  1.00  0.00    -0.368 OA
HETATM   18  C7  UNL     1      -7.939   5.769  13.823  1.00  0.00     0.084 C 
HETATM   19  C8  UNL     1      -8.988   6.867  14.028  1.00  0.00     0.049 C 
HETATM   20  C30 UNL     1      -7.473   5.141  15.155  1.00  0.00     0.155 C 
HETATM   21  C29 UNL     1      -6.334   6.050  15.559  1.00  0.00     0.071 C 
BRANCH  18  22
HETATM   22  C6  UNL     1      -8.419   4.659  12.862  1.00  0.00     0.044 C 
BRANCH  22  23
HETATM   23  C5  UNL     1      -7.622   3.345  12.893  1.00  0.00     0.030 C 
BRANCH  23  24
HETATM   24  C4  UNL     1      -6.243   3.472  12.301  1.00  0.00    -0.025 C 
HETATM   25  C2  UNL     1      -5.555   2.560  11.587  1.00  0.00    -0.091 C 
HETATM   26  C1  UNL     1      -4.175   2.877  11.070  1.00  0.00     0.042 C 
HETATM   27  C3  UNL     1      -6.042   1.185  11.224  1.00  0.00     0.042 C 
ENDBRANCH  23  24
ENDBRANCH  22  23
ENDBRANCH  18  22
BRANCH  20  28
HETATM   28  O5  UNL     1      -8.485   5.065  16.144  1.00  0.00    -0.392 OA
HETATM   29  H50 UNL     1      -8.065   4.782  16.976  1.00  0.00     0.210 HD
ENDBRANCH  20  28
ENDBRANCH  14  16
ENDBRANCH  12  13
ENDBRANCH  11  12
ENDBRANCH   1  11
BRANCH   3  30
HETATM   30  C18 UNL     1       0.818   5.604  13.111  1.00  0.00     0.012 C 
BRANCH  30  31
HETATM   31  C19 UNL     1       0.407   5.241  11.679  1.00  0.00     0.027 C 
BRANCH  31  32
HETATM   32  C20 UNL     1      -0.545   4.053  11.602  1.00  0.00     0.164 C 
BRANCH  32  33
HETATM   33  O2  UNL     1       0.195   2.846  11.455  1.00  0.00    -0.401 OA
HETATM   34  H34 UNL     1       0.717   2.925  10.637  1.00  0.00     0.209 HD
ENDBRANCH  32  33
ENDBRANCH  31  32
ENDBRANCH  30  31
ENDBRANCH   3  30
BRANCH   9  35
HETATM   35  O4  UNL     1      -1.358   9.420  15.612  1.00  0.00    -0.389 OA
HETATM   36  H46 UNL     1      -1.656   8.787  16.283  1.00  0.00     0.210 HD
ENDBRANCH   9  35
BRANCH   5  37
HETATM   37  C24 UNL     1       3.716   7.989  12.425  1.00  0.00     0.265 C 
HETATM   38  O3  UNL     1       3.198   8.781  11.647  1.00  0.00    -0.302 OA
ENDBRANCH   5  37
TORSDOF 14
ENDMDL
MODEL 6
REMARK minimizedAffinity -7.95391941
REMARK  14 active torsions:
REMARK  status: ('A' for Active; 'I' for Inactive)
REMARK    1  A    between atoms: C4_4  and  C5_5 
REMARK    2  A    between atoms: C5_5  and  C6_6 
REMARK    3  A    between atoms: C6_6  and  C7_7 
REMARK    4  A    between atoms: C9_10  and  C10_11 
REMARK    5  A    between atoms: C12_13  and  C13_14 
REMARK    6  A    between atoms: C13_14  and  C14_15 
REMARK    7  A    between atoms: C14_15  and  C15_16 
REMARK    8  A    between atoms: C17_18  and  C18_19 
REMARK    9  A    between atoms: C18_19  and  C19_20 
REMARK   10  A    between atoms: C19_20  and  C20_21 
REMARK   11  A    between atoms: C20_21  and  O2_22 
REMARK   12  A    between atoms: C22_24  and  C24_26 
REMARK   13  A    between atoms: C27_30  and  O4_32 
REMARK   14  A    between atoms: C30_34  and  O5_35 
ROOT
HETATM    1  C15 UNL     1      -0.073   6.943  12.994  1.00  0.00    -0.006 C 
HETATM    2  C16 UNL     1       0.027   5.629  13.826  1.00  0.00     0.019 C 
HETATM    3  C17 UNL     1      -0.084   6.643  11.404  1.00  0.00     0.026 C 
HETATM    4  C21 UNL     1       1.281   6.888  10.743  1.00  0.00    -0.066 C 
HETATM    5  C22 UNL     1       1.500   7.503   9.553  1.00  0.00    -0.021 C 
HETATM    6  C23 UNL     1       2.858   7.761   8.955  1.00  0.00     0.052 C 
HETATM    7  C25 UNL     1       2.418   6.422  11.615  1.00  0.00     0.038 C 
HETATM    8  C26 UNL     1       2.501   7.262  12.888  1.00  0.00     0.042 C 
HETATM    9  C27 UNL     1       1.153   7.880  13.354  1.00  0.00     0.062 C 
HETATM   10  C28 UNL     1       1.010   9.312  12.798  1.00  0.00     0.046 C 
ENDROOT
BRANCH   1  11
HETATM   11  C14 UNL     1      -1.469   7.593  13.337  1.00  0.00     0.016 C 
BRANCH  11  12
HETATM   12  C13 UNL     1      -2.387   6.836  14.311  1.00  0.00     0.028 C 
BRANCH  12  13
HETATM   13  C12 UNL     1      -3.658   6.386  13.629  1.00  0.00    -0.022 C 
HETATM   14  C10 UNL     1      -3.991   5.145  13.217  1.00  0.00    -0.059 C 
HETATM   15  C11 UNL     1      -3.109   3.935  13.413  1.00  0.00     0.046 C 
BRANCH  14  16
HETATM   16  C9  UNL     1      -5.326   4.812  12.569  1.00  0.00     0.153 C 
HETATM   17  O1  UNL     1      -6.397   5.437  13.308  1.00  0.00    -0.368 OA
HETATM   18  C7  UNL     1      -7.579   4.605  13.230  1.00  0.00     0.084 C 
HETATM   19  C8  UNL     1      -7.868   4.082  14.641  1.00  0.00     0.049 C 
HETATM   20  C30 UNL     1      -7.221   3.472  12.242  1.00  0.00     0.155 C 
HETATM   21  C29 UNL     1      -5.724   3.349  12.422  1.00  0.00     0.071 C 
BRANCH  18  22
HETATM   22  C6  UNL     1      -8.740   5.449  12.658  1.00  0.00     0.044 C 
BRANCH  22  23
HETATM   23  C5  UNL     1      -9.519   6.303  13.672  1.00  0.00     0.030 C 
BRANCH  23  24
HETATM   24  C4  UNL     1      -8.843   6.394  15.016  1.00  0.00    -0.025 C 
HETATM   25  C2  UNL     1      -8.315   7.481  15.611  1.00  0.00    -0.091 C 
HETATM   26  C1  UNL     1      -7.679   7.372  16.973  1.00  0.00     0.042 C 
HETATM   27  C3  UNL     1      -8.293   8.869  15.036  1.00  0.00     0.042 C 
ENDBRANCH  23  24
ENDBRANCH  22  23
ENDBRANCH  18  22
BRANCH  20  28
HETATM   28  O5  UNL     1      -7.900   2.254  12.488  1.00  0.00    -0.392 OA
HETATM   29  H50 UNL     1      -7.514   1.576  11.905  1.00  0.00     0.210 HD
ENDBRANCH  20  28
ENDBRANCH  14  16
ENDBRANCH  12  13
ENDBRANCH  11  12
ENDBRANCH   1  11
BRANCH   3  30
HETATM   30  C18 UNL     1      -0.674   5.245  11.057  1.00  0.00     0.012 C 
BRANCH  30  31
HETATM   31  C19 UNL     1       0.265   4.050  11.262  1.00  0.00     0.027 C 
BRANCH  31  32
HETATM   32  C20 UNL     1      -0.467   2.741  11.530  1.00  0.00     0.164 C 
BRANCH  32  33
HETATM   33  O2  UNL     1       0.129   1.688  10.779  1.00  0.00    -0.401 OA
HETATM   34  H34 UNL     1       0.068   1.933   9.839  1.00  0.00     0.209 HD
ENDBRANCH  32  33
ENDBRANCH  31  32
ENDBRANCH  30  31
ENDBRANCH   3  30
BRANCH   9  35
HETATM   35  O4  UNL     1       1.259   8.071  14.775  1.00  0.00    -0.389 OA
HETATM   36  H46 UNL     1       1.610   7.265  15.183  1.00  0.00     0.210 HD
ENDBRANCH   9  35
BRANCH   5  37
HETATM   37  C24 UNL     1       0.403   8.024   8.675  1.00  0.00     0.265 C 
HETATM   38  O3  UNL     1      -0.294   8.996   8.937  1.00  0.00    -0.302 OA
ENDBRANCH   5  37
TORSDOF 14
ENDMDL
MODEL 7
REMARK minimizedAffinity -7.94296694
REMARK  14 active torsions:
REMARK  status: ('A' for Active; 'I' for Inactive)
REMARK    1  A    between atoms: C4_4  and  C5_5 
REMARK    2  A    between atoms: C5_5  and  C6_6 
REMARK    3  A    between atoms: C6_6  and  C7_7 
REMARK    4  A    between atoms: C9_10  and  C10_11 
REMARK    5  A    between atoms: C12_13  and  C13_14 
REMARK    6  A    between atoms: C13_14  and  C14_15 
REMARK    7  A    between atoms: C14_15  and  C15_16 
REMARK    8  A    between atoms: C17_18  and  C18_19 
REMARK    9  A    between atoms: C18_19  and  C19_20 
REMARK   10  A    between atoms: C19_20  and  C20_21 
REMARK   11  A    between atoms: C20_21  and  O2_22 
REMARK   12  A    between atoms: C22_24  and  C24_26 
REMARK   13  A    between atoms: C27_30  and  O4_32 
REMARK   14  A    between atoms: C30_34  and  O5_35 
ROOT
HETATM    1  C15 UNL     1      -0.443   7.866  12.748  1.00  0.00    -0.006 C 
HETATM    2  C16 UNL     1      -1.255   9.038  12.119  1.00  0.00     0.019 C 
HETATM    3  C17 UNL     1       0.360   8.337  14.071  1.00  0.00     0.026 C 
HETATM    4  C21 UNL     1       1.850   8.597  13.801  1.00  0.00    -0.066 C 
HETATM    5  C22 UNL     1       2.889   8.224  14.593  1.00  0.00    -0.021 C 
HETATM    6  C23 UNL     1       4.341   8.462  14.275  1.00  0.00     0.052 C 
HETATM    7  C25 UNL     1       2.070   9.275  12.474  1.00  0.00     0.038 C 
HETATM    8  C26 UNL     1       1.672   8.352  11.323  1.00  0.00     0.042 C 
HETATM    9  C27 UNL     1       0.578   7.306  11.673  1.00  0.00     0.062 C 
HETATM   10  C28 UNL     1       1.236   5.975  12.092  1.00  0.00     0.046 C 
ENDROOT
BRANCH   1  11
HETATM   11  C14 UNL     1      -1.494   6.788  13.222  1.00  0.00     0.016 C 
BRANCH  11  12
HETATM   12  C13 UNL     1      -1.671   6.584  14.736  1.00  0.00     0.028 C 
BRANCH  12  13
HETATM   13  C12 UNL     1      -3.010   5.960  15.052  1.00  0.00    -0.022 C 
HETATM   14  C10 UNL     1      -4.178   6.579  15.324  1.00  0.00    -0.059 C 
HETATM   15  C11 UNL     1      -4.348   8.079  15.321  1.00  0.00     0.046 C 
BRANCH  14  16
HETATM   16  C9  UNL     1      -5.474   5.831  15.594  1.00  0.00     0.153 C 
HETATM   17  O1  UNL     1      -5.962   5.241  14.370  1.00  0.00    -0.368 OA
HETATM   18  C7  UNL     1      -7.409   5.211  14.400  1.00  0.00     0.084 C 
HETATM   19  C8  UNL     1      -7.911   6.158  13.305  1.00  0.00     0.049 C 
HETATM   20  C30 UNL     1      -7.802   5.685  15.817  1.00  0.00     0.155 C 
HETATM   21  C29 UNL     1      -6.652   6.597  16.182  1.00  0.00     0.071 C 
BRANCH  18  22
HETATM   22  C6  UNL     1      -7.877   3.755  14.187  1.00  0.00     0.044 C 
BRANCH  22  23
HETATM   23  C5  UNL     1      -7.772   3.212  12.753  1.00  0.00     0.030 C 
BRANCH  23  24
HETATM   24  C4  UNL     1      -6.431   3.471  12.116  1.00  0.00    -0.025 C 
HETATM   25  C2  UNL     1      -5.639   2.601  11.459  1.00  0.00    -0.091 C 
HETATM   26  C1  UNL     1      -4.322   3.053  10.884  1.00  0.00     0.042 C 
HETATM   27  C3  UNL     1      -5.944   1.149  11.220  1.00  0.00     0.042 C 
ENDBRANCH  23  24
ENDBRANCH  22  23
ENDBRANCH  18  22
BRANCH  20  28
HETATM   28  O5  UNL     1      -9.056   6.340  15.880  1.00  0.00    -0.392 OA
HETATM   29  H50 UNL     1      -9.152   6.712  16.775  1.00  0.00     0.210 HD
ENDBRANCH  20  28
ENDBRANCH  14  16
ENDBRANCH  12  13
ENDBRANCH  11  12
ENDBRANCH   1  11
BRANCH   3  30
HETATM   30  C18 UNL     1      -0.330   9.523  14.806  1.00  0.00     0.012 C 
BRANCH  30  31
HETATM   31  C19 UNL     1      -1.256  10.395  13.949  1.00  0.00     0.027 C 
BRANCH  31  32
HETATM   32  C20 UNL     1      -1.730  11.658  14.660  1.00  0.00     0.164 C 
BRANCH  32  33
HETATM   33  O2  UNL     1      -1.480  12.798  13.844  1.00  0.00    -0.401 OA
HETATM   34  H34 UNL     1      -0.521  12.831  13.681  1.00  0.00     0.209 HD
ENDBRANCH  32  33
ENDBRANCH  31  32
ENDBRANCH  30  31
ENDBRANCH   3  30
BRANCH   9  35
HETATM   35  O4  UNL     1      -0.092   6.985  10.441  1.00  0.00    -0.389 OA
HETATM   36  H46 UNL     1      -0.311   7.805   9.972  1.00  0.00     0.210 HD
ENDBRANCH   9  35
BRANCH   5  37
HETATM   37  C24 UNL     1       2.720   7.506  15.897  1.00  0.00     0.265 C 
HETATM   38  O3  UNL     1       2.082   7.937  16.850  1.00  0.00    -0.302 OA
ENDBRANCH   5  37
TORSDOF 14
ENDMDL
MODEL 8
REMARK minimizedAffinity -7.91109514
REMARK  14 active torsions:
REMARK  status: ('A' for Active; 'I' for Inactive)
REMARK    1  A    between atoms: C4_4  and  C5_5 
REMARK    2  A    between atoms: C5_5  and  C6_6 
REMARK    3  A    between atoms: C6_6  and  C7_7 
REMARK    4  A    between atoms: C9_10  and  C10_11 
REMARK    5  A    between atoms: C12_13  and  C13_14 
REMARK    6  A    between atoms: C13_14  and  C14_15 
REMARK    7  A    between atoms: C14_15  and  C15_16 
REMARK    8  A    between atoms: C17_18  and  C18_19 
REMARK    9  A    between atoms: C18_19  and  C19_20 
REMARK   10  A    between atoms: C19_20  and  C20_21 
REMARK   11  A    between atoms: C20_21  and  O2_22 
REMARK   12  A    between atoms: C22_24  and  C24_26 
REMARK   13  A    between atoms: C27_30  and  O4_32 
REMARK   14  A    between atoms: C30_34  and  O5_35 
ROOT
HETATM    1  C15 UNL     1       1.772   6.884  10.687  1.00  0.00    -0.006 C 
HETATM    2  C16 UNL     1       0.625   7.644   9.956  1.00  0.00     0.019 C 
HETATM    3  C17 UNL     1       2.490   7.814  11.800  1.00  0.00     0.026 C 
HETATM    4  C21 UNL     1       3.826   8.398  11.315  1.00  0.00    -0.066 C 
HETATM    5  C22 UNL     1       4.974   8.486  12.034  1.00  0.00    -0.021 C 
HETATM    6  C23 UNL     1       6.278   9.029  11.511  1.00  0.00     0.052 C 
HETATM    7  C25 UNL     1       3.762   8.821   9.870  1.00  0.00     0.038 C 
HETATM    8  C26 UNL     1       3.571   7.609   8.960  1.00  0.00     0.042 C 
HETATM    9  C27 UNL     1       2.841   6.405   9.619  1.00  0.00     0.062 C 
HETATM   10  C28 UNL     1       3.874   5.413  10.193  1.00  0.00     0.046 C 
ENDROOT
BRANCH   1  11
HETATM   11  C14 UNL     1       1.101   5.689  11.468  1.00  0.00     0.016 C 
BRANCH  11  12
HETATM   12  C13 UNL     1      -0.299   5.241  11.017  1.00  0.00     0.028 C 
BRANCH  12  13
HETATM   13  C12 UNL     1      -1.337   5.540  12.074  1.00  0.00    -0.022 C 
HETATM   14  C10 UNL     1      -2.550   4.971  12.239  1.00  0.00    -0.059 C 
HETATM   15  C11 UNL     1      -3.076   3.858  11.366  1.00  0.00     0.046 C 
BRANCH  14  16
HETATM   16  C9  UNL     1      -3.495   5.339  13.372  1.00  0.00     0.153 C 
HETATM   17  O1  UNL     1      -4.539   6.204  12.876  1.00  0.00    -0.368 OA
HETATM   18  C7  UNL     1      -4.942   7.115  13.927  1.00  0.00     0.084 C 
HETATM   19  C8  UNL     1      -4.544   8.528  13.487  1.00  0.00     0.049 C 
HETATM   20  C30 UNL     1      -4.179   6.652  15.189  1.00  0.00     0.155 C 
HETATM   21  C29 UNL     1      -2.928   6.038  14.601  1.00  0.00     0.071 C 
BRANCH  18  22
HETATM   22  C6  UNL     1      -6.462   6.968  14.153  1.00  0.00     0.044 C 
BRANCH  22  23
HETATM   23  C5  UNL     1      -6.897   5.859  15.125  1.00  0.00     0.030 C 
BRANCH  23  24
HETATM   24  C4  UNL     1      -6.992   4.503  14.476  1.00  0.00    -0.025 C 
HETATM   25  C2  UNL     1      -7.665   4.157  13.362  1.00  0.00    -0.091 C 
HETATM   26  C1  UNL     1      -7.635   2.735  12.862  1.00  0.00     0.042 C 
HETATM   27  C3  UNL     1      -8.485   5.086  12.512  1.00  0.00     0.042 C 
ENDBRANCH  23  24
ENDBRANCH  22  23
ENDBRANCH  18  22
BRANCH  20  28
HETATM   28  O5  UNL     1      -3.893   7.693  16.106  1.00  0.00    -0.392 OA
HETATM   29  H50 UNL     1      -3.305   7.331  16.792  1.00  0.00     0.210 HD
ENDBRANCH  20  28
ENDBRANCH  14  16
ENDBRANCH  12  13
ENDBRANCH  11  12
ENDBRANCH   1  11
BRANCH   3  30
HETATM   30  C18 UNL     1       1.539   8.900  12.383  1.00  0.00     0.012 C 
BRANCH  30  31
HETATM   31  C19 UNL     1       0.614   8.443  13.518  1.00  0.00     0.027 C 
BRANCH  31  32
HETATM   32  C20 UNL     1      -0.450   9.470  13.885  1.00  0.00     0.164 C 
BRANCH  32  33
HETATM   33  O2  UNL     1      -1.182   9.847  12.723  1.00  0.00    -0.401 OA
HETATM   34  H34 UNL     1      -0.545  10.221  12.088  1.00  0.00     0.209 HD
ENDBRANCH  32  33
ENDBRANCH  31  32
ENDBRANCH  30  31
ENDBRANCH   3  30
BRANCH   9  35
HETATM   35  O4  UNL     1       2.215   5.671   8.553  1.00  0.00    -0.389 OA
HETATM   36  H46 UNL     1       1.744   6.288   7.972  1.00  0.00     0.210 HD
ENDBRANCH   9  35
BRANCH   5  37
HETATM   37  C24 UNL     1       5.097   8.034  13.458  1.00  0.00     0.265 C 
HETATM   38  O3  UNL     1       5.971   8.404  14.232  1.00  0.00    -0.302 OA
ENDBRANCH   5  37
TORSDOF 14
ENDMDL
MODEL 9
REMARK minimizedAffinity -7.86522293
REMARK  14 active torsions:
REMARK  status: ('A' for Active; 'I' for Inactive)
REMARK    1  A    between atoms: C4_4  and  C5_5 
REMARK    2  A    between atoms: C5_5  and  C6_6 
REMARK    3  A    between atoms: C6_6  and  C7_7 
REMARK    4  A    between atoms: C9_10  and  C10_11 
REMARK    5  A    between atoms: C12_13  and  C13_14 
REMARK    6  A    between atoms: C13_14  and  C14_15 
REMARK    7  A    between atoms: C14_15  and  C15_16 
REMARK    8  A    between atoms: C17_18  and  C18_19 
REMARK    9  A    between atoms: C18_19  and  C19_20 
REMARK   10  A    between atoms: C19_20  and  C20_21 
REMARK   11  A    between atoms: C20_21  and  O2_22 
REMARK   12  A    between atoms: C22_24  and  C24_26 
REMARK   13  A    between atoms: C27_30  and  O4_32 
REMARK   14  A    between atoms: C30_34  and  O5_35 
ROOT
HETATM    1  C15 UNL     1       2.048   6.718  10.847  1.00  0.00    -0.006 C 
HETATM    2  C16 UNL     1       0.893   7.706  10.504  1.00  0.00     0.019 C 
HETATM    3  C17 UNL     1       3.023   7.313  11.993  1.00  0.00     0.026 C 
HETATM    4  C21 UNL     1       4.326   7.895  11.422  1.00  0.00    -0.066 C 
HETATM    5  C22 UNL     1       5.572   7.731  11.936  1.00  0.00    -0.021 C 
HETATM    6  C23 UNL     1       6.833   8.284  11.325  1.00  0.00     0.052 C 
HETATM    7  C25 UNL     1       4.091   8.641  10.135  1.00  0.00     0.038 C 
HETATM    8  C26 UNL     1       3.633   7.688   9.033  1.00  0.00     0.042 C 
HETATM    9  C27 UNL     1       2.884   6.421   9.534  1.00  0.00     0.062 C 
HETATM   10  C28 UNL     1       3.877   5.252   9.695  1.00  0.00     0.046 C 
ENDROOT
BRANCH   1  11
HETATM   11  C14 UNL     1       1.376   5.428  11.457  1.00  0.00     0.016 C 
BRANCH  11  12
HETATM   12  C13 UNL     1      -0.079   5.127  11.062  1.00  0.00     0.028 C 
BRANCH  12  13
HETATM   13  C12 UNL     1      -1.032   5.458  12.186  1.00  0.00    -0.022 C 
HETATM   14  C10 UNL     1      -2.234   4.905  12.453  1.00  0.00    -0.059 C 
HETATM   15  C11 UNL     1      -2.836   3.782  11.643  1.00  0.00     0.046 C 
BRANCH  14  16
HETATM   16  C9  UNL     1      -3.089   5.304  13.646  1.00  0.00     0.153 C 
HETATM   17  O1  UNL     1      -3.846   6.492  13.331  1.00  0.00    -0.368 OA
HETATM   18  C7  UNL     1      -4.029   7.274  14.535  1.00  0.00     0.084 C 
HETATM   19  C8  UNL     1      -3.253   8.584  14.356  1.00  0.00     0.049 C 
HETATM   20  C30 UNL     1      -3.464   6.405  15.681  1.00  0.00     0.155 C 
HETATM   21  C29 UNL     1      -2.401   5.592  14.975  1.00  0.00     0.071 C 
BRANCH  18  22
HETATM   22  C6  UNL     1      -5.541   7.503  14.750  1.00  0.00     0.044 C 
BRANCH  22  23
HETATM   23  C5  UNL     1      -6.467   7.003  13.629  1.00  0.00     0.030 C 
BRANCH  23  24
HETATM   24  C4  UNL     1      -6.781   5.533  13.728  1.00  0.00    -0.025 C 
HETATM   25  C2  UNL     1      -7.682   4.824  13.021  1.00  0.00    -0.091 C 
HETATM   26  C1  UNL     1      -7.851   3.346  13.263  1.00  0.00     0.042 C 
HETATM   27  C3  UNL     1      -8.587   5.374  11.955  1.00  0.00     0.042 C 
ENDBRANCH  23  24
ENDBRANCH  22  23
ENDBRANCH  18  22
BRANCH  20  28
HETATM   28  O5  UNL     1      -2.946   7.149  16.769  1.00  0.00    -0.392 OA
HETATM   29  H50 UNL     1      -2.500   6.524  17.370  1.00  0.00     0.210 HD
ENDBRANCH  20  28
ENDBRANCH  14  16
ENDBRANCH  12  13
ENDBRANCH  11  12
ENDBRANCH   1  11
BRANCH   3  30
HETATM   30  C18 UNL     1       2.296   8.302  12.950  1.00  0.00     0.012 C 
BRANCH  30  31
HETATM   31  C19 UNL     1       3.020   8.619  14.264  1.00  0.00     0.027 C 
BRANCH  31  32
HETATM   32  C20 UNL     1       2.654   7.673  15.403  1.00  0.00     0.164 C 
BRANCH  32  33
HETATM   33  O2  UNL     1       2.128   6.460  14.875  1.00  0.00    -0.401 OA
HETATM   34  H34 UNL     1       1.341   6.690  14.350  1.00  0.00     0.209 HD
ENDBRANCH  32  33
ENDBRANCH  31  32
ENDBRANCH  30  31
ENDBRANCH   3  30
BRANCH   9  35
HETATM   35  O4  UNL     1       2.028   5.999   8.459  1.00  0.00    -0.389 OA
HETATM   36  H46 UNL     1       1.544   6.765   8.114  1.00  0.00     0.210 HD
ENDBRANCH   9  35
BRANCH   5  37
HETATM   37  C24 UNL     1       5.859   6.957  13.187  1.00  0.00     0.265 C 
HETATM   38  O3  UNL     1       6.867   7.087  13.868  1.00  0.00    -0.302 OA
ENDBRANCH   5  37
TORSDOF 14
ENDMDL
