MODEL 1
REMARK minimizedAffinity -9.93011761
REMARK  5 active torsions:
REMARK  status: ('A' for Active; 'I' for Inactive)
REMARK    1  A    between atoms: C2_2  and  C3_3 
REMARK    2  A    between atoms: C2_2  and  C25_27 
REMARK    3  A    between atoms: C3_3  and  C4_4 
REMARK    4  A    between atoms: C4_4  and  C5_5 
REMARK    5  A    between atoms: C15_15  and  O1_16 
ROOT
HETATM    1  C5  UNL     1      -0.852   6.813  11.820  1.00  0.00    -0.023 C 
HETATM    2  C6  UNL     1      -1.847   6.088  12.357  1.00  0.00    -0.075 C 
HETATM    3  C7  UNL     1      -2.099   4.612  12.099  1.00  0.00     0.035 C 
HETATM    4  C8  UNL     1      -3.445   4.316  12.777  1.00  0.00     0.013 C 
HETATM    5  C9  UNL     1      -4.097   5.693  12.840  1.00  0.00     0.033 C 
HETATM    6  C10 UNL     1      -5.393   5.869  13.631  1.00  0.00     0.070 C 
HETATM    7  C11 UNL     1      -6.516   4.970  13.050  1.00  0.00     0.039 C 
HETATM    8  C12 UNL     1      -7.827   5.078  13.833  1.00  0.00     0.009 C 
HETATM    9  C13 UNL     1      -8.132   6.537  14.191  1.00  0.00    -0.001 C 
HETATM   10  C14 UNL     1      -9.341   6.669  15.118  1.00  0.00     0.037 C 
HETATM   11  C15 UNL     1      -9.781   8.134  15.229  1.00  0.00     0.118 C 
HETATM   12  C16 UNL     1      -8.647   9.135  14.974  1.00  0.00     0.032 C 
HETATM   13  C17 UNL     1      -7.300   8.605  15.463  1.00  0.00     0.015 C 
HETATM   14  C18 UNL     1      -6.883   7.278  14.784  1.00  0.00    -0.009 C 
HETATM   15  C19 UNL     1      -6.107   6.389  15.784  1.00  0.00     0.179 C 
HETATM   16  O2  UNL     1      -5.258   5.512  15.017  1.00  0.00    -0.379 OA
HETATM   17  C20 UNL     1      -5.840   7.352  13.647  1.00  0.00     0.032 C 
HETATM   18  C21 UNL     1      -4.688   8.360  13.880  1.00  0.00     0.009 C 
HETATM   19  C22 UNL     1      -3.420   8.065  13.064  1.00  0.00     0.014 C 
HETATM   20  C23 UNL     1      -2.942   6.619  13.277  1.00  0.00    -0.014 C 
HETATM   21  C24 UNL     1      -2.421   6.438  14.721  1.00  0.00     0.020 C 
ENDROOT
BRANCH   1  22
HETATM   22  C4  UNL     1       0.218   6.298  10.894  1.00  0.00     0.031 C 
BRANCH  22  23
HETATM   23  C3  UNL     1       1.153   7.427  10.445  1.00  0.00     0.037 C 
BRANCH  23  24
HETATM   24  C2  UNL     1       1.077   7.745   8.961  1.00  0.00    -0.086 C 
HETATM   25  C1  UNL     1      -0.010   8.365   8.466  1.00  0.00     0.014 C 
BRANCH  24  26
HETATM   26  C25 UNL     1       2.198   7.315   8.020  1.00  0.00     0.005 C 
HETATM   27  C26 UNL     1       2.893   6.035   8.494  1.00  0.00     0.014 C 
HETATM   28  C27 UNL     1       1.763   7.187   6.559  1.00  0.00     0.014 C 
ENDBRANCH  24  26
ENDBRANCH  23  24
ENDBRANCH  22  23
ENDBRANCH   1  22
BRANCH  11  29
HETATM   29  O1  UNL     1     -10.346   8.354  16.518  1.00  0.00    -0.396 OA
HETATM   30  H21 UNL     1      -9.648   8.230  17.183  1.00  0.00     0.210 HD
ENDBRANCH  11  29
TORSDOF 5
ENDMDL
MODEL 2
REMARK minimizedAffinity -9.77047729
REMARK  5 active torsions:
REMARK  status: ('A' for Active; 'I' for Inactive)
REMARK    1  A    between atoms: C2_2  and  C3_3 
REMARK    2  A    between atoms: C2_2  and  C25_27 
REMARK    3  A    between atoms: C3_3  and  C4_4 
REMARK    4  A    between atoms: C4_4  and  C5_5 
REMARK    5  A    between atoms: C15_15  and  O1_16 
ROOT
HETATM    1  C5  UNL     1       0.036   8.339  11.624  1.00  0.00    -0.023 C 
HETATM    2  C6  UNL     1      -0.675   7.333  12.161  1.00  0.00    -0.075 C 
HETATM    3  C7  UNL     1      -0.400   5.853  11.956  1.00  0.00     0.035 C 
HETATM    4  C8  UNL     1      -1.592   5.136  12.607  1.00  0.00     0.013 C 
HETATM    5  C9  UNL     1      -2.674   6.209  12.596  1.00  0.00     0.033 C 
HETATM    6  C10 UNL     1      -3.984   5.955  13.343  1.00  0.00     0.070 C 
HETATM    7  C11 UNL     1      -4.711   4.712  12.767  1.00  0.00     0.039 C 
HETATM    8  C12 UNL     1      -6.011   4.388  13.508  1.00  0.00     0.009 C 
HETATM    9  C13 UNL     1      -6.808   5.665  13.798  1.00  0.00    -0.001 C 
HETATM   10  C14 UNL     1      -8.025   5.403  14.684  1.00  0.00     0.037 C 
HETATM   11  C15 UNL     1      -8.941   6.633  14.724  1.00  0.00     0.118 C 
HETATM   12  C16 UNL     1      -8.205   7.953  14.461  1.00  0.00     0.032 C 
HETATM   13  C17 UNL     1      -6.779   7.928  15.009  1.00  0.00     0.015 C 
HETATM   14  C18 UNL     1      -5.909   6.804  14.395  1.00  0.00    -0.009 C 
HETATM   15  C19 UNL     1      -4.918   6.262  15.452  1.00  0.00     0.179 C 
HETATM   16  O2  UNL     1      -3.792   5.705  14.745  1.00  0.00    -0.379 OA
HETATM   17  C20 UNL     1      -4.908   7.197  13.286  1.00  0.00     0.032 C 
HETATM   18  C21 UNL     1      -4.177   8.544  13.510  1.00  0.00     0.009 C 
HETATM   19  C22 UNL     1      -2.853   8.675  12.744  1.00  0.00     0.014 C 
HETATM   20  C23 UNL     1      -1.921   7.485  13.028  1.00  0.00    -0.014 C 
HETATM   21  C24 UNL     1      -1.429   7.533  14.492  1.00  0.00     0.020 C 
ENDROOT
BRANCH   1  22
HETATM   22  C4  UNL     1       1.254   8.194  10.750  1.00  0.00     0.031 C 
BRANCH  22  23
HETATM   23  C3  UNL     1       1.331   6.792  10.135  1.00  0.00     0.037 C 
BRANCH  23  24
HETATM   24  C2  UNL     1       2.145   6.718   8.854  1.00  0.00    -0.086 C 
HETATM   25  C1  UNL     1       3.047   5.731   8.693  1.00  0.00     0.014 C 
BRANCH  24  26
HETATM   26  C25 UNL     1       1.989   7.785   7.775  1.00  0.00     0.005 C 
HETATM   27  C26 UNL     1       3.116   8.820   7.820  1.00  0.00     0.014 C 
HETATM   28  C27 UNL     1       1.827   7.218   6.364  1.00  0.00     0.014 C 
ENDBRANCH  24  26
ENDBRANCH  23  24
ENDBRANCH  22  23
ENDBRANCH   1  22
BRANCH  11  29
HETATM   29  O1  UNL     1      -9.598   6.684  15.986  1.00  0.00    -0.396 OA
HETATM   30  H21 UNL     1      -8.927   6.824  16.675  1.00  0.00     0.210 HD
ENDBRANCH  11  29
TORSDOF 5
ENDMDL
MODEL 3
REMARK minimizedAffinity -9.18157101
REMARK  5 active torsions:
REMARK  status: ('A' for Active; 'I' for Inactive)
REMARK    1  A    between atoms: C2_2  and  C3_3 
REMARK    2  A    between atoms: C2_2  and  C25_27 
REMARK    3  A    between atoms: C3_3  and  C4_4 
REMARK    4  A    between atoms: C4_4  and  C5_5 
REMARK    5  A    between atoms: C15_15  and  O1_16 
ROOT
HETATM    1  C5  UNL     1      -5.262   4.564  12.875  1.00  0.00    -0.023 C 
HETATM    2  C6  UNL     1      -4.315   5.490  13.098  1.00  0.00    -0.075 C 
HETATM    3  C7  UNL     1      -4.566   6.909  13.581  1.00  0.00     0.035 C 
HETATM    4  C8  UNL     1      -3.201   7.606  13.487  1.00  0.00     0.013 C 
HETATM    5  C9  UNL     1      -2.464   6.759  12.455  1.00  0.00     0.033 C 
HETATM    6  C10 UNL     1      -0.976   7.009  12.210  1.00  0.00     0.070 C 
HETATM    7  C11 UNL     1      -0.738   8.460  11.716  1.00  0.00     0.039 C 
HETATM    8  C12 UNL     1       0.744   8.776  11.494  1.00  0.00     0.009 C 
HETATM    9  C13 UNL     1       1.453   7.611  10.796  1.00  0.00    -0.001 C 
HETATM   10  C14 UNL     1       2.965   7.817  10.711  1.00  0.00     0.037 C 
HETATM   11  C15 UNL     1       3.601   6.781   9.775  1.00  0.00     0.118 C 
HETATM   12  C16 UNL     1       2.798   5.480   9.664  1.00  0.00     0.032 C 
HETATM   13  C17 UNL     1       2.095   5.133  10.976  1.00  0.00     0.015 C 
HETATM   14  C18 UNL     1       1.108   6.227  11.448  1.00  0.00    -0.009 C 
HETATM   15  C19 UNL     1       1.099   6.304  12.994  1.00  0.00     0.179 C 
HETATM   16  O2  UNL     1      -0.177   6.844  13.393  1.00  0.00    -0.379 OA
HETATM   17  C20 UNL     1      -0.398   5.990  11.197  1.00  0.00     0.032 C 
HETATM   18  C21 UNL     1      -0.878   4.534  11.417  1.00  0.00     0.009 C 
HETATM   19  C22 UNL     1      -2.383   4.404  11.694  1.00  0.00     0.014 C 
HETATM   20  C23 UNL     1      -2.819   5.312  12.856  1.00  0.00    -0.014 C 
HETATM   21  C24 UNL     1      -2.222   4.798  14.186  1.00  0.00     0.020 C 
ENDROOT
BRANCH   1  22
HETATM   22  C4  UNL     1      -6.742   4.742  13.092  1.00  0.00     0.031 C 
BRANCH  22  23
HETATM   23  C3  UNL     1      -7.074   6.183  13.496  1.00  0.00     0.037 C 
BRANCH  23  24
HETATM   24  C2  UNL     1      -8.379   6.331  14.260  1.00  0.00    -0.086 C 
HETATM   25  C1  UNL     1      -9.536   6.470  13.584  1.00  0.00     0.014 C 
BRANCH  24  26
HETATM   26  C25 UNL     1      -8.381   6.382  15.785  1.00  0.00     0.005 C 
HETATM   27  C26 UNL     1      -6.981   6.185  16.371  1.00  0.00     0.014 C 
HETATM   28  C27 UNL     1      -9.040   7.637  16.360  1.00  0.00     0.014 C 
ENDBRANCH  24  26
ENDBRANCH  23  24
ENDBRANCH  22  23
ENDBRANCH   1  22
BRANCH  11  29
HETATM   29  O1  UNL     1       4.925   6.501  10.221  1.00  0.00    -0.396 OA
HETATM   30  H21 UNL     1       4.871   6.079  11.094  1.00  0.00     0.210 HD
ENDBRANCH  11  29
TORSDOF 5
ENDMDL
MODEL 4
REMARK minimizedAffinity -9.08334637
REMARK  5 active torsions:
REMARK  status: ('A' for Active; 'I' for Inactive)
REMARK    1  A    between atoms: C2_2  and  C3_3 
REMARK    2  A    between atoms: C2_2  and  C25_27 
REMARK    3  A    between atoms: C3_3  and  C4_4 
REMARK    4  A    between atoms: C4_4  and  C5_5 
REMARK    5  A    between atoms: C15_15  and  O1_16 
ROOT
HETATM    1  C5  UNL     1      -1.406   6.103  12.283  1.00  0.00    -0.023 C 
HETATM    2  C6  UNL     1      -2.550   5.486  12.622  1.00  0.00    -0.075 C 
HETATM    3  C7  UNL     1      -2.988   4.114  12.138  1.00  0.00     0.035 C 
HETATM    4  C8  UNL     1      -4.428   3.956  12.646  1.00  0.00     0.013 C 
HETATM    5  C9  UNL     1      -4.872   5.401  12.845  1.00  0.00     0.033 C 
HETATM    6  C10 UNL     1      -6.207   5.683  13.535  1.00  0.00     0.070 C 
HETATM    7  C11 UNL     1      -7.380   5.057  12.737  1.00  0.00     0.039 C 
HETATM    8  C12 UNL     1      -8.739   5.275  13.408  1.00  0.00     0.009 C 
HETATM    9  C13 UNL     1      -8.862   6.707  13.939  1.00  0.00    -0.001 C 
HETATM   10  C14 UNL     1     -10.132   6.915  14.765  1.00  0.00     0.037 C 
HETATM   11  C15 UNL     1     -10.360   8.406  15.042  1.00  0.00     0.118 C 
HETATM   12  C16 UNL     1      -9.070   9.236  15.032  1.00  0.00     0.032 C 
HETATM   13  C17 UNL     1      -7.877   8.438  15.558  1.00  0.00     0.015 C 
HETATM   14  C18 UNL     1      -7.589   7.158  14.739  1.00  0.00    -0.009 C 
HETATM   15  C19 UNL     1      -7.067   6.037  15.668  1.00  0.00     0.179 C 
HETATM   16  O2  UNL     1      -6.278   5.138  14.863  1.00  0.00    -0.379 OA
HETATM   17  C20 UNL     1      -6.429   7.205  13.720  1.00  0.00     0.032 C 
HETATM   18  C21 UNL     1      -5.173   7.977  14.193  1.00  0.00     0.009 C 
HETATM   19  C22 UNL     1      -3.881   7.586  13.459  1.00  0.00     0.014 C 
HETATM   20  C23 UNL     1      -3.648   6.067  13.508  1.00  0.00    -0.014 C 
HETATM   21  C24 UNL     1      -3.321   5.624  14.952  1.00  0.00     0.020 C 
ENDROOT
BRANCH   1  22
HETATM   22  C4  UNL     1      -0.329   5.543  11.392  1.00  0.00     0.031 C 
BRANCH  22  23
HETATM   23  C3  UNL     1       0.375   6.654  10.607  1.00  0.00     0.037 C 
BRANCH  23  24
HETATM   24  C2  UNL     1       1.851   6.811  10.936  1.00  0.00    -0.086 C 
HETATM   25  C1  UNL     1       2.220   7.244  12.156  1.00  0.00     0.014 C 
BRANCH  24  26
HETATM   26  C25 UNL     1       2.913   6.538   9.875  1.00  0.00     0.005 C 
HETATM   27  C26 UNL     1       3.085   7.716   8.913  1.00  0.00     0.014 C 
HETATM   28  C27 UNL     1       4.263   6.104  10.450  1.00  0.00     0.014 C 
ENDBRANCH  24  26
ENDBRANCH  23  24
ENDBRANCH  22  23
ENDBRANCH   1  22
BRANCH  11  29
HETATM   29  O1  UNL     1     -11.024   8.551  16.294  1.00  0.00    -0.396 OA
HETATM   30  H21 UNL     1     -10.428   8.234  16.994  1.00  0.00     0.210 HD
ENDBRANCH  11  29
TORSDOF 5
ENDMDL
MODEL 5
REMARK minimizedAffinity -9.04387665
REMARK  5 active torsions:
REMARK  status: ('A' for Active; 'I' for Inactive)
REMARK    1  A    between atoms: C2_2  and  C3_3 
REMARK    2  A    between atoms: C2_2  and  C25_27 
REMARK    3  A    between atoms: C3_3  and  C4_4 
REMARK    4  A    between atoms: C4_4  and  C5_5 
REMARK    5  A    between atoms: C15_15  and  O1_16 
ROOT
HETATM    1  C5  UNL     1      -5.016   5.011  13.240  1.00  0.00    -0.023 C 
HETATM    2  C6  UNL     1      -4.034   5.919  13.366  1.00  0.00    -0.075 C 
HETATM    3  C7  UNL     1      -4.227   7.380  13.736  1.00  0.00     0.035 C 
HETATM    4  C8  UNL     1      -2.843   8.019  13.556  1.00  0.00     0.013 C 
HETATM    5  C9  UNL     1      -2.159   7.067  12.581  1.00  0.00     0.033 C 
HETATM    6  C10 UNL     1      -0.669   7.244  12.285  1.00  0.00     0.070 C 
HETATM    7  C11 UNL     1      -0.396   8.641  11.668  1.00  0.00     0.039 C 
HETATM    8  C12 UNL     1       1.090   8.887  11.390  1.00  0.00     0.009 C 
HETATM    9  C13 UNL     1       1.743   7.645  10.775  1.00  0.00    -0.001 C 
HETATM   10  C14 UNL     1       3.259   7.791  10.641  1.00  0.00     0.037 C 
HETATM   11  C15 UNL     1       3.838   6.661   9.780  1.00  0.00     0.118 C 
HETATM   12  C16 UNL     1       2.990   5.383   9.794  1.00  0.00     0.032 C 
HETATM   13  C17 UNL     1       2.308   5.169  11.145  1.00  0.00     0.015 C 
HETATM   14  C18 UNL     1       1.369   6.331  11.546  1.00  0.00    -0.009 C 
HETATM   15  C19 UNL     1       1.400   6.534  13.080  1.00  0.00     0.179 C 
HETATM   16  O2  UNL     1       0.152   7.148  13.461  1.00  0.00    -0.379 OA
HETATM   17  C20 UNL     1      -0.149   6.127  11.347  1.00  0.00     0.032 C 
HETATM   18  C21 UNL     1      -0.671   4.711  11.696  1.00  0.00     0.009 C 
HETATM   19  C22 UNL     1      -2.173   4.656  12.015  1.00  0.00     0.014 C 
HETATM   20  C23 UNL     1      -2.551   5.670  13.108  1.00  0.00    -0.014 C 
HETATM   21  C24 UNL     1      -1.939   5.246  14.462  1.00  0.00     0.020 C 
ENDROOT
BRANCH   1  22
HETATM   22  C4  UNL     1      -6.484   5.257  13.473  1.00  0.00     0.031 C 
BRANCH  22  23
HETATM   23  C3  UNL     1      -7.340   4.529  12.432  1.00  0.00     0.037 C 
BRANCH  23  24
HETATM   24  C2  UNL     1      -7.005   3.055  12.271  1.00  0.00    -0.086 C 
HETATM   25  C1  UNL     1      -7.766   2.126  12.881  1.00  0.00     0.014 C 
BRANCH  24  26
HETATM   26  C25 UNL     1      -5.780   2.624  11.470  1.00  0.00     0.005 C 
HETATM   27  C26 UNL     1      -5.711   1.106  11.290  1.00  0.00     0.014 C 
HETATM   28  C27 UNL     1      -5.639   3.338  10.125  1.00  0.00     0.014 C 
ENDBRANCH  24  26
ENDBRANCH  23  24
ENDBRANCH  22  23
ENDBRANCH   1  22
BRANCH  11  29
HETATM   29  O1  UNL     1       5.162   6.373  10.219  1.00  0.00    -0.396 OA
HETATM   30  H21 UNL     1       5.115   6.024  11.125  1.00  0.00     0.210 HD
ENDBRANCH  11  29
TORSDOF 5
ENDMDL
MODEL 6
REMARK minimizedAffinity -8.97029591
REMARK  5 active torsions:
REMARK  status: ('A' for Active; 'I' for Inactive)
REMARK    1  A    between atoms: C2_2  and  C3_3 
REMARK    2  A    between atoms: C2_2  and  C25_27 
REMARK    3  A    between atoms: C3_3  and  C4_4 
REMARK    4  A    between atoms: C4_4  and  C5_5 
REMARK    5  A    between atoms: C15_15  and  O1_16 
ROOT
HETATM    1  C5  UNL     1      -9.910   6.836  14.468  1.00  0.00    -0.023 C 
HETATM    2  C6  UNL     1      -8.664   7.267  14.726  1.00  0.00    -0.075 C 
HETATM    3  C7  UNL     1      -8.294   8.660  15.204  1.00  0.00     0.035 C 
HETATM    4  C8  UNL     1      -6.760   8.700  15.158  1.00  0.00     0.013 C 
HETATM    5  C9  UNL     1      -6.428   7.607  14.149  1.00  0.00     0.033 C 
HETATM    6  C10 UNL     1      -4.970   7.189  13.955  1.00  0.00     0.070 C 
HETATM    7  C11 UNL     1      -4.115   8.390  13.474  1.00  0.00     0.039 C 
HETATM    8  C12 UNL     1      -2.635   8.034  13.303  1.00  0.00     0.009 C 
HETATM    9  C13 UNL     1      -2.475   6.670  12.625  1.00  0.00    -0.001 C 
HETATM   10  C14 UNL     1      -1.020   6.203  12.592  1.00  0.00     0.037 C 
HETATM   11  C15 UNL     1      -0.863   4.983  11.674  1.00  0.00     0.118 C 
HETATM   12  C16 UNL     1      -2.145   4.154  11.532  1.00  0.00     0.032 C 
HETATM   13  C17 UNL     1      -2.970   4.158  12.819  1.00  0.00     0.015 C 
HETATM   14  C18 UNL     1      -3.404   5.576  13.261  1.00  0.00    -0.009 C 
HETATM   15  C19 UNL     1      -3.427   5.668  14.806  1.00  0.00     0.179 C 
HETATM   16  O2  UNL     1      -4.358   6.709  15.164  1.00  0.00    -0.379 OA
HETATM   17  C20 UNL     1      -4.856   6.008  12.959  1.00  0.00     0.032 C 
HETATM   18  C21 UNL     1      -5.923   4.904  13.158  1.00  0.00     0.009 C 
HETATM   19  C22 UNL     1      -7.345   5.438  13.384  1.00  0.00     0.014 C 
HETATM   20  C23 UNL     1      -7.384   6.459  14.533  1.00  0.00    -0.014 C 
HETATM   21  C24 UNL     1      -7.109   5.753  15.881  1.00  0.00     0.020 C 
ENDROOT
BRANCH   1  22
HETATM   22  C4  UNL     1     -11.175   7.637  14.635  1.00  0.00     0.031 C 
BRANCH  22  23
HETATM   23  C3  UNL     1     -12.051   7.559  13.381  1.00  0.00     0.037 C 
BRANCH  23  24
HETATM   24  C2  UNL     1     -13.458   7.043  13.635  1.00  0.00    -0.086 C 
HETATM   25  C1  UNL     1     -13.634   5.861  14.256  1.00  0.00     0.014 C 
BRANCH  24  26
HETATM   26  C25 UNL     1     -14.670   7.826  13.139  1.00  0.00     0.005 C 
HETATM   27  C26 UNL     1     -14.297   9.236  12.676  1.00  0.00     0.014 C 
HETATM   28  C27 UNL     1     -15.479   7.097  12.065  1.00  0.00     0.014 C 
ENDBRANCH  24  26
ENDBRANCH  23  24
ENDBRANCH  22  23
ENDBRANCH   1  22
BRANCH  11  29
HETATM   29  O1  UNL     1       0.196   4.166  12.163  1.00  0.00    -0.396 OA
HETATM   30  H21 UNL     1      -0.063   3.818  13.033  1.00  0.00     0.210 HD
ENDBRANCH  11  29
TORSDOF 5
ENDMDL
MODEL 7
REMARK minimizedAffinity -8.54259205
REMARK  5 active torsions:
REMARK  status: ('A' for Active; 'I' for Inactive)
REMARK    1  A    between atoms: C2_2  and  C3_3 
REMARK    2  A    between atoms: C2_2  and  C25_27 
REMARK    3  A    between atoms: C3_3  and  C4_4 
REMARK    4  A    between atoms: C4_4  and  C5_5 
REMARK    5  A    between atoms: C15_15  and  O1_16 
ROOT
HETATM    1  C5  UNL     1      -2.526   5.967  14.047  1.00  0.00    -0.023 C 
HETATM    2  C6  UNL     1      -1.717   5.941  12.975  1.00  0.00    -0.075 C 
HETATM    3  C7  UNL     1      -1.839   4.984  11.802  1.00  0.00     0.035 C 
HETATM    4  C8  UNL     1      -0.581   5.232  10.957  1.00  0.00     0.013 C 
HETATM    5  C9  UNL     1       0.387   5.837  11.968  1.00  0.00     0.033 C 
HETATM    6  C10 UNL     1       1.716   6.412  11.477  1.00  0.00     0.070 C 
HETATM    7  C11 UNL     1       2.565   5.314  10.785  1.00  0.00     0.039 C 
HETATM    8  C12 UNL     1       3.892   5.848  10.237  1.00  0.00     0.009 C 
HETATM    9  C13 UNL     1       4.554   6.800  11.239  1.00  0.00    -0.001 C 
HETATM   10  C14 UNL     1       5.792   7.485  10.661  1.00  0.00     0.037 C 
HETATM   11  C15 UNL     1       6.577   8.206  11.764  1.00  0.00     0.118 C 
HETATM   12  C16 UNL     1       5.711   8.626  12.958  1.00  0.00     0.032 C 
HETATM   13  C17 UNL     1       4.295   9.005  12.527  1.00  0.00     0.015 C 
HETATM   14  C18 UNL     1       3.544   7.853  11.817  1.00  0.00    -0.009 C 
HETATM   15  C19 UNL     1       2.613   8.421  10.720  1.00  0.00     0.179 C 
HETATM   16  O2  UNL     1       1.550   7.468  10.518  1.00  0.00    -0.379 OA
HETATM   17  C20 UNL     1       2.509   7.056  12.642  1.00  0.00     0.032 C 
HETATM   18  C21 UNL     1       1.644   7.907  13.604  1.00  0.00     0.009 C 
HETATM   19  C22 UNL     1       0.313   7.250  14.000  1.00  0.00     0.014 C 
HETATM   20  C23 UNL     1      -0.493   6.827  12.761  1.00  0.00    -0.014 C 
HETATM   21  C24 UNL     1      -0.988   8.075  11.996  1.00  0.00     0.020 C 
ENDROOT
BRANCH   1  22
HETATM   22  C4  UNL     1      -3.723   5.081  14.274  1.00  0.00     0.031 C 
BRANCH  22  23
HETATM   23  C3  UNL     1      -4.894   5.490  13.374  1.00  0.00     0.037 C 
BRANCH  23  24
HETATM   24  C2  UNL     1      -5.681   4.321  12.805  1.00  0.00    -0.086 C 
HETATM   25  C1  UNL     1      -5.104   3.505  11.902  1.00  0.00     0.014 C 
BRANCH  24  26
HETATM   26  C25 UNL     1      -7.137   4.102  13.205  1.00  0.00     0.005 C 
HETATM   27  C26 UNL     1      -8.073   5.133  12.570  1.00  0.00     0.014 C 
HETATM   28  C27 UNL     1      -7.640   2.680  12.947  1.00  0.00     0.014 C 
ENDBRANCH  24  26
ENDBRANCH  23  24
ENDBRANCH  22  23
ENDBRANCH   1  22
BRANCH  11  29
HETATM   29  O1  UNL     1       7.226   9.344  11.206  1.00  0.00    -0.396 OA
HETATM   30  H21 UNL     1       6.544   9.969  10.908  1.00  0.00     0.210 HD
ENDBRANCH  11  29
TORSDOF 5
ENDMDL
MODEL 8
REMARK minimizedAffinity -8.32372665
REMARK  5 active torsions:
REMARK  status: ('A' for Active; 'I' for Inactive)
REMARK    1  A    between atoms: C2_2  and  C3_3 
REMARK    2  A    between atoms: C2_2  and  C25_27 
REMARK    3  A    between atoms: C3_3  and  C4_4 
REMARK    4  A    between atoms: C4_4  and  C5_5 
REMARK    5  A    between atoms: C15_15  and  O1_16 
ROOT
HETATM    1  C5  UNL     1      -6.456   4.744  14.346  1.00  0.00    -0.023 C 
HETATM    2  C6  UNL     1      -5.357   4.906  13.590  1.00  0.00    -0.075 C 
HETATM    3  C7  UNL     1      -4.994   4.073  12.373  1.00  0.00     0.035 C 
HETATM    4  C8  UNL     1      -3.574   4.521  11.996  1.00  0.00     0.013 C 
HETATM    5  C9  UNL     1      -3.048   5.099  13.305  1.00  0.00     0.033 C 
HETATM    6  C10 UNL     1      -1.711   5.840  13.309  1.00  0.00     0.070 C 
HETATM    7  C11 UNL     1      -0.564   4.904  12.847  1.00  0.00     0.039 C 
HETATM    8  C12 UNL     1       0.794   5.610  12.794  1.00  0.00     0.009 C 
HETATM    9  C13 UNL     1       0.994   6.505  14.021  1.00  0.00    -0.001 C 
HETATM   10  C14 UNL     1       2.259   7.356  13.921  1.00  0.00     0.037 C 
HETATM   11  C15 UNL     1       2.571   8.023  15.267  1.00  0.00     0.118 C 
HETATM   12  C16 UNL     1       1.334   8.234  16.148  1.00  0.00     0.032 C 
HETATM   13  C17 UNL     1       0.087   8.528  15.314  1.00  0.00     0.015 C 
HETATM   14  C18 UNL     1      -0.263   7.395  14.320  1.00  0.00    -0.009 C 
HETATM   15  C19 UNL     1      -0.868   7.991  13.026  1.00  0.00     0.179 C 
HETATM   16  O2  UNL     1      -1.695   6.974  12.426  1.00  0.00    -0.379 OA
HETATM   17  C20 UNL     1      -1.401   6.426  14.709  1.00  0.00     0.032 C 
HETATM   18  C21 UNL     1      -2.617   7.088  15.404  1.00  0.00     0.009 C 
HETATM   19  C22 UNL     1      -3.917   6.276  15.304  1.00  0.00     0.014 C 
HETATM   20  C23 UNL     1      -4.241   5.916  13.844  1.00  0.00    -0.014 C 
HETATM   21  C24 UNL     1      -4.619   7.189  13.054  1.00  0.00     0.020 C 
ENDROOT
BRANCH   1  22
HETATM   22  C4  UNL     1      -7.549   3.735  14.112  1.00  0.00     0.031 C 
BRANCH  22  23
HETATM   23  C3  UNL     1      -8.330   4.050  12.832  1.00  0.00     0.037 C 
BRANCH  23  24
HETATM   24  C2  UNL     1      -8.801   5.491  12.727  1.00  0.00    -0.086 C 
HETATM   25  C1  UNL     1      -8.683   6.150  11.559  1.00  0.00     0.014 C 
BRANCH  24  26
HETATM   26  C25 UNL     1      -9.353   6.215  13.952  1.00  0.00     0.005 C 
HETATM   27  C26 UNL     1      -8.414   7.320  14.443  1.00  0.00     0.014 C 
HETATM   28  C27 UNL     1     -10.773   6.752  13.764  1.00  0.00     0.014 C 
ENDBRANCH  24  26
ENDBRANCH  23  24
ENDBRANCH  22  23
ENDBRANCH   1  22
BRANCH  11  29
HETATM   29  O1  UNL     1       3.221   9.269  15.030  1.00  0.00    -0.396 OA
HETATM   30  H21 UNL     1       2.596   9.858  14.576  1.00  0.00     0.210 HD
ENDBRANCH  11  29
TORSDOF 5
ENDMDL
MODEL 9
REMARK minimizedAffinity -8.29844856
REMARK  5 active torsions:
REMARK  status: ('A' for Active; 'I' for Inactive)
REMARK    1  A    between atoms: C2_2  and  C3_3 
REMARK    2  A    between atoms: C2_2  and  C25_27 
REMARK    3  A    between atoms: C3_3  and  C4_4 
REMARK    4  A    between atoms: C4_4  and  C5_5 
REMARK    5  A    between atoms: C15_15  and  O1_16 
ROOT
HETATM    1  C5  UNL     1       1.673   8.398  11.751  1.00  0.00    -0.023 C 
HETATM    2  C6  UNL     1       1.044   7.273  12.131  1.00  0.00    -0.075 C 
HETATM    3  C7  UNL     1       1.539   5.859  11.878  1.00  0.00     0.035 C 
HETATM    4  C8  UNL     1       0.384   4.951  12.324  1.00  0.00     0.013 C 
HETATM    5  C9  UNL     1      -0.824   5.877  12.233  1.00  0.00     0.033 C 
HETATM    6  C10 UNL     1      -2.169   5.405  12.784  1.00  0.00     0.070 C 
HETATM    7  C11 UNL     1      -2.645   4.126  12.047  1.00  0.00     0.039 C 
HETATM    8  C12 UNL     1      -3.971   3.586  12.590  1.00  0.00     0.009 C 
HETATM    9  C13 UNL     1      -4.962   4.727  12.846  1.00  0.00    -0.001 C 
HETATM   10  C14 UNL     1      -6.233   4.248  13.547  1.00  0.00     0.037 C 
HETATM   11  C15 UNL     1      -7.304   5.347  13.537  1.00  0.00     0.118 C 
HETATM   12  C16 UNL     1      -6.726   6.765  13.449  1.00  0.00     0.032 C 
HETATM   13  C17 UNL     1      -5.388   6.879  14.178  1.00  0.00     0.015 C 
HETATM   14  C18 UNL     1      -4.306   5.923  13.621  1.00  0.00    -0.009 C 
HETATM   15  C19 UNL     1      -3.389   5.433  14.766  1.00  0.00     0.179 C 
HETATM   16  O2  UNL     1      -2.119   5.077  14.183  1.00  0.00    -0.379 OA
HETATM   17  C20 UNL     1      -3.238   6.521  12.678  1.00  0.00     0.032 C 
HETATM   18  C21 UNL     1      -2.729   7.928  13.074  1.00  0.00     0.009 C 
HETATM   19  C22 UNL     1      -1.350   8.282  12.497  1.00  0.00     0.014 C 
HETATM   20  C23 UNL     1      -0.308   7.202  12.833  1.00  0.00    -0.014 C 
HETATM   21  C24 UNL     1      -0.011   7.203  14.350  1.00  0.00     0.020 C 
ENDROOT
BRANCH   1  22
HETATM   22  C4  UNL     1       2.998   8.473  11.038  1.00  0.00     0.031 C 
BRANCH  22  23
HETATM   23  C3  UNL     1       4.112   8.933  11.985  1.00  0.00     0.037 C 
BRANCH  23  24
HETATM   24  C2  UNL     1       5.516   8.722  11.444  1.00  0.00    -0.086 C 
HETATM   25  C1  UNL     1       6.014   9.574  10.528  1.00  0.00     0.014 C 
BRANCH  24  26
HETATM   26  C25 UNL     1       6.343   7.518  11.887  1.00  0.00     0.005 C 
HETATM   27  C26 UNL     1       6.306   7.319  13.405  1.00  0.00     0.014 C 
HETATM   28  C27 UNL     1       5.984   6.221  11.160  1.00  0.00     0.014 C 
ENDBRANCH  24  26
ENDBRANCH  23  24
ENDBRANCH  22  23
ENDBRANCH   1  22
BRANCH  11  29
HETATM   29  O1  UNL     1      -8.113   5.220  14.702  1.00  0.00    -0.396 OA
HETATM   30  H21 UNL     1      -7.556   5.392  15.480  1.00  0.00     0.210 HD
ENDBRANCH  11  29
TORSDOF 5
ENDMDL
