MODEL 1
REMARK minimizedAffinity -7.52231646
REMARK CNNscore 0.692732573
REMARK CNNaffinity 6.94697714
REMARK  7 active torsions:
REMARK  status: ('A' for Active; 'I' for Inactive)
REMARK    1  A    between atoms: O1_2  and  C2_3 
REMARK    2  A    between atoms: C2_3  and  C3_5 
REMARK    3  A    between atoms: C5_7  and  C6_8 
REMARK    4  A    between atoms: C6_8  and  C7_9 
REMARK    5  A    between atoms: C7_9  and  C8_10 
REMARK    6  A    between atoms: C8_10  and  C10_12 
REMARK    7  A    between atoms: C17_19  and  O3_20 
ROOT
HETATM    1  C10 UNL     1      -1.652  10.494  16.186  1.00  0.00    -0.002 C 
HETATM    2  C11 UNL     1      -0.363  11.322  16.303  1.00  0.00     0.007 C 
HETATM    3  C12 UNL     1       0.439  10.949  15.073  1.00  0.00     0.015 C 
HETATM    4  C13 UNL     1       0.316   9.411  14.991  1.00  0.00    -0.005 C 
HETATM    5  C14 UNL     1       1.249   8.766  16.060  1.00  0.00     0.021 C 
HETATM    6  C15 UNL     1       0.724   8.908  13.585  1.00  0.00     0.002 C 
HETATM    7  C16 UNL     1      -0.094   8.272  12.708  1.00  0.00    -0.032 C 
HETATM    8  C17 UNL     1      -1.573   8.139  13.043  1.00  0.00     0.149 C 
HETATM    9  C18 UNL     1      -2.064   9.152  14.078  1.00  0.00     0.047 C 
HETATM   10  C19 UNL     1      -1.218   9.185  15.380  1.00  0.00    -0.026 C 
HETATM   11  C20 UNL     1      -1.431   7.861  16.149  1.00  0.00     0.016 C 
HETATM   12  C21 UNL     1       0.362   7.695  11.320  1.00  0.00    -0.012 C 
HETATM   13  C22 UNL     1      -0.231   6.272  11.169  1.00  0.00     0.021 C 
HETATM   14  C23 UNL     1      -0.198   8.613  10.200  1.00  0.00     0.021 C 
HETATM   15  C24 UNL     1       0.266   8.235   8.801  1.00  0.00     0.080 C 
HETATM   16  C25 UNL     1       1.773   8.189   8.718  1.00  0.00     0.135 C 
HETATM   17  O4  UNL     1       2.356   8.781   7.809  1.00  0.00    -0.297 OA
HETATM   18  C26 UNL     1       2.511   7.319   9.745  1.00  0.00     0.018 C 
HETATM   19  C27 UNL     1       2.363   5.838   9.333  1.00  0.00     0.023 C 
HETATM   20  C28 UNL     1       4.028   7.626   9.654  1.00  0.00     0.023 C 
HETATM   21  C29 UNL     1       1.935   7.625  11.194  1.00  0.00     0.020 C 
HETATM   22  C30 UNL     1       2.539   8.924  11.740  1.00  0.00     0.090 C 
HETATM   23  C31 UNL     1       2.127   9.216  13.153  1.00  0.00     0.157 C 
HETATM   24  O5  UNL     1       2.926   9.782  13.897  1.00  0.00    -0.293 OA
ENDROOT
BRANCH   1  25
HETATM   25  C8  UNL     1      -2.404  10.366  17.544  1.00  0.00    -0.014 C 
HETATM   26  C9  UNL     1      -1.489  10.702  18.740  1.00  0.00     0.010 C 
BRANCH  25  27
HETATM   27  C7  UNL     1      -3.693  11.219  17.649  1.00  0.00     0.008 C 
BRANCH  27  28
HETATM   28  C6  UNL     1      -3.564  12.517  18.455  1.00  0.00     0.028 C 
BRANCH  28  29
HETATM   29  C5  UNL     1      -4.610  12.577  19.536  1.00  0.00    -0.014 C 
HETATM   30  C3  UNL     1      -4.869  13.609  20.367  1.00  0.00     0.009 C 
HETATM   31  C4  UNL     1      -4.127  14.915  20.395  1.00  0.00     0.054 C 
BRANCH  30  32
HETATM   32  C2  UNL     1      -5.972  13.532  21.380  1.00  0.00     0.288 C 
HETATM   33  O2  UNL     1      -5.777  13.626  22.585  1.00  0.00    -0.260 OA
BRANCH  32  34
HETATM   34  O1  UNL     1      -7.181  13.333  20.796  1.00  0.00    -0.323 OA
HETATM   35  C1  UNL     1      -7.857  14.538  20.436  1.00  0.00     0.213 C 
ENDBRANCH  32  34
ENDBRANCH  30  32
ENDBRANCH  28  29
ENDBRANCH  27  28
ENDBRANCH  25  27
ENDBRANCH   1  25
BRANCH   8  36
HETATM   36  O3  UNL     1      -1.831   6.813  13.481  1.00  0.00    -0.391 OA
HETATM   37  H25 UNL     1      -2.782   6.747  13.672  1.00  0.00     0.210 HD
ENDBRANCH   8  36
TORSDOF 7
ENDMDL
MODEL 2
REMARK minimizedAffinity -6.68625689
REMARK CNNscore 0.61570251
REMARK CNNaffinity 7.22590828
REMARK  7 active torsions:
REMARK  status: ('A' for Active; 'I' for Inactive)
REMARK    1  A    between atoms: O1_2  and  C2_3 
REMARK    2  A    between atoms: C2_3  and  C3_5 
REMARK    3  A    between atoms: C5_7  and  C6_8 
REMARK    4  A    between atoms: C6_8  and  C7_9 
REMARK    5  A    between atoms: C7_9  and  C8_10 
REMARK    6  A    between atoms: C8_10  and  C10_12 
REMARK    7  A    between atoms: C17_19  and  O3_20 
ROOT
HETATM    1  C10 UNL     1     -10.130   8.703  14.422  1.00  0.00    -0.002 C 
HETATM    2  C11 UNL     1     -10.531   7.587  13.447  1.00  0.00     0.007 C 
HETATM    3  C12 UNL     1     -11.857   8.045  12.872  1.00  0.00     0.015 C 
HETATM    4  C13 UNL     1     -12.649   8.549  14.100  1.00  0.00    -0.005 C 
HETATM    5  C14 UNL     1     -13.177   7.324  14.905  1.00  0.00     0.021 C 
HETATM    6  C15 UNL     1     -13.847   9.421  13.651  1.00  0.00     0.002 C 
HETATM    7  C16 UNL     1     -14.015  10.737  13.940  1.00  0.00    -0.032 C 
HETATM    8  C17 UNL     1     -12.895  11.485  14.648  1.00  0.00     0.149 C 
HETATM    9  C18 UNL     1     -11.527  10.814  14.518  1.00  0.00     0.047 C 
HETATM   10  C19 UNL     1     -11.517   9.317  14.927  1.00  0.00    -0.026 C 
HETATM   11  C20 UNL     1     -11.744   9.212  16.453  1.00  0.00     0.016 C 
HETATM   12  C21 UNL     1     -15.279  11.582  13.546  1.00  0.00    -0.012 C 
HETATM   13  C22 UNL     1     -15.709  12.414  14.780  1.00  0.00     0.021 C 
HETATM   14  C23 UNL     1     -14.888  12.538  12.386  1.00  0.00     0.021 C 
HETATM   15  C24 UNL     1     -16.054  13.338  11.825  1.00  0.00     0.080 C 
HETATM   16  C25 UNL     1     -17.178  12.433  11.383  1.00  0.00     0.135 C 
HETATM   17  O4  UNL     1     -17.675  12.571  10.265  1.00  0.00    -0.297 OA
HETATM   18  C26 UNL     1     -17.710  11.417  12.404  1.00  0.00     0.018 C 
HETATM   19  C27 UNL     1     -18.603  12.163  13.420  1.00  0.00     0.023 C 
HETATM   20  C28 UNL     1     -18.652  10.427  11.672  1.00  0.00     0.023 C 
HETATM   21  C29 UNL     1     -16.482  10.670  13.082  1.00  0.00     0.020 C 
HETATM   22  C30 UNL     1     -15.950   9.576  12.150  1.00  0.00     0.090 C 
HETATM   23  C31 UNL     1     -14.862   8.751  12.773  1.00  0.00     0.157 C 
HETATM   24  O5  UNL     1     -14.778   7.560  12.477  1.00  0.00    -0.293 OA
ENDROOT
BRANCH   1  25
HETATM   25  C8  UNL     1      -9.057   8.239  15.452  1.00  0.00    -0.014 C 
HETATM   26  C9  UNL     1      -9.277   6.776  15.888  1.00  0.00     0.010 C 
BRANCH  25  27
HETATM   27  C7  UNL     1      -7.593   8.401  14.973  1.00  0.00     0.008 C 
BRANCH  27  28
HETATM   28  C6  UNL     1      -6.662   7.221  15.278  1.00  0.00     0.028 C 
BRANCH  28  29
HETATM   29  C5  UNL     1      -6.864   6.113  14.280  1.00  0.00    -0.014 C 
HETATM   30  C3  UNL     1      -5.912   5.445  13.594  1.00  0.00     0.009 C 
HETATM   31  C4  UNL     1      -4.434   5.705  13.676  1.00  0.00     0.054 C 
BRANCH  30  32
HETATM   32  C2  UNL     1      -6.269   4.336  12.650  1.00  0.00     0.288 C 
HETATM   33  O2  UNL     1      -7.375   4.229  12.137  1.00  0.00    -0.260 OA
BRANCH  32  34
HETATM   34  O1  UNL     1      -5.230   3.483  12.458  1.00  0.00    -0.323 OA
HETATM   35  C1  UNL     1      -5.323   2.716  11.257  1.00  0.00     0.213 C 
ENDBRANCH  32  34
ENDBRANCH  30  32
ENDBRANCH  28  29
ENDBRANCH  27  28
ENDBRANCH  25  27
ENDBRANCH   1  25
BRANCH   8  36
HETATM   36  O3  UNL     1     -13.241  11.650  16.016  1.00  0.00    -0.391 OA
HETATM   37  H25 UNL     1     -12.521  12.144  16.443  1.00  0.00     0.210 HD
ENDBRANCH   8  36
TORSDOF 7
ENDMDL
MODEL 3
REMARK minimizedAffinity -10.2020187
REMARK CNNscore 0.595499814
REMARK CNNaffinity 6.98303175
REMARK  7 active torsions:
REMARK  status: ('A' for Active; 'I' for Inactive)
REMARK    1  A    between atoms: O1_2  and  C2_3 
REMARK    2  A    between atoms: C2_3  and  C3_5 
REMARK    3  A    between atoms: C5_7  and  C6_8 
REMARK    4  A    between atoms: C6_8  and  C7_9 
REMARK    5  A    between atoms: C7_9  and  C8_10 
REMARK    6  A    between atoms: C8_10  and  C10_12 
REMARK    7  A    between atoms: C17_19  and  O3_20 
ROOT
HETATM    1  C10 UNL     1      -2.989   7.410  15.125  1.00  0.00    -0.002 C 
HETATM    2  C11 UNL     1      -2.614   5.970  15.506  1.00  0.00     0.007 C 
HETATM    3  C12 UNL     1      -1.434   5.639  14.616  1.00  0.00     0.015 C 
HETATM    4  C13 UNL     1      -1.850   6.162  13.223  1.00  0.00    -0.005 C 
HETATM    5  C14 UNL     1      -2.879   5.175  12.592  1.00  0.00     0.021 C 
HETATM    6  C15 UNL     1      -0.616   6.276  12.295  1.00  0.00     0.002 C 
HETATM    7  C16 UNL     1      -0.138   7.428  11.759  1.00  0.00    -0.032 C 
HETATM    8  C17 UNL     1      -0.757   8.751  12.184  1.00  0.00     0.149 C 
HETATM    9  C18 UNL     1      -1.503   8.683  13.517  1.00  0.00     0.047 C 
HETATM   10  C19 UNL     1      -2.558   7.547  13.592  1.00  0.00    -0.026 C 
HETATM   11  C20 UNL     1      -3.721   7.878  12.628  1.00  0.00     0.016 C 
HETATM   12  C21 UNL     1       1.065   7.511  10.752  1.00  0.00    -0.012 C 
HETATM   13  C22 UNL     1       0.665   8.462   9.597  1.00  0.00     0.021 C 
HETATM   14  C23 UNL     1       2.293   8.095  11.503  1.00  0.00     0.021 C 
HETATM   15  C24 UNL     1       3.568   8.123  10.674  1.00  0.00     0.080 C 
HETATM   16  C25 UNL     1       3.903   6.752  10.136  1.00  0.00     0.135 C 
HETATM   17  O4  UNL     1       5.038   6.298  10.278  1.00  0.00    -0.297 OA
HETATM   18  C26 UNL     1       2.808   6.015   9.351  1.00  0.00     0.018 C 
HETATM   19  C27 UNL     1       2.714   6.634   7.939  1.00  0.00     0.023 C 
HETATM   20  C28 UNL     1       3.261   4.548   9.132  1.00  0.00     0.023 C 
HETATM   21  C29 UNL     1       1.444   6.096  10.161  1.00  0.00     0.020 C 
HETATM   22  C30 UNL     1       1.440   5.064  11.294  1.00  0.00     0.090 C 
HETATM   23  C31 UNL     1       0.134   5.004  12.031  1.00  0.00     0.157 C 
HETATM   24  O5  UNL     1      -0.245   3.923  12.477  1.00  0.00    -0.293 OA
ENDROOT
BRANCH   1  25
HETATM   25  C8  UNL     1      -4.433   7.788  15.570  1.00  0.00    -0.014 C 
HETATM   26  C9  UNL     1      -4.981   8.992  14.775  1.00  0.00     0.010 C 
BRANCH  25  27
HETATM   27  C7  UNL     1      -5.457   6.629  15.488  1.00  0.00     0.008 C 
BRANCH  27  28
HETATM   28  C6  UNL     1      -6.212   6.507  14.158  1.00  0.00     0.028 C 
BRANCH  28  29
HETATM   29  C5  UNL     1      -6.269   5.071  13.709  1.00  0.00    -0.014 C 
HETATM   30  C3  UNL     1      -7.267   4.464  13.033  1.00  0.00     0.009 C 
HETATM   31  C4  UNL     1      -8.557   5.111  12.614  1.00  0.00     0.054 C 
BRANCH  30  32
HETATM   32  C2  UNL     1      -7.165   3.025  12.626  1.00  0.00     0.288 C 
HETATM   33  O2  UNL     1      -8.062   2.214  12.814  1.00  0.00    -0.260 OA
BRANCH  32  34
HETATM   34  O1  UNL     1      -5.968   2.747  12.047  1.00  0.00    -0.323 OA
HETATM   35  C1  UNL     1      -5.964   1.552  11.266  1.00  0.00     0.213 C 
ENDBRANCH  32  34
ENDBRANCH  30  32
ENDBRANCH  28  29
ENDBRANCH  27  28
ENDBRANCH  25  27
ENDBRANCH   1  25
BRANCH   8  36
HETATM   36  O3  UNL     1      -1.619   9.212  11.153  1.00  0.00    -0.391 OA
HETATM   37  H25 UNL     1      -1.988  10.065  11.439  1.00  0.00     0.210 HD
ENDBRANCH   8  36
TORSDOF 7
ENDMDL
MODEL 4
REMARK minimizedAffinity -9.32532597
REMARK CNNscore 0.580934286
REMARK CNNaffinity 6.86348724
REMARK  7 active torsions:
REMARK  status: ('A' for Active; 'I' for Inactive)
REMARK    1  A    between atoms: O1_2  and  C2_3 
REMARK    2  A    between atoms: C2_3  and  C3_5 
REMARK    3  A    between atoms: C5_7  and  C6_8 
REMARK    4  A    between atoms: C6_8  and  C7_9 
REMARK    5  A    between atoms: C7_9  and  C8_10 
REMARK    6  A    between atoms: C8_10  and  C10_12 
REMARK    7  A    between atoms: C17_19  and  O3_20 
ROOT
HETATM    1  C10 UNL     1      -3.088   7.393  15.142  1.00  0.00    -0.002 C 
HETATM    2  C11 UNL     1      -2.715   5.951  15.519  1.00  0.00     0.007 C 
HETATM    3  C12 UNL     1      -1.527   5.625  14.637  1.00  0.00     0.015 C 
HETATM    4  C13 UNL     1      -1.932   6.156  13.243  1.00  0.00    -0.005 C 
HETATM    5  C14 UNL     1      -2.954   5.172  12.598  1.00  0.00     0.021 C 
HETATM    6  C15 UNL     1      -0.690   6.275  12.327  1.00  0.00     0.002 C 
HETATM    7  C16 UNL     1      -0.208   7.430  11.801  1.00  0.00    -0.032 C 
HETATM    8  C17 UNL     1      -0.831   8.751  12.228  1.00  0.00     0.149 C 
HETATM    9  C18 UNL     1      -1.588   8.676  13.554  1.00  0.00     0.047 C 
HETATM   10  C19 UNL     1      -2.644   7.538  13.614  1.00  0.00    -0.026 C 
HETATM   11  C20 UNL     1      -3.798   7.874  12.642  1.00  0.00     0.016 C 
HETATM   12  C21 UNL     1       1.004   7.520  10.805  1.00  0.00    -0.012 C 
HETATM   13  C22 UNL     1       0.613   8.476   9.651  1.00  0.00     0.021 C 
HETATM   14  C23 UNL     1       2.225   8.100  11.569  1.00  0.00     0.021 C 
HETATM   15  C24 UNL     1       3.508   8.133  10.752  1.00  0.00     0.080 C 
HETATM   16  C25 UNL     1       3.848   6.766  10.210  1.00  0.00     0.135 C 
HETATM   17  O4  UNL     1       4.982   6.311  10.358  1.00  0.00    -0.297 OA
HETATM   18  C26 UNL     1       2.760   6.032   9.411  1.00  0.00     0.018 C 
HETATM   19  C27 UNL     1       2.678   6.659   8.002  1.00  0.00     0.023 C 
HETATM   20  C28 UNL     1       3.215   4.567   9.188  1.00  0.00     0.023 C 
HETATM   21  C29 UNL     1       1.389   6.108  10.210  1.00  0.00     0.020 C 
HETATM   22  C30 UNL     1       1.375   5.070  11.337  1.00  0.00     0.090 C 
HETATM   23  C31 UNL     1       0.064   5.006  12.062  1.00  0.00     0.157 C 
HETATM   24  O5  UNL     1      -0.319   3.922  12.499  1.00  0.00    -0.293 OA
ENDROOT
BRANCH   1  25
HETATM   25  C8  UNL     1      -4.535   7.768  15.577  1.00  0.00    -0.014 C 
HETATM   26  C9  UNL     1      -4.841   9.259  15.325  1.00  0.00     0.010 C 
BRANCH  25  27
HETATM   27  C7  UNL     1      -5.647   6.914  14.920  1.00  0.00     0.008 C 
BRANCH  27  28
HETATM   28  C6  UNL     1      -6.632   6.248  15.889  1.00  0.00     0.028 C 
BRANCH  28  29
HETATM   29  C5  UNL     1      -7.999   6.865  15.766  1.00  0.00    -0.014 C 
HETATM   30  C3  UNL     1      -8.879   6.710  14.755  1.00  0.00     0.009 C 
HETATM   31  C4  UNL     1      -8.646   5.896  13.513  1.00  0.00     0.054 C 
BRANCH  30  32
HETATM   32  C2  UNL     1     -10.225   7.370  14.788  1.00  0.00     0.288 C 
HETATM   33  O2  UNL     1     -10.517   8.245  15.592  1.00  0.00    -0.260 OA
BRANCH  32  34
HETATM   34  O1  UNL     1     -11.057   6.867  13.840  1.00  0.00    -0.323 OA
HETATM   35  C1  UNL     1     -12.373   6.583  14.315  1.00  0.00     0.213 C 
ENDBRANCH  32  34
ENDBRANCH  30  32
ENDBRANCH  28  29
ENDBRANCH  27  28
ENDBRANCH  25  27
ENDBRANCH   1  25
BRANCH   8  36
HETATM   36  O3  UNL     1      -1.685   9.217  11.192  1.00  0.00    -0.391 OA
HETATM   37  H25 UNL     1      -2.057  10.068  11.479  1.00  0.00     0.210 HD
ENDBRANCH   8  36
TORSDOF 7
ENDMDL
MODEL 5
REMARK minimizedAffinity -6.77301502
REMARK CNNscore 0.489076495
REMARK CNNaffinity 5.90542793
REMARK  7 active torsions:
REMARK  status: ('A' for Active; 'I' for Inactive)
REMARK    1  A    between atoms: O1_2  and  C2_3 
REMARK    2  A    between atoms: C2_3  and  C3_5 
REMARK    3  A    between atoms: C5_7  and  C6_8 
REMARK    4  A    between atoms: C6_8  and  C7_9 
REMARK    5  A    between atoms: C7_9  and  C8_10 
REMARK    6  A    between atoms: C8_10  and  C10_12 
REMARK    7  A    between atoms: C17_19  and  O3_20 
ROOT
HETATM    1  C10 UNL     1     -13.891  -3.822  13.278  1.00  0.00    -0.002 C 
HETATM    2  C11 UNL     1     -14.147  -3.563  11.786  1.00  0.00     0.007 C 
HETATM    3  C12 UNL     1     -14.774  -2.183  11.744  1.00  0.00     0.015 C 
HETATM    4  C13 UNL     1     -15.816  -2.206  12.885  1.00  0.00    -0.005 C 
HETATM    5  C14 UNL     1     -17.062  -3.021  12.425  1.00  0.00     0.021 C 
HETATM    6  C15 UNL     1     -16.254  -0.766  13.247  1.00  0.00     0.002 C 
HETATM    7  C16 UNL     1     -16.057  -0.162  14.448  1.00  0.00    -0.032 C 
HETATM    8  C17 UNL     1     -15.228  -0.876  15.505  1.00  0.00     0.149 C 
HETATM    9  C18 UNL     1     -14.306  -1.956  14.940  1.00  0.00     0.047 C 
HETATM   10  C19 UNL     1     -15.027  -2.990  14.033  1.00  0.00    -0.026 C 
HETATM   11  C20 UNL     1     -15.975  -3.846  14.905  1.00  0.00     0.016 C 
HETATM   12  C21 UNL     1     -16.584   1.271  14.822  1.00  0.00    -0.012 C 
HETATM   13  C22 UNL     1     -17.221   1.198  16.232  1.00  0.00     0.021 C 
HETATM   14  C23 UNL     1     -15.376   2.246  14.848  1.00  0.00     0.021 C 
HETATM   15  C24 UNL     1     -15.759   3.699  15.084  1.00  0.00     0.080 C 
HETATM   16  C25 UNL     1     -16.775   4.170  14.071  1.00  0.00     0.135 C 
HETATM   17  O4  UNL     1     -16.592   5.225  13.463  1.00  0.00    -0.297 OA
HETATM   18  C26 UNL     1     -18.052   3.332  13.909  1.00  0.00     0.018 C 
HETATM   19  C27 UNL     1     -18.988   3.625  15.103  1.00  0.00     0.023 C 
HETATM   20  C28 UNL     1     -18.813   3.830  12.653  1.00  0.00     0.023 C 
HETATM   21  C29 UNL     1     -17.655   1.799  13.788  1.00  0.00     0.020 C 
HETATM   22  C30 UNL     1     -17.173   1.488  12.367  1.00  0.00     0.090 C 
HETATM   23  C31 UNL     1     -16.890   0.031  12.147  1.00  0.00     0.157 C 
HETATM   24  O5  UNL     1     -17.106  -0.454  11.038  1.00  0.00    -0.293 OA
ENDROOT
BRANCH   1  25
HETATM   25  C8  UNL     1     -13.685  -5.333  13.594  1.00  0.00    -0.014 C 
HETATM   26  C9  UNL     1     -13.696  -6.193  12.312  1.00  0.00     0.010 C 
BRANCH  25  27
HETATM   27  C7  UNL     1     -12.401  -5.654  14.397  1.00  0.00     0.008 C 
BRANCH  27  28
HETATM   28  C6  UNL     1     -12.622  -6.120  15.842  1.00  0.00     0.028 C 
BRANCH  28  29
HETATM   29  C5  UNL     1     -11.460  -6.949  16.317  1.00  0.00    -0.014 C 
HETATM   30  C3  UNL     1     -11.508  -8.082  17.049  1.00  0.00     0.009 C 
HETATM   31  C4  UNL     1     -12.759  -8.733  17.568  1.00  0.00     0.054 C 
BRANCH  30  32
HETATM   32  C2  UNL     1     -10.257  -8.819  17.423  1.00  0.00     0.288 C 
HETATM   33  O2  UNL     1      -9.600  -9.467  16.618  1.00  0.00    -0.260 OA
BRANCH  32  34
HETATM   34  O1  UNL     1      -9.968  -8.685  18.743  1.00  0.00    -0.323 OA
HETATM   35  C1  UNL     1      -9.757  -9.925  19.419  1.00  0.00     0.213 C 
ENDBRANCH  32  34
ENDBRANCH  30  32
ENDBRANCH  28  29
ENDBRANCH  27  28
ENDBRANCH  25  27
ENDBRANCH   1  25
BRANCH   8  36
HETATM   36  O3  UNL     1     -16.099  -1.425  16.484  1.00  0.00    -0.391 OA
HETATM   37  H25 UNL     1     -15.548  -1.859  17.156  1.00  0.00     0.210 HD
ENDBRANCH   8  36
TORSDOF 7
ENDMDL
MODEL 6
REMARK minimizedAffinity -9.12411404
REMARK CNNscore 0.488852739
REMARK CNNaffinity 6.90921021
REMARK  7 active torsions:
REMARK  status: ('A' for Active; 'I' for Inactive)
REMARK    1  A    between atoms: O1_2  and  C2_3 
REMARK    2  A    between atoms: C2_3  and  C3_5 
REMARK    3  A    between atoms: C5_7  and  C6_8 
REMARK    4  A    between atoms: C6_8  and  C7_9 
REMARK    5  A    between atoms: C7_9  and  C8_10 
REMARK    6  A    between atoms: C8_10  and  C10_12 
REMARK    7  A    between atoms: C17_19  and  O3_20 
ROOT
HETATM    1  C10 UNL     1      -3.776   8.002  14.263  1.00  0.00    -0.002 C 
HETATM    2  C11 UNL     1      -3.233   9.396  14.609  1.00  0.00     0.007 C 
HETATM    3  C12 UNL     1      -1.921   9.488  13.855  1.00  0.00     0.015 C 
HETATM    4  C13 UNL     1      -1.240   8.125  14.111  1.00  0.00    -0.005 C 
HETATM    5  C14 UNL     1      -0.656   8.108  15.556  1.00  0.00     0.021 C 
HETATM    6  C15 UNL     1      -0.096   7.892  13.095  1.00  0.00     0.002 C 
HETATM    7  C16 UNL     1      -0.052   6.896  12.173  1.00  0.00    -0.032 C 
HETATM    8  C17 UNL     1      -1.266   5.994  12.005  1.00  0.00     0.149 C 
HETATM    9  C18 UNL     1      -2.565   6.604  12.532  1.00  0.00     0.047 C 
HETATM   10  C19 UNL     1      -2.474   7.115  13.995  1.00  0.00    -0.026 C 
HETATM   11  C20 UNL     1      -2.320   5.902  14.941  1.00  0.00     0.016 C 
HETATM   12  C21 UNL     1       1.157   6.626  11.207  1.00  0.00    -0.012 C 
HETATM   13  C22 UNL     1       1.451   5.106  11.212  1.00  0.00     0.021 C 
HETATM   14  C23 UNL     1       0.752   7.073   9.777  1.00  0.00     0.021 C 
HETATM   15  C24 UNL     1       1.875   6.976   8.756  1.00  0.00     0.080 C 
HETATM   16  C25 UNL     1       3.093   7.748   9.206  1.00  0.00     0.135 C 
HETATM   17  O4  UNL     1       3.636   8.541   8.436  1.00  0.00    -0.297 OA
HETATM   18  C26 UNL     1       3.651   7.435  10.602  1.00  0.00     0.018 C 
HETATM   19  C27 UNL     1       4.424   6.100  10.534  1.00  0.00     0.023 C 
HETATM   20  C28 UNL     1       4.710   8.510  10.962  1.00  0.00     0.023 C 
HETATM   21  C29 UNL     1       2.455   7.413  11.647  1.00  0.00     0.020 C 
HETATM   22  C30 UNL     1       2.065   8.844  12.035  1.00  0.00     0.090 C 
HETATM   23  C31 UNL     1       1.017   8.898  13.107  1.00  0.00     0.157 C 
HETATM   24  O5  UNL     1       1.048   9.821  13.919  1.00  0.00    -0.293 OA
ENDROOT
BRANCH   1  25
HETATM   25  C8  UNL     1      -4.861   7.517  15.270  1.00  0.00    -0.014 C 
HETATM   26  C9  UNL     1      -5.881   8.629  15.593  1.00  0.00     0.010 C 
BRANCH  25  27
HETATM   27  C7  UNL     1      -5.631   6.249  14.826  1.00  0.00     0.008 C 
BRANCH  27  28
HETATM   28  C6  UNL     1      -6.372   6.359  13.488  1.00  0.00     0.028 C 
BRANCH  28  29
HETATM   29  C5  UNL     1      -6.911   5.018  13.067  1.00  0.00    -0.014 C 
HETATM   30  C3  UNL     1      -6.213   3.974  12.574  1.00  0.00     0.009 C 
HETATM   31  C4  UNL     1      -4.733   3.957  12.316  1.00  0.00     0.054 C 
BRANCH  30  32
HETATM   32  C2  UNL     1      -6.890   2.682  12.226  1.00  0.00     0.288 C 
HETATM   33  O2  UNL     1      -7.793   2.201  12.898  1.00  0.00    -0.260 OA
BRANCH  32  34
HETATM   34  O1  UNL     1      -6.370   2.127  11.101  1.00  0.00    -0.323 OA
HETATM   35  C1  UNL     1      -5.710   0.880  11.321  1.00  0.00     0.213 C 
ENDBRANCH  32  34
ENDBRANCH  30  32
ENDBRANCH  28  29
ENDBRANCH  27  28
ENDBRANCH  25  27
ENDBRANCH   1  25
BRANCH   8  36
HETATM   36  O3  UNL     1      -1.009   4.748  12.635  1.00  0.00    -0.391 OA
HETATM   37  H25 UNL     1      -1.789   4.184  12.499  1.00  0.00     0.210 HD
ENDBRANCH   8  36
TORSDOF 7
ENDMDL
MODEL 7
REMARK minimizedAffinity -6.78011513
REMARK CNNscore 0.48121655
REMARK CNNaffinity 6.21413374
REMARK  7 active torsions:
REMARK  status: ('A' for Active; 'I' for Inactive)
REMARK    1  A    between atoms: O1_2  and  C2_3 
REMARK    2  A    between atoms: C2_3  and  C3_5 
REMARK    3  A    between atoms: C5_7  and  C6_8 
REMARK    4  A    between atoms: C6_8  and  C7_9 
REMARK    5  A    between atoms: C7_9  and  C8_10 
REMARK    6  A    between atoms: C8_10  and  C10_12 
REMARK    7  A    between atoms: C17_19  and  O3_20 
ROOT
HETATM    1  C10 UNL     1     -13.210   6.052  23.296  1.00  0.00    -0.002 C 
HETATM    2  C11 UNL     1     -14.264   6.338  22.216  1.00  0.00     0.007 C 
HETATM    3  C12 UNL     1     -13.969   7.756  21.767  1.00  0.00     0.015 C 
HETATM    4  C13 UNL     1     -13.740   8.531  23.084  1.00  0.00    -0.005 C 
HETATM    5  C14 UNL     1     -15.116   8.803  23.763  1.00  0.00     0.021 C 
HETATM    6  C15 UNL     1     -13.034   9.879  22.803  1.00  0.00     0.002 C 
HETATM    7  C16 UNL     1     -11.803  10.233  23.255  1.00  0.00    -0.032 C 
HETATM    8  C17 UNL     1     -10.963   9.199  23.990  1.00  0.00     0.149 C 
HETATM    9  C18 UNL     1     -11.381   7.754  23.712  1.00  0.00     0.047 C 
HETATM   10  C19 UNL     1     -12.892   7.480  23.939  1.00  0.00    -0.026 C 
HETATM   11  C20 UNL     1     -13.199   7.583  25.451  1.00  0.00     0.016 C 
HETATM   12  C21 UNL     1     -11.139  11.639  23.029  1.00  0.00    -0.012 C 
HETATM   13  C22 UNL     1     -10.530  12.108  24.373  1.00  0.00     0.021 C 
HETATM   14  C23 UNL     1     -10.011  11.484  21.973  1.00  0.00     0.021 C 
HETATM   15  C24 UNL     1      -9.357  12.797  21.570  1.00  0.00     0.080 C 
HETATM   16  C25 UNL     1     -10.381  13.792  21.081  1.00  0.00     0.135 C 
HETATM   17  O4  UNL     1     -10.204  14.381  20.014  1.00  0.00    -0.297 OA
HETATM   18  C26 UNL     1     -11.577  14.086  21.999  1.00  0.00     0.018 C 
HETATM   19  C27 UNL     1     -11.103  15.013  23.140  1.00  0.00     0.023 C 
HETATM   20  C28 UNL     1     -12.622  14.908  21.202  1.00  0.00     0.023 C 
HETATM   21  C29 UNL     1     -12.181  12.712  22.520  1.00  0.00     0.020 C 
HETATM   22  C30 UNL     1     -13.064  12.079  21.439  1.00  0.00     0.090 C 
HETATM   23  C31 UNL     1     -13.761  10.834  21.903  1.00  0.00     0.157 C 
HETATM   24  O5  UNL     1     -14.882  10.585  21.464  1.00  0.00    -0.293 OA
ENDROOT
BRANCH   1  25
HETATM   25  C8  UNL     1     -13.601   4.851  24.207  1.00  0.00    -0.014 C 
HETATM   26  C9  UNL     1     -15.087   4.904  24.618  1.00  0.00     0.010 C 
BRANCH  25  27
HETATM   27  C7  UNL     1     -13.302   3.458  23.600  1.00  0.00     0.008 C 
BRANCH  27  28
HETATM   28  C6  UNL     1     -12.202   2.652  24.302  1.00  0.00     0.028 C 
BRANCH  28  29
HETATM   29  C5  UNL     1     -12.482   2.541  25.776  1.00  0.00    -0.014 C 
HETATM   30  C3  UNL     1     -13.496   1.875  26.369  1.00  0.00     0.009 C 
HETATM   31  C4  UNL     1     -14.581   1.121  25.653  1.00  0.00     0.054 C 
BRANCH  30  32
HETATM   32  C2  UNL     1     -13.628   1.830  27.862  1.00  0.00     0.288 C 
HETATM   33  O2  UNL     1     -14.277   0.974  28.448  1.00  0.00    -0.260 OA
BRANCH  32  34
HETATM   34  O1  UNL     1     -12.959   2.850  28.458  1.00  0.00    -0.323 OA
HETATM   35  C1  UNL     1     -12.294   2.480  29.666  1.00  0.00     0.213 C 
ENDBRANCH  32  34
ENDBRANCH  30  32
ENDBRANCH  28  29
ENDBRANCH  27  28
ENDBRANCH  25  27
ENDBRANCH   1  25
BRANCH   8  36
HETATM   36  O3  UNL     1     -11.008   9.471  25.384  1.00  0.00    -0.391 OA
HETATM   37  H25 UNL     1     -10.452   8.811  25.830  1.00  0.00     0.210 HD
ENDBRANCH   8  36
TORSDOF 7
ENDMDL
MODEL 8
REMARK minimizedAffinity -7.22064114
REMARK CNNscore 0.464587301
REMARK CNNaffinity 6.62980461
REMARK  7 active torsions:
REMARK  status: ('A' for Active; 'I' for Inactive)
REMARK    1  A    between atoms: O1_2  and  C2_3 
REMARK    2  A    between atoms: C2_3  and  C3_5 
REMARK    3  A    between atoms: C5_7  and  C6_8 
REMARK    4  A    between atoms: C6_8  and  C7_9 
REMARK    5  A    between atoms: C7_9  and  C8_10 
REMARK    6  A    between atoms: C8_10  and  C10_12 
REMARK    7  A    between atoms: C17_19  and  O3_20 
ROOT
HETATM    1  C10 UNL     1      -9.359   6.566  14.216  1.00  0.00    -0.002 C 
HETATM    2  C11 UNL     1      -8.768   7.543  15.243  1.00  0.00     0.007 C 
HETATM    3  C12 UNL     1      -9.974   8.104  15.969  1.00  0.00     0.015 C 
HETATM    4  C13 UNL     1     -10.980   8.424  14.841  1.00  0.00    -0.005 C 
HETATM    5  C14 UNL     1     -10.538   9.731  14.117  1.00  0.00     0.021 C 
HETATM    6  C15 UNL     1     -12.402   8.618  15.423  1.00  0.00     0.002 C 
HETATM    7  C16 UNL     1     -13.479   7.841  15.143  1.00  0.00    -0.032 C 
HETATM    8  C17 UNL     1     -13.286   6.590  14.298  1.00  0.00     0.149 C 
HETATM    9  C18 UNL     1     -11.845   6.081  14.270  1.00  0.00     0.047 C 
HETATM   10  C19 UNL     1     -10.802   7.162  13.876  1.00  0.00    -0.026 C 
HETATM   11  C20 UNL     1     -11.005   7.537  12.390  1.00  0.00     0.016 C 
HETATM   12  C21 UNL     1     -14.933   8.105  15.678  1.00  0.00    -0.012 C 
HETATM   13  C22 UNL     1     -15.921   7.939  14.496  1.00  0.00     0.021 C 
HETATM   14  C23 UNL     1     -15.252   7.051  16.773  1.00  0.00     0.021 C 
HETATM   15  C24 UNL     1     -16.591   7.261  17.463  1.00  0.00     0.080 C 
HETATM   16  C25 UNL     1     -16.695   8.651  18.045  1.00  0.00     0.135 C 
HETATM   17  O4  UNL     1     -17.054   8.801  19.213  1.00  0.00    -0.297 OA
HETATM   18  C26 UNL     1     -16.421   9.833  17.105  1.00  0.00     0.018 C 
HETATM   19  C27 UNL     1     -17.654  10.035  16.197  1.00  0.00     0.023 C 
HETATM   20  C28 UNL     1     -16.316  11.126  17.955  1.00  0.00     0.023 C 
HETATM   21  C29 UNL     1     -15.086   9.552  16.292  1.00  0.00     0.020 C 
HETATM   22  C30 UNL     1     -13.862   9.857  17.163  1.00  0.00     0.090 C 
HETATM   23  C31 UNL     1     -12.564   9.724  16.423  1.00  0.00     0.157 C 
HETATM   24  O5  UNL     1     -11.634  10.473  16.718  1.00  0.00    -0.293 OA
ENDROOT
BRANCH   1  25
HETATM   25  C8  UNL     1      -8.360   6.228  13.070  1.00  0.00    -0.014 C 
HETATM   26  C9  UNL     1      -6.919   6.654  13.422  1.00  0.00     0.010 C 
BRANCH  25  27
HETATM   27  C7  UNL     1      -8.349   4.739  12.644  1.00  0.00     0.008 C 
BRANCH  27  28
HETATM   28  C6  UNL     1      -7.513   3.804  13.526  1.00  0.00     0.028 C 
BRANCH  28  29
HETATM   29  C5  UNL     1      -6.130   3.632  12.958  1.00  0.00    -0.014 C 
HETATM   30  C3  UNL     1      -5.707   2.668  12.113  1.00  0.00     0.009 C 
HETATM   31  C4  UNL     1      -6.546   1.537  11.588  1.00  0.00     0.054 C 
BRANCH  30  32
HETATM   32  C2  UNL     1      -4.296   2.645  11.605  1.00  0.00     0.288 C 
HETATM   33  O2  UNL     1      -3.574   1.660  11.688  1.00  0.00    -0.260 OA
BRANCH  32  34
HETATM   34  O1  UNL     1      -3.934   3.839  11.068  1.00  0.00    -0.323 OA
HETATM   35  C1  UNL     1      -2.540   3.945  10.777  1.00  0.00     0.213 C 
ENDBRANCH  32  34
ENDBRANCH  30  32
ENDBRANCH  28  29
ENDBRANCH  27  28
ENDBRANCH  25  27
ENDBRANCH   1  25
BRANCH   8  36
HETATM   36  O3  UNL     1     -13.752   6.845  12.980  1.00  0.00    -0.391 OA
HETATM   37  H25 UNL     1     -13.635   6.029  12.465  1.00  0.00     0.210 HD
ENDBRANCH   8  36
TORSDOF 7
ENDMDL
MODEL 9
REMARK minimizedAffinity -9.20825291
REMARK CNNscore 0.455149144
REMARK CNNaffinity 7.04085493
REMARK  7 active torsions:
REMARK  status: ('A' for Active; 'I' for Inactive)
REMARK    1  A    between atoms: O1_2  and  C2_3 
REMARK    2  A    between atoms: C2_3  and  C3_5 
REMARK    3  A    between atoms: C5_7  and  C6_8 
REMARK    4  A    between atoms: C6_8  and  C7_9 
REMARK    5  A    between atoms: C7_9  and  C8_10 
REMARK    6  A    between atoms: C8_10  and  C10_12 
REMARK    7  A    between atoms: C17_19  and  O3_20 
ROOT
HETATM    1  C10 UNL     1       0.094   6.833  14.267  1.00  0.00    -0.002 C 
HETATM    2  C11 UNL     1       0.071   8.254  14.849  1.00  0.00     0.007 C 
HETATM    3  C12 UNL     1      -1.388   8.508  15.170  1.00  0.00     0.015 C 
HETATM    4  C13 UNL     1      -2.146   7.991  13.926  1.00  0.00    -0.005 C 
HETATM    5  C14 UNL     1      -1.998   9.026  12.770  1.00  0.00     0.021 C 
HETATM    6  C15 UNL     1      -3.647   7.797  14.249  1.00  0.00     0.002 C 
HETATM    7  C16 UNL     1      -4.312   6.613  14.220  1.00  0.00    -0.032 C 
HETATM    8  C17 UNL     1      -3.525   5.332  13.985  1.00  0.00     0.149 C 
HETATM    9  C18 UNL     1      -2.034   5.458  14.296  1.00  0.00     0.047 C 
HETATM   10  C19 UNL     1      -1.341   6.653  13.586  1.00  0.00    -0.026 C 
HETATM   11  C20 UNL     1      -1.296   6.375  12.066  1.00  0.00     0.016 C 
HETATM   12  C21 UNL     1      -5.854   6.449  14.469  1.00  0.00    -0.012 C 
HETATM   13  C22 UNL     1      -6.423   5.509  13.378  1.00  0.00     0.021 C 
HETATM   14  C23 UNL     1      -6.061   5.808  15.868  1.00  0.00     0.021 C 
HETATM   15  C24 UNL     1      -7.518   5.698  16.289  1.00  0.00     0.080 C 
HETATM   16  C25 UNL     1      -8.207   7.041  16.237  1.00  0.00     0.135 C 
HETATM   17  O4  UNL     1      -8.861   7.433  17.203  1.00  0.00    -0.297 OA
HETATM   18  C26 UNL     1      -8.120   7.828  14.922  1.00  0.00     0.018 C 
HETATM   19  C27 UNL     1      -9.099   7.197  13.906  1.00  0.00     0.023 C 
HETATM   20  C28 UNL     1      -8.649   9.264  15.170  1.00  0.00     0.023 C 
HETATM   21  C29 UNL     1      -6.614   7.834  14.417  1.00  0.00     0.020 C 
HETATM   22  C30 UNL     1      -5.802   8.879  15.190  1.00  0.00     0.090 C 
HETATM   23  C31 UNL     1      -4.396   9.021  14.687  1.00  0.00     0.157 C 
HETATM   24  O5  UNL     1      -3.860  10.127  14.729  1.00  0.00    -0.293 OA
ENDROOT
BRANCH   1  25
HETATM   25  C8  UNL     1       1.390   6.542  13.454  1.00  0.00    -0.014 C 
HETATM   26  C9  UNL     1       1.150   5.492  12.350  1.00  0.00     0.010 C 
BRANCH  25  27
HETATM   27  C7  UNL     1       2.045   7.792  12.817  1.00  0.00     0.008 C 
BRANCH  27  28
HETATM   28  C6  UNL     1       3.218   7.515  11.869  1.00  0.00     0.028 C 
BRANCH  28  29
HETATM   29  C5  UNL     1       2.966   8.128  10.518  1.00  0.00    -0.014 C 
HETATM   30  C3  UNL     1       2.895   7.490   9.330  1.00  0.00     0.009 C 
HETATM   31  C4  UNL     1       3.089   6.015   9.119  1.00  0.00     0.054 C 
BRANCH  30  32
HETATM   32  C2  UNL     1       2.604   8.238   8.063  1.00  0.00     0.288 C 
HETATM   33  O2  UNL     1       3.324   9.132   7.638  1.00  0.00    -0.260 OA
BRANCH  32  34
HETATM   34  O1  UNL     1       1.457   7.810   7.476  1.00  0.00    -0.323 OA
HETATM   35  C1  UNL     1       1.645   7.247   6.177  1.00  0.00     0.213 C 
ENDBRANCH  32  34
ENDBRANCH  30  32
ENDBRANCH  28  29
ENDBRANCH  27  28
ENDBRANCH  25  27
ENDBRANCH   1  25
BRANCH   8  36
HETATM   36  O3  UNL     1      -3.721   4.907  12.644  1.00  0.00    -0.391 OA
HETATM   37  H25 UNL     1      -3.225   4.080  12.523  1.00  0.00     0.210 HD
ENDBRANCH   8  36
TORSDOF 7
ENDMDL
