MODEL 1
REMARK minimizedAffinity -5.28374624
REMARK CNNscore 0.358813763
REMARK CNNaffinity 6.03327417
REMARK  6 active torsions:
REMARK  status: ('A' for Active; 'I' for Inactive)
REMARK    1  A    between atoms: C9_10  and  C10_11 
REMARK    2  A    between atoms: C11_13  and  O3_14 
REMARK    3  A    between atoms: C12_15  and  C13_16 
REMARK    4  A    between atoms: C14_18  and  O5_19 
REMARK    5  A    between atoms: C16_21  and  C17_22 
REMARK    6  A    between atoms: C17_22  and  C18_23 
ROOT
HETATM    1  C1  UNL     1     -20.634  -3.301  28.744  1.00  0.00     0.043 C 
HETATM    2  C2  UNL     1     -19.902  -3.909  27.562  1.00  0.00    -0.087 C 
HETATM    3  C3  UNL     1     -18.777  -3.302  27.135  1.00  0.00    -0.024 C 
HETATM    4  C4  UNL     1     -17.870  -3.605  25.986  1.00  0.00     0.030 C 
HETATM    5  C5  UNL     1     -16.436  -3.958  26.394  1.00  0.00     0.042 C 
HETATM    6  C6  UNL     1     -16.173  -5.262  27.205  1.00  0.00     0.069 C 
HETATM    7  C7  UNL     1     -16.779  -5.160  28.623  1.00  0.00     0.047 C 
HETATM    8  O1  UNL     1     -14.719  -5.186  27.432  1.00  0.00    -0.338 OA
HETATM    9  C8  UNL     1     -14.155  -6.367  27.844  1.00  0.00     0.095 A 
HETATM   10  C9  UNL     1     -13.291  -6.377  28.942  1.00  0.00     0.070 A 
HETATM   11  C11 UNL     1     -12.771  -7.594  29.397  1.00  0.00     0.097 A 
HETATM   12  C12 UNL     1     -13.120  -8.781  28.744  1.00  0.00     0.069 A 
HETATM   13  C14 UNL     1     -13.967  -8.749  27.615  1.00  0.00     0.091 A 
HETATM   14  C15 UNL     1     -14.457  -7.533  27.125  1.00  0.00     0.015 A 
HETATM   15  C16 UNL     1     -15.302  -7.281  25.890  1.00  0.00     0.032 C 
HETATM   16  C21 UNL     1     -16.605  -6.548  26.352  1.00  0.00     0.034 C 
HETATM   17  C22 UNL     1     -17.564  -7.448  27.118  1.00  0.00     0.006 A 
HETATM   18  C23 UNL     1     -19.074  -7.191  27.183  1.00  0.00    -0.001 A 
HETATM   19  C24 UNL     1     -19.889  -6.277  26.299  1.00  0.00     0.010 C 
HETATM   20  C25 UNL     1     -20.614  -5.133  27.017  1.00  0.00     0.034 C 
HETATM   21  C26 UNL     1     -18.543  -8.479  26.554  1.00  0.00    -0.039 A 
HETATM   22  C27 UNL     1     -18.718  -9.754  27.349  1.00  0.00     0.015 C 
HETATM   23  C28 UNL     1     -18.751  -8.696  25.073  1.00  0.00     0.015 C 
ENDROOT
BRANCH  15  24
HETATM   24  C17 UNL     1     -15.529  -8.416  24.876  1.00  0.00     0.014 C 
BRANCH  24  25
HETATM   25  C18 UNL     1     -14.579  -8.410  23.652  1.00  0.00    -0.022 C 
HETATM   26  C19 UNL     1     -15.312  -8.087  22.347  1.00  0.00     0.009 C 
HETATM   27  C20 UNL     1     -13.900  -9.778  23.527  1.00  0.00     0.009 C 
ENDBRANCH  24  25
ENDBRANCH  15  24
BRANCH  13  28
HETATM   28  O5  UNL     1     -14.348  -9.908  26.995  1.00  0.00    -0.359 OA
HETATM   29  H15 UNL     1     -13.902 -10.671  27.432  1.00  0.00     0.217 HD
ENDBRANCH  13  28
BRANCH  10  30
HETATM   30  C10 UNL     1     -12.964  -5.110  29.623  1.00  0.00     0.275 C 
HETATM   31  O2  UNL     1     -13.644  -4.106  29.418  1.00  0.00    -0.301 OA
ENDBRANCH  10  30
BRANCH  12  32
HETATM   32  C13 UNL     1     -12.594 -10.064  29.257  1.00  0.00     0.275 C 
HETATM   33  O4  UNL     1     -12.686 -10.346  30.450  1.00  0.00    -0.301 OA
ENDBRANCH  12  32
BRANCH  11  34
HETATM   34  O3  UNL     1     -11.934  -7.660  30.484  1.00  0.00    -0.359 OA
HETATM   35  H13 UNL     1     -11.799  -6.748  30.835  1.00  0.00     0.217 HD
ENDBRANCH  11  34
TORSDOF 6
ENDMDL
MODEL 2
REMARK minimizedAffinity -7.01573467
REMARK CNNscore 0.336212516
REMARK CNNaffinity 5.45094061
REMARK  6 active torsions:
REMARK  status: ('A' for Active; 'I' for Inactive)
REMARK    1  A    between atoms: C9_10  and  C10_11 
REMARK    2  A    between atoms: C11_13  and  O3_14 
REMARK    3  A    between atoms: C12_15  and  C13_16 
REMARK    4  A    between atoms: C14_18  and  O5_19 
REMARK    5  A    between atoms: C16_21  and  C17_22 
REMARK    6  A    between atoms: C17_22  and  C18_23 
ROOT
HETATM    1  C1  UNL     1       5.719  18.757  22.939  1.00  0.00     0.043 C 
HETATM    2  C2  UNL     1       5.491  17.368  23.506  1.00  0.00    -0.087 C 
HETATM    3  C3  UNL     1       4.256  17.062  23.949  1.00  0.00    -0.024 C 
HETATM    4  C4  UNL     1       3.723  15.827  24.604  1.00  0.00     0.030 C 
HETATM    5  C5  UNL     1       2.622  15.120  23.806  1.00  0.00     0.042 C 
HETATM    6  C6  UNL     1       2.967  14.482  22.428  1.00  0.00     0.069 C 
HETATM    7  C7  UNL     1       3.316  15.573  21.389  1.00  0.00     0.047 C 
HETATM    8  O1  UNL     1       1.652  13.980  21.991  1.00  0.00    -0.338 OA
HETATM    9  C8  UNL     1       1.712  13.084  20.954  1.00  0.00     0.095 A 
HETATM   10  C9  UNL     1       0.873  13.246  19.849  1.00  0.00     0.070 A 
HETATM   11  C11 UNL     1       0.985  12.366  18.765  1.00  0.00     0.097 A 
HETATM   12  C12 UNL     1       1.931  11.337  18.807  1.00  0.00     0.069 A 
HETATM   13  C14 UNL     1       2.748  11.168  19.946  1.00  0.00     0.091 A 
HETATM   14  C15 UNL     1       2.614  12.014  21.053  1.00  0.00     0.015 A 
HETATM   15  C16 UNL     1       3.329  11.947  22.390  1.00  0.00     0.032 C 
HETATM   16  C21 UNL     1       4.052  13.317  22.607  1.00  0.00     0.034 C 
HETATM   17  C22 UNL     1       5.258  13.512  21.700  1.00  0.00     0.006 A 
HETATM   18  C23 UNL     1       6.432  14.430  22.062  1.00  0.00    -0.001 A 
HETATM   19  C24 UNL     1       6.762  15.006  23.418  1.00  0.00     0.010 C 
HETATM   20  C25 UNL     1       6.760  16.536  23.508  1.00  0.00     0.034 C 
HETATM   21  C26 UNL     1       6.665  12.933  21.864  1.00  0.00    -0.039 A 
HETATM   22  C27 UNL     1       7.376  12.510  20.597  1.00  0.00     0.015 C 
HETATM   23  C28 UNL     1       7.083  12.105  23.057  1.00  0.00     0.015 C 
ENDROOT
BRANCH  15  24
HETATM   24  C17 UNL     1       4.175  10.710  22.740  1.00  0.00     0.014 C 
BRANCH  24  25
HETATM   25  C18 UNL     1       3.462   9.644  23.609  1.00  0.00    -0.022 C 
HETATM   26  C19 UNL     1       2.620   8.677  22.770  1.00  0.00     0.009 C 
HETATM   27  C20 UNL     1       2.562  10.339  24.635  1.00  0.00     0.009 C 
ENDBRANCH  24  25
ENDBRANCH  15  24
BRANCH  13  28
HETATM   28  O5  UNL     1       3.705  10.189  19.980  1.00  0.00    -0.359 OA
HETATM   29  H15 UNL     1       3.658   9.662  19.149  1.00  0.00     0.217 HD
ENDBRANCH  13  28
BRANCH  10  30
HETATM   30  C10 UNL     1      -0.097  14.358  19.827  1.00  0.00     0.275 C 
HETATM   31  O2  UNL     1      -0.262  15.052  20.829  1.00  0.00    -0.301 OA
ENDBRANCH  10  30
BRANCH  12  32
HETATM   32  C13 UNL     1       2.065  10.437  17.642  1.00  0.00     0.275 C 
HETATM   33  O4  UNL     1       2.207   9.226  17.800  1.00  0.00    -0.301 OA
ENDBRANCH  12  32
BRANCH  11  34
HETATM   34  O3  UNL     1       0.198  12.495  17.648  1.00  0.00    -0.359 OA
HETATM   35  H13 UNL     1      -0.402  13.270  17.770  1.00  0.00     0.217 HD
ENDBRANCH  11  34
TORSDOF 6
ENDMDL
MODEL 3
REMARK minimizedAffinity -6.41104794
REMARK CNNscore 0.322772324
REMARK CNNaffinity 5.41604233
REMARK  6 active torsions:
REMARK  status: ('A' for Active; 'I' for Inactive)
REMARK    1  A    between atoms: C9_10  and  C10_11 
REMARK    2  A    between atoms: C11_13  and  O3_14 
REMARK    3  A    between atoms: C12_15  and  C13_16 
REMARK    4  A    between atoms: C14_18  and  O5_19 
REMARK    5  A    between atoms: C16_21  and  C17_22 
REMARK    6  A    between atoms: C17_22  and  C18_23 
ROOT
HETATM    1  C1  UNL     1     -16.686  -5.789   6.960  1.00  0.00     0.043 C 
HETATM    2  C2  UNL     1     -15.429  -5.617   7.792  1.00  0.00    -0.087 C 
HETATM    3  C3  UNL     1     -14.879  -4.388   7.860  1.00  0.00    -0.024 C 
HETATM    4  C4  UNL     1     -13.635  -3.901   8.532  1.00  0.00     0.030 C 
HETATM    5  C5  UNL     1     -13.881  -2.855   9.625  1.00  0.00     0.042 C 
HETATM    6  C6  UNL     1     -14.657  -3.264  10.912  1.00  0.00     0.069 C 
HETATM    7  C7  UNL     1     -16.134  -3.582  10.586  1.00  0.00     0.047 C 
HETATM    8  O1  UNL     1     -14.720  -1.986  11.643  1.00  0.00    -0.338 OA
HETATM    9  C8  UNL     1     -15.066  -2.114  12.964  1.00  0.00     0.095 A 
HETATM   10  C9  UNL     1     -16.061  -1.294  13.503  1.00  0.00     0.070 A 
HETATM   11  C11 UNL     1     -16.454  -1.474  14.835  1.00  0.00     0.097 A 
HETATM   12  C12 UNL     1     -15.844  -2.469  15.606  1.00  0.00     0.069 A 
HETATM   13  C14 UNL     1     -14.817  -3.266  15.055  1.00  0.00     0.091 A 
HETATM   14  C15 UNL     1     -14.385  -3.065  13.739  1.00  0.00     0.015 A 
HETATM   15  C16 UNL     1     -13.253  -3.751  12.998  1.00  0.00     0.032 C 
HETATM   16  C21 UNL     1     -13.858  -4.400  11.710  1.00  0.00     0.034 C 
HETATM   17  C22 UNL     1     -14.726  -5.617  11.999  1.00  0.00     0.006 A 
HETATM   18  C23 UNL     1     -14.959  -6.734  10.975  1.00  0.00    -0.001 A 
HETATM   19  C24 UNL     1     -14.172  -7.004   9.715  1.00  0.00     0.010 C 
HETATM   20  C25 UNL     1     -14.966  -6.924   8.406  1.00  0.00     0.034 C 
HETATM   21  C26 UNL     1     -14.274  -7.045  12.306  1.00  0.00    -0.039 A 
HETATM   22  C27 UNL     1     -15.084  -7.806  13.333  1.00  0.00     0.015 C 
HETATM   23  C28 UNL     1     -12.826  -7.476  12.287  1.00  0.00     0.015 C 
ENDROOT
BRANCH  15  24
HETATM   24  C17 UNL     1     -12.270  -4.649  13.770  1.00  0.00     0.014 C 
BRANCH  24  25
HETATM   25  C18 UNL     1     -12.852  -5.997  14.263  1.00  0.00    -0.022 C 
HETATM   26  C19 UNL     1     -13.477  -5.887  15.658  1.00  0.00     0.009 C 
HETATM   27  C20 UNL     1     -11.742  -7.053  14.289  1.00  0.00     0.009 C 
ENDBRANCH  24  25
ENDBRANCH  15  24
BRANCH  13  28
HETATM   28  O5  UNL     1     -14.243  -4.269  15.789  1.00  0.00    -0.359 OA
HETATM   29  H15 UNL     1     -14.627  -4.268  16.696  1.00  0.00     0.217 HD
ENDBRANCH  13  28
BRANCH  10  30
HETATM   30  C10 UNL     1     -16.701  -0.272  12.654  1.00  0.00     0.275 C 
HETATM   31  O2  UNL     1     -16.134   0.799  12.444  1.00  0.00    -0.301 OA
ENDBRANCH  10  30
BRANCH  12  32
HETATM   32  C13 UNL     1     -16.294  -2.674  16.999  1.00  0.00     0.275 C 
HETATM   33  O4  UNL     1     -16.309  -1.738  17.796  1.00  0.00    -0.301 OA
ENDBRANCH  12  32
BRANCH  11  34
HETATM   34  O3  UNL     1     -17.440  -0.708  15.405  1.00  0.00    -0.359 OA
HETATM   35  H13 UNL     1     -17.775  -0.069  14.731  1.00  0.00     0.217 HD
ENDBRANCH  11  34
TORSDOF 6
ENDMDL
MODEL 4
REMARK minimizedAffinity -6.43404055
REMARK CNNscore 0.28222841
REMARK CNNaffinity 5.48044825
REMARK  6 active torsions:
REMARK  status: ('A' for Active; 'I' for Inactive)
REMARK    1  A    between atoms: C9_10  and  C10_11 
REMARK    2  A    between atoms: C11_13  and  O3_14 
REMARK    3  A    between atoms: C12_15  and  C13_16 
REMARK    4  A    between atoms: C14_18  and  O5_19 
REMARK    5  A    between atoms: C16_21  and  C17_22 
REMARK    6  A    between atoms: C17_22  and  C18_23 
ROOT
HETATM    1  C1  UNL     1      12.708  -5.819   8.959  1.00  0.00     0.043 C 
HETATM    2  C2  UNL     1      12.544  -6.220   7.505  1.00  0.00    -0.087 C 
HETATM    3  C3  UNL     1      11.740  -5.467   6.728  1.00  0.00    -0.024 C 
HETATM    4  C4  UNL     1      11.328  -5.619   5.299  1.00  0.00     0.030 C 
HETATM    5  C5  UNL     1      11.763  -4.462   4.394  1.00  0.00     0.042 C 
HETATM    6  C6  UNL     1      13.281  -4.221   4.139  1.00  0.00     0.069 C 
HETATM    7  C7  UNL     1      13.989  -3.758   5.433  1.00  0.00     0.047 C 
HETATM    8  O1  UNL     1      13.256  -3.014   3.294  1.00  0.00    -0.338 OA
HETATM    9  C8  UNL     1      14.440  -2.760   2.648  1.00  0.00     0.095 A 
HETATM   10  C9  UNL     1      14.988  -1.475   2.687  1.00  0.00     0.070 A 
HETATM   11  C11 UNL     1      16.228  -1.237   2.082  1.00  0.00     0.097 A 
HETATM   12  C12 UNL     1      16.898  -2.288   1.445  1.00  0.00     0.069 A 
HETATM   13  C14 UNL     1      16.314  -3.572   1.387  1.00  0.00     0.091 A 
HETATM   14  C15 UNL     1      15.054  -3.809   1.950  1.00  0.00     0.015 A 
HETATM   15  C16 UNL     1      14.228  -5.082   1.920  1.00  0.00     0.032 C 
HETATM   16  C21 UNL     1      13.932  -5.486   3.402  1.00  0.00     0.034 C 
HETATM   17  C22 UNL     1      15.156  -6.013   4.138  1.00  0.00     0.006 A 
HETATM   18  C23 UNL     1      15.059  -6.970   5.333  1.00  0.00    -0.001 A 
HETATM   19  C24 UNL     1      13.862  -7.782   5.765  1.00  0.00     0.010 C 
HETATM   20  C25 UNL     1      13.323  -7.477   7.167  1.00  0.00     0.034 C 
HETATM   21  C26 UNL     1      15.777  -7.408   4.057  1.00  0.00    -0.039 A 
HETATM   22  C27 UNL     1      17.288  -7.482   4.110  1.00  0.00     0.015 C 
HETATM   23  C28 UNL     1      15.179  -8.532   3.244  1.00  0.00     0.015 C 
ENDROOT
BRANCH  15  24
HETATM   24  C17 UNL     1      14.654  -6.246   1.009  1.00  0.00     0.014 C 
BRANCH  24  25
HETATM   25  C18 UNL     1      13.918  -6.326  -0.353  1.00  0.00    -0.022 C 
HETATM   26  C19 UNL     1      14.883  -6.261  -1.541  1.00  0.00     0.009 C 
HETATM   27  C20 UNL     1      12.911  -5.176  -0.456  1.00  0.00     0.009 C 
ENDBRANCH  24  25
ENDBRANCH  15  24
BRANCH  13  28
HETATM   28  O5  UNL     1      16.979  -4.615   0.802  1.00  0.00    -0.359 OA
HETATM   29  H15 UNL     1      17.831  -4.288   0.429  1.00  0.00     0.217 HD
ENDBRANCH  13  28
BRANCH  10  30
HETATM   30  C10 UNL     1      14.267  -0.396   3.389  1.00  0.00     0.275 C 
HETATM   31  O2  UNL     1      14.344  -0.297   4.612  1.00  0.00    -0.301 OA
ENDBRANCH  10  30
BRANCH  12  32
HETATM   32  C13 UNL     1      18.223  -2.033   0.842  1.00  0.00     0.275 C 
HETATM   33  O4  UNL     1      18.974  -1.184   1.318  1.00  0.00    -0.301 OA
ENDBRANCH  12  32
BRANCH  11  34
HETATM   34  O3  UNL     1      16.818   0.002   2.109  1.00  0.00    -0.359 OA
HETATM   35  H13 UNL     1      16.230   0.623   2.602  1.00  0.00     0.217 HD
ENDBRANCH  11  34
TORSDOF 6
ENDMDL
MODEL 5
REMARK minimizedAffinity -5.31746387
REMARK CNNscore 0.2500512
REMARK CNNaffinity 5.39741373
REMARK  6 active torsions:
REMARK  status: ('A' for Active; 'I' for Inactive)
REMARK    1  A    between atoms: C9_10  and  C10_11 
REMARK    2  A    between atoms: C11_13  and  O3_14 
REMARK    3  A    between atoms: C12_15  and  C13_16 
REMARK    4  A    between atoms: C14_18  and  O5_19 
REMARK    5  A    between atoms: C16_21  and  C17_22 
REMARK    6  A    between atoms: C17_22  and  C18_23 
ROOT
HETATM    1  C1  UNL     1     -20.890 -10.460  27.105  1.00  0.00     0.043 C 
HETATM    2  C2  UNL     1     -19.469 -10.855  26.747  1.00  0.00    -0.087 C 
HETATM    3  C3  UNL     1     -18.855 -10.174  25.759  1.00  0.00    -0.024 C 
HETATM    4  C4  UNL     1     -17.506 -10.346  25.137  1.00  0.00     0.030 C 
HETATM    5  C5  UNL     1     -16.579  -9.138  25.307  1.00  0.00     0.042 C 
HETATM    6  C6  UNL     1     -16.092  -8.744  26.733  1.00  0.00     0.069 C 
HETATM    7  C7  UNL     1     -17.268  -8.232  27.594  1.00  0.00     0.047 C 
HETATM    8  O1  UNL     1     -15.298  -7.534  26.456  1.00  0.00    -0.338 OA
HETATM    9  C8  UNL     1     -14.479  -7.153  27.489  1.00  0.00     0.095 A 
HETATM   10  C9  UNL     1     -14.468  -5.822  27.911  1.00  0.00     0.070 A 
HETATM   11  C11 UNL     1     -13.680  -5.453  29.007  1.00  0.00     0.097 A 
HETATM   12  C12 UNL     1     -12.913  -6.423  29.662  1.00  0.00     0.069 A 
HETATM   13  C14 UNL     1     -12.910  -7.758  29.202  1.00  0.00     0.091 A 
HETATM   14  C15 UNL     1     -13.660  -8.127  28.079  1.00  0.00     0.015 A 
HETATM   15  C16 UNL     1     -13.724  -9.474  27.384  1.00  0.00     0.032 C 
HETATM   16  C21 UNL     1     -15.221  -9.928  27.373  1.00  0.00     0.034 C 
HETATM   17  C22 UNL     1     -15.736 -10.341  28.745  1.00  0.00     0.006 A 
HETATM   18  C23 UNL     1     -16.901 -11.320  28.935  1.00  0.00    -0.001 A 
HETATM   19  C24 UNL     1     -17.494 -12.253  27.907  1.00  0.00     0.010 C 
HETATM   20  C25 UNL     1     -18.974 -12.024  27.578  1.00  0.00     0.034 C 
HETATM   21  C26 UNL     1     -15.514 -11.667  29.475  1.00  0.00    -0.039 A 
HETATM   22  C27 UNL     1     -15.321 -11.591  30.974  1.00  0.00     0.015 C 
HETATM   23  C28 UNL     1     -14.774 -12.832  28.863  1.00  0.00     0.015 C 
ENDROOT
BRANCH  15  24
HETATM   24  C17 UNL     1     -12.722 -10.578  27.765  1.00  0.00     0.014 C 
BRANCH  24  25
HETATM   25  C18 UNL     1     -12.596 -11.739  26.747  1.00  0.00    -0.022 C 
HETATM   26  C19 UNL     1     -11.188 -12.344  26.724  1.00  0.00     0.009 C 
HETATM   27  C20 UNL     1     -12.951 -11.231  25.346  1.00  0.00     0.009 C 
ENDBRANCH  24  25
ENDBRANCH  15  24
BRANCH  13  28
HETATM   28  O5  UNL     1     -12.195  -8.721  29.860  1.00  0.00    -0.359 OA
HETATM   29  H15 UNL     1     -11.700  -8.306  30.604  1.00  0.00     0.217 HD
ENDBRANCH  13  28
BRANCH  10  30
HETATM   30  C10 UNL     1     -15.309  -4.830  27.213  1.00  0.00     0.275 C 
HETATM   31  O2  UNL     1     -15.971  -4.020  27.859  1.00  0.00    -0.301 OA
ENDBRANCH  10  30
BRANCH  12  32
HETATM   32  C13 UNL     1     -12.113  -6.029  30.841  1.00  0.00     0.275 C 
HETATM   33  O4  UNL     1     -12.229  -4.907  31.330  1.00  0.00    -0.301 OA
ENDBRANCH  12  32
BRANCH  11  34
HETATM   34  O3  UNL     1     -13.649  -4.162  29.473  1.00  0.00    -0.359 OA
HETATM   35  H13 UNL     1     -14.250  -3.610  28.916  1.00  0.00     0.217 HD
ENDBRANCH  11  34
TORSDOF 6
ENDMDL
MODEL 6
REMARK minimizedAffinity -5.11353254
REMARK CNNscore 0.240431592
REMARK CNNaffinity 5.06434822
REMARK  6 active torsions:
REMARK  status: ('A' for Active; 'I' for Inactive)
REMARK    1  A    between atoms: C9_10  and  C10_11 
REMARK    2  A    between atoms: C11_13  and  O3_14 
REMARK    3  A    between atoms: C12_15  and  C13_16 
REMARK    4  A    between atoms: C14_18  and  O5_19 
REMARK    5  A    between atoms: C16_21  and  C17_22 
REMARK    6  A    between atoms: C17_22  and  C18_23 
ROOT
HETATM    1  C1  UNL     1     -15.942  -9.912  -2.219  1.00  0.00     0.043 C 
HETATM    2  C2  UNL     1     -14.590 -10.072  -2.892  1.00  0.00    -0.087 C 
HETATM    3  C3  UNL     1     -14.536  -9.960  -4.234  1.00  0.00    -0.024 C 
HETATM    4  C4  UNL     1     -13.396 -10.116  -5.189  1.00  0.00     0.030 C 
HETATM    5  C5  UNL     1     -13.062  -8.848  -5.981  1.00  0.00     0.042 C 
HETATM    6  C6  UNL     1     -12.520  -7.598  -5.227  1.00  0.00     0.069 C 
HETATM    7  C7  UNL     1     -13.607  -6.995  -4.308  1.00  0.00     0.047 C 
HETATM    8  O1  UNL     1     -12.394  -6.618  -6.321  1.00  0.00    -0.338 OA
HETATM    9  C8  UNL     1     -11.631  -5.523  -6.005  1.00  0.00     0.095 A 
HETATM   10  C9  UNL     1     -12.109  -4.240  -6.287  1.00  0.00     0.070 A 
HETATM   11  C11 UNL     1     -11.355  -3.125  -5.904  1.00  0.00     0.097 A 
HETATM   12  C12 UNL     1     -10.134  -3.310  -5.247  1.00  0.00     0.069 A 
HETATM   13  C14 UNL     1      -9.650  -4.613  -4.999  1.00  0.00     0.091 A 
HETATM   14  C15 UNL     1     -10.375  -5.735  -5.418  1.00  0.00     0.015 A 
HETATM   15  C16 UNL     1      -9.991  -7.200  -5.324  1.00  0.00     0.032 C 
HETATM   16  C21 UNL     1     -11.119  -7.932  -4.524  1.00  0.00     0.034 C 
HETATM   17  C22 UNL     1     -11.125  -7.590  -3.041  1.00  0.00     0.006 A 
HETATM   18  C23 UNL     1     -11.695  -8.531  -1.973  1.00  0.00    -0.001 A 
HETATM   19  C24 UNL     1     -12.021  -9.998  -2.121  1.00  0.00     0.010 C 
HETATM   20  C25 UNL     1     -13.489 -10.379  -1.895  1.00  0.00     0.034 C 
HETATM   21  C26 UNL     1     -10.217  -8.144  -1.942  1.00  0.00    -0.039 A 
HETATM   22  C27 UNL     1      -9.784  -7.172  -0.866  1.00  0.00     0.015 C 
HETATM   23  C28 UNL     1      -9.185  -9.220  -2.188  1.00  0.00     0.015 C 
ENDROOT
BRANCH  15  24
HETATM   24  C17 UNL     1      -8.559  -7.589  -4.917  1.00  0.00     0.014 C 
BRANCH  24  25
HETATM   25  C18 UNL     1      -7.834  -8.557  -5.885  1.00  0.00    -0.022 C 
HETATM   26  C19 UNL     1      -8.741  -9.025  -7.028  1.00  0.00     0.009 C 
HETATM   27  C20 UNL     1      -7.331  -9.776  -5.106  1.00  0.00     0.009 C 
ENDBRANCH  24  25
ENDBRANCH  15  24
BRANCH  13  28
HETATM   28  O5  UNL     1      -8.477  -4.805  -4.321  1.00  0.00    -0.359 OA
HETATM   29  H15 UNL     1      -8.072  -3.929  -4.121  1.00  0.00     0.217 HD
ENDBRANCH  13  28
BRANCH  10  30
HETATM   30  C10 UNL     1     -13.413  -4.081  -6.959  1.00  0.00     0.275 C 
HETATM   31  O2  UNL     1     -13.490  -4.161  -8.183  1.00  0.00    -0.301 OA
ENDBRANCH  10  30
BRANCH  12  32
HETATM   32  C13 UNL     1      -9.365  -2.124  -4.814  1.00  0.00     0.275 C 
HETATM   33  O4  UNL     1      -8.148  -2.072  -4.985  1.00  0.00    -0.301 OA
ENDBRANCH  12  32
BRANCH  11  34
HETATM   34  O3  UNL     1     -11.790  -1.845  -6.141  1.00  0.00    -0.359 OA
HETATM   35  H13 UNL     1     -12.666  -1.886  -6.595  1.00  0.00     0.217 HD
ENDBRANCH  11  34
TORSDOF 6
ENDMDL
MODEL 7
REMARK minimizedAffinity -5.29444361
REMARK CNNscore 0.220044643
REMARK CNNaffinity 5.30496025
REMARK  6 active torsions:
REMARK  status: ('A' for Active; 'I' for Inactive)
REMARK    1  A    between atoms: C9_10  and  C10_11 
REMARK    2  A    between atoms: C11_13  and  O3_14 
REMARK    3  A    between atoms: C12_15  and  C13_16 
REMARK    4  A    between atoms: C14_18  and  O5_19 
REMARK    5  A    between atoms: C16_21  and  C17_22 
REMARK    6  A    between atoms: C17_22  and  C18_23 
ROOT
HETATM    1  C1  UNL     1     -12.696  15.569  -7.646  1.00  0.00     0.043 C 
HETATM    2  C2  UNL     1     -12.952  14.305  -6.847  1.00  0.00    -0.087 C 
HETATM    3  C3  UNL     1     -11.894  13.687  -6.286  1.00  0.00    -0.024 C 
HETATM    4  C4  UNL     1     -11.797  12.417  -5.501  1.00  0.00     0.030 C 
HETATM    5  C5  UNL     1     -11.290  12.605  -4.067  1.00  0.00     0.042 C 
HETATM    6  C6  UNL     1     -12.158  13.403  -3.050  1.00  0.00     0.069 C 
HETATM    7  C7  UNL     1     -12.235  14.896  -3.444  1.00  0.00     0.047 C 
HETATM    8  O1  UNL     1     -11.300  13.394  -1.851  1.00  0.00    -0.338 OA
HETATM    9  C8  UNL     1     -11.949  13.748  -0.696  1.00  0.00     0.095 A 
HETATM   10  C9  UNL     1     -11.379  14.695   0.158  1.00  0.00     0.070 A 
HETATM   11  C11 UNL     1     -12.077  15.100   1.302  1.00  0.00     0.097 A 
HETATM   12  C12 UNL     1     -13.333  14.547   1.575  1.00  0.00     0.069 A 
HETATM   13  C14 UNL     1     -13.880  13.566   0.719  1.00  0.00     0.091 A 
HETATM   14  C15 UNL     1     -13.170  13.123  -0.403  1.00  0.00     0.015 A 
HETATM   15  C16 UNL     1     -13.542  12.030  -1.388  1.00  0.00     0.032 C 
HETATM   16  C21 UNL     1     -13.563  12.670  -2.815  1.00  0.00     0.034 C 
HETATM   17  C22 UNL     1     -14.743  13.605  -3.039  1.00  0.00     0.006 A 
HETATM   18  C23 UNL     1     -15.318  13.900  -4.430  1.00  0.00    -0.001 A 
HETATM   19  C24 UNL     1     -15.078  13.129  -5.706  1.00  0.00     0.010 C 
HETATM   20  C25 UNL     1     -14.419  13.917  -6.844  1.00  0.00     0.034 C 
HETATM   21  C26 UNL     1     -16.191  13.235  -3.366  1.00  0.00    -0.039 A 
HETATM   22  C27 UNL     1     -17.268  14.088  -2.730  1.00  0.00     0.015 C 
HETATM   23  C28 UNL     1     -16.648  11.814  -3.595  1.00  0.00     0.015 C 
ENDROOT
BRANCH  15  24
HETATM   24  C17 UNL     1     -14.730  11.100  -1.083  1.00  0.00     0.014 C 
BRANCH  24  25
HETATM   25  C18 UNL     1     -14.405   9.585  -1.094  1.00  0.00    -0.022 C 
HETATM   26  C19 UNL     1     -13.393   9.199  -0.010  1.00  0.00     0.009 C 
HETATM   27  C20 UNL     1     -13.851   9.192  -2.467  1.00  0.00     0.009 C 
ENDBRANCH  24  25
ENDBRANCH  15  24
BRANCH  13  28
HETATM   28  O5  UNL     1     -15.125  13.050   0.955  1.00  0.00    -0.359 OA
HETATM   29  H15 UNL     1     -15.483  13.434   1.789  1.00  0.00     0.217 HD
ENDBRANCH  13  28
BRANCH  10  30
HETATM   30  C10 UNL     1     -10.064  15.276  -0.173  1.00  0.00     0.275 C 
HETATM   31  O2  UNL     1      -9.065  14.942   0.460  1.00  0.00    -0.301 OA
ENDBRANCH  10  30
BRANCH  12  32
HETATM   32  C13 UNL     1     -14.077  15.009   2.766  1.00  0.00     0.275 C 
HETATM   33  O4  UNL     1     -15.298  15.152   2.725  1.00  0.00    -0.301 OA
ENDBRANCH  12  32
BRANCH  11  34
HETATM   34  O3  UNL     1     -11.569  16.041   2.162  1.00  0.00    -0.359 OA
HETATM   35  H13 UNL     1     -10.690  16.338   1.824  1.00  0.00     0.217 HD
ENDBRANCH  11  34
TORSDOF 6
ENDMDL
MODEL 8
REMARK minimizedAffinity -5.55686378
REMARK CNNscore 0.210232481
REMARK CNNaffinity 4.88813162
REMARK  6 active torsions:
REMARK  status: ('A' for Active; 'I' for Inactive)
REMARK    1  A    between atoms: C9_10  and  C10_11 
REMARK    2  A    between atoms: C11_13  and  O3_14 
REMARK    3  A    between atoms: C12_15  and  C13_16 
REMARK    4  A    between atoms: C14_18  and  O5_19 
REMARK    5  A    between atoms: C16_21  and  C17_22 
REMARK    6  A    between atoms: C17_22  and  C18_23 
ROOT
HETATM    1  C1  UNL     1     -11.567  -6.103  15.651  1.00  0.00     0.043 C 
HETATM    2  C2  UNL     1     -12.888  -6.148  14.905  1.00  0.00    -0.087 C 
HETATM    3  C3  UNL     1     -14.023  -6.058  15.626  1.00  0.00    -0.024 C 
HETATM    4  C4  UNL     1     -15.459  -6.126  15.213  1.00  0.00     0.030 C 
HETATM    5  C5  UNL     1     -16.255  -4.848  15.498  1.00  0.00     0.042 C 
HETATM    6  C6  UNL     1     -15.891  -3.538  14.740  1.00  0.00     0.069 C 
HETATM    7  C7  UNL     1     -14.499  -3.022  15.169  1.00  0.00     0.047 C 
HETATM    8  O1  UNL     1     -16.831  -2.573  15.339  1.00  0.00    -0.338 OA
HETATM    9  C8  UNL     1     -16.959  -1.404  14.633  1.00  0.00     0.095 A 
HETATM   10  C9  UNL     1     -16.877  -0.179  15.299  1.00  0.00     0.070 A 
HETATM   11  C11 UNL     1     -16.943   1.011  14.563  1.00  0.00     0.097 A 
HETATM   12  C12 UNL     1     -17.093   0.954  13.174  1.00  0.00     0.069 A 
HETATM   13  C14 UNL     1     -17.208  -0.292  12.520  1.00  0.00     0.091 A 
HETATM   14  C15 UNL     1     -17.188  -1.485  13.251  1.00  0.00     0.015 A 
HETATM   15  C16 UNL     1     -17.378  -2.905  12.752  1.00  0.00     0.032 C 
HETATM   16  C21 UNL     1     -16.110  -3.724  13.163  1.00  0.00     0.034 C 
HETATM   17  C22 UNL     1     -14.869  -3.354  12.364  1.00  0.00     0.006 A 
HETATM   18  C23 UNL     1     -13.700  -4.323  12.147  1.00  0.00    -0.001 A 
HETATM   19  C24 UNL     1     -13.693  -5.817  12.367  1.00  0.00     0.010 C 
HETATM   20  C25 UNL     1     -12.695  -6.329  13.411  1.00  0.00     0.034 C 
HETATM   21  C26 UNL     1     -14.492  -3.798  10.950  1.00  0.00    -0.039 A 
HETATM   22  C27 UNL     1     -13.811  -2.767  10.075  1.00  0.00     0.015 C 
HETATM   23  C28 UNL     1     -15.314  -4.776  10.144  1.00  0.00     0.015 C 
ENDROOT
BRANCH  15  24
HETATM   24  C17 UNL     1     -17.861  -3.149  11.311  1.00  0.00     0.014 C 
BRANCH  24  25
HETATM   25  C18 UNL     1     -19.207  -3.906  11.182  1.00  0.00    -0.022 C 
HETATM   26  C19 UNL     1     -19.105  -5.123  10.257  1.00  0.00     0.009 C 
HETATM   27  C20 UNL     1     -20.279  -2.951  10.646  1.00  0.00     0.009 C 
ENDBRANCH  24  25
ENDBRANCH  15  24
BRANCH  13  28
HETATM   28  O5  UNL     1     -17.314  -0.358  11.157  1.00  0.00    -0.359 OA
HETATM   29  H15 UNL     1     -17.344   0.556  10.790  1.00  0.00     0.217 HD
ENDBRANCH  13  28
BRANCH  10  30
HETATM   30  C10 UNL     1     -16.693  -0.157  16.763  1.00  0.00     0.275 C 
HETATM   31  O2  UNL     1     -15.688   0.357  17.250  1.00  0.00    -0.301 OA
ENDBRANCH  10  30
BRANCH  12  32
HETATM   32  C13 UNL     1     -17.125   2.216  12.404  1.00  0.00     0.275 C 
HETATM   33  O4  UNL     1     -18.033   3.029  12.571  1.00  0.00    -0.301 OA
ENDBRANCH  12  32
BRANCH  11  34
HETATM   34  O3  UNL     1     -16.848   2.239  15.168  1.00  0.00    -0.359 OA
HETATM   35  H13 UNL     1     -16.732   2.106  16.140  1.00  0.00     0.217 HD
ENDBRANCH  11  34
TORSDOF 6
ENDMDL
MODEL 9
REMARK minimizedAffinity -5.07249928
REMARK CNNscore 0.210114136
REMARK CNNaffinity 4.77928972
REMARK  6 active torsions:
REMARK  status: ('A' for Active; 'I' for Inactive)
REMARK    1  A    between atoms: C9_10  and  C10_11 
REMARK    2  A    between atoms: C11_13  and  O3_14 
REMARK    3  A    between atoms: C12_15  and  C13_16 
REMARK    4  A    between atoms: C14_18  and  O5_19 
REMARK    5  A    between atoms: C16_21  and  C17_22 
REMARK    6  A    between atoms: C17_22  and  C18_23 
ROOT
HETATM    1  C1  UNL     1     -12.545 -13.283  12.385  1.00  0.00     0.043 C 
HETATM    2  C2  UNL     1     -12.505 -12.286  11.242  1.00  0.00    -0.087 C 
HETATM    3  C3  UNL     1     -12.167 -11.013  11.526  1.00  0.00    -0.024 C 
HETATM    4  C4  UNL     1     -12.091  -9.797  10.658  1.00  0.00     0.030 C 
HETATM    5  C5  UNL     1     -10.690  -9.185  10.559  1.00  0.00     0.042 C 
HETATM    6  C6  UNL     1      -9.551  -9.994   9.870  1.00  0.00     0.069 C 
HETATM    7  C7  UNL     1      -9.179 -11.241  10.704  1.00  0.00     0.047 C 
HETATM    8  O1  UNL     1      -8.397  -9.093  10.040  1.00  0.00    -0.338 OA
HETATM    9  C8  UNL     1      -7.324  -9.403   9.245  1.00  0.00     0.095 A 
HETATM   10  C9  UNL     1      -6.045  -9.476   9.803  1.00  0.00     0.070 A 
HETATM   11  C11 UNL     1      -4.963  -9.856   9.000  1.00  0.00     0.097 A 
HETATM   12  C12 UNL     1      -5.178 -10.154   7.650  1.00  0.00     0.069 A 
HETATM   13  C14 UNL     1      -6.471 -10.042   7.094  1.00  0.00     0.091 A 
HETATM   14  C15 UNL     1      -7.551  -9.620   7.878  1.00  0.00     0.015 A 
HETATM   15  C16 UNL     1      -8.984  -9.358   7.454  1.00  0.00     0.032 C 
HETATM   16  C21 UNL     1      -9.908 -10.265   8.332  1.00  0.00     0.034 C 
HETATM   17  C22 UNL     1      -9.819 -11.741   7.973  1.00  0.00     0.006 A 
HETATM   18  C23 UNL     1     -10.959 -12.732   8.240  1.00  0.00    -0.001 A 
HETATM   19  C24 UNL     1     -12.399 -12.411   8.563  1.00  0.00     0.010 C 
HETATM   20  C25 UNL     1     -12.903 -12.915   9.920  1.00  0.00     0.034 C 
HETATM   21  C26 UNL     1     -10.491 -12.471   6.809  1.00  0.00    -0.039 A 
HETATM   22  C27 UNL     1      -9.685 -13.565   6.140  1.00  0.00     0.015 C 
HETATM   23  C28 UNL     1     -11.443 -11.796   5.850  1.00  0.00     0.015 C 
ENDROOT
BRANCH  15  24
HETATM   24  C17 UNL     1      -9.344  -9.330   5.958  1.00  0.00     0.014 C 
BRANCH  24  25
HETATM   25  C18 UNL     1     -10.748  -8.766   5.625  1.00  0.00    -0.022 C 
HETATM   26  C19 UNL     1     -10.779  -8.036   4.278  1.00  0.00     0.009 C 
HETATM   27  C20 UNL     1     -11.187  -7.802   6.732  1.00  0.00     0.009 C 
ENDBRANCH  24  25
ENDBRANCH  15  24
BRANCH  13  28
HETATM   28  O5  UNL     1      -6.699 -10.370   5.785  1.00  0.00    -0.359 OA
HETATM   29  H15 UNL     1      -5.845 -10.618   5.360  1.00  0.00     0.217 HD
ENDBRANCH  13  28
BRANCH  10  30
HETATM   30  C10 UNL     1      -5.858  -9.180  11.237  1.00  0.00     0.275 C 
HETATM   31  O2  UNL     1      -5.935  -8.022  11.642  1.00  0.00    -0.301 OA
ENDBRANCH  10  30
BRANCH  12  32
HETATM   32  C13 UNL     1      -4.035 -10.590   6.820  1.00  0.00     0.275 C 
HETATM   33  O4  UNL     1      -3.374 -11.577   7.136  1.00  0.00    -0.301 OA
ENDBRANCH  12  32
BRANCH  11  34
HETATM   34  O3  UNL     1      -3.692  -9.962   9.505  1.00  0.00    -0.359 OA
HETATM   35  H13 UNL     1      -3.712  -9.734  10.465  1.00  0.00     0.217 HD
ENDBRANCH  11  34
TORSDOF 6
ENDMDL
