MODEL 1
REMARK minimizedAffinity -6.72846222
REMARK CNNscore 0.667815089
REMARK CNNaffinity 6.24524641
REMARK  8 active torsions:
REMARK  status: ('A' for Active; 'I' for Inactive)
REMARK    1  A    between atoms: C2_2  and  C3_3 
REMARK    2  A    between atoms: C2_2  and  C27_30 
REMARK    3  A    between atoms: C3_3  and  C4_4 
REMARK    4  A    between atoms: C4_4  and  C5_5 
REMARK    5  A    between atoms: C5_5  and  C7_7 
REMARK    6  A    between atoms: C26_28  and  O3_29 
REMARK    7  A    between atoms: C27_30  and  C29_32 
REMARK    8  A    between atoms: C29_32  and  O5_34 
ROOT
HETATM    1  C7  UNL     1     -16.774   2.911  13.701  1.00  0.00    -0.002 C 
HETATM    2  C8  UNL     1     -15.656   3.051  14.751  1.00  0.00     0.006 C 
HETATM    3  C9  UNL     1     -14.944   1.709  14.713  1.00  0.00     0.010 C 
HETATM    4  C10 UNL     1     -16.118   0.730  14.667  1.00  0.00     0.027 C 
HETATM    5  C11 UNL     1     -15.732  -0.715  14.417  1.00  0.00    -0.036 C 
HETATM    6  C12 UNL     1     -16.071  -1.412  13.307  1.00  0.00     0.002 C 
HETATM    7  C13 UNL     1     -16.681  -0.653  12.156  1.00  0.00     0.157 C 
HETATM    8  O1  UNL     1     -16.971  -1.219  11.103  1.00  0.00    -0.293 OA
HETATM    9  C14 UNL     1     -16.807   0.848  12.243  1.00  0.00     0.093 C 
HETATM   10  C15 UNL     1     -17.113   1.369  13.658  1.00  0.00    -0.026 C 
HETATM   11  C16 UNL     1     -18.546   0.961  14.037  1.00  0.00     0.016 C 
HETATM   12  C17 UNL     1     -15.846  -2.934  13.135  1.00  0.00    -0.008 C 
HETATM   13  C18 UNL     1     -17.217  -3.613  12.836  1.00  0.00     0.021 C 
HETATM   14  C19 UNL     1     -14.881  -3.180  11.931  1.00  0.00     0.022 C 
HETATM   15  C20 UNL     1     -13.613  -3.971  12.222  1.00  0.00     0.080 C 
HETATM   16  C21 UNL     1     -13.875  -5.190  13.058  1.00  0.00     0.131 C 
HETATM   17  O2  UNL     1     -13.325  -6.265  12.794  1.00  0.00    -0.298 OA
HETATM   18  C22 UNL     1     -14.810  -5.050  14.249  1.00  0.00     0.056 C 
HETATM   19  C23 UNL     1     -14.168  -5.668  15.492  1.00  0.00     0.018 C 
HETATM   20  C24 UNL     1     -15.313  -3.598  14.461  1.00  0.00     0.012 C 
HETATM   21  C25 UNL     1     -14.313  -2.680  15.183  1.00  0.00     0.042 C 
HETATM   22  C26 UNL     1     -14.979  -1.357  15.556  1.00  0.00     0.148 C 
ENDROOT
BRANCH   1  23
HETATM   23  C5  UNL     1     -17.862   4.015  13.823  1.00  0.00    -0.014 C 
HETATM   24  C6  UNL     1     -18.872   4.061  12.674  1.00  0.00     0.010 C 
BRANCH  23  25
HETATM   25  C4  UNL     1     -17.225   5.402  14.099  1.00  0.00     0.009 C 
BRANCH  25  26
HETATM   26  C3  UNL     1     -16.589   6.078  12.866  1.00  0.00     0.034 C 
BRANCH  26  27
HETATM   27  C2  UNL     1     -15.422   7.024  13.081  1.00  0.00    -0.075 C 
HETATM   28  C1  UNL     1     -14.194   6.577  13.409  1.00  0.00     0.015 C 
BRANCH  27  29
HETATM   29  C27 UNL     1     -15.693   8.525  12.978  1.00  0.00     0.107 C 
HETATM   30  C28 UNL     1     -14.408   9.345  12.874  1.00  0.00     0.026 C 
BRANCH  29  31
HETATM   31  C29 UNL     1     -16.640   8.874  11.829  1.00  0.00     0.147 C 
HETATM   32  O4  UNL     1     -17.811   9.208  11.888  1.00  0.00    -0.650 OA
BRANCH  31  33
HETATM   33  O5  UNL     1     -16.038   8.773  10.623  1.00  0.00    -0.776 OA
HETATM   34  H42 UNL     1     -16.745   9.025   9.992  1.00  0.00     0.167 HD
ENDBRANCH  31  33
ENDBRANCH  29  31
ENDBRANCH  27  29
ENDBRANCH  26  27
ENDBRANCH  25  26
ENDBRANCH  23  25
ENDBRANCH   1  23
BRANCH  22  35
HETATM   35  O3  UNL     1     -15.902  -1.553  16.622  1.00  0.00    -0.391 OA
HETATM   36  H37 UNL     1     -15.400  -1.865  17.394  1.00  0.00     0.210 HD
ENDBRANCH  22  35
TORSDOF 8
ENDMDL
MODEL 2
REMARK minimizedAffinity -7.29096365
REMARK CNNscore 0.562280834
REMARK CNNaffinity 6.55559731
REMARK  8 active torsions:
REMARK  status: ('A' for Active; 'I' for Inactive)
REMARK    1  A    between atoms: C2_2  and  C3_3 
REMARK    2  A    between atoms: C2_2  and  C27_30 
REMARK    3  A    between atoms: C3_3  and  C4_4 
REMARK    4  A    between atoms: C4_4  and  C5_5 
REMARK    5  A    between atoms: C5_5  and  C7_7 
REMARK    6  A    between atoms: C26_28  and  O3_29 
REMARK    7  A    between atoms: C27_30  and  C29_32 
REMARK    8  A    between atoms: C29_32  and  O5_34 
ROOT
HETATM    1  C7  UNL     1      -1.334   7.381  12.815  1.00  0.00    -0.002 C 
HETATM    2  C8  UNL     1      -2.863   7.515  12.701  1.00  0.00     0.006 C 
HETATM    3  C9  UNL     1      -3.174   8.818  13.420  1.00  0.00     0.010 C 
HETATM    4  C10 UNL     1      -2.298   8.706  14.668  1.00  0.00     0.027 C 
HETATM    5  C11 UNL     1      -2.228   9.964  15.512  1.00  0.00    -0.036 C 
HETATM    6  C12 UNL     1      -1.104  10.696  15.695  1.00  0.00     0.002 C 
HETATM    7  C13 UNL     1       0.097  10.370  14.844  1.00  0.00     0.157 C 
HETATM    8  O1  UNL     1       1.135  11.026  14.930  1.00  0.00    -0.293 OA
HETATM    9  C14 UNL     1      -0.021   9.316  13.770  1.00  0.00     0.093 C 
HETATM   10  C15 UNL     1      -0.947   8.146  14.141  1.00  0.00    -0.026 C 
HETATM   11  C16 UNL     1      -0.278   7.319  15.252  1.00  0.00     0.016 C 
HETATM   12  C17 UNL     1      -0.983  11.865  16.704  1.00  0.00    -0.008 C 
HETATM   13  C18 UNL     1       0.186  11.557  17.689  1.00  0.00     0.021 C 
HETATM   14  C19 UNL     1      -0.665  13.184  15.930  1.00  0.00     0.022 C 
HETATM   15  C20 UNL     1      -1.632  14.343  16.129  1.00  0.00     0.080 C 
HETATM   16  C21 UNL     1      -1.992  14.549  17.572  1.00  0.00     0.131 C 
HETATM   17  O2  UNL     1      -2.050  15.688  18.050  1.00  0.00    -0.298 OA
HETATM   18  C22 UNL     1      -2.310  13.321  18.409  1.00  0.00     0.056 C 
HETATM   19  C23 UNL     1      -3.614  13.537  19.179  1.00  0.00     0.018 C 
HETATM   20  C24 UNL     1      -2.276  12.002  17.594  1.00  0.00     0.012 C 
HETATM   21  C25 UNL     1      -3.549  11.730  16.777  1.00  0.00     0.042 C 
HETATM   22  C26 UNL     1      -3.522  10.314  16.205  1.00  0.00     0.148 C 
ENDROOT
BRANCH   1  23
HETATM   23  C5  UNL     1      -0.824   5.950  12.482  1.00  0.00    -0.014 C 
HETATM   24  C6  UNL     1       0.037   5.299  13.565  1.00  0.00     0.010 C 
BRANCH  23  25
HETATM   25  C4  UNL     1      -0.145   5.908  11.088  1.00  0.00     0.009 C 
BRANCH  25  26
HETATM   26  C3  UNL     1       0.213   7.290  10.502  1.00  0.00     0.034 C 
BRANCH  26  27
HETATM   27  C2  UNL     1       1.233   7.357   9.379  1.00  0.00    -0.075 C 
HETATM   28  C1  UNL     1       1.190   8.318   8.436  1.00  0.00     0.015 C 
BRANCH  27  29
HETATM   29  C27 UNL     1       2.287   6.252   9.306  1.00  0.00     0.107 C 
HETATM   30  C28 UNL     1       2.727   5.959   7.873  1.00  0.00     0.026 C 
BRANCH  29  31
HETATM   31  C29 UNL     1       3.504   6.541  10.186  1.00  0.00     0.147 C 
HETATM   32  O4  UNL     1       4.502   7.183   9.911  1.00  0.00    -0.650 OA
BRANCH  31  33
HETATM   33  O5  UNL     1       3.394   5.977  11.411  1.00  0.00    -0.776 OA
HETATM   34  H42 UNL     1       4.224   6.242  11.861  1.00  0.00     0.167 HD
ENDBRANCH  31  33
ENDBRANCH  29  31
ENDBRANCH  27  29
ENDBRANCH  26  27
ENDBRANCH  25  26
ENDBRANCH  23  25
ENDBRANCH   1  23
BRANCH  22  35
HETATM   35  O3  UNL     1      -3.723   9.359  17.242  1.00  0.00    -0.391 OA
HETATM   36  H37 UNL     1      -4.605   9.514  17.619  1.00  0.00     0.210 HD
ENDBRANCH  22  35
TORSDOF 8
ENDMDL
MODEL 3
REMARK minimizedAffinity -6.93843889
REMARK CNNscore 0.546620727
REMARK CNNaffinity 6.15045118
REMARK  8 active torsions:
REMARK  status: ('A' for Active; 'I' for Inactive)
REMARK    1  A    between atoms: C2_2  and  C3_3 
REMARK    2  A    between atoms: C2_2  and  C27_30 
REMARK    3  A    between atoms: C3_3  and  C4_4 
REMARK    4  A    between atoms: C4_4  and  C5_5 
REMARK    5  A    between atoms: C5_5  and  C7_7 
REMARK    6  A    between atoms: C26_28  and  O3_29 
REMARK    7  A    between atoms: C27_30  and  C29_32 
REMARK    8  A    between atoms: C29_32  and  O5_34 
ROOT
HETATM    1  C7  UNL     1     -17.262   2.278  13.947  1.00  0.00    -0.002 C 
HETATM    2  C8  UNL     1     -17.707   2.020  12.496  1.00  0.00     0.006 C 
HETATM    3  C9  UNL     1     -17.488   0.529  12.302  1.00  0.00     0.010 C 
HETATM    4  C10 UNL     1     -16.119   0.324  12.949  1.00  0.00     0.027 C 
HETATM    5  C11 UNL     1     -15.696  -1.125  13.100  1.00  0.00    -0.036 C 
HETATM    6  C12 UNL     1     -15.526  -1.748  14.290  1.00  0.00     0.002 C 
HETATM    7  C13 UNL     1     -15.988  -1.033  15.534  1.00  0.00     0.157 C 
HETATM    8  O1  UNL     1     -15.902  -1.562  16.641  1.00  0.00    -0.293 OA
HETATM    9  C14 UNL     1     -16.696   0.294  15.405  1.00  0.00     0.093 C 
HETATM   10  C15 UNL     1     -16.178   1.170  14.252  1.00  0.00    -0.026 C 
HETATM   11  C16 UNL     1     -14.762   1.659  14.599  1.00  0.00     0.016 C 
HETATM   12  C17 UNL     1     -14.913  -3.161  14.451  1.00  0.00    -0.008 C 
HETATM   13  C18 UNL     1     -13.673  -3.064  15.391  1.00  0.00     0.021 C 
HETATM   14  C19 UNL     1     -15.971  -4.112  15.096  1.00  0.00     0.022 C 
HETATM   15  C20 UNL     1     -16.322  -5.372  14.317  1.00  0.00     0.080 C 
HETATM   16  C21 UNL     1     -15.108  -6.075  13.784  1.00  0.00     0.131 C 
HETATM   17  O2  UNL     1     -15.016  -7.307  13.845  1.00  0.00    -0.298 OA
HETATM   18  C22 UNL     1     -14.019  -5.230  13.144  1.00  0.00     0.056 C 
HETATM   19  C23 UNL     1     -13.619  -5.827  11.793  1.00  0.00     0.018 C 
HETATM   20  C24 UNL     1     -14.376  -3.722  13.080  1.00  0.00     0.012 C 
HETATM   21  C25 UNL     1     -15.305  -3.340  11.917  1.00  0.00     0.042 C 
HETATM   22  C26 UNL     1     -15.407  -1.822  11.793  1.00  0.00     0.148 C 
ENDROOT
BRANCH   1  23
HETATM   23  C5  UNL     1     -17.042   3.787  14.255  1.00  0.00    -0.014 C 
HETATM   24  C6  UNL     1     -17.186   4.176  15.728  1.00  0.00     0.010 C 
BRANCH  23  25
HETATM   25  C4  UNL     1     -17.904   4.679  13.326  1.00  0.00     0.009 C 
BRANCH  25  26
HETATM   26  C3  UNL     1     -17.122   5.783  12.583  1.00  0.00     0.034 C 
BRANCH  26  27
HETATM   27  C2  UNL     1     -16.928   7.121  13.272  1.00  0.00    -0.075 C 
HETATM   28  C1  UNL     1     -17.920   7.719  13.958  1.00  0.00     0.015 C 
BRANCH  27  29
HETATM   29  C27 UNL     1     -15.576   7.817  13.109  1.00  0.00     0.107 C 
HETATM   30  C28 UNL     1     -14.406   6.835  13.155  1.00  0.00     0.026 C 
BRANCH  29  31
HETATM   31  C29 UNL     1     -15.502   8.672  11.844  1.00  0.00     0.147 C 
HETATM   32  O4  UNL     1     -16.172   8.583  10.829  1.00  0.00    -0.650 OA
BRANCH  31  33
HETATM   33  O5  UNL     1     -14.547   9.625  11.927  1.00  0.00    -0.776 OA
HETATM   34  H42 UNL     1     -14.613  10.092  11.067  1.00  0.00     0.167 HD
ENDBRANCH  31  33
ENDBRANCH  29  31
ENDBRANCH  27  29
ENDBRANCH  26  27
ENDBRANCH  25  26
ENDBRANCH  23  25
ENDBRANCH   1  23
BRANCH  22  35
HETATM   35  O3  UNL     1     -14.191  -1.285  11.283  1.00  0.00    -0.391 OA
HETATM   36  H37 UNL     1     -14.058  -1.651  10.392  1.00  0.00     0.210 HD
ENDBRANCH  22  35
TORSDOF 8
ENDMDL
MODEL 4
REMARK minimizedAffinity -6.7679472
REMARK CNNscore 0.50966835
REMARK CNNaffinity 6.07126474
REMARK  8 active torsions:
REMARK  status: ('A' for Active; 'I' for Inactive)
REMARK    1  A    between atoms: C2_2  and  C3_3 
REMARK    2  A    between atoms: C2_2  and  C27_30 
REMARK    3  A    between atoms: C3_3  and  C4_4 
REMARK    4  A    between atoms: C4_4  and  C5_5 
REMARK    5  A    between atoms: C5_5  and  C7_7 
REMARK    6  A    between atoms: C26_28  and  O3_29 
REMARK    7  A    between atoms: C27_30  and  C29_32 
REMARK    8  A    between atoms: C29_32  and  O5_34 
ROOT
HETATM    1  C7  UNL     1     -14.404  -4.948   9.028  1.00  0.00    -0.002 C 
HETATM    2  C8  UNL     1     -13.765  -3.581   8.723  1.00  0.00     0.006 C 
HETATM    3  C9  UNL     1     -13.943  -2.795  10.012  1.00  0.00     0.010 C 
HETATM    4  C10 UNL     1     -15.386  -3.131  10.390  1.00  0.00     0.027 C 
HETATM    5  C11 UNL     1     -15.813  -2.651  11.763  1.00  0.00    -0.036 C 
HETATM    6  C12 UNL     1     -16.137  -3.471  12.790  1.00  0.00     0.002 C 
HETATM    7  C13 UNL     1     -15.853  -4.943  12.634  1.00  0.00     0.157 C 
HETATM    8  O1  UNL     1     -16.083  -5.736  13.546  1.00  0.00    -0.293 OA
HETATM    9  C14 UNL     1     -15.145  -5.433  11.394  1.00  0.00     0.093 C 
HETATM   10  C15 UNL     1     -15.510  -4.657  10.118  1.00  0.00    -0.026 C 
HETATM   11  C16 UNL     1     -16.964  -4.983   9.738  1.00  0.00     0.016 C 
HETATM   12  C17 UNL     1     -16.754  -2.989  14.126  1.00  0.00    -0.008 C 
HETATM   13  C18 UNL     1     -18.110  -3.726  14.345  1.00  0.00     0.021 C 
HETATM   14  C19 UNL     1     -15.785  -3.342  15.300  1.00  0.00     0.022 C 
HETATM   15  C20 UNL     1     -15.321  -2.185  16.174  1.00  0.00     0.080 C 
HETATM   16  C21 UNL     1     -16.447  -1.270  16.561  1.00  0.00     0.131 C 
HETATM   17  O2  UNL     1     -16.536  -0.835  17.714  1.00  0.00    -0.298 OA
HETATM   18  C22 UNL     1     -17.447  -0.877  15.486  1.00  0.00     0.056 C 
HETATM   19  C23 UNL     1     -17.655   0.639  15.495  1.00  0.00     0.018 C 
HETATM   20  C24 UNL     1     -17.096  -1.451  14.088  1.00  0.00     0.012 C 
HETATM   21  C25 UNL     1     -16.022  -0.658  13.328  1.00  0.00     0.042 C 
HETATM   22  C26 UNL     1     -15.917  -1.150  11.886  1.00  0.00     0.148 C 
ENDROOT
BRANCH   1  23
HETATM   23  C5  UNL     1     -14.676  -5.789   7.748  1.00  0.00    -0.014 C 
HETATM   24  C6  UNL     1     -13.997  -7.160   7.715  1.00  0.00     0.010 C 
BRANCH  23  25
HETATM   25  C4  UNL     1     -14.394  -4.965   6.466  1.00  0.00     0.009 C 
BRANCH  25  26
HETATM   26  C3  UNL     1     -12.914  -4.933   6.030  1.00  0.00     0.034 C 
BRANCH  26  27
HETATM   27  C2  UNL     1     -12.538  -5.561   4.700  1.00  0.00    -0.075 C 
HETATM   28  C1  UNL     1     -12.185  -6.856   4.599  1.00  0.00     0.015 C 
BRANCH  27  29
HETATM   29  C27 UNL     1     -12.505  -4.655   3.469  1.00  0.00     0.107 C 
HETATM   30  C28 UNL     1     -11.939  -3.269   3.778  1.00  0.00     0.026 C 
BRANCH  29  31
HETATM   31  C29 UNL     1     -11.754  -5.285   2.295  1.00  0.00     0.147 C 
HETATM   32  O4  UNL     1     -11.557  -4.821   1.185  1.00  0.00    -0.650 OA
BRANCH  31  33
HETATM   33  O5  UNL     1     -11.280  -6.516   2.594  1.00  0.00    -0.776 OA
HETATM   34  H42 UNL     1     -10.827  -6.793   1.770  1.00  0.00     0.167 HD
ENDBRANCH  31  33
ENDBRANCH  29  31
ENDBRANCH  27  29
ENDBRANCH  26  27
ENDBRANCH  25  26
ENDBRANCH  23  25
ENDBRANCH   1  23
BRANCH  22  35
HETATM   35  O3  UNL     1     -17.058  -0.739  11.140  1.00  0.00    -0.391 OA
HETATM   36  H37 UNL     1     -17.066   0.233  11.126  1.00  0.00     0.210 HD
ENDBRANCH  22  35
TORSDOF 8
ENDMDL
MODEL 5
REMARK minimizedAffinity -7.98867607
REMARK CNNscore 0.483643621
REMARK CNNaffinity 6.57120657
REMARK  8 active torsions:
REMARK  status: ('A' for Active; 'I' for Inactive)
REMARK    1  A    between atoms: C2_2  and  C3_3 
REMARK    2  A    between atoms: C2_2  and  C27_30 
REMARK    3  A    between atoms: C3_3  and  C4_4 
REMARK    4  A    between atoms: C4_4  and  C5_5 
REMARK    5  A    between atoms: C5_5  and  C7_7 
REMARK    6  A    between atoms: C26_28  and  O3_29 
REMARK    7  A    between atoms: C27_30  and  C29_32 
REMARK    8  A    between atoms: C29_32  and  O5_34 
ROOT
HETATM    1  C7  UNL     1      -2.026   9.946  14.297  1.00  0.00    -0.002 C 
HETATM    2  C8  UNL     1      -1.450   9.412  12.972  1.00  0.00     0.006 C 
HETATM    3  C9  UNL     1      -2.495   8.420  12.488  1.00  0.00     0.010 C 
HETATM    4  C10 UNL     1      -2.834   7.666  13.775  1.00  0.00     0.027 C 
HETATM    5  C11 UNL     1      -4.015   6.722  13.668  1.00  0.00    -0.036 C 
HETATM    6  C12 UNL     1      -5.182   6.884  14.335  1.00  0.00     0.002 C 
HETATM    7  C13 UNL     1      -5.406   8.186  15.060  1.00  0.00     0.157 C 
HETATM    8  O1  UNL     1      -6.462   8.414  15.648  1.00  0.00    -0.293 OA
HETATM    9  C14 UNL     1      -4.376   9.284  14.944  1.00  0.00     0.093 C 
HETATM   10  C15 UNL     1      -2.927   8.777  14.859  1.00  0.00    -0.026 C 
HETATM   11  C16 UNL     1      -2.530   8.185  16.221  1.00  0.00     0.016 C 
HETATM   12  C17 UNL     1      -6.313   5.826  14.377  1.00  0.00    -0.008 C 
HETATM   13  C18 UNL     1      -6.600   5.460  15.865  1.00  0.00     0.021 C 
HETATM   14  C19 UNL     1      -7.606   6.428  13.740  1.00  0.00     0.022 C 
HETATM   15  C20 UNL     1      -8.208   5.665  12.569  1.00  0.00     0.080 C 
HETATM   16  C21 UNL     1      -8.279   4.187  12.820  1.00  0.00     0.131 C 
HETATM   17  O2  UNL     1      -9.284   3.540  12.503  1.00  0.00    -0.298 OA
HETATM   18  C22 UNL     1      -7.069   3.513  13.447  1.00  0.00     0.056 C 
HETATM   19  C23 UNL     1      -6.697   2.260  12.651  1.00  0.00     0.018 C 
HETATM   20  C24 UNL     1      -5.881   4.483  13.675  1.00  0.00     0.012 C 
HETATM   21  C25 UNL     1      -5.035   4.755  12.420  1.00  0.00     0.042 C 
HETATM   22  C26 UNL     1      -3.765   5.520  12.790  1.00  0.00     0.148 C 
ENDROOT
BRANCH   1  23
HETATM   23  C5  UNL     1      -0.969  10.692  15.160  1.00  0.00    -0.014 C 
HETATM   24  C6  UNL     1       0.317   9.910  15.433  1.00  0.00     0.010 C 
BRANCH  23  25
HETATM   25  C4  UNL     1      -1.603  11.249  16.461  1.00  0.00     0.009 C 
BRANCH  25  26
HETATM   26  C3  UNL     1      -0.780  10.995  17.742  1.00  0.00     0.034 C 
BRANCH  26  27
HETATM   27  C2  UNL     1       0.253  12.028  18.154  1.00  0.00    -0.075 C 
HETATM   28  C1  UNL     1       0.283  13.261  17.614  1.00  0.00     0.015 C 
BRANCH  27  29
HETATM   29  C27 UNL     1       1.318  11.605  19.168  1.00  0.00     0.107 C 
HETATM   30  C28 UNL     1       0.721  10.875  20.371  1.00  0.00     0.026 C 
BRANCH  29  31
HETATM   31  C29 UNL     1       2.431  10.767  18.537  1.00  0.00     0.147 C 
HETATM   32  O4  UNL     1       2.421   9.580  18.261  1.00  0.00    -0.650 OA
BRANCH  31  33
HETATM   33  O5  UNL     1       3.540  11.498  18.286  1.00  0.00    -0.776 OA
HETATM   34  H42 UNL     1       4.157  10.849  17.887  1.00  0.00     0.167 HD
ENDBRANCH  31  33
ENDBRANCH  29  31
ENDBRANCH  27  29
ENDBRANCH  26  27
ENDBRANCH  25  26
ENDBRANCH  23  25
ENDBRANCH   1  23
BRANCH  22  35
HETATM   35  O3  UNL     1      -2.859   4.667  13.481  1.00  0.00    -0.391 OA
HETATM   36  H37 UNL     1      -2.611   3.948  12.876  1.00  0.00     0.210 HD
ENDBRANCH  22  35
TORSDOF 8
ENDMDL
MODEL 6
REMARK minimizedAffinity -8.81142902
REMARK CNNscore 0.44183591
REMARK CNNaffinity 6.98444796
REMARK  8 active torsions:
REMARK  status: ('A' for Active; 'I' for Inactive)
REMARK    1  A    between atoms: C2_2  and  C3_3 
REMARK    2  A    between atoms: C2_2  and  C27_30 
REMARK    3  A    between atoms: C3_3  and  C4_4 
REMARK    4  A    between atoms: C4_4  and  C5_5 
REMARK    5  A    between atoms: C5_5  and  C7_7 
REMARK    6  A    between atoms: C26_28  and  O3_29 
REMARK    7  A    between atoms: C27_30  and  C29_32 
REMARK    8  A    between atoms: C29_32  and  O5_34 
ROOT
HETATM    1  C7  UNL     1      -7.177   6.427  13.835  1.00  0.00    -0.002 C 
HETATM    2  C8  UNL     1      -7.923   5.658  12.730  1.00  0.00     0.006 C 
HETATM    3  C9  UNL     1      -9.250   6.390  12.601  1.00  0.00     0.010 C 
HETATM    4  C10 UNL     1      -9.634   6.604  14.065  1.00  0.00     0.027 C 
HETATM    5  C11 UNL     1     -10.837   7.501  14.283  1.00  0.00    -0.036 C 
HETATM    6  C12 UNL     1     -10.785   8.709  14.892  1.00  0.00     0.002 C 
HETATM    7  C13 UNL     1      -9.427   9.296  15.182  1.00  0.00     0.157 C 
HETATM    8  O1  UNL     1      -9.310  10.408  15.694  1.00  0.00    -0.293 OA
HETATM    9  C14 UNL     1      -8.191   8.570  14.708  1.00  0.00     0.093 C 
HETATM   10  C15 UNL     1      -8.309   7.038  14.752  1.00  0.00    -0.026 C 
HETATM   11  C16 UNL     1      -8.334   6.586  16.222  1.00  0.00     0.016 C 
HETATM   12  C17 UNL     1     -12.033   9.538  15.285  1.00  0.00    -0.008 C 
HETATM   13  C18 UNL     1     -11.988   9.813  16.819  1.00  0.00     0.021 C 
HETATM   14  C19 UNL     1     -12.009  10.900  14.521  1.00  0.00     0.022 C 
HETATM   15  C20 UNL     1     -13.221  11.221  13.659  1.00  0.00     0.080 C 
HETATM   16  C21 UNL     1     -14.517  10.933  14.359  1.00  0.00     0.131 C 
HETATM   17  O2  UNL     1     -15.465  11.722  14.279  1.00  0.00    -0.298 OA
HETATM   18  C22 UNL     1     -14.632   9.632  15.136  1.00  0.00     0.056 C 
HETATM   19  C23 UNL     1     -15.928   8.911  14.760  1.00  0.00     0.018 C 
HETATM   20  C24 UNL     1     -13.367   8.742  15.025  1.00  0.00     0.012 C 
HETATM   21  C25 UNL     1     -13.283   7.918  13.730  1.00  0.00     0.042 C 
HETATM   22  C26 UNL     1     -12.143   6.906  13.816  1.00  0.00     0.148 C 
ENDROOT
BRANCH   1  23
HETATM   23  C5  UNL     1      -5.958   5.645  14.401  1.00  0.00    -0.014 C 
HETATM   24  C6  UNL     1      -5.143   6.390  15.460  1.00  0.00     0.010 C 
BRANCH  23  25
HETATM   25  C4  UNL     1      -5.068   5.093  13.258  1.00  0.00     0.009 C 
BRANCH  25  26
HETATM   26  C3  UNL     1      -5.422   3.664  12.796  1.00  0.00     0.034 C 
BRANCH  26  27
HETATM   27  C2  UNL     1      -4.705   3.097  11.584  1.00  0.00    -0.075 C 
HETATM   28  C1  UNL     1      -5.299   3.013  10.379  1.00  0.00     0.015 C 
BRANCH  27  29
HETATM   29  C27 UNL     1      -3.289   2.554  11.784  1.00  0.00     0.107 C 
HETATM   30  C28 UNL     1      -3.226   1.032  11.670  1.00  0.00     0.026 C 
BRANCH  29  31
HETATM   31  C29 UNL     1      -2.273   3.199  10.840  1.00  0.00     0.147 C 
HETATM   32  O4  UNL     1      -1.850   4.342  10.850  1.00  0.00    -0.650 OA
BRANCH  31  33
HETATM   33  O5  UNL     1      -1.834   2.336   9.896  1.00  0.00    -0.776 OA
HETATM   34  H42 UNL     1      -1.198   2.871   9.375  1.00  0.00     0.167 HD
ENDBRANCH  31  33
ENDBRANCH  29  31
ENDBRANCH  27  29
ENDBRANCH  26  27
ENDBRANCH  25  26
ENDBRANCH  23  25
ENDBRANCH   1  23
BRANCH  22  35
HETATM   35  O3  UNL     1     -12.480   5.857  14.718  1.00  0.00    -0.391 OA
HETATM   36  H37 UNL     1     -13.261   5.401  14.361  1.00  0.00     0.210 HD
ENDBRANCH  22  35
TORSDOF 8
ENDMDL
MODEL 7
REMARK minimizedAffinity -7.05376673
REMARK CNNscore 0.37681213
REMARK CNNaffinity 6.04160118
REMARK  8 active torsions:
REMARK  status: ('A' for Active; 'I' for Inactive)
REMARK    1  A    between atoms: C2_2  and  C3_3 
REMARK    2  A    between atoms: C2_2  and  C27_30 
REMARK    3  A    between atoms: C3_3  and  C4_4 
REMARK    4  A    between atoms: C4_4  and  C5_5 
REMARK    5  A    between atoms: C5_5  and  C7_7 
REMARK    6  A    between atoms: C26_28  and  O3_29 
REMARK    7  A    between atoms: C27_30  and  C29_32 
REMARK    8  A    between atoms: C29_32  and  O5_34 
ROOT
HETATM    1  C7  UNL     1      -0.129  11.126  15.839  1.00  0.00    -0.002 C 
HETATM    2  C8  UNL     1       1.367  11.490  15.843  1.00  0.00     0.006 C 
HETATM    3  C9  UNL     1       1.892  10.909  14.540  1.00  0.00     0.010 C 
HETATM    4  C10 UNL     1       1.226   9.533  14.518  1.00  0.00     0.027 C 
HETATM    5  C11 UNL     1       1.393   8.765  13.220  1.00  0.00    -0.036 C 
HETATM    6  C12 UNL     1       0.376   8.450  12.386  1.00  0.00     0.002 C 
HETATM    7  C13 UNL     1      -0.971   9.078  12.645  1.00  0.00     0.157 C 
HETATM    8  O1  UNL     1      -1.926   8.867  11.899  1.00  0.00    -0.293 OA
HETATM    9  C14 UNL     1      -1.113  10.091  13.754  1.00  0.00     0.093 C 
HETATM   10  C15 UNL     1      -0.233   9.803  14.982  1.00  0.00    -0.026 C 
HETATM   11  C16 UNL     1      -0.773   8.553  15.696  1.00  0.00     0.016 C 
HETATM   12  C17 UNL     1       0.513   7.507  11.165  1.00  0.00    -0.008 C 
HETATM   13  C18 UNL     1      -0.499   6.332  11.324  1.00  0.00     0.021 C 
HETATM   14  C19 UNL     1       0.177   8.299   9.861  1.00  0.00     0.022 C 
HETATM   15  C20 UNL     1       1.251   8.326   8.782  1.00  0.00     0.080 C 
HETATM   16  C21 UNL     1       1.857   6.974   8.541  1.00  0.00     0.131 C 
HETATM   17  O2  UNL     1       2.081   6.580   7.391  1.00  0.00    -0.298 OA
HETATM   18  C22 UNL     1       2.211   6.126   9.752  1.00  0.00     0.056 C 
HETATM   19  C23 UNL     1       3.636   5.588   9.614  1.00  0.00     0.018 C 
HETATM   20  C24 UNL     1       1.941   6.845  11.099  1.00  0.00     0.012 C 
HETATM   21  C25 UNL     1       3.038   7.836  11.519  1.00  0.00     0.042 C 
HETATM   22  C26 UNL     1       2.807   8.310  12.952  1.00  0.00     0.148 C 
ENDROOT
BRANCH   1  23
HETATM   23  C5  UNL     1      -0.797  11.287  17.234  1.00  0.00    -0.014 C 
HETATM   24  C6  UNL     1      -2.324  11.201  17.237  1.00  0.00     0.010 C 
BRANCH  23  25
HETATM   25  C4  UNL     1      -0.280  12.557  17.959  1.00  0.00     0.009 C 
BRANCH  25  26
HETATM   26  C3  UNL     1       1.241  12.583  18.212  1.00  0.00     0.034 C 
BRANCH  26  27
HETATM   27  C2  UNL     1       1.736  12.802  19.630  1.00  0.00    -0.075 C 
HETATM   28  C1  UNL     1       2.008  14.031  20.107  1.00  0.00     0.015 C 
BRANCH  27  29
HETATM   29  C27 UNL     1       1.982  11.567  20.497  1.00  0.00     0.107 C 
HETATM   30  C28 UNL     1       0.802  10.597  20.481  1.00  0.00     0.026 C 
BRANCH  29  31
HETATM   31  C29 UNL     1       3.274  10.837  20.127  1.00  0.00     0.147 C 
HETATM   32  O4  UNL     1       4.124  10.378  20.871  1.00  0.00    -0.650 OA
BRANCH  31  33
HETATM   33  O5  UNL     1       3.433  10.727  18.789  1.00  0.00    -0.776 OA
HETATM   34  H42 UNL     1       4.282  10.244  18.698  1.00  0.00     0.167 HD
ENDBRANCH  31  33
ENDBRANCH  29  31
ENDBRANCH  27  29
ENDBRANCH  26  27
ENDBRANCH  25  26
ENDBRANCH  23  25
ENDBRANCH   1  23
BRANCH  22  35
HETATM   35  O3  UNL     1       3.100   7.263  13.871  1.00  0.00    -0.391 OA
HETATM   36  H37 UNL     1       4.041   7.041  13.776  1.00  0.00     0.210 HD
ENDBRANCH  22  35
TORSDOF 8
ENDMDL
MODEL 8
REMARK minimizedAffinity -8.78547382
REMARK CNNscore 0.375680298
REMARK CNNaffinity 6.88930178
REMARK  8 active torsions:
REMARK  status: ('A' for Active; 'I' for Inactive)
REMARK    1  A    between atoms: C2_2  and  C3_3 
REMARK    2  A    between atoms: C2_2  and  C27_30 
REMARK    3  A    between atoms: C3_3  and  C4_4 
REMARK    4  A    between atoms: C4_4  and  C5_5 
REMARK    5  A    between atoms: C5_5  and  C7_7 
REMARK    6  A    between atoms: C26_28  and  O3_29 
REMARK    7  A    between atoms: C27_30  and  C29_32 
REMARK    8  A    between atoms: C29_32  and  O5_34 
ROOT
HETATM    1  C7  UNL     1      -7.209   4.932  12.251  1.00  0.00    -0.002 C 
HETATM    2  C8  UNL     1      -8.328   4.962  11.193  1.00  0.00     0.006 C 
HETATM    3  C9  UNL     1      -9.206   6.128  11.618  1.00  0.00     0.010 C 
HETATM    4  C10 UNL     1      -9.303   5.915  13.129  1.00  0.00     0.027 C 
HETATM    5  C11 UNL     1      -9.962   7.048  13.891  1.00  0.00    -0.036 C 
HETATM    6  C12 UNL     1      -9.324   7.832  14.791  1.00  0.00     0.002 C 
HETATM    7  C13 UNL     1      -7.824   7.719  14.888  1.00  0.00     0.157 C 
HETATM    8  O1  UNL     1      -7.179   8.434  15.654  1.00  0.00    -0.293 OA
HETATM    9  C14 UNL     1      -7.086   6.814  13.931  1.00  0.00     0.093 C 
HETATM   10  C15 UNL     1      -7.857   5.537  13.558  1.00  0.00    -0.026 C 
HETATM   11  C16 UNL     1      -7.921   4.620  14.791  1.00  0.00     0.016 C 
HETATM   12  C17 UNL     1     -10.034   8.860  15.706  1.00  0.00    -0.008 C 
HETATM   13  C18 UNL     1      -9.713   8.512  17.192  1.00  0.00     0.021 C 
HETATM   14  C19 UNL     1      -9.498  10.292  15.389  1.00  0.00     0.022 C 
HETATM   15  C20 UNL     1     -10.531  11.335  14.989  1.00  0.00     0.080 C 
HETATM   16  C21 UNL     1     -11.742  11.316  15.876  1.00  0.00     0.131 C 
HETATM   17  O2  UNL     1     -12.252  12.371  16.269  1.00  0.00    -0.298 OA
HETATM   18  C22 UNL     1     -12.331   9.965  16.247  1.00  0.00     0.056 C 
HETATM   19  C23 UNL     1     -13.843   9.973  16.015  1.00  0.00     0.018 C 
HETATM   20  C24 UNL     1     -11.602   8.775  15.570  1.00  0.00     0.012 C 
HETATM   21  C25 UNL     1     -12.023   8.519  14.114  1.00  0.00     0.042 C 
HETATM   22  C26 UNL     1     -11.438   7.200  13.614  1.00  0.00     0.148 C 
ENDROOT
BRANCH   1  23
HETATM   23  C5  UNL     1      -6.402   3.603  12.242  1.00  0.00    -0.014 C 
HETATM   24  C6  UNL     1      -7.205   2.352  12.602  1.00  0.00     0.010 C 
BRANCH  23  25
HETATM   25  C4  UNL     1      -5.106   3.730  13.084  1.00  0.00     0.009 C 
BRANCH  25  26
HETATM   26  C3  UNL     1      -3.814   3.910  12.259  1.00  0.00     0.034 C 
BRANCH  26  27
HETATM   27  C2  UNL     1      -3.199   2.688  11.601  1.00  0.00    -0.075 C 
HETATM   28  C1  UNL     1      -3.689   1.450  11.800  1.00  0.00     0.015 C 
BRANCH  27  29
HETATM   29  C27 UNL     1      -1.948   2.893  10.746  1.00  0.00     0.107 C 
HETATM   30  C28 UNL     1      -1.203   4.180  11.100  1.00  0.00     0.026 C 
BRANCH  29  31
HETATM   31  C29 UNL     1      -0.996   1.697  10.799  1.00  0.00     0.147 C 
HETATM   32  O4  UNL     1      -1.243   0.523  10.584  1.00  0.00    -0.650 OA
BRANCH  31  33
HETATM   33  O5  UNL     1       0.261   2.061  11.140  1.00  0.00    -0.776 OA
HETATM   34  H42 UNL     1       0.755   1.213  11.131  1.00  0.00     0.167 HD
ENDBRANCH  31  33
ENDBRANCH  29  31
ENDBRANCH  27  29
ENDBRANCH  26  27
ENDBRANCH  25  26
ENDBRANCH  23  25
ENDBRANCH   1  23
BRANCH  22  35
HETATM   35  O3  UNL     1     -12.103   6.101  14.228  1.00  0.00    -0.391 OA
HETATM   36  H37 UNL     1     -13.036   6.135  13.962  1.00  0.00     0.210 HD
ENDBRANCH  22  35
TORSDOF 8
ENDMDL
MODEL 9
REMARK minimizedAffinity -7.03171158
REMARK CNNscore 0.354496241
REMARK CNNaffinity 5.71318054
REMARK  8 active torsions:
REMARK  status: ('A' for Active; 'I' for Inactive)
REMARK    1  A    between atoms: C2_2  and  C3_3 
REMARK    2  A    between atoms: C2_2  and  C27_30 
REMARK    3  A    between atoms: C3_3  and  C4_4 
REMARK    4  A    between atoms: C4_4  and  C5_5 
REMARK    5  A    between atoms: C5_5  and  C7_7 
REMARK    6  A    between atoms: C26_28  and  O3_29 
REMARK    7  A    between atoms: C27_30  and  C29_32 
REMARK    8  A    between atoms: C29_32  and  O5_34 
ROOT
HETATM    1  C7  UNL     1       2.736  12.361  20.682  1.00  0.00    -0.002 C 
HETATM    2  C8  UNL     1       3.958  12.297  19.747  1.00  0.00     0.006 C 
HETATM    3  C9  UNL     1       3.368  11.936  18.393  1.00  0.00     0.010 C 
HETATM    4  C10 UNL     1       2.371  10.839  18.766  1.00  0.00     0.027 C 
HETATM    5  C11 UNL     1       1.457  10.399  17.639  1.00  0.00    -0.036 C 
HETATM    6  C12 UNL     1       0.116  10.584  17.630  1.00  0.00     0.002 C 
HETATM    7  C13 UNL     1      -0.482  11.466  18.696  1.00  0.00     0.157 C 
HETATM    8  O1  UNL     1      -1.688  11.710  18.718  1.00  0.00    -0.293 OA
HETATM    9  C14 UNL     1       0.430  12.175  19.668  1.00  0.00     0.093 C 
HETATM   10  C15 UNL     1       1.680  11.368  20.055  1.00  0.00    -0.026 C 
HETATM   11  C16 UNL     1       1.249  10.173  20.921  1.00  0.00     0.016 C 
HETATM   12  C17 UNL     1      -0.839   9.970  16.577  1.00  0.00    -0.008 C 
HETATM   13  C18 UNL     1      -1.909   9.108  17.314  1.00  0.00     0.021 C 
HETATM   14  C19 UNL     1      -1.556  11.118  15.798  1.00  0.00     0.022 C 
HETATM   15  C20 UNL     1      -1.395  11.120  14.284  1.00  0.00     0.080 C 
HETATM   16  C21 UNL     1      -1.587   9.758  13.683  1.00  0.00     0.131 C 
HETATM   17  O2  UNL     1      -2.238   9.615  12.642  1.00  0.00    -0.298 OA
HETATM   18  C22 UNL     1      -0.932   8.575  14.378  1.00  0.00     0.056 C 
HETATM   19  C23 UNL     1      -0.173   7.725  13.358  1.00  0.00     0.018 C 
HETATM   20  C24 UNL     1      -0.081   8.985  15.607  1.00  0.00     0.012 C 
HETATM   21  C25 UNL     1       1.321   9.511  15.261  1.00  0.00     0.042 C 
HETATM   22  C26 UNL     1       2.162   9.661  16.527  1.00  0.00     0.148 C 
ENDROOT
BRANCH   1  23
HETATM   23  C5  UNL     1       3.123  12.347  22.188  1.00  0.00    -0.014 C 
HETATM   24  C6  UNL     1       2.994  13.691  22.905  1.00  0.00     0.010 C 
BRANCH  23  25
HETATM   25  C4  UNL     1       4.517  11.700  22.401  1.00  0.00     0.009 C 
BRANCH  25  26
HETATM   26  C3  UNL     1       5.558  12.617  23.077  1.00  0.00     0.034 C 
BRANCH  26  27
HETATM   27  C2  UNL     1       6.619  13.269  22.210  1.00  0.00    -0.075 C 
HETATM   28  C1  UNL     1       6.497  14.534  21.766  1.00  0.00     0.015 C 
BRANCH  27  29
HETATM   29  C27 UNL     1       7.820  12.419  21.793  1.00  0.00     0.107 C 
HETATM   30  C28 UNL     1       7.906  12.233  20.279  1.00  0.00     0.026 C 
BRANCH  29  31
HETATM   31  C29 UNL     1       9.142  12.960  22.338  1.00  0.00     0.147 C 
HETATM   32  O4  UNL     1      10.169  13.205  21.728  1.00  0.00    -0.650 OA
BRANCH  31  33
HETATM   33  O5  UNL     1       9.098  13.166  23.674  1.00  0.00    -0.776 OA
HETATM   34  H42 UNL     1       9.992  13.511  23.883  1.00  0.00     0.167 HD
ENDBRANCH  31  33
ENDBRANCH  29  31
ENDBRANCH  27  29
ENDBRANCH  26  27
ENDBRANCH  25  26
ENDBRANCH  23  25
ENDBRANCH   1  23
BRANCH  22  35
HETATM   35  O3  UNL     1       2.529   8.381  17.030  1.00  0.00    -0.391 OA
HETATM   36  H37 UNL     1       3.077   7.945  16.356  1.00  0.00     0.210 HD
ENDBRANCH  22  35
TORSDOF 8
ENDMDL
