MODEL 1
REMARK minimizedAffinity -10.832468
REMARK CNNscore 0.617205799
REMARK CNNaffinity 6.88532639
REMARK  4 active torsions:
REMARK  status: ('A' for Active; 'I' for Inactive)
REMARK    1  A    between atoms: C4_4  and  O1_5 
REMARK    2  A    between atoms: C5_6  and  O2_7 
REMARK    3  A    between atoms: C8_11  and  C9_12 
REMARK    4  A    between atoms: C19_23  and  C20_24 
ROOT
HETATM    1  C1  UNL     1       3.700   8.083   9.479  1.00  0.00     0.040 C 
HETATM    2  C2  UNL     1       4.824   8.779  10.243  1.00  0.00     0.123 C 
HETATM    3  C3  UNL     1       5.895   7.817  10.753  1.00  0.00     0.069 C 
HETATM    4  C4  UNL     1       5.417   6.944  11.910  1.00  0.00     0.188 C 
HETATM    5  C5  UNL     1       4.465   7.691  12.882  1.00  0.00     0.240 C 
HETATM    6  O3  UNL     1       3.127   7.169  12.698  1.00  0.00    -0.341 OA
HETATM    7  C6  UNL     1       2.177   7.880  13.506  1.00  0.00     0.156 C 
HETATM    8  C7  UNL     1       0.781   7.347  13.191  1.00  0.00     0.056 C 
HETATM    9  C8  UNL     1      -0.361   8.040  13.993  1.00  0.00     0.043 C 
HETATM   10  C10 UNL     1      -0.144   9.550  14.088  1.00  0.00    -0.065 C 
HETATM   11  C11 UNL     1      -1.186  10.390  14.221  1.00  0.00    -0.022 C 
HETATM   12  C12 UNL     1      -2.586   9.905  14.410  1.00  0.00     0.035 C 
HETATM   13  C13 UNL     1      -2.941   8.625  13.642  1.00  0.00     0.030 C 
HETATM   14  C14 UNL     1      -1.736   7.683  13.300  1.00  0.00     0.012 C 
HETATM   15  C15 UNL     1      -1.994   6.147  13.279  1.00  0.00     0.007 C 
HETATM   16  C16 UNL     1      -3.453   5.722  13.186  1.00  0.00     0.016 C 
HETATM   17  C17 UNL     1      -4.232   6.349  14.348  1.00  0.00     0.023 C 
HETATM   18  C18 UNL     1      -3.904   5.672  15.680  1.00  0.00     0.022 C 
HETATM   19  C19 UNL     1      -5.745   6.749  14.108  1.00  0.00     0.098 C 
HETATM   20  C24 UNL     1      -6.222   7.629  15.268  1.00  0.00     0.047 C 
HETATM   21  C25 UNL     1      -4.989   8.539  15.362  1.00  0.00     0.042 C 
HETATM   22  C26 UNL     1      -4.163   7.920  14.226  1.00  0.00     0.077 C 
HETATM   23  O7  UNL     1      -5.207   7.739  13.129  1.00  0.00    -0.362 OA
HETATM   24  C27 UNL     1       1.264  10.097  14.166  1.00  0.00     0.069 C 
HETATM   25  C28 UNL     1       2.239   9.388  13.235  1.00  0.00     0.158 C 
HETATM   26  O8  UNL     1       3.570   9.879  13.484  1.00  0.00    -0.347 OA
HETATM   27  C29 UNL     1       4.511   9.225  12.605  1.00  0.00     0.325 C 
HETATM   28  O9  UNL     1       4.243   9.600  11.257  1.00  0.00    -0.351 OA
ENDROOT
BRANCH  19  29
HETATM   29  C20 UNL     1      -6.683   5.770  13.577  1.00  0.00    -0.015 A 
HETATM   30  C21 UNL     1      -6.616   4.457  13.764  1.00  0.00     0.090 A 
HETATM   31  C22 UNL     1      -7.755   3.888  13.047  1.00  0.00     0.283 A 
HETATM   32  O5  UNL     1      -8.008   2.699  12.987  1.00  0.00    -0.260 OA
HETATM   33  O6  UNL     1      -8.474   4.889  12.471  1.00  0.00    -0.314 OA
HETATM   34  C23 UNL     1      -7.853   6.143  12.761  1.00  0.00     0.216 A 
ENDBRANCH  19  29
BRANCH   9  35
HETATM   35  C9  UNL     1      -0.358   7.496  15.434  1.00  0.00     0.245 C 
HETATM   36  O4  UNL     1       0.532   7.695  16.258  1.00  0.00    -0.306 OA
ENDBRANCH   9  35
BRANCH   5  37
HETATM   37  O2  UNL     1       4.875   7.391  14.222  1.00  0.00    -0.360 OA
HETATM   38  H9  UNL     1       4.674   8.176  14.761  1.00  0.00     0.213 HD
ENDBRANCH   5  37
BRANCH   4  39
HETATM   39  O1  UNL     1       4.817   5.747  11.385  1.00  0.00    -0.390 OA
HETATM   40  H8  UNL     1       3.915   5.715  11.763  1.00  0.00     0.210 HD
ENDBRANCH   4  39
TORSDOF 4
ENDMDL
MODEL 2
REMARK minimizedAffinity -7.14161301
REMARK CNNscore 0.607058525
REMARK CNNaffinity 5.77597189
REMARK  4 active torsions:
REMARK  status: ('A' for Active; 'I' for Inactive)
REMARK    1  A    between atoms: C4_4  and  O1_5 
REMARK    2  A    between atoms: C5_6  and  O2_7 
REMARK    3  A    between atoms: C8_11  and  C9_12 
REMARK    4  A    between atoms: C19_23  and  C20_24 
ROOT
HETATM    1  C1  UNL     1     -19.651  -2.190  18.137  1.00  0.00     0.040 C 
HETATM    2  C2  UNL     1     -19.139  -3.437  17.421  1.00  0.00     0.123 C 
HETATM    3  C3  UNL     1     -17.988  -4.125  18.153  1.00  0.00     0.069 C 
HETATM    4  C4  UNL     1     -16.680  -3.342  18.087  1.00  0.00     0.188 C 
HETATM    5  C5  UNL     1     -16.467  -2.627  16.726  1.00  0.00     0.240 C 
HETATM    6  O3  UNL     1     -16.635  -1.203  16.931  1.00  0.00    -0.341 OA
HETATM    7  C6  UNL     1     -16.539  -0.486  15.690  1.00  0.00     0.156 C 
HETATM    8  C7  UNL     1     -16.822   0.989  15.962  1.00  0.00     0.056 C 
HETATM    9  C8  UNL     1     -16.762   1.893  14.695  1.00  0.00     0.043 C 
HETATM   10  C10 UNL     1     -17.421   1.218  13.492  1.00  0.00    -0.065 C 
HETATM   11  C11 UNL     1     -17.969   1.948  12.505  1.00  0.00    -0.022 C 
HETATM   12  C12 UNL     1     -17.861   3.437  12.456  1.00  0.00     0.035 C 
HETATM   13  C13 UNL     1     -17.909   4.139  13.820  1.00  0.00     0.030 C 
HETATM   14  C14 UNL     1     -17.445   3.275  15.043  1.00  0.00     0.012 C 
HETATM   15  C15 UNL     1     -16.722   4.001  16.216  1.00  0.00     0.007 C 
HETATM   16  C16 UNL     1     -16.891   5.513  16.264  1.00  0.00     0.016 C 
HETATM   17  C17 UNL     1     -16.422   6.112  14.933  1.00  0.00     0.023 C 
HETATM   18  C18 UNL     1     -14.897   6.079  14.803  1.00  0.00     0.022 C 
HETATM   19  C19 UNL     1     -17.151   7.409  14.393  1.00  0.00     0.098 C 
HETATM   20  C24 UNL     1     -16.750   7.641  12.933  1.00  0.00     0.047 C 
HETATM   21  C25 UNL     1     -16.880   6.191  12.446  1.00  0.00     0.042 C 
HETATM   22  C26 UNL     1     -17.322   5.548  13.768  1.00  0.00     0.077 C 
HETATM   23  O7  UNL     1     -18.360   6.541  14.279  1.00  0.00    -0.362 OA
HETATM   24  C27 UNL     1     -17.338  -0.286  13.344  1.00  0.00     0.069 C 
HETATM   25  C28 UNL     1     -17.531  -1.032  14.657  1.00  0.00     0.158 C 
HETATM   26  O8  UNL     1     -17.295  -2.436  14.440  1.00  0.00    -0.347 OA
HETATM   27  C29 UNL     1     -17.482  -3.166  15.672  1.00  0.00     0.325 C 
HETATM   28  O9  UNL     1     -18.849  -3.095  16.065  1.00  0.00    -0.351 OA
ENDROOT
BRANCH  19  29
HETATM   29  C20 UNL     1     -17.285   8.580  15.248  1.00  0.00    -0.015 A 
HETATM   30  C21 UNL     1     -16.725   8.730  16.444  1.00  0.00     0.090 A 
HETATM   31  C22 UNL     1     -17.138  10.048  16.921  1.00  0.00     0.283 A 
HETATM   32  O5  UNL     1     -16.821  10.523  17.996  1.00  0.00    -0.260 OA
HETATM   33  O6  UNL     1     -17.917  10.647  15.980  1.00  0.00    -0.314 OA
HETATM   34  C23 UNL     1     -18.067   9.769  14.862  1.00  0.00     0.216 A 
ENDBRANCH  19  29
BRANCH   9  35
HETATM   35  C9  UNL     1     -15.287   2.132  14.323  1.00  0.00     0.245 C 
HETATM   36  O4  UNL     1     -14.330   1.888  15.055  1.00  0.00    -0.306 OA
ENDBRANCH   9  35
BRANCH   5  37
HETATM   37  O2  UNL     1     -15.114  -2.856  16.312  1.00  0.00    -0.360 OA
HETATM   38  H9  UNL     1     -15.119  -2.887  15.340  1.00  0.00     0.213 HD
ENDBRANCH   5  37
BRANCH   4  39
HETATM   39  O1  UNL     1     -16.623  -2.423  19.192  1.00  0.00    -0.390 OA
HETATM   40  H8  UNL     1     -16.487  -1.539  18.795  1.00  0.00     0.210 HD
ENDBRANCH   4  39
TORSDOF 4
ENDMDL
MODEL 3
REMARK minimizedAffinity -8.20956421
REMARK CNNscore 0.50312531
REMARK CNNaffinity 6.2573452
REMARK  4 active torsions:
REMARK  status: ('A' for Active; 'I' for Inactive)
REMARK    1  A    between atoms: C4_4  and  O1_5 
REMARK    2  A    between atoms: C5_6  and  O2_7 
REMARK    3  A    between atoms: C8_11  and  C9_12 
REMARK    4  A    between atoms: C19_23  and  C20_24 
ROOT
HETATM    1  C1  UNL     1      -6.317  13.627  20.773  1.00  0.00     0.040 C 
HETATM    2  C2  UNL     1      -5.417  14.837  21.006  1.00  0.00     0.123 C 
HETATM    3  C3  UNL     1      -5.933  16.112  20.342  1.00  0.00     0.069 C 
HETATM    4  C4  UNL     1      -5.804  16.094  18.822  1.00  0.00     0.188 C 
HETATM    5  C5  UNL     1      -4.513  15.387  18.330  1.00  0.00     0.240 C 
HETATM    6  O3  UNL     1      -4.888  14.122  17.733  1.00  0.00    -0.341 OA
HETATM    7  C6  UNL     1      -3.729  13.372  17.335  1.00  0.00     0.156 C 
HETATM    8  C7  UNL     1      -4.190  12.016  16.807  1.00  0.00     0.056 C 
HETATM    9  C8  UNL     1      -3.029  11.085  16.346  1.00  0.00     0.043 C 
HETATM   10  C10 UNL     1      -1.843  11.146  17.308  1.00  0.00    -0.065 C 
HETATM   11  C11 UNL     1      -1.010  10.100  17.444  1.00  0.00    -0.022 C 
HETATM   12  C12 UNL     1      -1.111   8.880  16.589  1.00  0.00     0.035 C 
HETATM   13  C13 UNL     1      -2.539   8.465  16.212  1.00  0.00     0.030 C 
HETATM   14  C14 UNL     1      -3.600   9.618  16.206  1.00  0.00     0.012 C 
HETATM   15  C15 UNL     1      -4.755   9.542  15.163  1.00  0.00     0.007 C 
HETATM   16  C16 UNL     1      -4.984   8.177  14.528  1.00  0.00     0.016 C 
HETATM   17  C17 UNL     1      -3.681   7.703  13.875  1.00  0.00     0.023 C 
HETATM   18  C18 UNL     1      -3.375   8.478  12.592  1.00  0.00     0.022 C 
HETATM   19  C19 UNL     1      -3.371   6.150  13.856  1.00  0.00     0.098 C 
HETATM   20  C24 UNL     1      -1.909   5.934  13.455  1.00  0.00     0.047 C 
HETATM   21  C25 UNL     1      -1.286   7.028  14.333  1.00  0.00     0.042 C 
HETATM   22  C26 UNL     1      -2.572   7.553  14.986  1.00  0.00     0.077 C 
HETATM   23  O7  UNL     1      -3.303   6.263  15.343  1.00  0.00    -0.362 OA
HETATM   24  C27 UNL     1      -1.525  12.445  18.017  1.00  0.00     0.069 C 
HETATM   25  C28 UNL     1      -2.763  13.182  18.510  1.00  0.00     0.158 C 
HETATM   26  O8  UNL     1      -2.370  14.463  19.039  1.00  0.00    -0.347 OA
HETATM   27  C29 UNL     1      -3.529  15.175  19.521  1.00  0.00     0.325 C 
HETATM   28  O9  UNL     1      -4.081  14.486  20.640  1.00  0.00    -0.351 OA
ENDROOT
BRANCH  19  29
HETATM   29  C20 UNL     1      -4.358   5.216  13.332  1.00  0.00    -0.015 A 
HETATM   30  C21 UNL     1      -4.114   4.248  12.455  1.00  0.00     0.090 A 
HETATM   31  C22 UNL     1      -5.393   3.579  12.225  1.00  0.00     0.283 A 
HETATM   32  O5  UNL     1      -5.555   2.643  11.465  1.00  0.00    -0.260 OA
HETATM   33  O6  UNL     1      -6.354   4.164  12.990  1.00  0.00    -0.314 OA
HETATM   34  C23 UNL     1      -5.774   5.234  13.740  1.00  0.00     0.216 A 
ENDBRANCH  19  29
BRANCH   9  35
HETATM   35  C9  UNL     1      -2.519  11.568  14.975  1.00  0.00     0.245 C 
HETATM   36  O4  UNL     1      -1.874  12.598  14.790  1.00  0.00    -0.306 OA
ENDBRANCH   9  35
BRANCH   5  37
HETATM   37  O2  UNL     1      -3.925  16.200  17.306  1.00  0.00    -0.360 OA
HETATM   38  H9  UNL     1      -2.961  16.076  17.367  1.00  0.00     0.213 HD
ENDBRANCH   5  37
BRANCH   4  39
HETATM   39  O1  UNL     1      -6.988  15.508  18.254  1.00  0.00    -0.390 OA
HETATM   40  H8  UNL     1      -6.675  14.764  17.699  1.00  0.00     0.210 HD
ENDBRANCH   4  39
TORSDOF 4
ENDMDL
MODEL 4
REMARK minimizedAffinity -7.22208405
REMARK CNNscore 0.436920464
REMARK CNNaffinity 5.95313597
REMARK  4 active torsions:
REMARK  status: ('A' for Active; 'I' for Inactive)
REMARK    1  A    between atoms: C4_4  and  O1_5 
REMARK    2  A    between atoms: C5_6  and  O2_7 
REMARK    3  A    between atoms: C8_11  and  C9_12 
REMARK    4  A    between atoms: C19_23  and  C20_24 
ROOT
HETATM    1  C1  UNL     1     -11.020   9.985  21.583  1.00  0.00     0.040 C 
HETATM    2  C2  UNL     1     -11.698  10.110  20.222  1.00  0.00     0.123 C 
HETATM    3  C3  UNL     1     -12.675  11.281  20.137  1.00  0.00     0.069 C 
HETATM    4  C4  UNL     1     -13.952  11.059  20.942  1.00  0.00     0.188 C 
HETATM    5  C5  UNL     1     -14.442   9.586  20.910  1.00  0.00     0.240 C 
HETATM    6  O3  UNL     1     -14.208   9.001  22.214  1.00  0.00    -0.341 OA
HETATM    7  C6  UNL     1     -14.558   7.608  22.227  1.00  0.00     0.156 C 
HETATM    8  C7  UNL     1     -14.197   7.033  23.595  1.00  0.00     0.056 C 
HETATM    9  C8  UNL     1     -14.514   5.516  23.752  1.00  0.00     0.043 C 
HETATM   10  C10 UNL     1     -14.144   4.732  22.492  1.00  0.00    -0.065 C 
HETATM   11  C11 UNL     1     -13.810   3.431  22.562  1.00  0.00    -0.022 C 
HETATM   12  C12 UNL     1     -13.899   2.649  23.831  1.00  0.00     0.035 C 
HETATM   13  C13 UNL     1     -13.544   3.430  25.104  1.00  0.00     0.030 C 
HETATM   14  C14 UNL     1     -13.747   4.982  25.026  1.00  0.00     0.012 C 
HETATM   15  C15 UNL     1     -14.186   5.726  26.322  1.00  0.00     0.007 C 
HETATM   16  C16 UNL     1     -13.984   4.964  27.624  1.00  0.00     0.016 C 
HETATM   17  C17 UNL     1     -14.720   3.622  27.538  1.00  0.00     0.023 C 
HETATM   18  C18 UNL     1     -16.236   3.800  27.637  1.00  0.00     0.022 C 
HETATM   19  C19 UNL     1     -14.101   2.375  28.294  1.00  0.00     0.098 C 
HETATM   20  C24 UNL     1     -14.806   1.100  27.821  1.00  0.00     0.047 C 
HETATM   21  C25 UNL     1     -14.810   1.408  26.317  1.00  0.00     0.042 C 
HETATM   22  C26 UNL     1     -14.104   2.770  26.363  1.00  0.00     0.077 C 
HETATM   23  O7  UNL     1     -12.962   2.509  27.339  1.00  0.00    -0.362 OA
HETATM   24  C27 UNL     1     -14.284   5.391  21.137  1.00  0.00     0.069 C 
HETATM   25  C28 UNL     1     -13.824   6.842  21.121  1.00  0.00     0.158 C 
HETATM   26  O8  UNL     1     -14.127   7.419  19.837  1.00  0.00    -0.347 OA
HETATM   27  C29 UNL     1     -13.690   8.794  19.797  1.00  0.00     0.325 C 
HETATM   28  O9  UNL     1     -12.269   8.846  19.880  1.00  0.00    -0.351 OA
ENDROOT
BRANCH  19  29
HETATM   29  C20 UNL     1     -13.765   2.473  29.708  1.00  0.00    -0.015 A 
HETATM   30  C21 UNL     1     -14.639   2.567  30.704  1.00  0.00     0.090 A 
HETATM   31  C22 UNL     1     -13.847   2.645  31.930  1.00  0.00     0.283 A 
HETATM   32  O5  UNL     1     -14.316   2.752  33.048  1.00  0.00    -0.260 OA
HETATM   33  O6  UNL     1     -12.524   2.575  31.620  1.00  0.00    -0.314 OA
HETATM   34  C23 UNL     1     -12.377   2.463  30.203  1.00  0.00     0.216 A 
ENDBRANCH  19  29
BRANCH   9  35
HETATM   35  C9  UNL     1     -16.030   5.343  23.957  1.00  0.00     0.245 C 
HETATM   36  O4  UNL     1     -16.600   4.264  24.105  1.00  0.00    -0.306 OA
ENDBRANCH   9  35
BRANCH   5  37
HETATM   37  O2  UNL     1     -15.857   9.595  20.678  1.00  0.00    -0.360 OA
HETATM   38  H9  UNL     1     -16.064   8.792  20.169  1.00  0.00     0.213 HD
ENDBRANCH   5  37
BRANCH   4  39
HETATM   39  O1  UNL     1     -13.751  11.529  22.286  1.00  0.00    -0.390 OA
HETATM   40  H8  UNL     1     -13.955  10.767  22.867  1.00  0.00     0.210 HD
ENDBRANCH   4  39
TORSDOF 4
ENDMDL
MODEL 5
REMARK minimizedAffinity -6.4954133
REMARK CNNscore 0.414098054
REMARK CNNaffinity 5.44771957
REMARK  4 active torsions:
REMARK  status: ('A' for Active; 'I' for Inactive)
REMARK    1  A    between atoms: C4_4  and  O1_5 
REMARK    2  A    between atoms: C5_6  and  O2_7 
REMARK    3  A    between atoms: C8_11  and  C9_12 
REMARK    4  A    between atoms: C19_23  and  C20_24 
ROOT
HETATM    1  C1  UNL     1     -10.376   9.208  16.748  1.00  0.00     0.040 C 
HETATM    2  C2  UNL     1     -11.252  10.212  16.004  1.00  0.00     0.123 C 
HETATM    3  C3  UNL     1     -10.980  11.662  16.399  1.00  0.00     0.069 C 
HETATM    4  C4  UNL     1     -11.477  12.008  17.800  1.00  0.00     0.188 C 
HETATM    5  C5  UNL     1     -12.812  11.303  18.161  1.00  0.00     0.240 C 
HETATM    6  O3  UNL     1     -12.532  10.277  19.144  1.00  0.00    -0.341 OA
HETATM    7  C6  UNL     1     -13.713   9.523  19.458  1.00  0.00     0.156 C 
HETATM    8  C7  UNL     1     -13.328   8.401  20.420  1.00  0.00     0.056 C 
HETATM    9  C8  UNL     1     -14.518   7.488  20.842  1.00  0.00     0.043 C 
HETATM   10  C10 UNL     1     -15.432   7.174  19.658  1.00  0.00    -0.065 C 
HETATM   11  C11 UNL     1     -16.152   6.039  19.624  1.00  0.00    -0.022 C 
HETATM   12  C12 UNL     1     -16.203   5.089  20.776  1.00  0.00     0.035 C 
HETATM   13  C13 UNL     1     -14.893   4.945  21.560  1.00  0.00     0.030 C 
HETATM   14  C14 UNL     1     -13.925   6.177  21.495  1.00  0.00     0.012 C 
HETATM   15  C15 UNL     1     -13.060   6.493  22.751  1.00  0.00     0.007 C 
HETATM   16  C16 UNL     1     -12.925   5.364  23.763  1.00  0.00     0.016 C 
HETATM   17  C17 UNL     1     -14.323   4.922  24.210  1.00  0.00     0.023 C 
HETATM   18  C18 UNL     1     -14.974   5.952  25.136  1.00  0.00     0.022 C 
HETATM   19  C19 UNL     1     -14.548   3.398  24.574  1.00  0.00     0.098 C 
HETATM   20  C24 UNL     1     -16.052   3.123  24.681  1.00  0.00     0.047 C 
HETATM   21  C25 UNL     1     -16.494   3.887  23.425  1.00  0.00     0.042 C 
HETATM   22  C26 UNL     1     -15.115   4.377  22.961  1.00  0.00     0.077 C 
HETATM   23  O7  UNL     1     -14.254   3.130  23.135  1.00  0.00    -0.362 OA
HETATM   24  C27 UNL     1     -15.632   8.211  18.575  1.00  0.00     0.069 C 
HETATM   25  C28 UNL     1     -14.349   8.938  18.192  1.00  0.00     0.158 C 
HETATM   26  O8  UNL     1     -14.665   9.995  17.265  1.00  0.00    -0.347 OA
HETATM   27  C29 UNL     1     -13.461  10.692  16.881  1.00  0.00     0.325 C 
HETATM   28  O9  UNL     1     -12.617   9.814  16.142  1.00  0.00    -0.351 OA
ENDROOT
BRANCH  19  29
HETATM   29  C20 UNL     1     -13.675   2.741  25.537  1.00  0.00    -0.015 A 
HETATM   30  C21 UNL     1     -13.869   2.698  26.851  1.00  0.00     0.090 A 
HETATM   31  C22 UNL     1     -12.745   1.943  27.401  1.00  0.00     0.283 A 
HETATM   32  O5  UNL     1     -12.583   1.712  28.585  1.00  0.00    -0.260 OA
HETATM   33  O6  UNL     1     -11.927   1.546  26.389  1.00  0.00    -0.314 OA
HETATM   34  C23 UNL     1     -12.451   2.019  25.146  1.00  0.00     0.216 A 
ENDBRANCH  19  29
BRANCH   9  35
HETATM   35  C9  UNL     1     -15.373   8.235  21.882  1.00  0.00     0.245 C 
HETATM   36  O4  UNL     1     -16.351   7.762  22.457  1.00  0.00    -0.306 OA
ENDBRANCH   9  35
BRANCH   5  37
HETATM   37  O2  UNL     1     -13.674  12.272  18.771  1.00  0.00    -0.360 OA
HETATM   38  H9  UNL     1     -14.586  12.029  18.531  1.00  0.00     0.213 HD
ENDBRANCH   5  37
BRANCH   4  39
HETATM   39  O1  UNL     1     -10.441  11.719  18.755  1.00  0.00    -0.390 OA
HETATM   40  H8  UNL     1     -10.842  11.106  19.403  1.00  0.00     0.210 HD
ENDBRANCH   4  39
TORSDOF 4
ENDMDL
MODEL 6
REMARK minimizedAffinity -6.88763189
REMARK CNNscore 0.391050279
REMARK CNNaffinity 6.02542734
REMARK  4 active torsions:
REMARK  status: ('A' for Active; 'I' for Inactive)
REMARK    1  A    between atoms: C4_4  and  O1_5 
REMARK    2  A    between atoms: C5_6  and  O2_7 
REMARK    3  A    between atoms: C8_11  and  C9_12 
REMARK    4  A    between atoms: C19_23  and  C20_24 
ROOT
HETATM    1  C1  UNL     1     -18.674   2.222  16.579  1.00  0.00     0.040 C 
HETATM    2  C2  UNL     1     -20.061   2.546  16.031  1.00  0.00     0.123 C 
HETATM    3  C3  UNL     1     -20.441   1.708  14.812  1.00  0.00     0.069 C 
HETATM    4  C4  UNL     1     -19.667   2.092  13.553  1.00  0.00     0.188 C 
HETATM    5  C5  UNL     1     -19.406   3.618  13.443  1.00  0.00     0.240 C 
HETATM    6  O3  UNL     1     -17.997   3.856  13.680  1.00  0.00    -0.341 OA
HETATM    7  C6  UNL     1     -17.702   5.261  13.681  1.00  0.00     0.156 C 
HETATM    8  C7  UNL     1     -16.227   5.444  14.033  1.00  0.00     0.056 C 
HETATM    9  C8  UNL     1     -15.763   6.930  14.081  1.00  0.00     0.043 C 
HETATM   10  C10 UNL     1     -16.806   7.822  14.755  1.00  0.00    -0.065 C 
HETATM   11  C11 UNL     1     -16.443   8.952  15.387  1.00  0.00    -0.022 C 
HETATM   12  C12 UNL     1     -15.042   9.467  15.365  1.00  0.00     0.035 C 
HETATM   13  C13 UNL     1     -13.951   8.388  15.390  1.00  0.00     0.030 C 
HETATM   14  C14 UNL     1     -14.369   6.987  14.824  1.00  0.00     0.012 C 
HETATM   15  C15 UNL     1     -13.286   6.144  14.090  1.00  0.00     0.007 C 
HETATM   16  C16 UNL     1     -11.842   6.558  14.340  1.00  0.00     0.016 C 
HETATM   17  C17 UNL     1     -11.673   8.035  13.966  1.00  0.00     0.023 C 
HETATM   18  C18 UNL     1     -11.685   8.240  12.450  1.00  0.00     0.022 C 
HETATM   19  C19 UNL     1     -10.639   8.905  14.791  1.00  0.00     0.098 C 
HETATM   20  C24 UNL     1     -10.860  10.387  14.469  1.00  0.00     0.047 C 
HETATM   21  C25 UNL     1     -12.393  10.391  14.540  1.00  0.00     0.042 C 
HETATM   22  C26 UNL     1     -12.607   8.910  14.885  1.00  0.00     0.077 C 
HETATM   23  O7  UNL     1     -11.545   8.670  15.953  1.00  0.00    -0.362 OA
HETATM   24  C27 UNL     1     -18.276   7.501  14.595  1.00  0.00     0.069 C 
HETATM   25  C28 UNL     1     -18.582   6.012  14.687  1.00  0.00     0.158 C 
HETATM   26  O8  UNL     1     -19.973   5.796  14.383  1.00  0.00    -0.347 OA
HETATM   27  C29 UNL     1     -20.287   4.390  14.473  1.00  0.00     0.325 C 
HETATM   28  O9  UNL     1     -20.150   3.956  15.823  1.00  0.00    -0.351 OA
ENDROOT
BRANCH  19  29
HETATM   29  C20 UNL     1      -9.265   8.449  14.950  1.00  0.00    -0.015 A 
HETATM   30  C21 UNL     1      -8.212   9.231  15.160  1.00  0.00     0.090 A 
HETATM   31  C22 UNL     1      -7.058   8.340  15.250  1.00  0.00     0.283 A 
HETATM   32  O5  UNL     1      -5.912   8.710  15.428  1.00  0.00    -0.260 OA
HETATM   33  O6  UNL     1      -7.469   7.051  15.108  1.00  0.00    -0.314 OA
HETATM   34  C23 UNL     1      -8.884   7.026  14.908  1.00  0.00     0.216 A 
ENDBRANCH  19  29
BRANCH   9  35
HETATM   35  C9  UNL     1     -15.597   7.447  12.640  1.00  0.00     0.245 C 
HETATM   36  O4  UNL     1     -15.563   6.734  11.639  1.00  0.00    -0.306 OA
ENDBRANCH   9  35
BRANCH   5  37
HETATM   37  O2  UNL     1     -19.700   4.022  12.099  1.00  0.00    -0.360 OA
HETATM   38  H9  UNL     1     -20.034   4.935  12.146  1.00  0.00     0.213 HD
ENDBRANCH   5  37
BRANCH   4  39
HETATM   39  O1  UNL     1     -18.447   1.333  13.498  1.00  0.00    -0.390 OA
HETATM   40  H8  UNL     1     -17.727   1.992  13.429  1.00  0.00     0.210 HD
ENDBRANCH   4  39
TORSDOF 4
ENDMDL
MODEL 7
REMARK minimizedAffinity -9.61150646
REMARK CNNscore 0.329112589
REMARK CNNaffinity 6.16457701
REMARK  4 active torsions:
REMARK  status: ('A' for Active; 'I' for Inactive)
REMARK    1  A    between atoms: C4_4  and  O1_5 
REMARK    2  A    between atoms: C5_6  and  O2_7 
REMARK    3  A    between atoms: C8_11  and  C9_12 
REMARK    4  A    between atoms: C19_23  and  C20_24 
ROOT
HETATM    1  C1  UNL     1       0.039   8.481  12.504  1.00  0.00     0.040 C 
HETATM    2  C2  UNL     1      -0.140   7.877  11.114  1.00  0.00     0.123 C 
HETATM    3  C3  UNL     1      -0.475   6.387  11.140  1.00  0.00     0.069 C 
HETATM    4  C4  UNL     1       0.704   5.512  11.555  1.00  0.00     0.188 C 
HETATM    5  C5  UNL     1       2.064   6.031  11.016  1.00  0.00     0.240 C 
HETATM    6  O3  UNL     1       2.819   6.568  12.130  1.00  0.00    -0.341 OA
HETATM    7  C6  UNL     1       4.056   7.148  11.687  1.00  0.00     0.156 C 
HETATM    8  C7  UNL     1       4.751   7.779  12.890  1.00  0.00     0.056 C 
HETATM    9  C8  UNL     1       6.111   8.461  12.555  1.00  0.00     0.043 C 
HETATM   10  C10 UNL     1       6.039   9.241  11.243  1.00  0.00    -0.065 C 
HETATM   11  C11 UNL     1       6.835  10.304  11.027  1.00  0.00    -0.022 C 
HETATM   12  C12 UNL     1       7.908  10.707  11.984  1.00  0.00     0.035 C 
HETATM   13  C13 UNL     1       7.570  10.501  13.466  1.00  0.00     0.030 C 
HETATM   14  C14 UNL     1       6.511   9.387  13.771  1.00  0.00     0.012 C 
HETATM   15  C15 UNL     1       6.664   8.576  15.092  1.00  0.00     0.007 C 
HETATM   16  C16 UNL     1       7.567   9.197  16.149  1.00  0.00     0.016 C 
HETATM   17  C17 UNL     1       8.954   9.442  15.542  1.00  0.00     0.023 C 
HETATM   18  C18 UNL     1       9.728   8.136  15.352  1.00  0.00     0.022 C 
HETATM   19  C19 UNL     1       9.785  10.692  16.046  1.00  0.00     0.098 C 
HETATM   20  C24 UNL     1      10.968  10.923  15.102  1.00  0.00     0.047 C 
HETATM   21  C25 UNL     1      10.218  10.738  13.775  1.00  0.00     0.042 C 
HETATM   22  C26 UNL     1       8.820  10.458  14.344  1.00  0.00     0.077 C 
HETATM   23  O7  UNL     1       8.698  11.514  15.437  1.00  0.00    -0.362 OA
HETATM   24  C27 UNL     1       5.159   8.734  10.121  1.00  0.00     0.069 C 
HETATM   25  C28 UNL     1       3.814   8.205  10.602  1.00  0.00     0.158 C 
HETATM   26  O8  UNL     1       3.113   7.618   9.490  1.00  0.00    -0.347 OA
HETATM   27  C29 UNL     1       1.830   7.117   9.922  1.00  0.00     0.325 C 
HETATM   28  O9  UNL     1       1.004   8.206  10.325  1.00  0.00    -0.351 OA
ENDROOT
BRANCH  19  29
HETATM   29  C20 UNL     1      10.013  10.889  17.471  1.00  0.00    -0.015 A 
HETATM   30  C21 UNL     1      11.200  10.911  18.067  1.00  0.00     0.090 A 
HETATM   31  C22 UNL     1      10.936  11.131  19.487  1.00  0.00     0.283 A 
HETATM   32  O5  UNL     1      11.796  11.197  20.346  1.00  0.00    -0.260 OA
HETATM   33  O6  UNL     1       9.596  11.251  19.685  1.00  0.00    -0.314 OA
HETATM   34  C23 UNL     1       8.919  11.108  18.435  1.00  0.00     0.216 A 
ENDBRANCH  19  29
BRANCH   9  35
HETATM   35  C9  UNL     1       7.182   7.370  12.369  1.00  0.00     0.245 C 
HETATM   36  O4  UNL     1       7.531   6.906  11.286  1.00  0.00    -0.306 OA
ENDBRANCH   9  35
BRANCH   5  37
HETATM   37  O2  UNL     1       2.789   4.911  10.492  1.00  0.00    -0.360 OA
HETATM   38  H9  UNL     1       3.326   5.245   9.751  1.00  0.00     0.213 HD
ENDBRANCH   5  37
BRANCH   4  39
HETATM   39  O1  UNL     1       0.710   5.374  12.986  1.00  0.00    -0.390 OA
HETATM   40  H8  UNL     1       1.594   5.679  13.278  1.00  0.00     0.210 HD
ENDBRANCH   4  39
TORSDOF 4
ENDMDL
MODEL 8
REMARK minimizedAffinity -8.3887701
REMARK CNNscore 0.322566509
REMARK CNNaffinity 6.59054232
REMARK  4 active torsions:
REMARK  status: ('A' for Active; 'I' for Inactive)
REMARK    1  A    between atoms: C4_4  and  O1_5 
REMARK    2  A    between atoms: C5_6  and  O2_7 
REMARK    3  A    between atoms: C8_11  and  C9_12 
REMARK    4  A    between atoms: C19_23  and  C20_24 
ROOT
HETATM    1  C1  UNL     1      -9.330  14.036  13.921  1.00  0.00     0.040 C 
HETATM    2  C2  UNL     1     -10.643  14.351  14.632  1.00  0.00     0.123 C 
HETATM    3  C3  UNL     1     -10.450  14.887  16.049  1.00  0.00     0.069 C 
HETATM    4  C4  UNL     1      -9.972  13.824  17.035  1.00  0.00     0.188 C 
HETATM    5  C5  UNL     1     -10.596  12.428  16.772  1.00  0.00     0.240 C 
HETATM    6  O3  UNL     1      -9.565  11.564  16.236  1.00  0.00    -0.341 OA
HETATM    7  C6  UNL     1     -10.097  10.277  15.885  1.00  0.00     0.156 C 
HETATM    8  C7  UNL     1      -8.985   9.454  15.239  1.00  0.00     0.056 C 
HETATM    9  C8  UNL     1      -9.424   8.028  14.794  1.00  0.00     0.043 C 
HETATM   10  C10 UNL     1     -10.810   8.042  14.150  1.00  0.00    -0.065 C 
HETATM   11  C11 UNL     1     -11.157   7.116  13.239  1.00  0.00    -0.022 C 
HETATM   12  C12 UNL     1     -10.276   5.961  12.895  1.00  0.00     0.035 C 
HETATM   13  C13 UNL     1      -8.772   6.266  12.898  1.00  0.00     0.030 C 
HETATM   14  C14 UNL     1      -8.324   7.456  13.814  1.00  0.00     0.012 C 
HETATM   15  C15 UNL     1      -6.928   7.365  14.499  1.00  0.00     0.007 C 
HETATM   16  C16 UNL     1      -5.965   6.345  13.907  1.00  0.00     0.016 C 
HETATM   17  C17 UNL     1      -6.629   4.963  13.924  1.00  0.00     0.023 C 
HETATM   18  C18 UNL     1      -6.696   4.384  15.339  1.00  0.00     0.022 C 
HETATM   19  C19 UNL     1      -6.281   3.947  12.759  1.00  0.00     0.098 C 
HETATM   20  C24 UNL     1      -7.273   2.781  12.796  1.00  0.00     0.047 C 
HETATM   21  C25 UNL     1      -8.554   3.601  13.007  1.00  0.00     0.042 C 
HETATM   22  C26 UNL     1      -7.925   5.001  13.028  1.00  0.00     0.077 C 
HETATM   23  O7  UNL     1      -6.948   4.933  11.858  1.00  0.00    -0.362 OA
HETATM   24  C27 UNL     1     -11.849   9.027  14.640  1.00  0.00     0.069 C 
HETATM   25  C28 UNL     1     -11.282  10.412  14.922  1.00  0.00     0.158 C 
HETATM   26  O8  UNL     1     -12.308  11.230  15.514  1.00  0.00    -0.347 OA
HETATM   27  C29 UNL     1     -11.794  12.552  15.782  1.00  0.00     0.325 C 
HETATM   28  O9  UNL     1     -11.490  13.203  14.551  1.00  0.00    -0.351 OA
ENDROOT
BRANCH  19  29
HETATM   29  C20 UNL     1      -4.891   3.639  12.451  1.00  0.00    -0.015 A 
HETATM   30  C21 UNL     1      -4.462   2.538  11.844  1.00  0.00     0.090 A 
HETATM   31  C22 UNL     1      -3.009   2.666  11.756  1.00  0.00     0.283 A 
HETATM   32  O5  UNL     1      -2.272   1.831  11.265  1.00  0.00    -0.260 OA
HETATM   33  O6  UNL     1      -2.625   3.853  12.299  1.00  0.00    -0.314 OA
HETATM   34  C23 UNL     1      -3.778   4.549  12.776  1.00  0.00     0.216 A 
ENDBRANCH  19  29
BRANCH   9  35
HETATM   35  C9  UNL     1      -9.518   7.125  16.039  1.00  0.00     0.245 C 
HETATM   36  O4  UNL     1      -8.701   6.257  16.340  1.00  0.00    -0.306 OA
ENDBRANCH   9  35
BRANCH   5  37
HETATM   37  O2  UNL     1     -11.015  11.885  18.031  1.00  0.00    -0.360 OA
HETATM   38  H9  UNL     1     -11.800  11.337  17.855  1.00  0.00     0.213 HD
ENDBRANCH   5  37
BRANCH   4  39
HETATM   39  O1  UNL     1      -8.535  13.781  17.026  1.00  0.00    -0.390 OA
HETATM   40  H8  UNL     1      -8.299  12.854  16.821  1.00  0.00     0.210 HD
ENDBRANCH   4  39
TORSDOF 4
ENDMDL
MODEL 9
REMARK minimizedAffinity -7.75056601
REMARK CNNscore 0.322543532
REMARK CNNaffinity 6.34659767
REMARK  4 active torsions:
REMARK  status: ('A' for Active; 'I' for Inactive)
REMARK    1  A    between atoms: C4_4  and  O1_5 
REMARK    2  A    between atoms: C5_6  and  O2_7 
REMARK    3  A    between atoms: C8_11  and  C9_12 
REMARK    4  A    between atoms: C19_23  and  C20_24 
ROOT
HETATM    1  C1  UNL     1      -7.526  -1.851  -6.707  1.00  0.00     0.040 C 
HETATM    2  C2  UNL     1      -8.872  -1.341  -7.214  1.00  0.00     0.123 C 
HETATM    3  C3  UNL     1      -9.577  -0.411  -6.228  1.00  0.00     0.069 C 
HETATM    4  C4  UNL     1     -10.122  -1.137  -5.001  1.00  0.00     0.188 C 
HETATM    5  C5  UNL     1     -10.677  -2.549  -5.327  1.00  0.00     0.240 C 
HETATM    6  O3  UNL     1      -9.763  -3.532  -4.784  1.00  0.00    -0.341 OA
HETATM    7  C6  UNL     1     -10.172  -4.866  -5.128  1.00  0.00     0.156 C 
HETATM    8  C7  UNL     1      -9.118  -5.842  -4.612  1.00  0.00     0.056 C 
HETATM    9  C8  UNL     1      -9.427  -7.336  -4.925  1.00  0.00     0.043 C 
HETATM   10  C10 UNL     1      -9.975  -7.512  -6.341  1.00  0.00    -0.065 C 
HETATM   11  C11 UNL     1      -9.800  -8.665  -7.011  1.00  0.00    -0.022 C 
HETATM   12  C12 UNL     1      -9.182  -9.870  -6.382  1.00  0.00     0.035 C 
HETATM   13  C13 UNL     1      -8.053  -9.578  -5.385  1.00  0.00     0.030 C 
HETATM   14  C14 UNL     1      -8.104  -8.171  -4.696  1.00  0.00     0.012 C 
HETATM   15  C15 UNL     1      -7.592  -8.057  -3.230  1.00  0.00     0.007 C 
HETATM   16  C16 UNL     1      -6.722  -9.207  -2.741  1.00  0.00     0.016 C 
HETATM   17  C17 UNL     1      -7.491 -10.522  -2.908  1.00  0.00     0.023 C 
HETATM   18  C18 UNL     1      -8.612 -10.658  -1.874  1.00  0.00     0.022 C 
HETATM   19  C19 UNL     1      -6.672 -11.836  -3.242  1.00  0.00     0.098 C 
HETATM   20  C24 UNL     1      -7.643 -12.939  -3.672  1.00  0.00     0.047 C 
HETATM   21  C25 UNL     1      -8.525 -12.093  -4.601  1.00  0.00     0.042 C 
HETATM   22  C26 UNL     1      -7.801 -10.749  -4.437  1.00  0.00     0.077 C 
HETATM   23  O7  UNL     1      -6.335 -11.158  -4.529  1.00  0.00    -0.362 OA
HETATM   24  C27 UNL     1     -10.838  -6.426  -6.946  1.00  0.00     0.069 C 
HETATM   25  C28 UNL     1     -10.338  -5.020  -6.644  1.00  0.00     0.158 C 
HETATM   26  O8  UNL     1     -11.295  -4.063  -7.136  1.00  0.00    -0.347 OA
HETATM   27  C29 UNL     1     -10.836  -2.721  -6.869  1.00  0.00     0.325 C 
HETATM   28  O9  UNL     1      -9.657  -2.461  -7.625  1.00  0.00    -0.351 OA
ENDROOT
BRANCH  19  29
HETATM   29  C20 UNL     1      -5.541 -12.221  -2.408  1.00  0.00    -0.015 A 
HETATM   30  C21 UNL     1      -4.278 -12.304  -2.811  1.00  0.00     0.090 A 
HETATM   31  C22 UNL     1      -3.508 -12.728  -1.644  1.00  0.00     0.283 A 
HETATM   32  O5  UNL     1      -2.306 -12.921  -1.644  1.00  0.00    -0.260 OA
HETATM   33  O6  UNL     1      -4.341 -12.866  -0.577  1.00  0.00    -0.314 OA
HETATM   34  C23 UNL     1      -5.678 -12.559  -0.980  1.00  0.00     0.216 A 
ENDBRANCH  19  29
BRANCH   9  35
HETATM   35  C9  UNL     1     -10.518  -7.832  -3.958  1.00  0.00     0.245 C 
HETATM   36  O4  UNL     1     -10.803  -7.298  -2.888  1.00  0.00    -0.306 OA
ENDBRANCH   9  35
BRANCH   5  37
HETATM   37  O2  UNL     1     -11.934  -2.697  -4.654  1.00  0.00    -0.360 OA
HETATM   38  H9  UNL     1     -12.486  -3.272  -5.211  1.00  0.00     0.213 HD
ENDBRANCH   5  37
BRANCH   4  39
HETATM   39  O1  UNL     1      -9.103  -1.181  -3.987  1.00  0.00    -0.390 OA
HETATM   40  H8  UNL     1      -8.990  -2.128  -3.766  1.00  0.00     0.210 HD
ENDBRANCH   4  39
TORSDOF 4
ENDMDL
