MODEL 1
REMARK minimizedAffinity -8.29490471
REMARK CNNscore 0.789897323
REMARK CNNaffinity 7.7866416
REMARK  11 active torsions:
REMARK  status: ('A' for Active; 'I' for Inactive)
REMARK    1  A    between atoms: C2_2  and  C4_4 
REMARK    2  A    between atoms: C4_4  and  C6_6 
REMARK    3  A    between atoms: C7_8  and  C8_9 
REMARK    4  A    between atoms: C8_9  and  O2_11 
REMARK    5  A    between atoms: C8_9  and  C10_12 
REMARK    6  A    between atoms: C13_15  and  O3_16 
REMARK    7  A    between atoms: C17_21  and  C18_22 
REMARK    8  A    between atoms: C18_22  and  C19_23 
REMARK    9  A    between atoms: C22_26  and  O5_27 
REMARK   10  A    between atoms: C31_36  and  O6_37 
REMARK   11  A    between atoms: C32_38  and  O7_39 
ROOT
HETATM    1  C10 UNL     1      -2.105  48.711 -15.566  1.00  0.00     0.034 C 
HETATM    2  C11 UNL     1      -2.676  50.102 -15.132  1.00  0.00     0.012 C 
HETATM    3  C12 UNL     1      -3.164  50.825 -16.401  1.00  0.00     0.044 C 
HETATM    4  C13 UNL     1      -3.192  49.725 -17.459  1.00  0.00     0.089 C 
HETATM    5  C14 UNL     1      -3.239  50.035 -18.938  1.00  0.00    -0.037 C 
HETATM    6  C15 UNL     1      -3.187  51.279 -19.440  1.00  0.00     0.057 C 
HETATM    7  C16 UNL     1      -3.095  51.533 -20.900  1.00  0.00     0.160 C 
HETATM    8  O4  UNL     1      -3.262  52.683 -21.302  1.00  0.00    -0.292 OA
HETATM    9  C17 UNL     1      -2.761  50.358 -21.832  1.00  0.00     0.043 C 
HETATM   10  C25 UNL     1      -3.230  50.619 -23.303  1.00  0.00     0.034 C 
HETATM   11  C26 UNL     1      -2.898  49.401 -24.201  1.00  0.00     0.008 C 
HETATM   12  C27 UNL     1      -3.513  48.098 -23.707  1.00  0.00     0.001 C 
HETATM   13  C28 UNL     1      -3.251  47.861 -22.219  1.00  0.00     0.011 C 
HETATM   14  C29 UNL     1      -3.576  49.098 -21.325  1.00  0.00    -0.015 C 
HETATM   15  C30 UNL     1      -5.140  49.344 -21.471  1.00  0.00     0.045 C 
HETATM   16  C31 UNL     1      -5.586  50.620 -22.182  1.00  0.00     0.148 C 
HETATM   17  C32 UNL     1      -4.725  51.033 -23.387  1.00  0.00     0.152 C 
HETATM   18  C33 UNL     1      -3.300  48.773 -19.804  1.00  0.00     0.027 C 
HETATM   19  C34 UNL     1      -2.120  47.831 -19.460  1.00  0.00     0.011 C 
HETATM   20  C35 UNL     1      -1.969  47.576 -17.940  1.00  0.00     0.014 C 
HETATM   21  C36 UNL     1      -1.918  48.885 -17.115  1.00  0.00    -0.002 C 
HETATM   22  C37 UNL     1      -0.606  49.645 -17.443  1.00  0.00     0.019 C 
ENDROOT
BRANCH   1  23
HETATM   23  C8  UNL     1      -0.925  48.236 -14.659  1.00  0.00     0.087 C 
HETATM   24  C9  UNL     1       0.349  47.957 -15.470  1.00  0.00     0.049 C 
BRANCH  23  25
HETATM   25  C7  UNL     1      -1.370  47.024 -13.846  1.00  0.00     0.185 A 
HETATM   26  C6  UNL     1      -1.060  45.585 -14.204  1.00  0.00     0.158 A 
HETATM   27  O1  UNL     1      -0.299  46.299 -13.215  1.00  0.00    -0.372 OA
BRANCH  26  28
HETATM   28  C4  UNL     1      -1.892  44.456 -13.646  1.00  0.00     0.017 C 
HETATM   29  C5  UNL     1      -0.974  43.327 -13.164  1.00  0.00     0.013 C 
BRANCH  28  30
HETATM   30  C2  UNL     1      -2.966  44.006 -14.674  1.00  0.00    -0.016 C 
HETATM   31  C1  UNL     1      -4.286  44.775 -14.570  1.00  0.00     0.010 C 
HETATM   32  C3  UNL     1      -2.433  44.094 -16.109  1.00  0.00     0.010 C 
ENDBRANCH  28  30
ENDBRANCH  26  28
ENDBRANCH  23  25
BRANCH  23  33
HETATM   33  O2  UNL     1      -0.599  49.258 -13.713  1.00  0.00    -0.387 OA
HETATM   34  H17 UNL     1       0.028  48.857 -13.084  1.00  0.00     0.210 HD
ENDBRANCH  23  33
ENDBRANCH   1  23
BRANCH   4  35
HETATM   35  O3  UNL     1      -4.378  48.958 -17.186  1.00  0.00    -0.384 OA
HETATM   36  H23 UNL     1      -5.141  49.526 -17.394  1.00  0.00     0.211 HD
ENDBRANCH   4  35
BRANCH   9  37
HETATM   37  C18 UNL     1      -1.197  50.180 -21.740  1.00  0.00     0.057 C 
BRANCH  37  38
HETATM   38  C19 UNL     1      -0.320  51.423 -21.765  1.00  0.00    -0.057 A 
HETATM   39  C20 UNL     1      -0.047  52.097 -22.964  1.00  0.00     0.010 A 
HETATM   40  C21 UNL     1       0.741  53.250 -22.972  1.00  0.00     0.037 A 
HETATM   41  C22 UNL     1       1.251  53.746 -21.781  1.00  0.00     0.065 A 
HETATM   42  C23 UNL     1       0.980  53.111 -20.577  1.00  0.00     0.037 A 
HETATM   43  C24 UNL     1       0.190  51.958 -20.571  1.00  0.00     0.010 A 
BRANCH  41  44
HETATM   44  O5  UNL     1       2.014  54.874 -21.837  1.00  0.00    -0.361 OA
HETATM   45  H29 UNL     1       2.320  55.086 -20.940  1.00  0.00     0.217 HD
ENDBRANCH  41  44
ENDBRANCH  37  38
ENDBRANCH   9  37
BRANCH  16  46
HETATM   46  O6  UNL     1      -6.954  50.473 -22.581  1.00  0.00    -0.393 OA
HETATM   47  H42 UNL     1      -6.906  50.239 -23.532  1.00  0.00     0.210 HD
ENDBRANCH  16  46
BRANCH  17  48
HETATM   48  O7  UNL     1      -5.354  50.544 -24.583  1.00  0.00    -0.393 OA
HETATM   49  H44 UNL     1      -4.968  51.045 -25.325  1.00  0.00     0.210 HD
ENDBRANCH  17  48
TORSDOF 11
ENDMDL
MODEL 2
REMARK minimizedAffinity -9.73064995
REMARK CNNscore 0.772910297
REMARK CNNaffinity 7.61216402
REMARK  11 active torsions:
REMARK  status: ('A' for Active; 'I' for Inactive)
REMARK    1  A    between atoms: C2_2  and  C4_4 
REMARK    2  A    between atoms: C4_4  and  C6_6 
REMARK    3  A    between atoms: C7_8  and  C8_9 
REMARK    4  A    between atoms: C8_9  and  O2_11 
REMARK    5  A    between atoms: C8_9  and  C10_12 
REMARK    6  A    between atoms: C13_15  and  O3_16 
REMARK    7  A    between atoms: C17_21  and  C18_22 
REMARK    8  A    between atoms: C18_22  and  C19_23 
REMARK    9  A    between atoms: C22_26  and  O5_27 
REMARK   10  A    between atoms: C31_36  and  O6_37 
REMARK   11  A    between atoms: C32_38  and  O7_39 
ROOT
HETATM    1  C10 UNL     1      -2.009  48.782 -15.799  1.00  0.00     0.034 C 
HETATM    2  C11 UNL     1      -2.514  50.197 -15.361  1.00  0.00     0.012 C 
HETATM    3  C12 UNL     1      -3.058  50.909 -16.613  1.00  0.00     0.044 C 
HETATM    4  C13 UNL     1      -3.180  49.790 -17.644  1.00  0.00     0.089 C 
HETATM    5  C14 UNL     1      -3.307  50.073 -19.124  1.00  0.00    -0.037 C 
HETATM    6  C15 UNL     1      -3.252  51.306 -19.654  1.00  0.00     0.057 C 
HETATM    7  C16 UNL     1      -3.242  51.530 -21.121  1.00  0.00     0.160 C 
HETATM    8  O4  UNL     1      -3.401  52.676 -21.536  1.00  0.00    -0.292 OA
HETATM    9  C17 UNL     1      -2.997  50.328 -22.047  1.00  0.00     0.043 C 
HETATM   10  C25 UNL     1      -3.547  50.574 -23.493  1.00  0.00     0.034 C 
HETATM   11  C26 UNL     1      -3.304  49.330 -24.384  1.00  0.00     0.008 C 
HETATM   12  C27 UNL     1      -3.922  48.055 -23.826  1.00  0.00     0.001 C 
HETATM   13  C28 UNL     1      -3.578  47.839 -22.352  1.00  0.00     0.011 C 
HETATM   14  C29 UNL     1      -3.814  49.102 -21.467  1.00  0.00    -0.015 C 
HETATM   15  C30 UNL     1      -5.377  49.389 -21.523  1.00  0.00     0.045 C 
HETATM   16  C31 UNL     1      -5.830  50.663 -22.233  1.00  0.00     0.148 C 
HETATM   17  C32 UNL     1      -5.033  51.029 -23.495  1.00  0.00     0.152 C 
HETATM   18  C33 UNL     1      -3.456  48.797 -19.958  1.00  0.00     0.027 C 
HETATM   19  C34 UNL     1      -2.283  47.829 -19.666  1.00  0.00     0.011 C 
HETATM   20  C35 UNL     1      -2.047  47.598 -18.154  1.00  0.00     0.014 C 
HETATM   21  C36 UNL     1      -1.910  48.921 -17.360  1.00  0.00    -0.002 C 
HETATM   22  C37 UNL     1      -0.601  49.638 -17.782  1.00  0.00     0.019 C 
ENDROOT
BRANCH   1  23
HETATM   23  C8  UNL     1      -0.789  48.290 -14.955  1.00  0.00     0.087 C 
HETATM   24  C9  UNL     1      -1.180  47.179 -13.971  1.00  0.00     0.049 C 
BRANCH  23  25
HETATM   25  C7  UNL     1      -0.148  49.484 -14.254  1.00  0.00     0.185 A 
HETATM   26  C6  UNL     1       1.320  49.850 -14.344  1.00  0.00     0.158 A 
HETATM   27  O1  UNL     1       0.325  50.516 -15.139  1.00  0.00    -0.372 OA
BRANCH  26  28
HETATM   28  C4  UNL     1       1.961  50.727 -13.296  1.00  0.00     0.017 C 
HETATM   29  C5  UNL     1       1.116  51.988 -13.089  1.00  0.00     0.013 C 
BRANCH  28  30
HETATM   30  C2  UNL     1       3.447  51.009 -13.651  1.00  0.00    -0.016 C 
HETATM   31  C1  UNL     1       4.311  49.749 -13.757  1.00  0.00     0.010 C 
HETATM   32  C3  UNL     1       3.563  51.821 -14.947  1.00  0.00     0.010 C 
ENDBRANCH  28  30
ENDBRANCH  26  28
ENDBRANCH  23  25
BRANCH  23  33
HETATM   33  O2  UNL     1       0.211  47.746 -15.821  1.00  0.00    -0.387 OA
HETATM   34  H17 UNL     1       1.000  47.599 -15.267  1.00  0.00     0.210 HD
ENDBRANCH  23  33
ENDBRANCH   1  23
BRANCH   4  35
HETATM   35  O3  UNL     1      -4.368  49.063 -17.285  1.00  0.00    -0.384 OA
HETATM   36  H23 UNL     1      -5.126  49.648 -17.458  1.00  0.00     0.211 HD
ENDBRANCH   4  35
BRANCH   9  37
HETATM   37  C18 UNL     1      -1.436  50.107 -22.046  1.00  0.00     0.057 C 
BRANCH  37  38
HETATM   38  C19 UNL     1      -0.528  51.328 -22.029  1.00  0.00    -0.057 A 
HETATM   39  C20 UNL     1      -0.305  52.086 -23.188  1.00  0.00     0.010 A 
HETATM   40  C21 UNL     1       0.512  53.217 -23.156  1.00  0.00     0.037 A 
HETATM   41  C22 UNL     1       1.102  53.609 -21.964  1.00  0.00     0.065 A 
HETATM   42  C23 UNL     1       0.883  52.890 -20.796  1.00  0.00     0.037 A 
HETATM   43  C24 UNL     1       0.063  51.758 -20.831  1.00  0.00     0.010 A 
BRANCH  41  44
HETATM   44  O5  UNL     1       1.892  54.720 -21.979  1.00  0.00    -0.361 OA
HETATM   45  H29 UNL     1       2.254  54.856 -21.089  1.00  0.00     0.217 HD
ENDBRANCH  41  44
ENDBRANCH  37  38
ENDBRANCH   9  37
BRANCH  16  46
HETATM   46  O6  UNL     1      -7.223  50.548 -22.546  1.00  0.00    -0.393 OA
HETATM   47  H42 UNL     1      -7.239  50.294 -23.493  1.00  0.00     0.210 HD
ENDBRANCH  16  46
BRANCH  17  48
HETATM   48  O7  UNL     1      -5.746  50.536 -24.641  1.00  0.00    -0.393 OA
HETATM   49  H44 UNL     1      -5.392  51.011 -25.415  1.00  0.00     0.210 HD
ENDBRANCH  17  48
TORSDOF 11
ENDMDL
MODEL 3
REMARK minimizedAffinity -8.75730228
REMARK CNNscore 0.76290828
REMARK CNNaffinity 7.46947813
REMARK  11 active torsions:
REMARK  status: ('A' for Active; 'I' for Inactive)
REMARK    1  A    between atoms: C2_2  and  C4_4 
REMARK    2  A    between atoms: C4_4  and  C6_6 
REMARK    3  A    between atoms: C7_8  and  C8_9 
REMARK    4  A    between atoms: C8_9  and  O2_11 
REMARK    5  A    between atoms: C8_9  and  C10_12 
REMARK    6  A    between atoms: C13_15  and  O3_16 
REMARK    7  A    between atoms: C17_21  and  C18_22 
REMARK    8  A    between atoms: C18_22  and  C19_23 
REMARK    9  A    between atoms: C22_26  and  O5_27 
REMARK   10  A    between atoms: C31_36  and  O6_37 
REMARK   11  A    between atoms: C32_38  and  O7_39 
ROOT
HETATM    1  C10 UNL     1      -1.920  48.897 -15.554  1.00  0.00     0.034 C 
HETATM    2  C11 UNL     1      -2.466  50.306 -15.148  1.00  0.00     0.012 C 
HETATM    3  C12 UNL     1      -3.005  50.985 -16.421  1.00  0.00     0.044 C 
HETATM    4  C13 UNL     1      -3.081  49.846 -17.436  1.00  0.00     0.089 C 
HETATM    5  C14 UNL     1      -3.189  50.102 -18.922  1.00  0.00    -0.037 C 
HETATM    6  C15 UNL     1      -3.153  51.326 -19.472  1.00  0.00     0.057 C 
HETATM    7  C16 UNL     1      -3.122  51.526 -20.942  1.00  0.00     0.160 C 
HETATM    8  O4  UNL     1      -3.301  52.661 -21.379  1.00  0.00    -0.292 OA
HETATM    9  C17 UNL     1      -2.832  50.315 -21.843  1.00  0.00     0.043 C 
HETATM   10  C25 UNL     1      -3.362  50.525 -23.303  1.00  0.00     0.034 C 
HETATM   11  C26 UNL     1      -3.073  49.273 -24.168  1.00  0.00     0.008 C 
HETATM   12  C27 UNL     1      -3.671  47.992 -23.600  1.00  0.00     0.001 C 
HETATM   13  C28 UNL     1      -3.348  47.809 -22.117  1.00  0.00     0.011 C 
HETATM   14  C29 UNL     1      -3.629  49.080 -21.257  1.00  0.00    -0.015 C 
HETATM   15  C30 UNL     1      -5.197  49.329 -21.346  1.00  0.00     0.045 C 
HETATM   16  C31 UNL     1      -5.668  50.580 -22.085  1.00  0.00     0.148 C 
HETATM   17  C32 UNL     1      -4.857  50.944 -23.339  1.00  0.00     0.152 C 
HETATM   18  C33 UNL     1      -3.292  48.809 -19.737  1.00  0.00     0.027 C 
HETATM   19  C34 UNL     1      -2.102  47.874 -19.408  1.00  0.00     0.011 C 
HETATM   20  C35 UNL     1      -1.888  47.674 -17.888  1.00  0.00     0.014 C 
HETATM   21  C36 UNL     1      -1.797  49.012 -17.114  1.00  0.00    -0.002 C 
HETATM   22  C37 UNL     1      -0.497  49.753 -17.526  1.00  0.00     0.019 C 
ENDROOT
BRANCH   1  23
HETATM   23  C8  UNL     1      -0.704  48.449 -14.680  1.00  0.00     0.087 C 
HETATM   24  C9  UNL     1      -0.628  46.922 -14.539  1.00  0.00     0.049 C 
BRANCH  23  25
HETATM   25  C7  UNL     1      -0.768  49.152 -13.328  1.00  0.00     0.185 A 
HETATM   26  C6  UNL     1      -1.564  48.660 -12.137  1.00  0.00     0.158 A 
HETATM   27  O1  UNL     1      -0.149  48.432 -12.247  1.00  0.00    -0.372 OA
BRANCH  26  28
HETATM   28  C4  UNL     1      -1.953  49.604 -11.026  1.00  0.00     0.017 C 
HETATM   29  C5  UNL     1      -1.732  48.926  -9.670  1.00  0.00     0.013 C 
BRANCH  28  30
HETATM   30  C2  UNL     1      -3.396  50.139 -11.241  1.00  0.00    -0.016 C 
HETATM   31  C1  UNL     1      -4.392  49.072 -11.705  1.00  0.00     0.010 C 
HETATM   32  C3  UNL     1      -3.929  50.822  -9.976  1.00  0.00     0.010 C 
ENDBRANCH  28  30
ENDBRANCH  26  28
ENDBRANCH  23  25
BRANCH  23  33
HETATM   33  O2  UNL     1       0.517  48.870 -15.296  1.00  0.00    -0.387 OA
HETATM   34  H17 UNL     1       1.222  48.704 -14.645  1.00  0.00     0.210 HD
ENDBRANCH  23  33
ENDBRANCH   1  23
BRANCH   4  35
HETATM   35  O3  UNL     1      -4.258  49.097 -17.085  1.00  0.00    -0.384 OA
HETATM   36  H23 UNL     1      -5.027  49.661 -17.282  1.00  0.00     0.211 HD
ENDBRANCH   4  35
BRANCH   9  37
HETATM   37  C18 UNL     1      -1.266  50.133 -21.811  1.00  0.00     0.057 C 
BRANCH  37  38
HETATM   38  C19 UNL     1      -0.387  51.373 -21.865  1.00  0.00    -0.057 A 
HETATM   39  C20 UNL     1      -0.185  52.071 -23.065  1.00  0.00     0.010 A 
HETATM   40  C21 UNL     1       0.606  53.221 -23.098  1.00  0.00     0.037 A 
HETATM   41  C22 UNL     1       1.191  53.691 -21.932  1.00  0.00     0.065 A 
HETATM   42  C23 UNL     1       0.991  53.032 -20.725  1.00  0.00     0.037 A 
HETATM   43  C24 UNL     1       0.198  51.882 -20.694  1.00  0.00     0.010 A 
BRANCH  41  44
HETATM   44  O5  UNL     1       1.954  54.817 -22.011  1.00  0.00    -0.361 OA
HETATM   45  H29 UNL     1       2.316  55.010 -21.131  1.00  0.00     0.217 HD
ENDBRANCH  41  44
ENDBRANCH  37  38
ENDBRANCH   9  37
BRANCH  16  46
HETATM   46  O6  UNL     1      -7.052  50.426 -22.420  1.00  0.00    -0.393 OA
HETATM   47  H42 UNL     1      -7.046  50.157 -23.362  1.00  0.00     0.210 HD
ENDBRANCH  16  46
BRANCH  17  48
HETATM   48  O7  UNL     1      -5.538  50.415 -24.488  1.00  0.00    -0.393 OA
HETATM   49  H44 UNL     1      -5.181  50.886 -25.264  1.00  0.00     0.210 HD
ENDBRANCH  17  48
TORSDOF 11
ENDMDL
MODEL 4
REMARK minimizedAffinity -8.1780405
REMARK CNNscore 0.700763345
REMARK CNNaffinity 7.58226395
REMARK  11 active torsions:
REMARK  status: ('A' for Active; 'I' for Inactive)
REMARK    1  A    between atoms: C2_2  and  C4_4 
REMARK    2  A    between atoms: C4_4  and  C6_6 
REMARK    3  A    between atoms: C7_8  and  C8_9 
REMARK    4  A    between atoms: C8_9  and  O2_11 
REMARK    5  A    between atoms: C8_9  and  C10_12 
REMARK    6  A    between atoms: C13_15  and  O3_16 
REMARK    7  A    between atoms: C17_21  and  C18_22 
REMARK    8  A    between atoms: C18_22  and  C19_23 
REMARK    9  A    between atoms: C22_26  and  O5_27 
REMARK   10  A    between atoms: C31_36  and  O6_37 
REMARK   11  A    between atoms: C32_38  and  O7_39 
ROOT
HETATM    1  C10 UNL     1      -3.332  50.366 -22.946  1.00  0.00     0.034 C 
HETATM    2  C11 UNL     1      -4.264  51.478 -22.358  1.00  0.00     0.012 C 
HETATM    3  C12 UNL     1      -5.098  50.843 -21.230  1.00  0.00     0.044 C 
HETATM    4  C13 UNL     1      -4.395  49.514 -20.962  1.00  0.00     0.089 C 
HETATM    5  C14 UNL     1      -5.069  48.388 -20.212  1.00  0.00    -0.037 C 
HETATM    6  C15 UNL     1      -6.343  48.431 -19.789  1.00  0.00     0.057 C 
HETATM    7  C16 UNL     1      -7.008  47.252 -19.179  1.00  0.00     0.160 C 
HETATM    8  O4  UNL     1      -8.094  47.418 -18.628  1.00  0.00    -0.292 OA
HETATM    9  C17 UNL     1      -6.327  45.879 -19.299  1.00  0.00     0.043 C 
HETATM   10  C25 UNL     1      -6.810  44.883 -18.190  1.00  0.00     0.034 C 
HETATM   11  C26 UNL     1      -6.080  43.523 -18.331  1.00  0.00     0.008 C 
HETATM   12  C27 UNL     1      -4.563  43.640 -18.269  1.00  0.00     0.001 C 
HETATM   13  C28 UNL     1      -4.026  44.730 -19.197  1.00  0.00     0.011 C 
HETATM   14  C29 UNL     1      -4.777  46.091 -19.057  1.00  0.00    -0.015 C 
HETATM   15  C30 UNL     1      -4.501  46.592 -17.573  1.00  0.00     0.045 C 
HETATM   16  C31 UNL     1      -5.691  46.636 -16.617  1.00  0.00     0.148 C 
HETATM   17  C32 UNL     1      -6.692  45.479 -16.761  1.00  0.00     0.152 C 
HETATM   18  C33 UNL     1      -4.156  47.171 -20.030  1.00  0.00     0.027 C 
HETATM   19  C34 UNL     1      -3.620  46.695 -21.403  1.00  0.00     0.011 C 
HETATM   20  C35 UNL     1      -3.021  47.842 -22.252  1.00  0.00     0.014 C 
HETATM   21  C36 UNL     1      -3.983  49.047 -22.397  1.00  0.00    -0.002 C 
HETATM   22  C37 UNL     1      -5.207  48.623 -23.251  1.00  0.00     0.019 C 
ENDROOT
BRANCH   1  23
HETATM   23  C8  UNL     1      -3.058  50.556 -24.473  1.00  0.00     0.087 C 
HETATM   24  C9  UNL     1      -2.865  49.214 -25.194  1.00  0.00     0.049 C 
BRANCH  23  25
HETATM   25  C7  UNL     1      -1.867  51.490 -24.659  1.00  0.00     0.185 A 
HETATM   26  C6  UNL     1      -1.333  51.950 -26.000  1.00  0.00     0.158 A 
HETATM   27  O1  UNL     1      -2.196  52.780 -25.205  1.00  0.00    -0.372 OA
BRANCH  26  28
HETATM   28  C4  UNL     1       0.076  52.472 -26.131  1.00  0.00     0.017 C 
HETATM   29  C5  UNL     1       0.053  53.882 -26.729  1.00  0.00     0.013 C 
BRANCH  28  30
HETATM   30  C2  UNL     1       0.963  51.465 -26.914  1.00  0.00    -0.016 C 
HETATM   31  C1  UNL     1       1.045  51.746 -28.417  1.00  0.00     0.010 C 
HETATM   32  C3  UNL     1       2.379  51.398 -26.327  1.00  0.00     0.010 C 
ENDBRANCH  28  30
ENDBRANCH  26  28
ENDBRANCH  23  25
BRANCH  23  33
HETATM   33  O2  UNL     1      -4.177  51.201 -25.089  1.00  0.00    -0.387 OA
HETATM   34  H17 UNL     1      -3.895  51.430 -25.993  1.00  0.00     0.210 HD
ENDBRANCH  23  33
ENDBRANCH   1  23
BRANCH   4  35
HETATM   35  O3  UNL     1      -3.224  49.846 -20.195  1.00  0.00    -0.384 OA
HETATM   36  H23 UNL     1      -3.530  50.149 -19.321  1.00  0.00     0.211 HD
ENDBRANCH   4  35
BRANCH   9  37
HETATM   37  C18 UNL     1      -6.679  45.360 -20.745  1.00  0.00     0.057 C 
BRANCH  37  38
HETATM   38  C19 UNL     1      -8.054  45.671 -21.316  1.00  0.00    -0.057 A 
HETATM   39  C20 UNL     1      -9.207  45.041 -20.826  1.00  0.00     0.010 A 
HETATM   40  C21 UNL     1     -10.466  45.352 -21.343  1.00  0.00     0.037 A 
HETATM   41  C22 UNL     1     -10.586  46.304 -22.344  1.00  0.00     0.065 A 
HETATM   42  C23 UNL     1      -9.464  46.959 -22.835  1.00  0.00     0.037 A 
HETATM   43  C24 UNL     1      -8.204  46.648 -22.315  1.00  0.00     0.010 A 
BRANCH  41  44
HETATM   44  O5  UNL     1     -11.834  46.575 -22.818  1.00  0.00    -0.361 OA
HETATM   45  H29 UNL     1     -11.761  47.236 -23.526  1.00  0.00     0.217 HD
ENDBRANCH  41  44
ENDBRANCH  37  38
ENDBRANCH   9  37
BRANCH  16  46
HETATM   46  O6  UNL     1      -5.200  46.700 -15.272  1.00  0.00    -0.393 OA
HETATM   47  H42 UNL     1      -5.271  45.778 -14.944  1.00  0.00     0.210 HD
ENDBRANCH  16  46
BRANCH  17  48
HETATM   48  O7  UNL     1      -6.370  44.476 -15.783  1.00  0.00    -0.393 OA
HETATM   49  H44 UNL     1      -7.158  43.909 -15.697  1.00  0.00     0.210 HD
ENDBRANCH  17  48
TORSDOF 11
ENDMDL
MODEL 5
REMARK minimizedAffinity -8.78450012
REMARK CNNscore 0.689655781
REMARK CNNaffinity 7.63473177
REMARK  11 active torsions:
REMARK  status: ('A' for Active; 'I' for Inactive)
REMARK    1  A    between atoms: C2_2  and  C4_4 
REMARK    2  A    between atoms: C4_4  and  C6_6 
REMARK    3  A    between atoms: C7_8  and  C8_9 
REMARK    4  A    between atoms: C8_9  and  O2_11 
REMARK    5  A    between atoms: C8_9  and  C10_12 
REMARK    6  A    between atoms: C13_15  and  O3_16 
REMARK    7  A    between atoms: C17_21  and  C18_22 
REMARK    8  A    between atoms: C18_22  and  C19_23 
REMARK    9  A    between atoms: C22_26  and  O5_27 
REMARK   10  A    between atoms: C31_36  and  O6_37 
REMARK   11  A    between atoms: C32_38  and  O7_39 
ROOT
HETATM    1  C10 UNL     1      -3.635  50.651 -24.194  1.00  0.00     0.034 C 
HETATM    2  C11 UNL     1      -4.860  51.625 -24.226  1.00  0.00     0.012 C 
HETATM    3  C12 UNL     1      -5.958  51.029 -23.327  1.00  0.00     0.044 C 
HETATM    4  C13 UNL     1      -5.231  49.941 -22.538  1.00  0.00     0.089 C 
HETATM    5  C14 UNL     1      -5.975  48.842 -21.816  1.00  0.00    -0.037 C 
HETATM    6  C15 UNL     1      -7.308  48.687 -21.865  1.00  0.00     0.057 C 
HETATM    7  C16 UNL     1      -7.985  47.515 -21.256  1.00  0.00     0.160 C 
HETATM    8  O4  UNL     1      -9.210  47.539 -21.153  1.00  0.00    -0.292 OA
HETATM    9  C17 UNL     1      -7.130  46.316 -20.819  1.00  0.00     0.043 C 
HETATM   10  C25 UNL     1      -7.849  45.441 -19.736  1.00  0.00     0.034 C 
HETATM   11  C26 UNL     1      -6.941  44.262 -19.304  1.00  0.00     0.008 C 
HETATM   12  C27 UNL     1      -5.586  44.703 -18.768  1.00  0.00     0.001 C 
HETATM   13  C28 UNL     1      -4.897  45.709 -19.691  1.00  0.00     0.011 C 
HETATM   14  C29 UNL     1      -5.823  46.886 -20.130  1.00  0.00    -0.015 C 
HETATM   15  C30 UNL     1      -6.187  47.676 -18.799  1.00  0.00     0.045 C 
HETATM   16  C31 UNL     1      -7.640  47.630 -18.332  1.00  0.00     0.148 C 
HETATM   17  C32 UNL     1      -8.350  46.281 -18.529  1.00  0.00     0.152 C 
HETATM   18  C33 UNL     1      -5.039  47.892 -21.062  1.00  0.00     0.027 C 
HETATM   19  C34 UNL     1      -3.973  47.315 -22.027  1.00  0.00     0.011 C 
HETATM   20  C35 UNL     1      -3.263  48.403 -22.869  1.00  0.00     0.014 C 
HETATM   21  C36 UNL     1      -4.257  49.337 -23.604  1.00  0.00    -0.002 C 
HETATM   22  C37 UNL     1      -5.008  48.528 -24.693  1.00  0.00     0.019 C 
ENDROOT
BRANCH   1  23
HETATM   23  C8  UNL     1      -2.844  50.634 -25.542  1.00  0.00     0.087 C 
HETATM   24  C9  UNL     1      -2.169  49.279 -25.797  1.00  0.00     0.049 C 
BRANCH  23  25
HETATM   25  C7  UNL     1      -1.846  51.788 -25.555  1.00  0.00     0.185 A 
HETATM   26  C6  UNL     1      -1.075  52.247 -26.775  1.00  0.00     0.158 A 
HETATM   27  O1  UNL     1      -2.259  52.928 -26.330  1.00  0.00    -0.372 OA
BRANCH  26  28
HETATM   28  C4  UNL     1       0.193  53.051 -26.628  1.00  0.00     0.017 C 
HETATM   29  C5  UNL     1      -0.013  54.454 -27.211  1.00  0.00     0.013 C 
BRANCH  28  30
HETATM   30  C2  UNL     1       1.402  52.285 -27.231  1.00  0.00    -0.016 C 
HETATM   31  C1  UNL     1       2.086  51.329 -26.248  1.00  0.00     0.010 C 
HETATM   32  C3  UNL     1       0.999  51.517 -28.496  1.00  0.00     0.010 C 
ENDBRANCH  28  30
ENDBRANCH  26  28
ENDBRANCH  23  25
BRANCH  23  33
HETATM   33  O2  UNL     1      -3.740  50.863 -26.632  1.00  0.00    -0.387 OA
HETATM   34  H17 UNL     1      -3.183  50.994 -27.421  1.00  0.00     0.210 HD
ENDBRANCH  23  33
ENDBRANCH   1  23
BRANCH   4  35
HETATM   35  O3  UNL     1      -4.484  50.636 -21.524  1.00  0.00    -0.384 OA
HETATM   36  H23 UNL     1      -5.129  51.011 -20.898  1.00  0.00     0.211 HD
ENDBRANCH   4  35
BRANCH   9  37
HETATM   37  C18 UNL     1      -6.847  45.498 -22.136  1.00  0.00     0.057 C 
BRANCH  37  38
HETATM   38  C19 UNL     1      -7.962  45.361 -23.162  1.00  0.00    -0.057 A 
HETATM   39  C20 UNL     1      -7.927  46.063 -24.375  1.00  0.00     0.010 A 
HETATM   40  C21 UNL     1      -8.945  45.912 -25.318  1.00  0.00     0.037 A 
HETATM   41  C22 UNL     1     -10.000  45.048 -25.064  1.00  0.00     0.065 A 
HETATM   42  C23 UNL     1     -10.051  44.324 -23.880  1.00  0.00     0.037 A 
HETATM   43  C24 UNL     1      -9.029  44.476 -22.937  1.00  0.00     0.010 A 
BRANCH  41  44
HETATM   44  O5  UNL     1     -10.970  44.932 -26.013  1.00  0.00    -0.361 OA
HETATM   45  H29 UNL     1     -11.650  44.319 -25.689  1.00  0.00     0.217 HD
ENDBRANCH  41  44
ENDBRANCH  37  38
ENDBRANCH   9  37
BRANCH  16  46
HETATM   46  O6  UNL     1      -7.696  48.021 -16.954  1.00  0.00    -0.393 OA
HETATM   47  H42 UNL     1      -7.758  47.174 -16.464  1.00  0.00     0.210 HD
ENDBRANCH  16  46
BRANCH  17  48
HETATM   48  O7  UNL     1      -8.280  45.547 -17.295  1.00  0.00    -0.393 OA
HETATM   49  H44 UNL     1      -8.960  44.850 -17.347  1.00  0.00     0.210 HD
ENDBRANCH  17  48
TORSDOF 11
ENDMDL
MODEL 6
REMARK minimizedAffinity -8.25738621
REMARK CNNscore 0.607957482
REMARK CNNaffinity 7.54409981
REMARK  11 active torsions:
REMARK  status: ('A' for Active; 'I' for Inactive)
REMARK    1  A    between atoms: C2_2  and  C4_4 
REMARK    2  A    between atoms: C4_4  and  C6_6 
REMARK    3  A    between atoms: C7_8  and  C8_9 
REMARK    4  A    between atoms: C8_9  and  O2_11 
REMARK    5  A    between atoms: C8_9  and  C10_12 
REMARK    6  A    between atoms: C13_15  and  O3_16 
REMARK    7  A    between atoms: C17_21  and  C18_22 
REMARK    8  A    between atoms: C18_22  and  C19_23 
REMARK    9  A    between atoms: C22_26  and  O5_27 
REMARK   10  A    between atoms: C31_36  and  O6_37 
REMARK   11  A    between atoms: C32_38  and  O7_39 
ROOT
HETATM    1  C10 UNL     1      -2.830  50.671 -24.699  1.00  0.00     0.034 C 
HETATM    2  C11 UNL     1      -3.734  51.894 -24.330  1.00  0.00     0.012 C 
HETATM    3  C12 UNL     1      -4.480  51.551 -23.027  1.00  0.00     0.044 C 
HETATM    4  C13 UNL     1      -3.742  50.323 -22.499  1.00  0.00     0.089 C 
HETATM    5  C14 UNL     1      -4.347  49.412 -21.455  1.00  0.00    -0.037 C 
HETATM    6  C15 UNL     1      -5.589  49.559 -20.966  1.00  0.00     0.057 C 
HETATM    7  C16 UNL     1      -6.194  48.563 -20.047  1.00  0.00     0.160 C 
HETATM    8  O4  UNL     1      -7.242  48.860 -19.477  1.00  0.00    -0.292 OA
HETATM    9  C17 UNL     1      -5.504  47.200 -19.882  1.00  0.00     0.043 C 
HETATM   10  C25 UNL     1      -5.896  46.500 -18.536  1.00  0.00     0.034 C 
HETATM   11  C26 UNL     1      -5.158  45.144 -18.398  1.00  0.00     0.008 C 
HETATM   12  C27 UNL     1      -3.642  45.268 -18.472  1.00  0.00     0.001 C 
HETATM   13  C28 UNL     1      -3.186  46.102 -19.670  1.00  0.00     0.011 C 
HETATM   14  C29 UNL     1      -3.944  47.459 -19.808  1.00  0.00    -0.015 C 
HETATM   15  C30 UNL     1      -3.574  48.300 -18.510  1.00  0.00     0.045 C 
HETATM   16  C31 UNL     1      -4.695  48.576 -17.511  1.00  0.00     0.148 C 
HETATM   17  C32 UNL     1      -5.687  47.421 -17.303  1.00  0.00     0.152 C 
HETATM   18  C33 UNL     1      -3.407  48.271 -21.052  1.00  0.00     0.027 C 
HETATM   19  C34 UNL     1      -2.961  47.479 -22.305  1.00  0.00     0.011 C 
HETATM   20  C35 UNL     1      -2.437  48.387 -23.444  1.00  0.00     0.014 C 
HETATM   21  C36 UNL     1      -3.423  49.525 -23.806  1.00  0.00    -0.002 C 
HETATM   22  C37 UNL     1      -4.697  48.912 -24.445  1.00  0.00     0.019 C 
ENDROOT
BRANCH   1  23
HETATM   23  C8  UNL     1      -2.665  50.488 -26.242  1.00  0.00     0.087 C 
HETATM   24  C9  UNL     1      -2.741  49.013 -26.658  1.00  0.00     0.049 C 
BRANCH  23  25
HETATM   25  C7  UNL     1      -1.367  51.150 -26.692  1.00  0.00     0.185 A 
HETATM   26  C6  UNL     1      -0.094  51.198 -25.871  1.00  0.00     0.158 A 
HETATM   27  O1  UNL     1      -0.278  50.238 -26.925  1.00  0.00    -0.372 OA
BRANCH  26  28
HETATM   28  C4  UNL     1       0.968  52.231 -26.155  1.00  0.00     0.017 C 
HETATM   29  C5  UNL     1       2.309  51.536 -26.419  1.00  0.00     0.013 C 
BRANCH  28  30
HETATM   30  C2  UNL     1       1.016  53.295 -25.024  1.00  0.00    -0.016 C 
HETATM   31  C1  UNL     1       0.264  54.587 -25.354  1.00  0.00     0.010 C 
HETATM   32  C3  UNL     1       0.494  52.721 -23.701  1.00  0.00     0.010 C 
ENDBRANCH  28  30
ENDBRANCH  26  28
ENDBRANCH  23  25
BRANCH  23  33
HETATM   33  O2  UNL     1      -3.722  51.167 -26.926  1.00  0.00    -0.387 OA
HETATM   34  H17 UNL     1      -3.489  51.152 -27.872  1.00  0.00     0.210 HD
ENDBRANCH  23  33
ENDBRANCH   1  23
BRANCH   4  35
HETATM   35  O3  UNL     1      -2.526  50.826 -21.917  1.00  0.00    -0.384 OA
HETATM   36  H23 UNL     1      -2.775  51.331 -21.123  1.00  0.00     0.211 HD
ENDBRANCH   4  35
BRANCH   9  37
HETATM   37  C18 UNL     1      -5.947  46.350 -21.133  1.00  0.00     0.057 C 
BRANCH  37  38
HETATM   38  C19 UNL     1      -7.397  46.424 -21.587  1.00  0.00    -0.057 A 
HETATM   39  C20 UNL     1      -8.427  45.837 -20.836  1.00  0.00     0.010 A 
HETATM   40  C21 UNL     1      -9.757  45.931 -21.252  1.00  0.00     0.037 A 
HETATM   41  C22 UNL     1     -10.071  46.622 -22.412  1.00  0.00     0.065 A 
HETATM   42  C23 UNL     1      -9.075  47.230 -23.165  1.00  0.00     0.037 A 
HETATM   43  C24 UNL     1      -7.744  47.137 -22.746  1.00  0.00     0.010 A 
BRANCH  41  44
HETATM   44  O5  UNL     1     -11.382  46.688 -22.778  1.00  0.00    -0.361 OA
HETATM   45  H29 UNL     1     -11.447  47.175 -23.615  1.00  0.00     0.217 HD
ENDBRANCH  41  44
ENDBRANCH  37  38
ENDBRANCH   9  37
BRANCH  16  46
HETATM   46  O6  UNL     1      -4.114  48.959 -16.258  1.00  0.00    -0.393 OA
HETATM   47  H42 UNL     1      -4.149  48.143 -15.715  1.00  0.00     0.210 HD
ENDBRANCH  16  46
BRANCH  17  48
HETATM   48  O7  UNL     1      -5.285  46.681 -16.138  1.00  0.00    -0.393 OA
HETATM   49  H44 UNL     1      -6.057  46.154 -15.863  1.00  0.00     0.210 HD
ENDBRANCH  17  48
TORSDOF 11
ENDMDL
MODEL 7
REMARK minimizedAffinity -8.50170231
REMARK CNNscore 0.591587722
REMARK CNNaffinity 6.72596312
REMARK  11 active torsions:
REMARK  status: ('A' for Active; 'I' for Inactive)
REMARK    1  A    between atoms: C2_2  and  C4_4 
REMARK    2  A    between atoms: C4_4  and  C6_6 
REMARK    3  A    between atoms: C7_8  and  C8_9 
REMARK    4  A    between atoms: C8_9  and  O2_11 
REMARK    5  A    between atoms: C8_9  and  C10_12 
REMARK    6  A    between atoms: C13_15  and  O3_16 
REMARK    7  A    between atoms: C17_21  and  C18_22 
REMARK    8  A    between atoms: C18_22  and  C19_23 
REMARK    9  A    between atoms: C22_26  and  O5_27 
REMARK   10  A    between atoms: C31_36  and  O6_37 
REMARK   11  A    between atoms: C32_38  and  O7_39 
ROOT
HETATM    1  C10 UNL     1     -13.748  45.158 -26.263  1.00  0.00     0.034 C 
HETATM    2  C11 UNL     1     -12.868  44.232 -25.358  1.00  0.00     0.012 C 
HETATM    3  C12 UNL     1     -11.418  44.318 -25.868  1.00  0.00     0.044 C 
HETATM    4  C13 UNL     1     -11.432  45.529 -26.800  1.00  0.00     0.089 C 
HETATM    5  C14 UNL     1     -10.340  45.770 -27.817  1.00  0.00    -0.037 C 
HETATM    6  C15 UNL     1      -9.324  44.919 -28.035  1.00  0.00     0.057 C 
HETATM    7  C16 UNL     1      -8.351  45.125 -29.137  1.00  0.00     0.160 C 
HETATM    8  O4  UNL     1      -7.334  44.434 -29.152  1.00  0.00    -0.292 OA
HETATM    9  C17 UNL     1      -8.678  46.162 -30.224  1.00  0.00     0.043 C 
HETATM   10  C25 UNL     1      -7.394  46.664 -30.966  1.00  0.00     0.034 C 
HETATM   11  C26 UNL     1      -7.766  47.726 -32.032  1.00  0.00     0.008 C 
HETATM   12  C27 UNL     1      -8.511  48.924 -31.460  1.00  0.00     0.001 C 
HETATM   13  C28 UNL     1      -9.679  48.508 -30.565  1.00  0.00     0.011 C 
HETATM   14  C29 UNL     1      -9.298  47.429 -29.505  1.00  0.00    -0.015 C 
HETATM   15  C30 UNL     1      -8.226  48.115 -28.551  1.00  0.00     0.045 C 
HETATM   16  C31 UNL     1      -6.800  47.570 -28.593  1.00  0.00     0.148 C 
HETATM   17  C32 UNL     1      -6.295  47.162 -29.986  1.00  0.00     0.152 C 
HETATM   18  C33 UNL     1     -10.546  47.065 -28.608  1.00  0.00     0.027 C 
HETATM   19  C34 UNL     1     -11.947  47.070 -29.268  1.00  0.00     0.011 C 
HETATM   20  C35 UNL     1     -13.086  46.717 -28.281  1.00  0.00     0.014 C 
HETATM   21  C36 UNL     1     -12.822  45.403 -27.506  1.00  0.00    -0.002 C 
HETATM   22  C37 UNL     1     -12.873  44.208 -28.494  1.00  0.00     0.019 C 
ENDROOT
BRANCH   1  23
HETATM   23  C8  UNL     1     -15.206  44.620 -26.436  1.00  0.00     0.087 C 
HETATM   24  C9  UNL     1     -15.861  45.137 -27.725  1.00  0.00     0.049 C 
BRANCH  23  25
HETATM   25  C7  UNL     1     -16.021  44.965 -25.194  1.00  0.00     0.185 A 
HETATM   26  C6  UNL     1     -17.262  45.833 -25.191  1.00  0.00     0.158 A 
HETATM   27  O1  UNL     1     -17.344  44.399 -25.170  1.00  0.00    -0.372 OA
BRANCH  26  28
HETATM   28  C4  UNL     1     -17.735  46.498 -23.922  1.00  0.00     0.017 C 
HETATM   29  C5  UNL     1     -16.849  46.064 -22.749  1.00  0.00     0.013 C 
BRANCH  28  30
HETATM   30  C2  UNL     1     -19.251  46.244 -23.701  1.00  0.00    -0.016 C 
HETATM   31  C1  UNL     1     -20.047  46.065 -24.997  1.00  0.00     0.010 C 
HETATM   32  C3  UNL     1     -19.484  45.035 -22.786  1.00  0.00     0.010 C 
ENDBRANCH  28  30
ENDBRANCH  26  28
ENDBRANCH  23  25
BRANCH  23  33
HETATM   33  O2  UNL     1     -15.188  43.192 -26.524  1.00  0.00    -0.387 OA
HETATM   34  H17 UNL     1     -16.118  42.905 -26.477  1.00  0.00     0.210 HD
ENDBRANCH  23  33
ENDBRANCH   1  23
BRANCH   4  35
HETATM   35  O3  UNL     1     -11.418  46.679 -25.936  1.00  0.00    -0.384 OA
HETATM   36  H23 UNL     1     -10.545  46.703 -25.504  1.00  0.00     0.211 HD
ENDBRANCH   4  35
BRANCH   9  37
HETATM   37  C18 UNL     1      -9.677  45.440 -31.207  1.00  0.00     0.057 C 
BRANCH  37  38
HETATM   38  C19 UNL     1      -9.105  44.602 -32.340  1.00  0.00    -0.057 A 
HETATM   39  C20 UNL     1      -9.236  44.999 -33.679  1.00  0.00     0.010 A 
HETATM   40  C21 UNL     1      -8.687  44.232 -34.709  1.00  0.00     0.037 A 
HETATM   41  C22 UNL     1      -7.990  43.071 -34.410  1.00  0.00     0.065 A 
HETATM   42  C23 UNL     1      -7.827  42.664 -33.092  1.00  0.00     0.037 A 
HETATM   43  C24 UNL     1      -8.376  43.433 -32.062  1.00  0.00     0.010 A 
BRANCH  41  44
HETATM   44  O5  UNL     1      -7.471  42.356 -35.447  1.00  0.00    -0.361 OA
HETATM   45  H29 UNL     1      -7.038  41.563 -35.091  1.00  0.00     0.217 HD
ENDBRANCH  41  44
ENDBRANCH  37  38
ENDBRANCH   9  37
BRANCH  16  46
HETATM   46  O6  UNL     1      -5.917  48.539 -28.014  1.00  0.00    -0.393 OA
HETATM   47  H42 UNL     1      -5.517  48.994 -28.784  1.00  0.00     0.210 HD
ENDBRANCH  16  46
BRANCH  17  48
HETATM   48  O7  UNL     1      -5.538  48.254 -30.533  1.00  0.00    -0.393 OA
HETATM   49  H44 UNL     1      -5.003  47.885 -31.260  1.00  0.00     0.210 HD
ENDBRANCH  17  48
TORSDOF 11
ENDMDL
MODEL 8
REMARK minimizedAffinity -9.32067299
REMARK CNNscore 0.526987255
REMARK CNNaffinity 7.27208185
REMARK  11 active torsions:
REMARK  status: ('A' for Active; 'I' for Inactive)
REMARK    1  A    between atoms: C2_2  and  C4_4 
REMARK    2  A    between atoms: C4_4  and  C6_6 
REMARK    3  A    between atoms: C7_8  and  C8_9 
REMARK    4  A    between atoms: C8_9  and  O2_11 
REMARK    5  A    between atoms: C8_9  and  C10_12 
REMARK    6  A    between atoms: C13_15  and  O3_16 
REMARK    7  A    between atoms: C17_21  and  C18_22 
REMARK    8  A    between atoms: C18_22  and  C19_23 
REMARK    9  A    between atoms: C22_26  and  O5_27 
REMARK   10  A    between atoms: C31_36  and  O6_37 
REMARK   11  A    between atoms: C32_38  and  O7_39 
ROOT
HETATM    1  C10 UNL     1      -1.216  50.294 -21.777  1.00  0.00     0.034 C 
HETATM    2  C11 UNL     1      -0.344  50.171 -20.483  1.00  0.00     0.012 C 
HETATM    3  C12 UNL     1      -0.973  49.081 -19.596  1.00  0.00     0.044 C 
HETATM    4  C13 UNL     1      -1.954  48.373 -20.529  1.00  0.00     0.089 C 
HETATM    5  C14 UNL     1      -3.065  47.493 -20.006  1.00  0.00    -0.037 C 
HETATM    6  C15 UNL     1      -3.327  47.319 -18.700  1.00  0.00     0.057 C 
HETATM    7  C16 UNL     1      -4.512  46.559 -18.231  1.00  0.00     0.160 C 
HETATM    8  O4  UNL     1      -4.578  46.261 -17.040  1.00  0.00    -0.292 OA
HETATM    9  C17 UNL     1      -5.614  46.213 -19.246  1.00  0.00     0.043 C 
HETATM   10  C25 UNL     1      -6.479  44.991 -18.785  1.00  0.00     0.034 C 
HETATM   11  C26 UNL     1      -7.557  44.661 -19.847  1.00  0.00     0.008 C 
HETATM   12  C27 UNL     1      -6.981  44.371 -21.227  1.00  0.00     0.001 C 
HETATM   13  C28 UNL     1      -5.978  45.435 -21.672  1.00  0.00     0.011 C 
HETATM   14  C29 UNL     1      -4.904  45.770 -20.590  1.00  0.00    -0.015 C 
HETATM   15  C30 UNL     1      -4.071  44.433 -20.373  1.00  0.00     0.045 C 
HETATM   16  C31 UNL     1      -4.204  43.737 -19.021  1.00  0.00     0.148 C 
HETATM   17  C32 UNL     1      -5.614  43.757 -18.408  1.00  0.00     0.152 C 
HETATM   18  C33 UNL     1      -3.894  46.860 -21.128  1.00  0.00     0.027 C 
HETATM   19  C34 UNL     1      -4.439  47.958 -22.074  1.00  0.00     0.011 C 
HETATM   20  C35 UNL     1      -3.349  48.950 -22.546  1.00  0.00     0.014 C 
HETATM   21  C36 UNL     1      -2.539  49.554 -21.372  1.00  0.00    -0.002 C 
HETATM   22  C37 UNL     1      -3.466  50.472 -20.531  1.00  0.00     0.019 C 
ENDROOT
BRANCH   1  23
HETATM   23  C8  UNL     1      -1.247  51.750 -22.345  1.00  0.00     0.087 C 
HETATM   24  C9  UNL     1      -2.638  52.134 -22.869  1.00  0.00     0.049 C 
BRANCH  23  25
HETATM   25  C7  UNL     1      -0.166  51.898 -23.411  1.00  0.00     0.185 A 
HETATM   26  C6  UNL     1       0.004  53.111 -24.304  1.00  0.00     0.158 A 
HETATM   27  O1  UNL     1       0.814  52.914 -23.133  1.00  0.00    -0.372 OA
BRANCH  26  28
HETATM   28  C4  UNL     1       0.762  53.010 -25.604  1.00  0.00     0.017 C 
HETATM   29  C5  UNL     1      -0.009  53.738 -26.711  1.00  0.00     0.013 C 
BRANCH  28  30
HETATM   30  C2  UNL     1       1.096  51.529 -25.932  1.00  0.00    -0.016 C 
HETATM   31  C1  UNL     1       0.059  50.841 -26.825  1.00  0.00     0.010 C 
HETATM   32  C3  UNL     1       2.486  51.400 -26.566  1.00  0.00     0.010 C 
ENDBRANCH  28  30
ENDBRANCH  26  28
ENDBRANCH  23  25
BRANCH  23  33
HETATM   33  O2  UNL     1      -0.923  52.681 -21.309  1.00  0.00    -0.387 OA
HETATM   34  H17 UNL     1      -0.807  53.545 -21.745  1.00  0.00     0.210 HD
ENDBRANCH  23  33
ENDBRANCH   1  23
BRANCH   4  35
HETATM   35  O3  UNL     1      -1.146  47.524 -21.363  1.00  0.00    -0.384 OA
HETATM   36  H23 UNL     1      -0.788  46.820 -20.794  1.00  0.00     0.211 HD
ENDBRANCH   4  35
BRANCH   9  37
HETATM   37  C18 UNL     1      -6.480  47.523 -19.388  1.00  0.00     0.057 C 
BRANCH  37  38
HETATM   38  C19 UNL     1      -7.813  47.596 -18.660  1.00  0.00    -0.057 A 
HETATM   39  C20 UNL     1      -9.001  47.897 -19.342  1.00  0.00     0.010 A 
HETATM   40  C21 UNL     1     -10.222  47.939 -18.667  1.00  0.00     0.037 A 
HETATM   41  C22 UNL     1     -10.270  47.668 -17.308  1.00  0.00     0.065 A 
HETATM   42  C23 UNL     1      -9.113  47.347 -16.610  1.00  0.00     0.037 A 
HETATM   43  C24 UNL     1      -7.892  47.303 -17.288  1.00  0.00     0.010 A 
BRANCH  41  44
HETATM   44  O5  UNL     1     -11.484  47.720 -16.691  1.00  0.00    -0.361 OA
HETATM   45  H29 UNL     1     -11.360  47.536 -15.745  1.00  0.00     0.217 HD
ENDBRANCH  41  44
ENDBRANCH  37  38
ENDBRANCH   9  37
BRANCH  16  46
HETATM   46  O6  UNL     1      -3.742  42.386 -19.148  1.00  0.00    -0.393 OA
HETATM   47  H42 UNL     1      -4.561  41.856 -19.239  1.00  0.00     0.210 HD
ENDBRANCH  16  46
BRANCH  17  48
HETATM   48  O7  UNL     1      -6.268  42.520 -18.734  1.00  0.00    -0.393 OA
HETATM   49  H44 UNL     1      -7.018  42.432 -18.118  1.00  0.00     0.210 HD
ENDBRANCH  17  48
TORSDOF 11
ENDMDL
MODEL 9
REMARK minimizedAffinity -9.01769829
REMARK CNNscore 0.506469548
REMARK CNNaffinity 6.43549109
REMARK  11 active torsions:
REMARK  status: ('A' for Active; 'I' for Inactive)
REMARK    1  A    between atoms: C2_2  and  C4_4 
REMARK    2  A    between atoms: C4_4  and  C6_6 
REMARK    3  A    between atoms: C7_8  and  C8_9 
REMARK    4  A    between atoms: C8_9  and  O2_11 
REMARK    5  A    between atoms: C8_9  and  C10_12 
REMARK    6  A    between atoms: C13_15  and  O3_16 
REMARK    7  A    between atoms: C17_21  and  C18_22 
REMARK    8  A    between atoms: C18_22  and  C19_23 
REMARK    9  A    between atoms: C22_26  and  O5_27 
REMARK   10  A    between atoms: C31_36  and  O6_37 
REMARK   11  A    between atoms: C32_38  and  O7_39 
ROOT
HETATM    1  C10 UNL     1     -12.528  46.467 -27.143  1.00  0.00     0.034 C 
HETATM    2  C11 UNL     1     -12.832  47.904 -27.684  1.00  0.00     0.012 C 
HETATM    3  C12 UNL     1     -12.281  47.991 -29.120  1.00  0.00     0.044 C 
HETATM    4  C13 UNL     1     -12.001  46.536 -29.490  1.00  0.00     0.089 C 
HETATM    5  C14 UNL     1     -11.105  46.162 -30.648  1.00  0.00    -0.037 C 
HETATM    6  C15 UNL     1     -10.431  47.057 -31.389  1.00  0.00     0.057 C 
HETATM    7  C16 UNL     1      -9.454  46.641 -32.426  1.00  0.00     0.160 C 
HETATM    8  O4  UNL     1      -9.034  47.495 -33.205  1.00  0.00    -0.292 OA
HETATM    9  C17 UNL     1      -8.989  45.177 -32.454  1.00  0.00     0.043 C 
HETATM   10  C25 UNL     1      -8.435  44.760 -33.859  1.00  0.00     0.034 C 
HETATM   11  C26 UNL     1      -8.003  43.272 -33.850  1.00  0.00     0.008 C 
HETATM   12  C27 UNL     1      -9.122  42.318 -33.451  1.00  0.00     0.001 C 
HETATM   13  C28 UNL     1      -9.838  42.763 -32.176  1.00  0.00     0.011 C 
HETATM   14  C29 UNL     1     -10.257  44.266 -32.190  1.00  0.00    -0.015 C 
HETATM   15  C30 UNL     1     -11.312  44.415 -33.370  1.00  0.00     0.045 C 
HETATM   16  C31 UNL     1     -10.895  45.243 -34.584  1.00  0.00     0.148 C 
HETATM   17  C32 UNL     1      -9.426  45.087 -35.010  1.00  0.00     0.152 C 
HETATM   18  C33 UNL     1     -11.006  44.647 -30.852  1.00  0.00     0.027 C 
HETATM   19  C34 UNL     1     -10.554  43.960 -29.540  1.00  0.00     0.011 C 
HETATM   20  C35 UNL     1     -11.378  44.402 -28.306  1.00  0.00     0.014 C 
HETATM   21  C36 UNL     1     -11.449  45.941 -28.153  1.00  0.00    -0.002 C 
HETATM   22  C37 UNL     1     -10.038  46.485 -27.807  1.00  0.00     0.019 C 
ENDROOT
BRANCH   1  23
HETATM   23  C8  UNL     1     -12.269  46.447 -25.602  1.00  0.00     0.087 C 
HETATM   24  C9  UNL     1     -11.220  45.398 -25.208  1.00  0.00     0.049 C 
BRANCH  23  25
HETATM   25  C7  UNL     1     -13.592  46.246 -24.871  1.00  0.00     0.185 A 
HETATM   26  C6  UNL     1     -14.066  47.080 -23.698  1.00  0.00     0.158 A 
HETATM   27  O1  UNL     1     -14.538  47.318 -25.035  1.00  0.00    -0.372 OA
BRANCH  26  28
HETATM   28  C4  UNL     1     -15.120  46.556 -22.755  1.00  0.00     0.017 C 
HETATM   29  C5  UNL     1     -16.492  46.597 -23.438  1.00  0.00     0.013 C 
BRANCH  28  30
HETATM   30  C2  UNL     1     -15.064  47.309 -21.397  1.00  0.00    -0.016 C 
HETATM   31  C1  UNL     1     -15.786  46.586 -20.256  1.00  0.00     0.010 C 
HETATM   32  C3  UNL     1     -13.617  47.602 -20.984  1.00  0.00     0.010 C 
ENDBRANCH  28  30
ENDBRANCH  26  28
ENDBRANCH  23  25
BRANCH  23  33
HETATM   33  O2  UNL     1     -11.764  47.717 -25.179  1.00  0.00    -0.387 OA
HETATM   34  H17 UNL     1     -11.766  47.700 -24.205  1.00  0.00     0.210 HD
ENDBRANCH  23  33
ENDBRANCH   1  23
BRANCH   4  35
HETATM   35  O3  UNL     1     -13.285  45.963 -29.793  1.00  0.00    -0.384 OA
HETATM   36  H23 UNL     1     -13.597  46.377 -30.617  1.00  0.00     0.211 HD
ENDBRANCH   4  35
BRANCH   9  37
HETATM   37  C18 UNL     1      -7.884  45.066 -31.334  1.00  0.00     0.057 C 
BRANCH  37  38
HETATM   38  C19 UNL     1      -6.974  46.259 -31.089  1.00  0.00    -0.057 A 
HETATM   39  C20 UNL     1      -6.027  46.662 -32.042  1.00  0.00     0.010 A 
HETATM   40  C21 UNL     1      -5.213  47.774 -31.815  1.00  0.00     0.037 A 
HETATM   41  C22 UNL     1      -5.346  48.499 -30.640  1.00  0.00     0.065 A 
HETATM   42  C23 UNL     1      -6.289  48.136 -29.688  1.00  0.00     0.037 A 
HETATM   43  C24 UNL     1      -7.105  47.024 -29.918  1.00  0.00     0.010 A 
BRANCH  41  44
HETATM   44  O5  UNL     1      -4.531  49.576 -30.462  1.00  0.00    -0.361 OA
HETATM   45  H29 UNL     1      -4.717  49.967 -29.593  1.00  0.00     0.217 HD
ENDBRANCH  41  44
ENDBRANCH  37  38
ENDBRANCH   9  37
BRANCH  16  46
HETATM   46  O6  UNL     1     -11.763  44.928 -35.679  1.00  0.00    -0.393 OA
HETATM   47  H42 UNL     1     -11.246  44.299 -36.225  1.00  0.00     0.210 HD
ENDBRANCH  16  46
BRANCH  17  48
HETATM   48  O7  UNL     1      -9.362  44.117 -36.069  1.00  0.00    -0.393 OA
HETATM   49  H44 UNL     1      -8.500  44.241 -36.508  1.00  0.00     0.210 HD
ENDBRANCH  17  48
TORSDOF 11
ENDMDL
