MODEL 1
REMARK minimizedAffinity -7.76978827
REMARK CNNscore 0.765820205
REMARK CNNaffinity 6.4829812
REMARK  6 active torsions:
REMARK  status: ('A' for Active; 'I' for Inactive)
REMARK    1  A    between atoms: C4_4  and  C5_5 
REMARK    2  A    between atoms: C5_5  and  C6_6 
REMARK    3  A    between atoms: C6_6  and  C7_7 
REMARK    4  A    between atoms: C7_7  and  C9_9 
REMARK    5  A    between atoms: C17_17  and  O1_18 
REMARK    6  A    between atoms: C21_22  and  O2_23 
ROOT
HETATM    1  C9  UNL     1     -14.541  45.960 -27.175  1.00  0.00    -0.002 C 
HETATM    2  C10 UNL     1     -14.122  46.407 -25.739  1.00  0.00     0.006 C 
HETATM    3  C11 UNL     1     -12.611  46.706 -25.765  1.00  0.00     0.011 C 
HETATM    4  C12 UNL     1     -12.248  46.765 -27.259  1.00  0.00    -0.032 C 
HETATM    5  C13 UNL     1     -12.634  48.206 -27.731  1.00  0.00     0.016 C 
HETATM    6  C14 UNL     1     -10.754  46.460 -27.590  1.00  0.00     0.003 C 
HETATM    7  C15 UNL     1      -9.776  47.416 -26.880  1.00  0.00     0.009 C 
HETATM    8  C16 UNL     1      -8.363  47.293 -27.435  1.00  0.00     0.039 C 
HETATM    9  C17 UNL     1      -8.299  47.849 -28.872  1.00  0.00     0.071 C 
HETATM   10  C18 UNL     1      -9.579  47.459 -29.703  1.00  0.00     0.029 C 
HETATM   11  C19 UNL     1      -9.294  47.389 -31.222  1.00  0.00     0.011 C 
HETATM   12  C20 UNL     1      -8.304  48.454 -31.673  1.00  0.00     0.033 C 
HETATM   13  C21 UNL     1      -6.941  48.359 -30.980  1.00  0.00     0.129 C 
HETATM   14  C22 UNL     1      -6.929  47.597 -29.611  1.00  0.00     0.010 C 
HETATM   15  C23 UNL     1      -6.605  46.098 -29.802  1.00  0.00     0.020 C 
HETATM   16  C24 UNL     1      -5.737  48.163 -28.787  1.00  0.00     0.020 C 
HETATM   17  C25 UNL     1     -10.474  46.265 -29.143  1.00  0.00    -0.033 C 
HETATM   18  C26 UNL     1      -9.759  44.904 -29.355  1.00  0.00     0.016 C 
HETATM   19  C27 UNL     1     -11.795  46.191 -29.995  1.00  0.00     0.011 C 
HETATM   20  C28 UNL     1     -13.094  45.640 -29.369  1.00  0.00     0.011 C 
HETATM   21  C29 UNL     1     -13.157  45.617 -27.833  1.00  0.00    -0.032 C 
HETATM   22  C30 UNL     1     -12.761  44.183 -27.357  1.00  0.00     0.016 C 
ENDROOT
BRANCH   1  23
HETATM   23  C7  UNL     1     -15.677  44.894 -27.146  1.00  0.00    -0.014 C 
HETATM   24  C8  UNL     1     -16.806  45.314 -26.187  1.00  0.00     0.010 C 
BRANCH  23  25
HETATM   25  C6  UNL     1     -16.268  44.545 -28.531  1.00  0.00     0.008 C 
BRANCH  25  26
HETATM   26  C5  UNL     1     -16.856  43.135 -28.661  1.00  0.00     0.028 C 
BRANCH  26  27
HETATM   27  C4  UNL     1     -17.995  43.122 -29.644  1.00  0.00    -0.025 C 
HETATM   28  C2  UNL     1     -19.315  43.176 -29.381  1.00  0.00    -0.091 C 
HETATM   29  C1  UNL     1     -19.923  43.226 -28.006  1.00  0.00     0.042 C 
HETATM   30  C3  UNL     1     -20.322  43.183 -30.502  1.00  0.00     0.042 C 
ENDBRANCH  26  27
ENDBRANCH  25  26
ENDBRANCH  23  25
ENDBRANCH   1  23
BRANCH   9  31
HETATM   31  O1  UNL     1      -8.403  49.298 -28.738  1.00  0.00    -0.389 OA
HETATM   32  H29 UNL     1      -7.901  49.584 -27.957  1.00  0.00     0.210 HD
ENDBRANCH   9  31
BRANCH  13  33
HETATM   33  O2  UNL     1      -6.015  47.777 -31.904  1.00  0.00    -0.395 OA
HETATM   34  H36 UNL     1      -5.119  47.953 -31.569  1.00  0.00     0.210 HD
ENDBRANCH  13  33
TORSDOF 6
ENDMDL
MODEL 2
REMARK minimizedAffinity -7.98702478
REMARK CNNscore 0.717147052
REMARK CNNaffinity 7.1712966
REMARK  6 active torsions:
REMARK  status: ('A' for Active; 'I' for Inactive)
REMARK    1  A    between atoms: C4_4  and  C5_5 
REMARK    2  A    between atoms: C5_5  and  C6_6 
REMARK    3  A    between atoms: C6_6  and  C7_7 
REMARK    4  A    between atoms: C7_7  and  C9_9 
REMARK    5  A    between atoms: C17_17  and  O1_18 
REMARK    6  A    between atoms: C21_22  and  O2_23 
ROOT
HETATM    1  C9  UNL     1       3.407  56.623  -8.472  1.00  0.00    -0.002 C 
HETATM    2  C10 UNL     1       4.432  55.676  -9.171  1.00  0.00     0.006 C 
HETATM    3  C11 UNL     1       3.663  54.437  -9.666  1.00  0.00     0.011 C 
HETATM    4  C12 UNL     1       2.178  54.828  -9.560  1.00  0.00    -0.032 C 
HETATM    5  C13 UNL     1       1.865  55.652 -10.853  1.00  0.00     0.016 C 
HETATM    6  C14 UNL     1       1.186  53.633  -9.416  1.00  0.00     0.003 C 
HETATM    7  C15 UNL     1       1.276  52.636 -10.587  1.00  0.00     0.009 C 
HETATM    8  C16 UNL     1       0.117  51.648 -10.578  1.00  0.00     0.039 C 
HETATM    9  C17 UNL     1      -1.203  52.365 -10.928  1.00  0.00     0.071 C 
HETATM   10  C18 UNL     1      -1.288  53.786 -10.253  1.00  0.00     0.029 C 
HETATM   11  C19 UNL     1      -2.748  54.233 -10.006  1.00  0.00     0.011 C 
HETATM   12  C20 UNL     1      -3.684  53.785 -11.121  1.00  0.00     0.033 C 
HETATM   13  C21 UNL     1      -3.731  52.266 -11.311  1.00  0.00     0.129 C 
HETATM   14  C22 UNL     1      -2.495  51.477 -10.760  1.00  0.00     0.010 C 
HETATM   15  C23 UNL     1      -2.728  51.004  -9.307  1.00  0.00     0.020 C 
HETATM   16  C24 UNL     1      -2.385  50.167 -11.594  1.00  0.00     0.020 C 
HETATM   17  C25 UNL     1      -0.294  54.077  -9.041  1.00  0.00    -0.033 C 
HETATM   18  C26 UNL     1      -0.742  53.302  -7.774  1.00  0.00     0.016 C 
HETATM   19  C27 UNL     1      -0.396  55.603  -8.668  1.00  0.00     0.011 C 
HETATM   20  C28 UNL     1       0.811  56.331  -8.042  1.00  0.00     0.011 C 
HETATM   21  C29 UNL     1       2.185  55.667  -8.229  1.00  0.00    -0.032 C 
HETATM   22  C30 UNL     1       2.496  54.835  -6.944  1.00  0.00     0.016 C 
ENDROOT
BRANCH   1  23
HETATM   23  C7  UNL     1       4.045  57.393  -7.277  1.00  0.00    -0.014 C 
HETATM   24  C8  UNL     1       2.977  58.165  -6.482  1.00  0.00     0.010 C 
BRANCH  23  25
HETATM   25  C6  UNL     1       4.881  56.516  -6.318  1.00  0.00     0.008 C 
BRANCH  25  26
HETATM   26  C5  UNL     1       6.370  56.870  -6.227  1.00  0.00     0.028 C 
BRANCH  26  27
HETATM   27  C4  UNL     1       6.562  58.183  -5.517  1.00  0.00    -0.025 C 
HETATM   28  C2  UNL     1       7.696  58.676  -4.984  1.00  0.00    -0.091 C 
HETATM   29  C1  UNL     1       9.024  57.968  -4.964  1.00  0.00     0.042 C 
HETATM   30  C3  UNL     1       7.711  60.035  -4.331  1.00  0.00     0.042 C 
ENDBRANCH  26  27
ENDBRANCH  25  26
ENDBRANCH  23  25
ENDBRANCH   1  23
BRANCH   9  31
HETATM   31  O1  UNL     1      -1.123  52.664 -12.353  1.00  0.00    -0.389 OA
HETATM   32  H29 UNL     1      -0.701  51.919 -12.812  1.00  0.00     0.210 HD
ENDBRANCH   9  31
BRANCH  13  33
HETATM   33  O2  UNL     1      -4.950  51.785 -10.733  1.00  0.00    -0.395 OA
HETATM   34  H36 UNL     1      -5.101  50.888 -11.075  1.00  0.00     0.210 HD
ENDBRANCH  13  33
TORSDOF 6
ENDMDL
MODEL 3
REMARK minimizedAffinity -7.45285988
REMARK CNNscore 0.704343438
REMARK CNNaffinity 7.21671152
REMARK  6 active torsions:
REMARK  status: ('A' for Active; 'I' for Inactive)
REMARK    1  A    between atoms: C4_4  and  C5_5 
REMARK    2  A    between atoms: C5_5  and  C6_6 
REMARK    3  A    between atoms: C6_6  and  C7_7 
REMARK    4  A    between atoms: C7_7  and  C9_9 
REMARK    5  A    between atoms: C17_17  and  O1_18 
REMARK    6  A    between atoms: C21_22  and  O2_23 
ROOT
HETATM    1  C9  UNL     1       3.177  55.389  -6.891  1.00  0.00    -0.002 C 
HETATM    2  C10 UNL     1       2.597  54.713  -5.609  1.00  0.00     0.006 C 
HETATM    3  C11 UNL     1       1.264  54.046  -5.994  1.00  0.00     0.011 C 
HETATM    4  C12 UNL     1       1.256  54.043  -7.533  1.00  0.00    -0.032 C 
HETATM    5  C13 UNL     1       2.106  52.799  -7.957  1.00  0.00     0.016 C 
HETATM    6  C14 UNL     1      -0.159  53.992  -8.189  1.00  0.00     0.003 C 
HETATM    7  C15 UNL     1      -0.973  52.755  -7.761  1.00  0.00     0.009 C 
HETATM    8  C16 UNL     1      -2.216  52.572  -8.622  1.00  0.00     0.039 C 
HETATM    9  C17 UNL     1      -1.820  52.160 -10.055  1.00  0.00     0.071 C 
HETATM   10  C18 UNL     1      -0.546  52.940 -10.552  1.00  0.00     0.029 C 
HETATM   11  C19 UNL     1      -0.509  53.084 -12.093  1.00  0.00     0.011 C 
HETATM   12  C20 UNL     1      -1.058  51.852 -12.800  1.00  0.00     0.033 C 
HETATM   13  C21 UNL     1      -2.511  51.532 -12.438  1.00  0.00     0.129 C 
HETATM   14  C22 UNL     1      -3.017  52.129 -11.081  1.00  0.00     0.010 C 
HETATM   15  C23 UNL     1      -3.684  53.509 -11.284  1.00  0.00     0.020 C 
HETATM   16  C24 UNL     1      -4.162  51.203 -10.576  1.00  0.00     0.020 C 
HETATM   17  C25 UNL     1      -0.143  54.260  -9.756  1.00  0.00    -0.033 C 
HETATM   18  C26 UNL     1      -1.135  55.411 -10.075  1.00  0.00     0.016 C 
HETATM   19  C27 UNL     1       1.260  54.748 -10.276  1.00  0.00     0.011 C 
HETATM   20  C28 UNL     1       2.199  55.545  -9.346  1.00  0.00     0.011 C 
HETATM   21  C29 UNL     1       1.925  55.434  -7.837  1.00  0.00    -0.032 C 
HETATM   22  C30 UNL     1       1.067  56.668  -7.412  1.00  0.00     0.016 C 
ENDROOT
BRANCH   1  23
HETATM   23  C7  UNL     1       3.953  56.699  -6.560  1.00  0.00    -0.014 C 
HETATM   24  C8  UNL     1       4.410  56.715  -5.089  1.00  0.00     0.010 C 
BRANCH  23  25
HETATM   25  C6  UNL     1       5.156  56.987  -7.486  1.00  0.00     0.008 C 
BRANCH  25  26
HETATM   26  C5  UNL     1       6.491  56.377  -7.044  1.00  0.00     0.028 C 
BRANCH  26  27
HETATM   27  C4  UNL     1       6.602  54.948  -7.503  1.00  0.00    -0.025 C 
HETATM   28  C2  UNL     1       6.362  54.454  -8.733  1.00  0.00    -0.091 C 
HETATM   29  C1  UNL     1       5.885  55.258  -9.911  1.00  0.00     0.042 C 
HETATM   30  C3  UNL     1       6.556  52.988  -9.023  1.00  0.00     0.042 C 
ENDBRANCH  26  27
ENDBRANCH  25  26
ENDBRANCH  23  25
ENDBRANCH   1  23
BRANCH   9  31
HETATM   31  O1  UNL     1      -1.363  50.779  -9.955  1.00  0.00    -0.389 OA
HETATM   32  H29 UNL     1      -1.925  50.301  -9.323  1.00  0.00     0.210 HD
ENDBRANCH   9  31
BRANCH  13  33
HETATM   33  O2  UNL     1      -3.341  51.949 -13.528  1.00  0.00    -0.395 OA
HETATM   34  H36 UNL     1      -4.207  51.521 -13.416  1.00  0.00     0.210 HD
ENDBRANCH  13  33
TORSDOF 6
ENDMDL
MODEL 4
REMARK minimizedAffinity -7.07380867
REMARK CNNscore 0.682948112
REMARK CNNaffinity 6.99753714
REMARK  6 active torsions:
REMARK  status: ('A' for Active; 'I' for Inactive)
REMARK    1  A    between atoms: C4_4  and  C5_5 
REMARK    2  A    between atoms: C5_5  and  C6_6 
REMARK    3  A    between atoms: C6_6  and  C7_7 
REMARK    4  A    between atoms: C7_7  and  C9_9 
REMARK    5  A    between atoms: C17_17  and  O1_18 
REMARK    6  A    between atoms: C21_22  and  O2_23 
ROOT
HETATM    1  C9  UNL     1       2.620  55.798  -6.764  1.00  0.00    -0.002 C 
HETATM    2  C10 UNL     1       1.994  55.156  -5.487  1.00  0.00     0.006 C 
HETATM    3  C11 UNL     1       0.737  54.379  -5.921  1.00  0.00     0.011 C 
HETATM    4  C12 UNL     1       0.840  54.291  -7.455  1.00  0.00    -0.032 C 
HETATM    5  C13 UNL     1       1.796  53.087  -7.745  1.00  0.00     0.016 C 
HETATM    6  C14 UNL     1      -0.518  54.108  -8.201  1.00  0.00     0.003 C 
HETATM    7  C15 UNL     1      -1.280  52.844  -7.756  1.00  0.00     0.009 C 
HETATM    8  C16 UNL     1      -2.443  52.530  -8.688  1.00  0.00     0.039 C 
HETATM    9  C17 UNL     1      -1.921  52.068 -10.063  1.00  0.00     0.071 C 
HETATM   10  C18 UNL     1      -0.666  52.904 -10.518  1.00  0.00     0.029 C 
HETATM   11  C19 UNL     1      -0.528  52.965 -12.058  1.00  0.00     0.011 C 
HETATM   12  C20 UNL     1      -0.944  51.662 -12.726  1.00  0.00     0.033 C 
HETATM   13  C21 UNL     1      -2.397  51.264 -12.446  1.00  0.00     0.129 C 
HETATM   14  C22 UNL     1      -3.036  51.899 -11.164  1.00  0.00     0.010 C 
HETATM   15  C23 UNL     1      -3.773  53.218 -11.495  1.00  0.00     0.020 C 
HETATM   16  C24 UNL     1      -4.153  50.926 -10.685  1.00  0.00     0.020 C 
HETATM   17  C25 UNL     1      -0.407  54.290  -9.776  1.00  0.00    -0.033 C 
HETATM   18  C26 UNL     1      -1.445  55.351 -10.230  1.00  0.00     0.016 C 
HETATM   19  C27 UNL     1       0.996  54.843 -10.228  1.00  0.00     0.011 C 
HETATM   20  C28 UNL     1       1.813  55.752  -9.285  1.00  0.00     0.011 C 
HETATM   21  C29 UNL     1       1.439  55.706  -7.794  1.00  0.00    -0.032 C 
HETATM   22  C30 UNL     1       0.476  56.900  -7.503  1.00  0.00     0.016 C 
ENDROOT
BRANCH   1  23
HETATM   23  C7  UNL     1       3.284  57.173  -6.460  1.00  0.00    -0.014 C 
HETATM   24  C8  UNL     1       3.058  57.585  -4.993  1.00  0.00     0.010 C 
BRANCH  23  25
HETATM   25  C6  UNL     1       4.790  57.251  -6.799  1.00  0.00     0.008 C 
BRANCH  25  26
HETATM   26  C5  UNL     1       5.744  56.845  -5.670  1.00  0.00     0.028 C 
BRANCH  26  27
HETATM   27  C4  UNL     1       6.937  57.760  -5.625  1.00  0.00    -0.025 C 
HETATM   28  C2  UNL     1       7.091  58.882  -4.897  1.00  0.00    -0.091 C 
HETATM   29  C1  UNL     1       6.051  59.474  -3.986  1.00  0.00     0.042 C 
HETATM   30  C3  UNL     1       8.379  59.665  -4.955  1.00  0.00     0.042 C 
ENDBRANCH  26  27
ENDBRANCH  25  26
ENDBRANCH  23  25
ENDBRANCH   1  23
BRANCH   9  31
HETATM   31  O1  UNL     1      -1.384  50.729  -9.850  1.00  0.00    -0.389 OA
HETATM   32  H29 UNL     1      -1.958  50.249  -9.231  1.00  0.00     0.210 HD
ENDBRANCH   9  31
BRANCH  13  33
HETATM   33  O2  UNL     1      -3.171  51.563 -13.613  1.00  0.00    -0.395 OA
HETATM   34  H36 UNL     1      -4.013  51.084 -13.535  1.00  0.00     0.210 HD
ENDBRANCH  13  33
TORSDOF 6
ENDMDL
MODEL 5
REMARK minimizedAffinity -7.12105989
REMARK CNNscore 0.601899803
REMARK CNNaffinity 6.99091339
REMARK  6 active torsions:
REMARK  status: ('A' for Active; 'I' for Inactive)
REMARK    1  A    between atoms: C4_4  and  C5_5 
REMARK    2  A    between atoms: C5_5  and  C6_6 
REMARK    3  A    between atoms: C6_6  and  C7_7 
REMARK    4  A    between atoms: C7_7  and  C9_9 
REMARK    5  A    between atoms: C17_17  and  O1_18 
REMARK    6  A    between atoms: C21_22  and  O2_23 
ROOT
HETATM    1  C9  UNL     1       2.732  55.528  -6.845  1.00  0.00    -0.002 C 
HETATM    2  C10 UNL     1       2.110  54.866  -5.576  1.00  0.00     0.006 C 
HETATM    3  C11 UNL     1       0.820  54.143  -6.010  1.00  0.00     0.011 C 
HETATM    4  C12 UNL     1       0.892  54.101  -7.547  1.00  0.00    -0.032 C 
HETATM    5  C13 UNL     1       1.803  52.876  -7.893  1.00  0.00     0.016 C 
HETATM    6  C14 UNL     1      -0.484  53.984  -8.272  1.00  0.00     0.003 C 
HETATM    7  C15 UNL     1      -1.278  52.732  -7.852  1.00  0.00     0.009 C 
HETATM    8  C16 UNL     1      -2.468  52.484  -8.771  1.00  0.00     0.039 C 
HETATM    9  C17 UNL     1      -1.985  52.049 -10.169  1.00  0.00     0.071 C 
HETATM   10  C18 UNL     1      -0.713  52.858 -10.622  1.00  0.00     0.029 C 
HETATM   11  C19 UNL     1      -0.601  52.963 -12.162  1.00  0.00     0.011 C 
HETATM   12  C20 UNL     1      -1.072  51.696 -12.862  1.00  0.00     0.033 C 
HETATM   13  C21 UNL     1      -2.531  51.336 -12.566  1.00  0.00     0.129 C 
HETATM   14  C22 UNL     1      -3.126  51.950 -11.254  1.00  0.00     0.010 C 
HETATM   15  C23 UNL     1      -3.826  53.301 -11.529  1.00  0.00     0.020 C 
HETATM   16  C24 UNL     1      -4.264  50.999 -10.783  1.00  0.00     0.020 C 
HETATM   17  C25 UNL     1      -0.396  54.212  -9.844  1.00  0.00    -0.033 C 
HETATM   18  C26 UNL     1      -1.407  55.319 -10.245  1.00  0.00     0.016 C 
HETATM   19  C27 UNL     1       1.015  54.734 -10.305  1.00  0.00     0.011 C 
HETATM   20  C28 UNL     1       1.878  55.587  -9.350  1.00  0.00     0.011 C 
HETATM   21  C29 UNL     1       1.530  55.505  -7.855  1.00  0.00    -0.032 C 
HETATM   22  C30 UNL     1       0.612  56.720  -7.508  1.00  0.00     0.016 C 
ENDROOT
BRANCH   1  23
HETATM   23  C7  UNL     1       3.446  56.871  -6.511  1.00  0.00    -0.014 C 
HETATM   24  C8  UNL     1       3.995  57.539  -7.786  1.00  0.00     0.010 C 
BRANCH  23  25
HETATM   25  C6  UNL     1       2.584  57.881  -5.721  1.00  0.00     0.008 C 
BRANCH  25  26
HETATM   26  C5  UNL     1       2.822  57.910  -4.207  1.00  0.00     0.028 C 
BRANCH  26  27
HETATM   27  C4  UNL     1       1.749  58.706  -3.514  1.00  0.00    -0.025 C 
HETATM   28  C2  UNL     1       0.481  58.334  -3.256  1.00  0.00    -0.091 C 
HETATM   29  C1  UNL     1      -0.137  57.022  -3.656  1.00  0.00     0.042 C 
HETATM   30  C3  UNL     1      -0.455  59.258  -2.518  1.00  0.00     0.042 C 
ENDBRANCH  26  27
ENDBRANCH  25  26
ENDBRANCH  23  25
ENDBRANCH   1  23
BRANCH   9  31
HETATM   31  O1  UNL     1      -1.489  50.687 -10.008  1.00  0.00    -0.389 OA
HETATM   32  H29 UNL     1      -2.067  50.206  -9.393  1.00  0.00     0.210 HD
ENDBRANCH   9  31
BRANCH  13  33
HETATM   33  O2  UNL     1      -3.316  51.696 -13.708  1.00  0.00    -0.395 OA
HETATM   34  H36 UNL     1      -4.172  51.241 -13.629  1.00  0.00     0.210 HD
ENDBRANCH  13  33
TORSDOF 6
ENDMDL
MODEL 6
REMARK minimizedAffinity -6.92519808
REMARK CNNscore 0.539016783
REMARK CNNaffinity 6.06270218
REMARK  6 active torsions:
REMARK  status: ('A' for Active; 'I' for Inactive)
REMARK    1  A    between atoms: C4_4  and  C5_5 
REMARK    2  A    between atoms: C5_5  and  C6_6 
REMARK    3  A    between atoms: C6_6  and  C7_7 
REMARK    4  A    between atoms: C7_7  and  C9_9 
REMARK    5  A    between atoms: C17_17  and  O1_18 
REMARK    6  A    between atoms: C21_22  and  O2_23 
ROOT
HETATM    1  C9  UNL     1     -13.236  46.077 -26.553  1.00  0.00    -0.002 C 
HETATM    2  C10 UNL     1     -12.720  44.712 -25.999  1.00  0.00     0.006 C 
HETATM    3  C11 UNL     1     -11.525  44.276 -26.868  1.00  0.00     0.011 C 
HETATM    4  C12 UNL     1     -11.150  45.531 -27.677  1.00  0.00    -0.032 C 
HETATM    5  C13 UNL     1     -10.259  46.396 -26.724  1.00  0.00     0.016 C 
HETATM    6  C14 UNL     1     -10.409  45.255 -29.022  1.00  0.00     0.003 C 
HETATM    7  C15 UNL     1      -9.098  44.467 -28.833  1.00  0.00     0.009 C 
HETATM    8  C16 UNL     1      -8.255  44.462 -30.102  1.00  0.00     0.039 C 
HETATM    9  C17 UNL     1      -7.693  45.870 -30.380  1.00  0.00     0.071 C 
HETATM   10  C18 UNL     1      -8.754  46.991 -30.066  1.00  0.00     0.029 C 
HETATM   11  C19 UNL     1      -8.526  48.269 -30.908  1.00  0.00     0.011 C 
HETATM   12  C20 UNL     1      -7.048  48.562 -31.123  1.00  0.00     0.033 C 
HETATM   13  C21 UNL     1      -6.297  47.438 -31.844  1.00  0.00     0.129 C 
HETATM   14  C22 UNL     1      -6.964  46.023 -31.770  1.00  0.00     0.010 C 
HETATM   15  C23 UNL     1      -7.895  45.773 -32.979  1.00  0.00     0.020 C 
HETATM   16  C24 UNL     1      -5.823  44.974 -31.920  1.00  0.00     0.020 C 
HETATM   17  C25 UNL     1     -10.278  46.539 -29.950  1.00  0.00    -0.033 C 
HETATM   18  C26 UNL     1     -10.852  46.203 -31.352  1.00  0.00     0.016 C 
HETATM   19  C27 UNL     1     -11.121  47.759 -29.424  1.00  0.00     0.011 C 
HETATM   20  C28 UNL     1     -12.414  47.519 -28.615  1.00  0.00     0.011 C 
HETATM   21  C29 UNL     1     -12.573  46.130 -27.975  1.00  0.00    -0.032 C 
HETATM   22  C30 UNL     1     -13.452  45.260 -28.928  1.00  0.00     0.016 C 
ENDROOT
BRANCH   1  23
HETATM   23  C7  UNL     1     -14.780  46.220 -26.405  1.00  0.00    -0.014 C 
HETATM   24  C8  UNL     1     -15.519  45.258 -27.352  1.00  0.00     0.010 C 
BRANCH  23  25
HETATM   25  C6  UNL     1     -15.308  46.045 -24.963  1.00  0.00     0.008 C 
BRANCH  25  26
HETATM   26  C5  UNL     1     -15.531  47.344 -24.179  1.00  0.00     0.028 C 
BRANCH  26  27
HETATM   27  C4  UNL     1     -15.458  47.090 -22.697  1.00  0.00    -0.025 C 
HETATM   28  C2  UNL     1     -16.420  46.595 -21.896  1.00  0.00    -0.091 C 
HETATM   29  C1  UNL     1     -17.809  46.223 -22.336  1.00  0.00     0.042 C 
HETATM   30  C3  UNL     1     -16.159  46.378 -20.427  1.00  0.00     0.042 C 
ENDBRANCH  26  27
ENDBRANCH  25  26
ENDBRANCH  23  25
ENDBRANCH   1  23
BRANCH   9  31
HETATM   31  O1  UNL     1      -6.657  46.086 -29.376  1.00  0.00    -0.389 OA
HETATM   32  H29 UNL     1      -6.168  45.257 -29.239  1.00  0.00     0.210 HD
ENDBRANCH   9  31
BRANCH  13  33
HETATM   33  O2  UNL     1      -6.092  47.843 -33.202  1.00  0.00    -0.395 OA
HETATM   34  H36 UNL     1      -5.408  47.264 -33.579  1.00  0.00     0.210 HD
ENDBRANCH  13  33
TORSDOF 6
ENDMDL
MODEL 7
REMARK minimizedAffinity -7.70971918
REMARK CNNscore 0.527670026
REMARK CNNaffinity 6.60666084
REMARK  6 active torsions:
REMARK  status: ('A' for Active; 'I' for Inactive)
REMARK    1  A    between atoms: C4_4  and  C5_5 
REMARK    2  A    between atoms: C5_5  and  C6_6 
REMARK    3  A    between atoms: C6_6  and  C7_7 
REMARK    4  A    between atoms: C7_7  and  C9_9 
REMARK    5  A    between atoms: C17_17  and  O1_18 
REMARK    6  A    between atoms: C21_22  and  O2_23 
ROOT
HETATM    1  C9  UNL     1       5.885  56.193  -7.844  1.00  0.00    -0.002 C 
HETATM    2  C10 UNL     1       6.666  55.156  -8.711  1.00  0.00     0.006 C 
HETATM    3  C11 UNL     1       5.639  54.173  -9.304  1.00  0.00     0.011 C 
HETATM    4  C12 UNL     1       4.273  54.841  -9.064  1.00  0.00    -0.032 C 
HETATM    5  C13 UNL     1       4.097  55.871 -10.230  1.00  0.00     0.016 C 
HETATM    6  C14 UNL     1       3.058  53.865  -9.006  1.00  0.00     0.003 C 
HETATM    7  C15 UNL     1       2.900  53.029 -10.292  1.00  0.00     0.009 C 
HETATM    8  C16 UNL     1       1.560  52.305 -10.332  1.00  0.00     0.039 C 
HETATM    9  C17 UNL     1       0.409  53.314 -10.515  1.00  0.00     0.071 C 
HETATM   10  C18 UNL     1       0.645  54.623  -9.672  1.00  0.00     0.029 C 
HETATM   11  C19 UNL     1      -0.681  55.322  -9.288  1.00  0.00     0.011 C 
HETATM   12  C20 UNL     1      -1.726  55.222 -10.391  1.00  0.00     0.033 C 
HETATM   13  C21 UNL     1      -2.096  53.782 -10.758  1.00  0.00     0.129 C 
HETATM   14  C22 UNL     1      -1.034  52.693 -10.380  1.00  0.00     0.010 C 
HETATM   15  C23 UNL     1      -1.313  52.094  -8.982  1.00  0.00     0.020 C 
HETATM   16  C24 UNL     1      -1.228  51.507 -11.369  1.00  0.00     0.020 C 
HETATM   17  C25 UNL     1       1.717  54.548  -8.495  1.00  0.00    -0.033 C 
HETATM   18  C26 UNL     1       1.159  53.723  -7.305  1.00  0.00     0.016 C 
HETATM   19  C27 UNL     1       1.948  56.001  -7.937  1.00  0.00     0.011 C 
HETATM   20  C28 UNL     1       3.302  56.382  -7.300  1.00  0.00     0.011 C 
HETATM   21  C29 UNL     1       4.499  55.483  -7.646  1.00  0.00    -0.032 C 
HETATM   22  C30 UNL     1       4.671  54.446  -6.490  1.00  0.00     0.016 C 
ENDROOT
BRANCH   1  23
HETATM   23  C7  UNL     1       6.709  56.656  -6.606  1.00  0.00    -0.014 C 
HETATM   24  C8  UNL     1       5.863  57.551  -5.682  1.00  0.00     0.010 C 
BRANCH  23  25
HETATM   25  C6  UNL     1       7.344  55.509  -5.788  1.00  0.00     0.008 C 
BRANCH  25  26
HETATM   26  C5  UNL     1       8.824  55.692  -5.431  1.00  0.00     0.028 C 
BRANCH  26  27
HETATM   27  C4  UNL     1       9.158  57.151  -5.278  1.00  0.00    -0.025 C 
HETATM   28  C2  UNL     1      10.336  57.696  -4.920  1.00  0.00    -0.091 C 
HETATM   29  C1  UNL     1      11.575  56.922  -4.558  1.00  0.00     0.042 C 
HETATM   30  C3  UNL     1      10.500  59.192  -4.846  1.00  0.00     0.042 C 
ENDBRANCH  26  27
ENDBRANCH  25  26
ENDBRANCH  23  25
ENDBRANCH   1  23
BRANCH   9  31
HETATM   31  O1  UNL     1       0.503  53.772 -11.897  1.00  0.00    -0.389 OA
HETATM   32  H29 UNL     1       0.745  53.023 -12.466  1.00  0.00     0.210 HD
ENDBRANCH   9  31
BRANCH  13  33
HETATM   33  O2  UNL     1      -3.369  53.488 -10.171  1.00  0.00    -0.395 OA
HETATM   34  H36 UNL     1      -3.715  52.692 -10.608  1.00  0.00     0.210 HD
ENDBRANCH  13  33
TORSDOF 6
ENDMDL
MODEL 8
REMARK minimizedAffinity -7.28675222
REMARK CNNscore 0.496402144
REMARK CNNaffinity 6.0419631
REMARK  6 active torsions:
REMARK  status: ('A' for Active; 'I' for Inactive)
REMARK    1  A    between atoms: C4_4  and  C5_5 
REMARK    2  A    between atoms: C5_5  and  C6_6 
REMARK    3  A    between atoms: C6_6  and  C7_7 
REMARK    4  A    between atoms: C7_7  and  C9_9 
REMARK    5  A    between atoms: C17_17  and  O1_18 
REMARK    6  A    between atoms: C21_22  and  O2_23 
ROOT
HETATM    1  C9  UNL     1      -7.525  47.667 -28.020  1.00  0.00    -0.002 C 
HETATM    2  C10 UNL     1      -8.097  48.488 -29.217  1.00  0.00     0.006 C 
HETATM    3  C11 UNL     1      -9.499  47.936 -29.536  1.00  0.00     0.011 C 
HETATM    4  C12 UNL     1      -9.858  47.055 -28.326  1.00  0.00    -0.032 C 
HETATM    5  C13 UNL     1     -10.394  48.038 -27.233  1.00  0.00     0.016 C 
HETATM    6  C14 UNL     1     -10.900  45.930 -28.612  1.00  0.00     0.003 C 
HETATM    7  C15 UNL     1     -12.238  46.475 -29.149  1.00  0.00     0.009 C 
HETATM    8  C16 UNL     1     -13.325  45.408 -29.145  1.00  0.00     0.039 C 
HETATM    9  C17 UNL     1     -13.730  45.059 -27.699  1.00  0.00     0.071 C 
HETATM   10  C18 UNL     1     -12.479  45.006 -26.742  1.00  0.00     0.029 C 
HETATM   11  C19 UNL     1     -12.701  44.060 -25.538  1.00  0.00     0.011 C 
HETATM   12  C20 UNL     1     -14.135  44.101 -25.028  1.00  0.00     0.033 C 
HETATM   13  C21 UNL     1     -15.172  43.698 -26.080  1.00  0.00     0.129 C 
HETATM   14  C22 UNL     1     -14.710  43.830 -27.571  1.00  0.00     0.010 C 
HETATM   15  C23 UNL     1     -14.104  42.508 -28.094  1.00  0.00     0.020 C 
HETATM   16  C24 UNL     1     -15.992  44.048 -28.427  1.00  0.00     0.020 C 
HETATM   17  C25 UNL     1     -11.045  44.881 -27.425  1.00  0.00    -0.033 C 
HETATM   18  C26 UNL     1     -10.837  43.452 -27.994  1.00  0.00     0.016 C 
HETATM   19  C27 UNL     1      -9.946  45.064 -26.314  1.00  0.00     0.011 C 
HETATM   20  C28 UNL     1      -8.557  45.630 -26.681  1.00  0.00     0.011 C 
HETATM   21  C29 UNL     1      -8.462  46.407 -28.004  1.00  0.00    -0.032 C 
HETATM   22  C30 UNL     1      -7.938  45.426 -29.101  1.00  0.00     0.016 C 
ENDROOT
BRANCH   1  23
HETATM   23  C7  UNL     1      -5.980  47.489 -28.119  1.00  0.00    -0.014 C 
HETATM   24  C8  UNL     1      -5.438  48.084 -29.432  1.00  0.00     0.010 C 
BRANCH  23  25
HETATM   25  C6  UNL     1      -5.188  48.057 -26.920  1.00  0.00     0.008 C 
BRANCH  25  26
HETATM   26  C5  UNL     1      -3.720  48.400 -27.200  1.00  0.00     0.028 C 
BRANCH  26  27
HETATM   27  C4  UNL     1      -3.063  48.972 -25.973  1.00  0.00    -0.025 C 
HETATM   28  C2  UNL     1      -2.194  49.998 -25.903  1.00  0.00    -0.091 C 
HETATM   29  C1  UNL     1      -1.669  50.771 -27.083  1.00  0.00     0.042 C 
HETATM   30  C3  UNL     1      -1.655  50.459 -24.573  1.00  0.00     0.042 C 
ENDBRANCH  26  27
ENDBRANCH  25  26
ENDBRANCH  23  25
ENDBRANCH   1  23
BRANCH   9  31
HETATM   31  O1  UNL     1     -14.487  46.207 -27.213  1.00  0.00    -0.389 OA
HETATM   32  H29 UNL     1     -15.046  46.547 -27.931  1.00  0.00     0.210 HD
ENDBRANCH   9  31
BRANCH  13  33
HETATM   33  O2  UNL     1     -15.603  42.364 -25.789  1.00  0.00    -0.395 OA
HETATM   34  H36 UNL     1     -16.427  42.209 -26.282  1.00  0.00     0.210 HD
ENDBRANCH  13  33
TORSDOF 6
ENDMDL
MODEL 9
REMARK minimizedAffinity -7.40847588
REMARK CNNscore 0.449884832
REMARK CNNaffinity 6.77374649
REMARK  6 active torsions:
REMARK  status: ('A' for Active; 'I' for Inactive)
REMARK    1  A    between atoms: C4_4  and  C5_5 
REMARK    2  A    between atoms: C5_5  and  C6_6 
REMARK    3  A    between atoms: C6_6  and  C7_7 
REMARK    4  A    between atoms: C7_7  and  C9_9 
REMARK    5  A    between atoms: C17_17  and  O1_18 
REMARK    6  A    between atoms: C21_22  and  O2_23 
ROOT
HETATM    1  C9  UNL     1       3.666  55.692  -8.839  1.00  0.00    -0.002 C 
HETATM    2  C10 UNL     1       4.517  54.929  -9.903  1.00  0.00     0.006 C 
HETATM    3  C11 UNL     1       3.625  53.834 -10.517  1.00  0.00     0.011 C 
HETATM    4  C12 UNL     1       2.197  54.189 -10.064  1.00  0.00    -0.032 C 
HETATM    5  C13 UNL     1       1.699  55.284 -11.065  1.00  0.00     0.016 C 
HETATM    6  C14 UNL     1       1.199  52.992 -10.017  1.00  0.00     0.003 C 
HETATM    7  C15 UNL     1       1.047  52.286 -11.379  1.00  0.00     0.009 C 
HETATM    8  C16 UNL     1      -0.132  51.320 -11.385  1.00  0.00     0.039 C 
HETATM    9  C17 UNL     1      -1.462  52.097 -11.326  1.00  0.00     0.071 C 
HETATM   10  C18 UNL     1      -1.374  53.328 -10.348  1.00  0.00     0.029 C 
HETATM   11  C19 UNL     1      -2.751  53.706  -9.752  1.00  0.00     0.011 C 
HETATM   12  C20 UNL     1      -3.882  53.521 -10.755  1.00  0.00     0.033 C 
HETATM   13  C21 UNL     1      -4.021  52.085 -11.267  1.00  0.00     0.129 C 
HETATM   14  C22 UNL     1      -2.740  51.192 -11.135  1.00  0.00     0.010 C 
HETATM   15  C23 UNL     1      -2.737  50.402  -9.806  1.00  0.00     0.020 C 
HETATM   16  C24 UNL     1      -2.827  50.106 -12.246  1.00  0.00     0.020 C 
HETATM   17  C25 UNL     1      -0.175  53.338  -9.297  1.00  0.00    -0.033 C 
HETATM   18  C26 UNL     1      -0.427  52.295  -8.175  1.00  0.00     0.016 C 
HETATM   19  C27 UNL     1      -0.151  54.739  -8.581  1.00  0.00     0.011 C 
HETATM   20  C28 UNL     1       1.174  55.308  -8.032  1.00  0.00     0.011 C 
HETATM   21  C29 UNL     1       2.468  54.705  -8.603  1.00  0.00    -0.032 C 
HETATM   22  C30 UNL     1       2.963  53.604  -7.612  1.00  0.00     0.016 C 
ENDROOT
BRANCH   1  23
HETATM   23  C7  UNL     1       4.531  56.172  -7.636  1.00  0.00    -0.014 C 
HETATM   24  C8  UNL     1       6.011  55.797  -7.833  1.00  0.00     0.010 C 
BRANCH  23  25
HETATM   25  C6  UNL     1       4.410  57.679  -7.316  1.00  0.00     0.008 C 
BRANCH  25  26
HETATM   26  C5  UNL     1       3.018  58.153  -6.880  1.00  0.00     0.028 C 
BRANCH  26  27
HETATM   27  C4  UNL     1       2.996  58.453  -5.405  1.00  0.00    -0.025 C 
HETATM   28  C2  UNL     1       2.095  58.045  -4.492  1.00  0.00    -0.091 C 
HETATM   29  C1  UNL     1       0.878  57.212  -4.788  1.00  0.00     0.042 C 
HETATM   30  C3  UNL     1       2.249  58.421  -3.040  1.00  0.00     0.042 C 
ENDBRANCH  26  27
ENDBRANCH  25  26
ENDBRANCH  23  25
ENDBRANCH   1  23
BRANCH   9  31
HETATM   31  O1  UNL     1      -1.619  52.711 -12.639  1.00  0.00    -0.389 OA
HETATM   32  H29 UNL     1      -1.312  52.090 -13.321  1.00  0.00     0.210 HD
ENDBRANCH   9  31
BRANCH  13  33
HETATM   33  O2  UNL     1      -5.140  51.484 -10.605  1.00  0.00    -0.395 OA
HETATM   34  H36 UNL     1      -5.383  50.687 -11.106  1.00  0.00     0.210 HD
ENDBRANCH  13  33
TORSDOF 6
ENDMDL
