MODEL 1
REMARK minimizedAffinity -8.66190624
REMARK  8 active torsions:
REMARK  status: ('A' for Active; 'I' for Inactive)
REMARK    1  A    between atoms: O1_2  and  C2_3 
REMARK    2  A    between atoms: C2_3  and  C3_4 
REMARK    3  A    between atoms: C3_4  and  O2_5 
REMARK    4  A    between atoms: O2_5  and  C4_6 
REMARK    5  A    between atoms: C7_9  and  C8_10 
REMARK    6  A    between atoms: C9_14  and  C10_15 
REMARK    7  A    between atoms: N2_19  and  C14_20 
REMARK    8  A    between atoms: C14_20  and  C15_21 
ROOT
HETATM    1  C8  UNL     1       0.194  52.355 -22.915  1.00  0.00     0.139 A 
HETATM    2  N1  UNL     1       0.696  53.253 -23.779  1.00  0.00    -0.242 N 
ATOM      3  H1  UNL     1       1.204  54.113 -23.569  1.00  0.00     0.196 HD
HETATM    4  O3  UNL     1       0.359  52.735 -25.029  1.00  0.00    -0.220 OA
HETATM    5  C9  UNL     1      -0.332  51.582 -24.797  1.00  0.00     0.182 A 
HETATM    6  N4  UNL     1      -0.476  51.314 -23.517  1.00  0.00    -0.321 N 
ATOM      7  H4  UNL     1      -0.962  50.531 -23.079  1.00  0.00     0.169 HD
ENDROOT
BRANCH   5   8
HETATM    8  C10 UNL     1      -0.825  50.840 -26.007  1.00  0.00     0.299 C 
HETATM    9  C11 UNL     1      -0.852  51.744 -27.241  1.00  0.00     0.046 C 
HETATM   10  C12 UNL     1      -2.279  52.269 -27.330  1.00  0.00     0.033 C 
HETATM   11  C13 UNL     1      -3.053  51.537 -26.244  1.00  0.00     0.274 C 
HETATM   12  N2  UNL     1      -2.228  50.390 -25.836  1.00  0.00     0.105 N 
BRANCH  12  13
HETATM   13  C14 UNL     1      -2.547  49.199 -26.635  1.00  0.00     0.314 C 
BRANCH  13  14
HETATM   14  C15 UNL     1      -3.915  48.683 -26.297  1.00  0.00    -0.002 A 
HETATM   15  C16 UNL     1      -4.441  48.539 -25.025  1.00  0.00     0.100 A 
HETATM   16  N3  UNL     1      -5.708  48.034 -25.134  1.00  0.00    -0.360 N 
HETATM   17  C17 UNL     1      -6.582  47.750 -24.018  1.00  0.00     0.155 C 
HETATM   18  C18 UNL     1      -6.033  47.834 -26.458  1.00  0.00     0.044 A 
HETATM   19  C19 UNL     1      -7.204  47.343 -27.057  1.00  0.00     0.030 A 
HETATM   20  C23 UNL     1      -4.924  48.233 -27.211  1.00  0.00     0.000 A 
HETATM   21  C20 UNL     1      -7.246  47.261 -28.452  1.00  0.00     0.002 A 
HETATM   22  C21 UNL     1      -6.158  47.653 -29.224  1.00  0.00     0.001 A 
HETATM   23  C22 UNL     1      -4.994  48.136 -28.617  1.00  0.00     0.014 A 
ENDBRANCH  13  14
ENDBRANCH  12  13
ENDBRANCH   5   8
BRANCH   1  24
HETATM   24  C7  UNL     1       0.326  52.458 -21.473  1.00  0.00     0.025 A 
HETATM   25  C6  UNL     1      -0.134  51.460 -20.608  1.00  0.00     0.021 A 
HETATM   26  C5  UNL     1       0.015  51.616 -19.229  1.00  0.00     0.057 A 
HETATM   27  C4  UNL     1       0.621  52.768 -18.755  1.00  0.00     0.141 A 
HETATM   28  N5  UNL     1       1.075  53.753 -19.554  1.00  0.00    -0.346 N 
HETATM   29  C24 UNL     1       0.918  53.575 -20.891  1.00  0.00     0.105 A 
ATOM     30  H5  UNL     1       1.516  54.591 -19.173  1.00  0.00     0.167 HD
BRANCH  27  31
HETATM   31  O2  UNL     1       0.732  52.881 -17.386  1.00  0.00    -0.334 OA
BRANCH  31  32
HETATM   32  C3  UNL     1       1.315  51.748 -16.735  1.00  0.00     0.203 C 
BRANCH  32  33
HETATM   33  C2  UNL     1       1.695  52.064 -15.286  1.00  0.00     0.193 C 
BRANCH  33  34
HETATM   34  O1  UNL     1       3.096  51.903 -15.050  1.00  0.00    -0.394 OA
HETATM   35  C1  UNL     1       3.900  52.507 -16.053  1.00  0.00     0.201 C 
ENDBRANCH  33  34
ENDBRANCH  32  33
ENDBRANCH  31  32
ENDBRANCH  27  31
ENDBRANCH   1  24
TORSDOF 8
ENDMDL
MODEL 2
REMARK minimizedAffinity -8.54673862
REMARK  8 active torsions:
REMARK  status: ('A' for Active; 'I' for Inactive)
REMARK    1  A    between atoms: O1_2  and  C2_3 
REMARK    2  A    between atoms: C2_3  and  C3_4 
REMARK    3  A    between atoms: C3_4  and  O2_5 
REMARK    4  A    between atoms: O2_5  and  C4_6 
REMARK    5  A    between atoms: C7_9  and  C8_10 
REMARK    6  A    between atoms: C9_14  and  C10_15 
REMARK    7  A    between atoms: N2_19  and  C14_20 
REMARK    8  A    between atoms: C14_20  and  C15_21 
ROOT
HETATM    1  C8  UNL     1      -3.747  49.146 -27.662  1.00  0.00     0.139 A 
HETATM    2  N1  UNL     1      -3.205  48.427 -26.665  1.00  0.00    -0.242 N 
ATOM      3  H1  UNL     1      -3.421  47.469 -26.390  1.00  0.00     0.196 HD
HETATM    4  O3  UNL     1      -2.279  49.299 -26.093  1.00  0.00    -0.220 OA
HETATM    5  C9  UNL     1      -2.366  50.469 -26.790  1.00  0.00     0.182 A 
HETATM    6  N4  UNL     1      -3.264  50.432 -27.751  1.00  0.00    -0.321 N 
ATOM      7  H4  UNL     1      -3.534  51.172 -28.400  1.00  0.00     0.169 HD
ENDROOT
BRANCH   5   8
HETATM    8  C10 UNL     1      -1.465  51.586 -26.342  1.00  0.00     0.299 C 
HETATM    9  C11 UNL     1      -0.845  52.312 -27.537  1.00  0.00     0.046 C 
HETATM   10  C12 UNL     1       0.521  51.669 -27.739  1.00  0.00     0.033 C 
HETATM   11  C13 UNL     1       0.699  50.709 -26.572  1.00  0.00     0.274 C 
HETATM   12  N2  UNL     1      -0.309  51.076 -25.566  1.00  0.00     0.105 N 
BRANCH  12  13
HETATM   13  C14 UNL     1       0.224  52.065 -24.619  1.00  0.00     0.314 C 
BRANCH  13  14
HETATM   14  C15 UNL     1      -0.264  51.785 -23.229  1.00  0.00    -0.002 A 
HETATM   15  C16 UNL     1      -1.194  50.826 -22.868  1.00  0.00     0.100 A 
HETATM   16  N3  UNL     1      -1.377  50.886 -21.513  1.00  0.00    -0.360 N 
HETATM   17  C17 UNL     1      -2.272  50.034 -20.763  1.00  0.00     0.155 C 
HETATM   18  C18 UNL     1      -0.588  51.874 -20.966  1.00  0.00     0.044 A 
HETATM   19  C19 UNL     1      -0.434  52.302 -19.637  1.00  0.00     0.030 A 
HETATM   20  C23 UNL     1       0.121  52.456 -22.021  1.00  0.00     0.000 A 
HETATM   21  C20 UNL     1       0.465  53.342 -19.380  1.00  0.00     0.002 A 
HETATM   22  C21 UNL     1       1.185  53.936 -20.412  1.00  0.00     0.001 A 
HETATM   23  C22 UNL     1       1.019  53.505 -21.732  1.00  0.00     0.014 A 
ENDBRANCH  13  14
ENDBRANCH  12  13
ENDBRANCH   5   8
BRANCH   1  24
HETATM   24  C7  UNL     1      -4.757  48.636 -28.571  1.00  0.00     0.025 A 
HETATM   25  C6  UNL     1      -5.626  47.598 -28.217  1.00  0.00     0.021 A 
HETATM   26  C5  UNL     1      -6.573  47.146 -29.135  1.00  0.00     0.057 A 
HETATM   27  C4  UNL     1      -6.626  47.745 -30.383  1.00  0.00     0.141 A 
HETATM   28  N5  UNL     1      -5.808  48.745 -30.764  1.00  0.00    -0.346 N 
HETATM   29  C24 UNL     1      -4.895  49.167 -29.850  1.00  0.00     0.105 A 
ATOM     30  H5  UNL     1      -5.870  49.165 -31.691  1.00  0.00     0.167 HD
BRANCH  27  31
HETATM   31  O2  UNL     1      -7.571  47.253 -31.258  1.00  0.00    -0.334 OA
BRANCH  31  32
HETATM   32  C3  UNL     1      -7.477  47.761 -32.592  1.00  0.00     0.203 C 
BRANCH  32  33
HETATM   33  C2  UNL     1      -6.359  47.073 -33.379  1.00  0.00     0.193 C 
BRANCH  33  34
HETATM   34  O1  UNL     1      -5.394  48.007 -33.871  1.00  0.00    -0.394 OA
HETATM   35  C1  UNL     1      -4.057  47.545 -33.737  1.00  0.00     0.201 C 
ENDBRANCH  33  34
ENDBRANCH  32  33
ENDBRANCH  31  32
ENDBRANCH  27  31
ENDBRANCH   1  24
TORSDOF 8
ENDMDL
MODEL 3
REMARK minimizedAffinity -8.4536581
REMARK  8 active torsions:
REMARK  status: ('A' for Active; 'I' for Inactive)
REMARK    1  A    between atoms: O1_2  and  C2_3 
REMARK    2  A    between atoms: C2_3  and  C3_4 
REMARK    3  A    between atoms: C3_4  and  O2_5 
REMARK    4  A    between atoms: O2_5  and  C4_6 
REMARK    5  A    between atoms: C7_9  and  C8_10 
REMARK    6  A    between atoms: C9_14  and  C10_15 
REMARK    7  A    between atoms: N2_19  and  C14_20 
REMARK    8  A    between atoms: C14_20  and  C15_21 
ROOT
HETATM    1  C8  UNL     1      -3.894  49.010 -27.657  1.00  0.00     0.139 A 
HETATM    2  N1  UNL     1      -3.170  48.286 -26.787  1.00  0.00    -0.242 N 
ATOM      3  H1  UNL     1      -3.255  47.293 -26.570  1.00  0.00     0.196 HD
HETATM    4  O3  UNL     1      -2.274  49.211 -26.252  1.00  0.00    -0.220 OA
HETATM    5  C9  UNL     1      -2.558  50.410 -26.837  1.00  0.00     0.182 A 
HETATM    6  N4  UNL     1      -3.556  50.344 -27.693  1.00  0.00    -0.321 N 
ATOM      7  H4  UNL     1      -3.973  51.094 -28.245  1.00  0.00     0.169 HD
ENDROOT
BRANCH   5   8
HETATM    8  C10 UNL     1      -1.727  51.584 -26.401  1.00  0.00     0.299 C 
HETATM    9  C11 UNL     1      -1.160  52.340 -27.604  1.00  0.00     0.046 C 
HETATM   10  C12 UNL     1       0.242  51.783 -27.812  1.00  0.00     0.033 C 
HETATM   11  C13 UNL     1       0.487  50.844 -26.641  1.00  0.00     0.274 C 
HETATM   12  N2  UNL     1      -0.536  51.152 -25.630  1.00  0.00     0.105 N 
BRANCH  12  13
HETATM   13  C14 UNL     1      -0.060  52.178 -24.692  1.00  0.00     0.314 C 
BRANCH  13  14
HETATM   14  C15 UNL     1      -0.367  51.787 -23.277  1.00  0.00    -0.002 A 
HETATM   15  C16 UNL     1      -1.199  50.755 -22.878  1.00  0.00     0.100 A 
HETATM   16  N3  UNL     1      -1.224  50.723 -21.509  1.00  0.00    -0.360 N 
HETATM   17  C17 UNL     1      -1.980  49.777 -20.721  1.00  0.00     0.155 C 
HETATM   18  C18 UNL     1      -0.427  51.721 -20.991  1.00  0.00     0.044 A 
HETATM   19  C19 UNL     1      -0.141  52.075 -19.663  1.00  0.00     0.030 A 
HETATM   20  C23 UNL     1       0.122  52.405 -22.079  1.00  0.00     0.000 A 
HETATM   21  C20 UNL     1       0.729  53.148 -19.441  1.00  0.00     0.002 A 
HETATM   22  C21 UNL     1       1.292  53.844 -20.506  1.00  0.00     0.001 A 
HETATM   23  C22 UNL     1       0.994  53.485 -21.825  1.00  0.00     0.014 A 
ENDBRANCH  13  14
ENDBRANCH  12  13
ENDBRANCH   5   8
BRANCH   1  24
HETATM   24  C7  UNL     1      -4.950  48.459 -28.487  1.00  0.00     0.025 A 
HETATM   25  C6  UNL     1      -5.958  47.639 -27.968  1.00  0.00     0.021 A 
HETATM   26  C5  UNL     1      -6.943  47.133 -28.817  1.00  0.00     0.057 A 
HETATM   27  C4  UNL     1      -6.892  47.462 -30.162  1.00  0.00     0.141 A 
HETATM   28  N5  UNL     1      -5.938  48.246 -30.701  1.00  0.00    -0.346 N 
HETATM   29  C24 UNL     1      -4.992  48.725 -29.853  1.00  0.00     0.105 A 
ATOM     30  H5  UNL     1      -5.927  48.468 -31.696  1.00  0.00     0.167 HD
BRANCH  27  31
HETATM   31  O2  UNL     1      -7.880  46.926 -30.959  1.00  0.00    -0.334 OA
BRANCH  31  32
HETATM   32  C3  UNL     1      -8.831  47.873 -31.455  1.00  0.00     0.203 C 
BRANCH  32  33
HETATM   33  C2  UNL     1     -10.003  48.053 -30.487  1.00  0.00     0.193 C 
BRANCH  33  34
HETATM   34  O1  UNL     1     -11.158  47.315 -30.897  1.00  0.00    -0.394 OA
HETATM   35  C1  UNL     1     -12.213  47.365 -29.947  1.00  0.00     0.201 C 
ENDBRANCH  33  34
ENDBRANCH  32  33
ENDBRANCH  31  32
ENDBRANCH  27  31
ENDBRANCH   1  24
TORSDOF 8
ENDMDL
MODEL 4
REMARK minimizedAffinity -8.37358952
REMARK  8 active torsions:
REMARK  status: ('A' for Active; 'I' for Inactive)
REMARK    1  A    between atoms: O1_2  and  C2_3 
REMARK    2  A    between atoms: C2_3  and  C3_4 
REMARK    3  A    between atoms: C3_4  and  O2_5 
REMARK    4  A    between atoms: O2_5  and  C4_6 
REMARK    5  A    between atoms: C7_9  and  C8_10 
REMARK    6  A    between atoms: C9_14  and  C10_15 
REMARK    7  A    between atoms: N2_19  and  C14_20 
REMARK    8  A    between atoms: C14_20  and  C15_21 
ROOT
HETATM    1  C8  UNL     1      -3.933  48.973 -27.608  1.00  0.00     0.139 A 
HETATM    2  N1  UNL     1      -3.171  48.260 -26.762  1.00  0.00    -0.242 N 
ATOM      3  H1  UNL     1      -3.228  47.264 -26.551  1.00  0.00     0.196 HD
HETATM    4  O3  UNL     1      -2.285  49.202 -26.240  1.00  0.00    -0.220 OA
HETATM    5  C9  UNL     1      -2.612  50.398 -26.808  1.00  0.00     0.182 A 
HETATM    6  N4  UNL     1      -3.627  50.316 -27.641  1.00  0.00    -0.321 N 
ATOM      7  H4  UNL     1      -4.075  51.059 -28.177  1.00  0.00     0.169 HD
ENDROOT
BRANCH   5   8
HETATM    8  C10 UNL     1      -1.798  51.588 -26.382  1.00  0.00     0.299 C 
HETATM    9  C11 UNL     1      -1.292  52.377 -27.591  1.00  0.00     0.046 C 
HETATM   10  C12 UNL     1       0.117  51.861 -27.853  1.00  0.00     0.033 C 
HETATM   11  C13 UNL     1       0.426  50.912 -26.705  1.00  0.00     0.274 C 
HETATM   12  N2  UNL     1      -0.571  51.178 -25.657  1.00  0.00     0.105 N 
BRANCH  12  13
HETATM   13  C14 UNL     1      -0.092  52.203 -24.719  1.00  0.00     0.314 C 
BRANCH  13  14
HETATM   14  C15 UNL     1      -0.387  51.805 -23.303  1.00  0.00    -0.002 A 
HETATM   15  C16 UNL     1      -1.216  50.774 -22.900  1.00  0.00     0.100 A 
HETATM   16  N3  UNL     1      -1.229  50.736 -21.532  1.00  0.00    -0.360 N 
HETATM   17  C17 UNL     1      -1.980  49.787 -20.741  1.00  0.00     0.155 C 
HETATM   18  C18 UNL     1      -0.425  51.729 -21.017  1.00  0.00     0.044 A 
HETATM   19  C19 UNL     1      -0.125  52.077 -19.690  1.00  0.00     0.030 A 
HETATM   20  C23 UNL     1       0.116  52.417 -22.107  1.00  0.00     0.000 A 
HETATM   21  C20 UNL     1       0.749  53.147 -19.471  1.00  0.00     0.002 A 
HETATM   22  C21 UNL     1       1.303  53.846 -20.538  1.00  0.00     0.001 A 
HETATM   23  C22 UNL     1       0.992  53.494 -21.856  1.00  0.00     0.014 A 
ENDBRANCH  13  14
ENDBRANCH  12  13
ENDBRANCH   5   8
BRANCH   1  24
HETATM   24  C7  UNL     1      -4.994  48.404 -28.418  1.00  0.00     0.025 A 
HETATM   25  C6  UNL     1      -6.038  47.655 -27.864  1.00  0.00     0.021 A 
HETATM   26  C5  UNL     1      -7.027  47.127 -28.694  1.00  0.00     0.057 A 
HETATM   27  C4  UNL     1      -6.945  47.364 -30.057  1.00  0.00     0.141 A 
HETATM   28  N5  UNL     1      -5.956  48.077 -30.630  1.00  0.00    -0.346 N 
HETATM   29  C24 UNL     1      -5.007  48.580 -29.799  1.00  0.00     0.105 A 
ATOM     30  H5  UNL     1      -5.922  48.232 -31.638  1.00  0.00     0.167 HD
BRANCH  27  31
HETATM   31  O2  UNL     1      -7.939  46.810 -30.834  1.00  0.00    -0.334 OA
BRANCH  31  32
HETATM   32  C3  UNL     1      -7.870  45.388 -30.975  1.00  0.00     0.203 C 
BRANCH  32  33
HETATM   33  C2  UNL     1      -6.425  44.886 -30.919  1.00  0.00     0.193 C 
BRANCH  33  34
HETATM   34  O1  UNL     1      -5.900  44.612 -32.221  1.00  0.00    -0.394 OA
HETATM   35  C1  UNL     1      -4.638  45.222 -32.449  1.00  0.00     0.201 C 
ENDBRANCH  33  34
ENDBRANCH  32  33
ENDBRANCH  31  32
ENDBRANCH  27  31
ENDBRANCH   1  24
TORSDOF 8
ENDMDL
MODEL 5
REMARK minimizedAffinity -8.29485703
REMARK  8 active torsions:
REMARK  status: ('A' for Active; 'I' for Inactive)
REMARK    1  A    between atoms: O1_2  and  C2_3 
REMARK    2  A    between atoms: C2_3  and  C3_4 
REMARK    3  A    between atoms: C3_4  and  O2_5 
REMARK    4  A    between atoms: O2_5  and  C4_6 
REMARK    5  A    between atoms: C7_9  and  C8_10 
REMARK    6  A    between atoms: C9_14  and  C10_15 
REMARK    7  A    between atoms: N2_19  and  C14_20 
REMARK    8  A    between atoms: C14_20  and  C15_21 
ROOT
HETATM    1  C8  UNL     1       0.173  52.377 -22.992  1.00  0.00     0.139 A 
HETATM    2  N1  UNL     1       0.559  53.339 -23.846  1.00  0.00    -0.242 N 
ATOM      3  H1  UNL     1       0.986  54.240 -23.629  1.00  0.00     0.196 HD
HETATM    4  O3  UNL     1       0.238  52.818 -25.099  1.00  0.00    -0.220 OA
HETATM    5  C9  UNL     1      -0.329  51.597 -24.878  1.00  0.00     0.182 A 
HETATM    6  N4  UNL     1      -0.408  51.288 -23.601  1.00  0.00    -0.321 N 
ATOM      7  H4  UNL     1      -0.802  50.451 -23.170  1.00  0.00     0.169 HD
ENDROOT
BRANCH   5   8
HETATM    8  C10 UNL     1      -0.783  50.837 -26.092  1.00  0.00     0.299 C 
HETATM    9  C11 UNL     1      -0.919  51.758 -27.306  1.00  0.00     0.046 C 
HETATM   10  C12 UNL     1      -2.388  52.155 -27.353  1.00  0.00     0.033 C 
HETATM   11  C13 UNL     1      -3.069  51.337 -26.266  1.00  0.00     0.274 C 
HETATM   12  N2  UNL     1      -2.136  50.261 -25.900  1.00  0.00     0.105 N 
BRANCH  12  13
HETATM   13  C14 UNL     1      -2.366  49.061 -26.717  1.00  0.00     0.314 C 
BRANCH  13  14
HETATM   14  C15 UNL     1      -3.792  48.608 -26.604  1.00  0.00    -0.002 A 
HETATM   15  C16 UNL     1      -4.652  48.346 -27.656  1.00  0.00     0.100 A 
HETATM   16  N3  UNL     1      -5.862  47.964 -27.143  1.00  0.00    -0.360 N 
HETATM   17  C17 UNL     1      -7.016  47.603 -27.935  1.00  0.00     0.155 C 
HETATM   18  C18 UNL     1      -5.824  47.973 -25.766  1.00  0.00     0.044 A 
HETATM   19  C19 UNL     1      -6.807  47.658 -24.814  1.00  0.00     0.030 A 
HETATM   20  C23 UNL     1      -4.536  48.374 -25.400  1.00  0.00     0.000 A 
HETATM   21  C20 UNL     1      -6.468  47.751 -23.461  1.00  0.00     0.002 A 
HETATM   22  C21 UNL     1      -5.192  48.146 -23.070  1.00  0.00     0.001 A 
HETATM   23  C22 UNL     1      -4.222  48.462 -24.027  1.00  0.00     0.014 A 
ENDBRANCH  13  14
ENDBRANCH  12  13
ENDBRANCH   5   8
BRANCH   1  24
HETATM   24  C7  UNL     1       0.338  52.459 -21.552  1.00  0.00     0.025 A 
HETATM   25  C6  UNL     1      -0.161  51.481 -20.686  1.00  0.00     0.021 A 
HETATM   26  C5  UNL     1       0.022  51.618 -19.309  1.00  0.00     0.057 A 
HETATM   27  C4  UNL     1       0.699  52.730 -18.838  1.00  0.00     0.141 A 
HETATM   28  N5  UNL     1       1.193  53.696 -19.638  1.00  0.00    -0.346 N 
HETATM   29  C24 UNL     1       1.001  53.537 -20.973  1.00  0.00     0.105 A 
ATOM     30  H5  UNL     1       1.686  54.505 -19.260  1.00  0.00     0.167 HD
BRANCH  27  31
HETATM   31  O2  UNL     1       0.842  52.825 -17.470  1.00  0.00    -0.334 OA
BRANCH  31  32
HETATM   32  C3  UNL     1       0.605  51.608 -16.756  1.00  0.00     0.203 C 
BRANCH  32  33
HETATM   33  C2  UNL     1       1.055  51.716 -15.296  1.00  0.00     0.193 C 
BRANCH  33  34
HETATM   34  O1  UNL     1       1.993  50.696 -14.946  1.00  0.00    -0.394 OA
HETATM   35  C1  UNL     1       1.548  49.878 -13.873  1.00  0.00     0.201 C 
ENDBRANCH  33  34
ENDBRANCH  32  33
ENDBRANCH  31  32
ENDBRANCH  27  31
ENDBRANCH   1  24
TORSDOF 8
ENDMDL
MODEL 6
REMARK minimizedAffinity -8.26453686
REMARK  8 active torsions:
REMARK  status: ('A' for Active; 'I' for Inactive)
REMARK    1  A    between atoms: O1_2  and  C2_3 
REMARK    2  A    between atoms: C2_3  and  C3_4 
REMARK    3  A    between atoms: C3_4  and  O2_5 
REMARK    4  A    between atoms: O2_5  and  C4_6 
REMARK    5  A    between atoms: C7_9  and  C8_10 
REMARK    6  A    between atoms: C9_14  and  C10_15 
REMARK    7  A    between atoms: N2_19  and  C14_20 
REMARK    8  A    between atoms: C14_20  and  C15_21 
ROOT
HETATM    1  C8  UNL     1       0.740  52.463 -19.015  1.00  0.00     0.139 A 
HETATM    2  N1  UNL     1       1.337  53.185 -18.052  1.00  0.00    -0.242 N 
ATOM      3  H1  UNL     1       1.878  54.044 -18.153  1.00  0.00     0.196 HD
HETATM    4  O3  UNL     1       1.044  52.485 -16.883  1.00  0.00    -0.220 OA
HETATM    5  C9  UNL     1       0.313  51.395 -17.256  1.00  0.00     0.182 A 
HETATM    6  N4  UNL     1       0.114  51.326 -18.555  1.00  0.00    -0.321 N 
ATOM      7  H4  UNL     1      -0.380  50.609 -19.088  1.00  0.00     0.169 HD
ENDROOT
BRANCH   5   8
HETATM    8  C10 UNL     1      -0.112  50.462 -16.156  1.00  0.00     0.299 C 
HETATM    9  C11 UNL     1      -0.803  49.219 -16.719  1.00  0.00     0.046 C 
HETATM   10  C12 UNL     1      -2.295  49.519 -16.657  1.00  0.00     0.033 C 
HETATM   11  C13 UNL     1      -2.415  50.850 -15.929  1.00  0.00     0.274 C 
HETATM   12  N2  UNL     1      -1.123  51.090 -15.270  1.00  0.00     0.105 N 
BRANCH  12  13
HETATM   13  C14 UNL     1      -1.112  50.535 -13.910  1.00  0.00     0.314 C 
BRANCH  13  14
HETATM   14  C15 UNL     1      -0.970  51.629 -12.892  1.00  0.00    -0.002 A 
HETATM   15  C16 UNL     1       0.216  52.205 -12.473  1.00  0.00     0.100 A 
HETATM   16  N3  UNL     1      -0.073  53.158 -11.534  1.00  0.00    -0.360 N 
HETATM   17  C17 UNL     1       0.910  53.980 -10.865  1.00  0.00     0.155 C 
HETATM   18  C18 UNL     1      -1.432  53.222 -11.316  1.00  0.00     0.044 A 
HETATM   19  C19 UNL     1      -2.191  54.034 -10.460  1.00  0.00     0.030 A 
HETATM   20  C23 UNL     1      -2.020  52.271 -12.156  1.00  0.00     0.000 A 
HETATM   21  C20 UNL     1      -3.581  53.876 -10.463  1.00  0.00     0.002 A 
HETATM   22  C21 UNL     1      -4.192  52.940 -11.291  1.00  0.00     0.001 A 
HETATM   23  C22 UNL     1      -3.424  52.132 -12.136  1.00  0.00     0.014 A 
ENDBRANCH  13  14
ENDBRANCH  12  13
ENDBRANCH   5   8
BRANCH   1  24
HETATM   24  C7  UNL     1       0.748  52.824 -20.421  1.00  0.00     0.025 A 
HETATM   25  C6  UNL     1       0.016  52.115 -21.379  1.00  0.00     0.021 A 
HETATM   26  C5  UNL     1       0.068  52.506 -22.717  1.00  0.00     0.057 A 
HETATM   27  C4  UNL     1       0.850  53.597 -23.060  1.00  0.00     0.141 A 
HETATM   28  N5  UNL     1       1.571  54.305 -22.168  1.00  0.00    -0.346 N 
HETATM   29  C24 UNL     1       1.502  53.904 -20.873  1.00  0.00     0.105 A 
ATOM     30  H5  UNL     1       2.139  55.103 -22.452  1.00  0.00     0.167 HD
BRANCH  27  31
HETATM   31  O2  UNL     1       0.877  53.934 -24.396  1.00  0.00    -0.334 OA
BRANCH  31  32
HETATM   32  C3  UNL     1      -0.137  53.316 -25.192  1.00  0.00     0.203 C 
BRANCH  32  33
HETATM   33  C2  UNL     1       0.422  52.150 -26.012  1.00  0.00     0.193 C 
BRANCH  33  34
HETATM   34  O1  UNL     1       1.537  52.544 -26.817  1.00  0.00    -0.394 OA
HETATM   35  C1  UNL     1       2.585  51.586 -26.819  1.00  0.00     0.201 C 
ENDBRANCH  33  34
ENDBRANCH  32  33
ENDBRANCH  31  32
ENDBRANCH  27  31
ENDBRANCH   1  24
TORSDOF 8
ENDMDL
MODEL 7
REMARK minimizedAffinity -8.23159599
REMARK  8 active torsions:
REMARK  status: ('A' for Active; 'I' for Inactive)
REMARK    1  A    between atoms: O1_2  and  C2_3 
REMARK    2  A    between atoms: C2_3  and  C3_4 
REMARK    3  A    between atoms: C3_4  and  O2_5 
REMARK    4  A    between atoms: O2_5  and  C4_6 
REMARK    5  A    between atoms: C7_9  and  C8_10 
REMARK    6  A    between atoms: C9_14  and  C10_15 
REMARK    7  A    between atoms: N2_19  and  C14_20 
REMARK    8  A    between atoms: C14_20  and  C15_21 
ROOT
HETATM    1  C8  UNL     1       0.801  52.305 -18.668  1.00  0.00     0.139 A 
HETATM    2  N1  UNL     1       1.419  53.122 -17.799  1.00  0.00    -0.242 N 
ATOM      3  H1  UNL     1       1.910  53.995 -17.995  1.00  0.00     0.196 HD
HETATM    4  O3  UNL     1       1.234  52.496 -16.567  1.00  0.00    -0.220 OA
HETATM    5  C9  UNL     1       0.537  51.350 -16.815  1.00  0.00     0.182 A 
HETATM    6  N4  UNL     1       0.263  51.177 -18.090  1.00  0.00    -0.321 N 
ATOM      7  H4  UNL     1      -0.226  50.402 -18.539  1.00  0.00     0.169 HD
ENDROOT
BRANCH   5   8
HETATM    8  C10 UNL     1       0.228  50.482 -15.628  1.00  0.00     0.299 C 
HETATM    9  C11 UNL     1      -0.307  49.116 -16.062  1.00  0.00     0.046 C 
HETATM   10  C12 UNL     1      -1.824  49.239 -16.013  1.00  0.00     0.033 C 
HETATM   11  C13 UNL     1      -2.105  50.608 -15.413  1.00  0.00     0.274 C 
HETATM   12  N2  UNL     1      -0.852  51.064 -14.794  1.00  0.00     0.105 N 
BRANCH  12  13
HETATM   13  C14 UNL     1      -0.774  50.646 -13.387  1.00  0.00     0.314 C 
BRANCH  13  14
HETATM   14  C15 UNL     1      -0.808  51.839 -12.477  1.00  0.00    -0.002 A 
HETATM   15  C16 UNL     1       0.280  52.597 -12.084  1.00  0.00     0.100 A 
HETATM   16  N3  UNL     1      -0.160  53.589 -11.250  1.00  0.00    -0.360 N 
HETATM   17  C17 UNL     1       0.687  54.587 -10.638  1.00  0.00     0.155 C 
HETATM   18  C18 UNL     1      -1.524  53.500 -11.077  1.00  0.00     0.044 A 
HETATM   19  C19 UNL     1      -2.411  54.286 -10.324  1.00  0.00     0.030 A 
HETATM   20  C23 UNL     1      -1.957  52.409 -11.836  1.00  0.00     0.000 A 
HETATM   21  C20 UNL     1      -3.769  53.955 -10.350  1.00  0.00     0.002 A 
HETATM   22  C21 UNL     1      -4.227  52.876 -11.099  1.00  0.00     0.001 A 
HETATM   23  C22 UNL     1      -3.333  52.096 -11.840  1.00  0.00     0.014 A 
ENDBRANCH  13  14
ENDBRANCH  12  13
ENDBRANCH   5   8
BRANCH   1  24
HETATM   24  C7  UNL     1       0.704  52.563 -20.094  1.00  0.00     0.025 A 
HETATM   25  C6  UNL     1       1.301  53.677 -20.694  1.00  0.00     0.021 A 
HETATM   26  C5  UNL     1       1.169  53.876 -22.068  1.00  0.00     0.057 A 
HETATM   27  C4  UNL     1       0.442  52.955 -22.804  1.00  0.00     0.141 A 
HETATM   28  N5  UNL     1      -0.149  51.871 -22.265  1.00  0.00    -0.346 N 
HETATM   29  C24 UNL     1      -0.004  51.701 -20.926  1.00  0.00     0.105 A 
ATOM     30  H5  UNL     1      -0.679  51.211 -22.834  1.00  0.00     0.167 HD
BRANCH  27  31
HETATM   31  O2  UNL     1       0.330  53.204 -24.155  1.00  0.00    -0.334 OA
BRANCH  31  32
HETATM   32  C3  UNL     1       0.171  52.039 -24.970  1.00  0.00     0.203 C 
BRANCH  32  33
HETATM   33  C2  UNL     1       0.368  52.358 -26.454  1.00  0.00     0.193 C 
BRANCH  33  34
HETATM   34  O1  UNL     1       1.747  52.524 -26.790  1.00  0.00    -0.394 OA
HETATM   35  C1  UNL     1       2.528  51.371 -26.513  1.00  0.00     0.201 C 
ENDBRANCH  33  34
ENDBRANCH  32  33
ENDBRANCH  31  32
ENDBRANCH  27  31
ENDBRANCH   1  24
TORSDOF 8
ENDMDL
MODEL 8
REMARK minimizedAffinity -8.09644794
REMARK  8 active torsions:
REMARK  status: ('A' for Active; 'I' for Inactive)
REMARK    1  A    between atoms: O1_2  and  C2_3 
REMARK    2  A    between atoms: C2_3  and  C3_4 
REMARK    3  A    between atoms: C3_4  and  O2_5 
REMARK    4  A    between atoms: O2_5  and  C4_6 
REMARK    5  A    between atoms: C7_9  and  C8_10 
REMARK    6  A    between atoms: C9_14  and  C10_15 
REMARK    7  A    between atoms: N2_19  and  C14_20 
REMARK    8  A    between atoms: C14_20  and  C15_21 
ROOT
HETATM    1  C8  UNL     1      -3.707  49.081 -27.500  1.00  0.00     0.139 A 
HETATM    2  N1  UNL     1      -2.941  48.492 -26.568  1.00  0.00    -0.242 N 
ATOM      3  H1  UNL     1      -3.018  47.545 -26.195  1.00  0.00     0.196 HD
HETATM    4  O3  UNL     1      -2.015  49.478 -26.228  1.00  0.00    -0.220 OA
HETATM    5  C9  UNL     1      -2.325  50.575 -26.977  1.00  0.00     0.182 A 
HETATM    6  N4  UNL     1      -3.366  50.389 -27.760  1.00  0.00    -0.321 N 
ATOM      7  H4  UNL     1      -3.810  51.049 -28.399  1.00  0.00     0.169 HD
ENDROOT
BRANCH   5   8
HETATM    8  C10 UNL     1      -1.468  51.792 -26.772  1.00  0.00     0.299 C 
HETATM    9  C11 UNL     1      -0.618  52.088 -28.009  1.00  0.00     0.046 C 
HETATM   10  C12 UNL     1       0.732  51.438 -27.740  1.00  0.00     0.033 C 
HETATM   11  C13 UNL     1       0.663  50.926 -26.309  1.00  0.00     0.274 C 
HETATM   12  N2  UNL     1      -0.487  51.590 -25.678  1.00  0.00     0.105 N 
BRANCH  12  13
HETATM   13  C14 UNL     1      -0.083  52.847 -25.034  1.00  0.00     0.314 C 
BRANCH  13  14
HETATM   14  C15 UNL     1       0.118  52.647 -23.560  1.00  0.00    -0.002 A 
HETATM   15  C16 UNL     1       0.875  53.449 -22.724  1.00  0.00     0.100 A 
HETATM   16  N3  UNL     1       0.815  52.933 -21.457  1.00  0.00    -0.360 N 
HETATM   17  C17 UNL     1       1.476  53.500 -20.304  1.00  0.00     0.155 C 
HETATM   18  C18 UNL     1       0.036  51.797 -21.438  1.00  0.00     0.044 A 
HETATM   19  C19 UNL     1      -0.314  50.936 -20.385  1.00  0.00     0.030 A 
HETATM   20  C23 UNL     1      -0.414  51.593 -22.746  1.00  0.00     0.000 A 
HETATM   21  C20 UNL     1      -1.145  49.848 -20.673  1.00  0.00     0.002 A 
HETATM   22  C21 UNL     1      -1.608  49.624 -21.965  1.00  0.00     0.001 A 
HETATM   23  C22 UNL     1      -1.248  50.485 -23.007  1.00  0.00     0.014 A 
ENDBRANCH  13  14
ENDBRANCH  12  13
ENDBRANCH   5   8
BRANCH   1  24
HETATM   24  C7  UNL     1      -4.807  48.420 -28.180  1.00  0.00     0.025 A 
HETATM   25  C6  UNL     1      -5.777  47.685 -27.491  1.00  0.00     0.021 A 
HETATM   26  C5  UNL     1      -6.808  47.066 -28.199  1.00  0.00     0.057 A 
HETATM   27  C4  UNL     1      -6.839  47.201 -29.578  1.00  0.00     0.141 A 
HETATM   28  N5  UNL     1      -5.924  47.898 -30.278  1.00  0.00    -0.346 N 
HETATM   29  C24 UNL     1      -4.932  48.490 -29.564  1.00  0.00     0.105 A 
ATOM     30  H5  UNL     1      -5.973  47.977 -31.294  1.00  0.00     0.167 HD
BRANCH  27  31
HETATM   31  O2  UNL     1      -7.870  46.560 -30.231  1.00  0.00    -0.334 OA
BRANCH  31  32
HETATM   32  C3  UNL     1      -8.602  45.628 -29.430  1.00  0.00     0.203 C 
BRANCH  32  33
HETATM   33  C2  UNL     1     -10.009  46.142 -29.113  1.00  0.00     0.193 C 
BRANCH  33  34
HETATM   34  O1  UNL     1     -10.489  47.046 -30.111  1.00  0.00    -0.394 OA
HETATM   35  C1  UNL     1     -11.732  47.642 -29.767  1.00  0.00     0.201 C 
ENDBRANCH  33  34
ENDBRANCH  32  33
ENDBRANCH  31  32
ENDBRANCH  27  31
ENDBRANCH   1  24
TORSDOF 8
ENDMDL
MODEL 9
REMARK minimizedAffinity -8.05825806
REMARK  8 active torsions:
REMARK  status: ('A' for Active; 'I' for Inactive)
REMARK    1  A    between atoms: O1_2  and  C2_3 
REMARK    2  A    between atoms: C2_3  and  C3_4 
REMARK    3  A    between atoms: C3_4  and  O2_5 
REMARK    4  A    between atoms: O2_5  and  C4_6 
REMARK    5  A    between atoms: C7_9  and  C8_10 
REMARK    6  A    between atoms: C9_14  and  C10_15 
REMARK    7  A    between atoms: N2_19  and  C14_20 
REMARK    8  A    between atoms: C14_20  and  C15_21 
ROOT
HETATM    1  C8  UNL     1      -4.493  48.357 -27.057  1.00  0.00     0.139 A 
HETATM    2  N1  UNL     1      -3.210  48.736 -27.173  1.00  0.00    -0.242 N 
ATOM      3  H1  UNL     1      -2.650  48.809 -28.022  1.00  0.00     0.196 HD
HETATM    4  O3  UNL     1      -2.824  49.004 -25.861  1.00  0.00    -0.220 OA
HETATM    5  C9  UNL     1      -3.908  48.742 -25.076  1.00  0.00     0.182 A 
HETATM    6  N4  UNL     1      -4.952  48.325 -25.759  1.00  0.00    -0.321 N 
ATOM      7  H4  UNL     1      -5.871  48.047 -25.414  1.00  0.00     0.169 HD
ENDROOT
BRANCH   5   8
HETATM    8  C10 UNL     1      -3.730  48.941 -23.596  1.00  0.00     0.299 C 
HETATM    9  C11 UNL     1      -4.946  48.435 -22.818  1.00  0.00     0.046 C 
HETATM   10  C12 UNL     1      -5.824  49.658 -22.593  1.00  0.00     0.033 C 
HETATM   11  C13 UNL     1      -5.020  50.841 -23.112  1.00  0.00     0.274 C 
HETATM   12  N2  UNL     1      -3.630  50.380 -23.249  1.00  0.00     0.105 N 
BRANCH  12  13
HETATM   13  C14 UNL     1      -2.870  50.617 -22.014  1.00  0.00     0.314 C 
BRANCH  13  14
HETATM   14  C15 UNL     1      -1.666  51.469 -22.288  1.00  0.00    -0.002 A 
HETATM   15  C16 UNL     1      -1.204  51.853 -23.535  1.00  0.00     0.100 A 
HETATM   16  N3  UNL     1      -0.082  52.618 -23.365  1.00  0.00    -0.360 N 
HETATM   17  C17 UNL     1       0.684  53.208 -24.440  1.00  0.00     0.155 C 
HETATM   18  C18 UNL     1       0.215  52.745 -22.026  1.00  0.00     0.044 A 
HETATM   19  C19 UNL     1       1.253  53.427 -21.372  1.00  0.00     0.030 A 
HETATM   20  C23 UNL     1      -0.764  52.033 -21.326  1.00  0.00     0.000 A 
HETATM   21  C20 UNL     1       1.291  53.385 -19.975  1.00  0.00     0.002 A 
HETATM   22  C21 UNL     1       0.329  52.686 -19.254  1.00  0.00     0.001 A 
HETATM   23  C22 UNL     1      -0.698  52.005 -19.917  1.00  0.00     0.014 A 
ENDBRANCH  13  14
ENDBRANCH  12  13
ENDBRANCH   5   8
BRANCH   1  24
HETATM   24  C7  UNL     1      -5.337  48.000 -28.183  1.00  0.00     0.025 A 
HETATM   25  C6  UNL     1      -6.484  47.212 -28.038  1.00  0.00     0.021 A 
HETATM   26  C5  UNL     1      -7.253  46.897 -29.158  1.00  0.00     0.057 A 
HETATM   27  C4  UNL     1      -6.853  47.379 -30.394  1.00  0.00     0.141 A 
HETATM   28  N5  UNL     1      -5.756  48.139 -30.577  1.00  0.00    -0.346 N 
HETATM   29  C24 UNL     1      -5.026  48.431 -29.469  1.00  0.00     0.105 A 
ATOM     30  H5  UNL     1      -5.486  48.477 -31.500  1.00  0.00     0.167 HD
BRANCH  27  31
HETATM   31  O2  UNL     1      -7.640  47.028 -31.470  1.00  0.00    -0.334 OA
BRANCH  31  32
HETATM   32  C3  UNL     1      -7.535  47.900 -32.599  1.00  0.00     0.203 C 
BRANCH  32  33
HETATM   33  C2  UNL     1      -6.505  47.391 -33.611  1.00  0.00     0.193 C 
BRANCH  33  34
HETATM   34  O1  UNL     1      -5.279  48.124 -33.546  1.00  0.00    -0.394 OA
HETATM   35  C1  UNL     1      -4.135  47.311 -33.759  1.00  0.00     0.201 C 
ENDBRANCH  33  34
ENDBRANCH  32  33
ENDBRANCH  31  32
ENDBRANCH  27  31
ENDBRANCH   1  24
TORSDOF 8
ENDMDL
