MODEL 1
REMARK minimizedAffinity -7.71827459
REMARK CNNscore 0.539293349
REMARK CNNaffinity 6.89477968
REMARK  6 active torsions:
REMARK  status: ('A' for Active; 'I' for Inactive)
REMARK    1  A    between atoms: C2_2  and  C3_3 
REMARK    2  A    between atoms: C2_2  and  C9_11 
REMARK    3  A    between atoms: C3_3  and  C4_4 
REMARK    4  A    between atoms: C5_5  and  C6_6 
REMARK    5  A    between atoms: C6_6  and  O1_9 
REMARK    6  A    between atoms: O1_9  and  O2_10 
ROOT
HETATM    1  C9  UNL     1      -1.747  51.851 -10.271  1.00  0.00    -0.001 C 
HETATM    2  C10 UNL     1      -0.956  50.524 -10.086  1.00  0.00     0.007 C 
HETATM    3  C11 UNL     1       0.537  50.886  -9.991  1.00  0.00     0.024 C 
HETATM    4  C12 UNL     1       0.557  52.396  -9.916  1.00  0.00     0.092 C 
HETATM    5  C13 UNL     1       0.421  52.898  -8.454  1.00  0.00     0.272 C 
HETATM    6  O3  UNL     1      -0.120  52.336  -7.518  1.00  0.00    -0.264 OA
HETATM    7  O4  UNL     1       1.019  54.141  -8.365  1.00  0.00    -0.305 OA
HETATM    8  C14 UNL     1       1.539  54.507  -9.667  1.00  0.00     0.113 C 
HETATM    9  C15 UNL     1       0.367  55.199 -10.433  1.00  0.00     0.043 C 
HETATM   10  C16 UNL     1      -0.942  54.359 -10.457  1.00  0.00     0.014 C 
HETATM   11  C17 UNL     1      -0.669  52.864 -10.768  1.00  0.00    -0.020 C 
HETATM   12  C18 UNL     1      -0.433  52.730 -12.289  1.00  0.00     0.017 C 
HETATM   13  C19 UNL     1       1.778  53.156 -10.257  1.00  0.00     0.137 A 
HETATM   14  O5  UNL     1       2.466  52.985 -11.480  1.00  0.00    -0.364 OA
HETATM   15  C20 UNL     1       3.150  52.537 -10.289  1.00  0.00     0.162 A 
HETATM   16  C21 UNL     1       4.352  53.343  -9.923  1.00  0.00     0.041 C 
HETATM   17  C22 UNL     1       4.013  54.489  -8.944  1.00  0.00     0.010 C 
HETATM   18  C23 UNL     1       5.283  55.303  -8.570  1.00  0.00     0.056 C 
HETATM   19  C24 UNL     1       6.373  54.444  -7.921  1.00  0.00     0.018 C 
HETATM   20  C25 UNL     1       4.904  56.452  -7.639  1.00  0.00     0.131 C 
HETATM   21  O6  UNL     1       5.508  56.698  -6.597  1.00  0.00    -0.298 OA
HETATM   22  C26 UNL     1       3.788  57.351  -8.110  1.00  0.00     0.079 C 
HETATM   23  C27 UNL     1       2.564  56.515  -8.452  1.00  0.00     0.020 C 
HETATM   24  C28 UNL     1       2.836  55.388  -9.496  1.00  0.00    -0.004 C 
HETATM   25  C29 UNL     1       3.220  56.053 -10.844  1.00  0.00     0.019 C 
ENDROOT
BRANCH   1  26
HETATM   26  C2  UNL     1      -3.126  51.666 -10.969  1.00  0.00    -0.010 C 
HETATM   27  C1  UNL     1      -4.204  52.720 -10.673  1.00  0.00     0.010 C 
BRANCH  26  28
HETATM   28  C3  UNL     1      -3.683  50.240 -10.755  1.00  0.00     0.031 C 
BRANCH  28  29
HETATM   29  C4  UNL     1      -5.152  50.224 -10.420  1.00  0.00    -0.027 C 
HETATM   30  C5  UNL     1      -5.854  49.101 -10.195  1.00  0.00     0.009 C 
BRANCH  30  31
HETATM   31  C6  UNL     1      -7.330  48.986  -9.850  1.00  0.00     0.106 C 
HETATM   32  C7  UNL     1      -7.723  47.806  -8.948  1.00  0.00     0.053 C 
HETATM   33  C8  UNL     1      -8.120  48.875 -11.164  1.00  0.00     0.053 C 
BRANCH  31  34
HETATM   34  O1  UNL     1      -7.750  50.230  -9.249  1.00  0.00    -0.229 OA
BRANCH  34  35
HETATM   35  O2  UNL     1      -8.371  49.922  -7.961  1.00  0.00    -0.249 OA
HETATM   36  H15 UNL     1      -7.584  50.095  -7.414  1.00  0.00     0.253 HD
ENDBRANCH  34  35
ENDBRANCH  31  34
ENDBRANCH  30  31
ENDBRANCH  28  29
ENDBRANCH  26  28
ENDBRANCH   1  26
TORSDOF 6
ENDMDL
MODEL 2
REMARK minimizedAffinity -7.75816393
REMARK CNNscore 0.310298592
REMARK CNNaffinity 5.69389343
REMARK  6 active torsions:
REMARK  status: ('A' for Active; 'I' for Inactive)
REMARK    1  A    between atoms: C2_2  and  C3_3 
REMARK    2  A    between atoms: C2_2  and  C9_11 
REMARK    3  A    between atoms: C3_3  and  C4_4 
REMARK    4  A    between atoms: C5_5  and  C6_6 
REMARK    5  A    between atoms: C6_6  and  O1_9 
REMARK    6  A    between atoms: O1_9  and  O2_10 
ROOT
HETATM    1  C9  UNL     1     -13.490  45.909 -25.811  1.00  0.00    -0.001 C 
HETATM    2  C10 UNL     1     -12.832  44.537 -25.485  1.00  0.00     0.007 C 
HETATM    3  C11 UNL     1     -11.822  44.231 -26.605  1.00  0.00     0.024 C 
HETATM    4  C12 UNL     1     -11.768  45.500 -27.424  1.00  0.00     0.092 C 
HETATM    5  C13 UNL     1     -10.726  46.501 -26.861  1.00  0.00     0.272 C 
HETATM    6  O3  UNL     1     -10.333  46.605 -25.712  1.00  0.00    -0.264 OA
HETATM    7  O4  UNL     1     -10.294  47.307 -27.898  1.00  0.00    -0.305 OA
HETATM    8  C14 UNL     1     -10.981  46.919 -29.113  1.00  0.00     0.113 C 
HETATM    9  C15 UNL     1     -12.323  47.719 -29.137  1.00  0.00     0.043 C 
HETATM   10  C16 UNL     1     -13.156  47.575 -27.832  1.00  0.00     0.014 C 
HETATM   11  C17 UNL     1     -13.209  46.107 -27.333  1.00  0.00    -0.020 C 
HETATM   12  C18 UNL     1     -14.239  45.347 -28.198  1.00  0.00     0.017 C 
HETATM   13  C19 UNL     1     -11.273  45.485 -28.817  1.00  0.00     0.137 A 
HETATM   14  O5  UNL     1     -11.787  44.608 -29.799  1.00  0.00    -0.364 OA
HETATM   15  C20 UNL     1     -10.426  44.372 -29.376  1.00  0.00     0.162 A 
HETATM   16  C21 UNL     1      -9.394  44.657 -30.416  1.00  0.00     0.041 C 
HETATM   17  C22 UNL     1      -8.861  46.104 -30.331  1.00  0.00     0.010 C 
HETATM   18  C23 UNL     1      -7.780  46.370 -31.416  1.00  0.00     0.056 C 
HETATM   19  C24 UNL     1      -6.579  45.425 -31.305  1.00  0.00     0.018 C 
HETATM   20  C25 UNL     1      -7.309  47.820 -31.331  1.00  0.00     0.131 C 
HETATM   21  O6  UNL     1      -6.122  48.139 -31.322  1.00  0.00    -0.298 OA
HETATM   22  C26 UNL     1      -8.388  48.873 -31.356  1.00  0.00     0.079 C 
HETATM   23  C27 UNL     1      -9.416  48.581 -30.272  1.00  0.00     0.020 C 
HETATM   24  C28 UNL     1     -10.042  47.155 -30.357  1.00  0.00    -0.004 C 
HETATM   25  C29 UNL     1     -10.854  47.055 -31.675  1.00  0.00     0.019 C 
ENDROOT
BRANCH   1  26
HETATM   26  C2  UNL     1     -14.899  46.095 -25.175  1.00  0.00    -0.010 C 
HETATM   27  C1  UNL     1     -15.100  47.323 -24.276  1.00  0.00     0.010 C 
BRANCH  26  28
HETATM   28  C3  UNL     1     -15.371  44.809 -24.458  1.00  0.00     0.031 C 
BRANCH  28  29
HETATM   29  C4  UNL     1     -16.851  44.565 -24.599  1.00  0.00    -0.027 C 
HETATM   30  C5  UNL     1     -17.732  45.509 -24.967  1.00  0.00     0.009 C 
BRANCH  30  31
HETATM   31  C6  UNL     1     -19.235  45.357 -25.138  1.00  0.00     0.106 C 
HETATM   32  C7  UNL     1     -19.989  44.724 -23.958  1.00  0.00     0.053 C 
HETATM   33  C8  UNL     1     -19.489  44.502 -26.389  1.00  0.00     0.053 C 
BRANCH  31  34
HETATM   34  O1  UNL     1     -19.787  46.657 -25.438  1.00  0.00    -0.229 OA
BRANCH  34  35
HETATM   35  O2  UNL     1     -18.986  47.660 -24.737  1.00  0.00    -0.249 OA
HETATM   36  H15 UNL     1     -18.415  47.893 -25.491  1.00  0.00     0.253 HD
ENDBRANCH  34  35
ENDBRANCH  31  34
ENDBRANCH  30  31
ENDBRANCH  28  29
ENDBRANCH  26  28
ENDBRANCH   1  26
TORSDOF 6
ENDMDL
MODEL 3
REMARK minimizedAffinity -7.29355049
REMARK CNNscore 0.271645308
REMARK CNNaffinity 6.19891787
REMARK  6 active torsions:
REMARK  status: ('A' for Active; 'I' for Inactive)
REMARK    1  A    between atoms: C2_2  and  C3_3 
REMARK    2  A    between atoms: C2_2  and  C9_11 
REMARK    3  A    between atoms: C3_3  and  C4_4 
REMARK    4  A    between atoms: C5_5  and  C6_6 
REMARK    5  A    between atoms: C6_6  and  O1_9 
REMARK    6  A    between atoms: O1_9  and  O2_10 
ROOT
HETATM    1  C9  UNL     1       3.959  55.241  -8.478  1.00  0.00    -0.001 C 
HETATM    2  C10 UNL     1       4.714  54.431  -9.571  1.00  0.00     0.007 C 
HETATM    3  C11 UNL     1       3.695  53.486 -10.233  1.00  0.00     0.024 C 
HETATM    4  C12 UNL     1       2.360  53.910  -9.663  1.00  0.00     0.092 C 
HETATM    5  C13 UNL     1       1.722  55.056 -10.492  1.00  0.00     0.272 C 
HETATM    6  O3  UNL     1       2.290  55.894 -11.170  1.00  0.00    -0.264 OA
HETATM    7  O4  UNL     1       0.350  54.995 -10.332  1.00  0.00    -0.305 OA
HETATM    8  C14 UNL     1       0.028  53.892  -9.450  1.00  0.00     0.113 C 
HETATM    9  C15 UNL     1       0.106  54.454  -7.994  1.00  0.00     0.043 C 
HETATM   10  C16 UNL     1       1.443  55.184  -7.680  1.00  0.00     0.014 C 
HETATM   11  C17 UNL     1       2.673  54.400  -8.210  1.00  0.00    -0.020 C 
HETATM   12  C18 UNL     1       2.956  53.239  -7.230  1.00  0.00     0.017 C 
HETATM   13  C19 UNL     1       1.198  52.996  -9.690  1.00  0.00     0.137 A 
HETATM   14  O5  UNL     1       1.252  51.681  -9.177  1.00  0.00    -0.364 OA
HETATM   15  C20 UNL     1       1.110  51.807 -10.609  1.00  0.00     0.162 A 
HETATM   16  C21 UNL     1      -0.211  51.362 -11.144  1.00  0.00     0.041 C 
HETATM   17  C22 UNL     1      -1.227  52.521 -11.234  1.00  0.00     0.010 C 
HETATM   18  C23 UNL     1      -2.588  52.034 -11.806  1.00  0.00     0.056 C 
HETATM   19  C24 UNL     1      -2.462  51.416 -13.202  1.00  0.00     0.018 C 
HETATM   20  C25 UNL     1      -3.580  53.193 -11.839  1.00  0.00     0.131 C 
HETATM   21  O6  UNL     1      -4.261  53.465 -12.826  1.00  0.00    -0.298 OA
HETATM   22  C26 UNL     1      -3.761  53.952 -10.548  1.00  0.00     0.079 C 
HETATM   23  C27 UNL     1      -2.409  54.421 -10.033  1.00  0.00     0.020 C 
HETATM   24  C28 UNL     1      -1.366  53.275  -9.852  1.00  0.00    -0.004 C 
HETATM   25  C29 UNL     1      -1.876  52.321  -8.740  1.00  0.00     0.019 C 
ENDROOT
BRANCH   1  26
HETATM   26  C2  UNL     1       4.883  55.770  -7.342  1.00  0.00    -0.010 C 
HETATM   27  C1  UNL     1       4.875  57.284  -7.086  1.00  0.00     0.010 C 
BRANCH  26  28
HETATM   28  C3  UNL     1       6.330  55.250  -7.499  1.00  0.00     0.031 C 
BRANCH  28  29
HETATM   29  C4  UNL     1       7.340  56.082  -6.753  1.00  0.00    -0.027 C 
HETATM   30  C5  UNL     1       8.101  55.612  -5.751  1.00  0.00     0.009 C 
BRANCH  30  31
HETATM   31  C6  UNL     1       9.144  56.371  -4.946  1.00  0.00     0.106 C 
HETATM   32  C7  UNL     1      10.611  56.023  -5.241  1.00  0.00     0.053 C 
HETATM   33  C8  UNL     1       8.876  56.112  -3.455  1.00  0.00     0.053 C 
BRANCH  31  34
HETATM   34  O1  UNL     1       8.921  57.784  -5.141  1.00  0.00    -0.229 OA
BRANCH  34  35
HETATM   35  O2  UNL     1      10.225  58.434  -5.267  1.00  0.00    -0.249 OA
HETATM   36  H15 UNL     1      10.245  58.454  -6.241  1.00  0.00     0.253 HD
ENDBRANCH  34  35
ENDBRANCH  31  34
ENDBRANCH  30  31
ENDBRANCH  28  29
ENDBRANCH  26  28
ENDBRANCH   1  26
TORSDOF 6
ENDMDL
MODEL 4
REMARK minimizedAffinity -7.31694841
REMARK CNNscore 0.218334407
REMARK CNNaffinity 5.53835487
REMARK  6 active torsions:
REMARK  status: ('A' for Active; 'I' for Inactive)
REMARK    1  A    between atoms: C2_2  and  C3_3 
REMARK    2  A    between atoms: C2_2  and  C9_11 
REMARK    3  A    between atoms: C3_3  and  C4_4 
REMARK    4  A    between atoms: C5_5  and  C6_6 
REMARK    5  A    between atoms: C6_6  and  O1_9 
REMARK    6  A    between atoms: O1_9  and  O2_10 
ROOT
HETATM    1  C9  UNL     1     -14.318  44.519 -26.438  1.00  0.00    -0.001 C 
HETATM    2  C10 UNL     1     -15.165  44.869 -27.697  1.00  0.00     0.007 C 
HETATM    3  C11 UNL     1     -14.296  45.759 -28.605  1.00  0.00     0.024 C 
HETATM    4  C12 UNL     1     -12.927  45.732 -27.964  1.00  0.00     0.092 C 
HETATM    5  C13 UNL     1     -12.085  44.529 -28.464  1.00  0.00     0.272 C 
HETATM    6  O3  UNL     1     -12.486  43.457 -28.883  1.00  0.00    -0.264 OA
HETATM    7  O4  UNL     1     -10.747  44.860 -28.350  1.00  0.00    -0.305 OA
HETATM    8  C14 UNL     1     -10.638  46.196 -27.802  1.00  0.00     0.113 C 
HETATM    9  C15 UNL     1     -10.664  46.040 -26.248  1.00  0.00     0.043 C 
HETATM   10  C16 UNL     1     -11.871  45.208 -25.727  1.00  0.00     0.014 C 
HETATM   11  C17 UNL     1     -13.197  45.604 -26.427  1.00  0.00    -0.020 C 
HETATM   12  C18 UNL     1     -13.697  46.921 -25.792  1.00  0.00     0.017 C 
HETATM   13  C19 UNL     1     -11.932  46.786 -28.255  1.00  0.00     0.137 A 
HETATM   14  O5  UNL     1     -12.218  48.163 -28.114  1.00  0.00    -0.364 OA
HETATM   15  C20 UNL     1     -12.015  47.683 -29.462  1.00  0.00     0.162 A 
HETATM   16  C21 UNL     1     -10.771  48.183 -30.118  1.00  0.00     0.041 C 
HETATM   17  C22 UNL     1      -9.575  47.228 -29.910  1.00  0.00     0.010 C 
HETATM   18  C23 UNL     1      -8.297  47.766 -30.614  1.00  0.00     0.056 C 
HETATM   19  C24 UNL     1      -8.483  47.956 -32.123  1.00  0.00     0.018 C 
HETATM   20  C25 UNL     1      -7.127  46.822 -30.350  1.00  0.00     0.131 C 
HETATM   21  O6  UNL     1      -6.382  46.414 -31.239  1.00  0.00    -0.298 OA
HETATM   22  C26 UNL     1      -6.860  46.478 -28.906  1.00  0.00     0.079 C 
HETATM   23  C27 UNL     1      -8.131  45.946 -28.261  1.00  0.00     0.020 C 
HETATM   24  C28 UNL     1      -9.354  46.907 -28.378  1.00  0.00    -0.004 C 
HETATM   25  C29 UNL     1      -9.042  48.196 -27.573  1.00  0.00     0.019 C 
ENDROOT
BRANCH   1  26
HETATM   26  C2  UNL     1     -15.175  44.168 -25.186  1.00  0.00    -0.010 C 
HETATM   27  C1  UNL     1     -14.484  43.366 -24.073  1.00  0.00     0.010 C 
BRANCH  26  28
HETATM   28  C3  UNL     1     -16.515  43.509 -25.583  1.00  0.00     0.031 C 
BRANCH  28  29
HETATM   29  C4  UNL     1     -17.703  44.122 -24.888  1.00  0.00    -0.027 C 
HETATM   30  C5  UNL     1     -17.657  45.286 -24.218  1.00  0.00     0.009 C 
BRANCH  30  31
HETATM   31  C6  UNL     1     -18.797  45.981 -23.491  1.00  0.00     0.106 C 
HETATM   32  C7  UNL     1     -18.512  46.413 -22.045  1.00  0.00     0.053 C 
HETATM   33  C8  UNL     1     -20.007  45.034 -23.484  1.00  0.00     0.053 C 
BRANCH  31  34
HETATM   34  O1  UNL     1     -19.202  47.122 -24.279  1.00  0.00    -0.229 OA
BRANCH  34  35
HETATM   35  O2  UNL     1     -20.186  46.667 -25.260  1.00  0.00    -0.249 OA
HETATM   36  H15 UNL     1     -20.976  46.924 -24.752  1.00  0.00     0.253 HD
ENDBRANCH  34  35
ENDBRANCH  31  34
ENDBRANCH  30  31
ENDBRANCH  28  29
ENDBRANCH  26  28
ENDBRANCH   1  26
TORSDOF 6
ENDMDL
MODEL 5
REMARK minimizedAffinity -7.45603275
REMARK CNNscore 0.213092417
REMARK CNNaffinity 5.33376122
REMARK  6 active torsions:
REMARK  status: ('A' for Active; 'I' for Inactive)
REMARK    1  A    between atoms: C2_2  and  C3_3 
REMARK    2  A    between atoms: C2_2  and  C9_11 
REMARK    3  A    between atoms: C3_3  and  C4_4 
REMARK    4  A    between atoms: C5_5  and  C6_6 
REMARK    5  A    between atoms: C6_6  and  O1_9 
REMARK    6  A    between atoms: O1_9  and  O2_10 
ROOT
HETATM    1  C9  UNL     1      -9.955  46.853 -26.891  1.00  0.00    -0.001 C 
HETATM    2  C10 UNL     1     -10.258  46.387 -28.345  1.00  0.00     0.007 C 
HETATM    3  C11 UNL     1     -11.667  45.767 -28.346  1.00  0.00     0.024 C 
HETATM    4  C12 UNL     1     -12.216  46.071 -26.971  1.00  0.00     0.092 C 
HETATM    5  C13 UNL     1     -12.909  47.458 -26.925  1.00  0.00     0.272 C 
HETATM    6  O3  UNL     1     -12.682  48.431 -27.623  1.00  0.00    -0.264 OA
HETATM    7  O4  UNL     1     -13.859  47.435 -25.921  1.00  0.00    -0.305 OA
HETATM    8  C14 UNL     1     -13.844  46.132 -25.289  1.00  0.00     0.113 C 
HETATM    9  C15 UNL     1     -12.757  46.196 -24.169  1.00  0.00     0.043 C 
HETATM   10  C16 UNL     1     -11.376  46.703 -24.671  1.00  0.00     0.014 C 
HETATM   11  C17 UNL     1     -10.972  46.053 -26.021  1.00  0.00    -0.020 C 
HETATM   12  C18 UNL     1     -10.459  44.626 -25.727  1.00  0.00     0.017 C 
HETATM   13  C19 UNL     1     -13.338  45.288 -26.412  1.00  0.00     0.137 A 
HETATM   14  O5  UNL     1     -13.320  43.877 -26.338  1.00  0.00    -0.364 OA
HETATM   15  C20 UNL     1     -14.266  44.459 -27.261  1.00  0.00     0.162 A 
HETATM   16  C21 UNL     1     -15.697  44.291 -26.873  1.00  0.00     0.041 C 
HETATM   17  C22 UNL     1     -16.222  45.480 -26.039  1.00  0.00     0.010 C 
HETATM   18  C23 UNL     1     -17.717  45.286 -25.659  1.00  0.00     0.056 C 
HETATM   19  C24 UNL     1     -18.628  45.137 -26.882  1.00  0.00     0.018 C 
HETATM   20  C25 UNL     1     -18.188  46.455 -24.800  1.00  0.00     0.131 C 
HETATM   21  O6  UNL     1     -19.232  47.068 -25.016  1.00  0.00    -0.298 OA
HETATM   22  C26 UNL     1     -17.347  46.775 -23.589  1.00  0.00     0.079 C 
HETATM   23  C27 UNL     1     -15.897  46.970 -24.008  1.00  0.00     0.020 C 
HETATM   24  C28 UNL     1     -15.294  45.762 -24.791  1.00  0.00    -0.004 C 
HETATM   25  C29 UNL     1     -15.244  44.538 -23.839  1.00  0.00     0.019 C 
ENDROOT
BRANCH   1  26
HETATM   26  C2  UNL     1      -8.434  46.935 -26.565  1.00  0.00    -0.010 C 
HETATM   27  C1  UNL     1      -7.460  46.757 -27.738  1.00  0.00     0.010 C 
BRANCH  26  28
HETATM   28  C3  UNL     1      -8.055  46.000 -25.393  1.00  0.00     0.031 C 
BRANCH  28  29
HETATM   29  C4  UNL     1      -7.455  46.734 -24.223  1.00  0.00    -0.027 C 
HETATM   30  C5  UNL     1      -6.461  47.630 -24.334  1.00  0.00     0.009 C 
BRANCH  30  31
HETATM   31  C6  UNL     1      -5.796  48.418 -23.217  1.00  0.00     0.106 C 
HETATM   32  C7  UNL     1      -4.322  48.791 -23.437  1.00  0.00     0.053 C 
HETATM   33  C8  UNL     1      -5.899  47.594 -21.924  1.00  0.00     0.053 C 
BRANCH  31  34
HETATM   34  O1  UNL     1      -6.578  49.610 -22.981  1.00  0.00    -0.229 OA
BRANCH  34  35
HETATM   35  O2  UNL     1      -7.108  50.063 -24.266  1.00  0.00    -0.249 OA
HETATM   36  H15 UNL     1      -7.985  49.649 -24.176  1.00  0.00     0.253 HD
ENDBRANCH  34  35
ENDBRANCH  31  34
ENDBRANCH  30  31
ENDBRANCH  28  29
ENDBRANCH  26  28
ENDBRANCH   1  26
TORSDOF 6
ENDMDL
MODEL 6
REMARK minimizedAffinity -7.29251146
REMARK CNNscore 0.190718725
REMARK CNNaffinity 5.96248245
REMARK  6 active torsions:
REMARK  status: ('A' for Active; 'I' for Inactive)
REMARK    1  A    between atoms: C2_2  and  C3_3 
REMARK    2  A    between atoms: C2_2  and  C9_11 
REMARK    3  A    between atoms: C3_3  and  C4_4 
REMARK    4  A    between atoms: C5_5  and  C6_6 
REMARK    5  A    between atoms: C6_6  and  O1_9 
REMARK    6  A    between atoms: O1_9  and  O2_10 
ROOT
HETATM    1  C9  UNL     1      -7.846  46.320 -25.446  1.00  0.00    -0.001 C 
HETATM    2  C10 UNL     1      -9.185  45.559 -25.223  1.00  0.00     0.007 C 
HETATM    3  C11 UNL     1      -9.976  45.620 -26.542  1.00  0.00     0.024 C 
HETATM    4  C12 UNL     1      -9.009  46.221 -27.537  1.00  0.00     0.092 C 
HETATM    5  C13 UNL     1      -8.126  45.134 -28.205  1.00  0.00     0.272 C 
HETATM    6  O3  UNL     1      -7.802  44.051 -27.751  1.00  0.00    -0.264 OA
HETATM    7  O4  UNL     1      -7.730  45.599 -29.445  1.00  0.00    -0.305 OA
HETATM    8  C14 UNL     1      -8.281  46.923 -29.649  1.00  0.00     0.113 C 
HETATM    9  C15 UNL     1      -7.263  47.927 -29.021  1.00  0.00     0.043 C 
HETATM   10  C16 UNL     1      -6.882  47.589 -27.552  1.00  0.00     0.014 C 
HETATM   11  C17 UNL     1      -8.122  47.204 -26.702  1.00  0.00    -0.020 C 
HETATM   12  C18 UNL     1      -8.861  48.506 -26.321  1.00  0.00     0.017 C 
HETATM   13  C19 UNL     1      -9.495  46.852 -28.783  1.00  0.00     0.137 A 
HETATM   14  O5  UNL     1     -10.480  47.866 -28.789  1.00  0.00    -0.364 OA
HETATM   15  C20 UNL     1     -10.864  46.594 -29.355  1.00  0.00     0.162 A 
HETATM   16  C21 UNL     1     -11.081  46.611 -30.832  1.00  0.00     0.041 C 
HETATM   17  C22 UNL     1      -9.802  46.244 -31.616  1.00  0.00     0.010 C 
HETATM   18  C23 UNL     1     -10.059  46.256 -33.149  1.00  0.00     0.056 C 
HETATM   19  C24 UNL     1     -11.163  45.284 -33.577  1.00  0.00     0.018 C 
HETATM   20  C25 UNL     1      -8.766  45.934 -33.892  1.00  0.00     0.131 C 
HETATM   21  O6  UNL     1      -8.701  45.103 -34.796  1.00  0.00    -0.298 OA
HETATM   22  C26 UNL     1      -7.561  46.764 -33.526  1.00  0.00     0.079 C 
HETATM   23  C27 UNL     1      -7.340  46.713 -32.021  1.00  0.00     0.020 C 
HETATM   24  C28 UNL     1      -8.581  47.147 -31.181  1.00  0.00    -0.004 C 
HETATM   25  C29 UNL     1      -8.861  48.647 -31.463  1.00  0.00     0.019 C 
ENDROOT
BRANCH   1  26
HETATM   26  C2  UNL     1      -7.217  46.877 -24.135  1.00  0.00    -0.010 C 
HETATM   27  C1  UNL     1      -8.189  47.355 -23.046  1.00  0.00     0.010 C 
BRANCH  26  28
HETATM   28  C3  UNL     1      -6.153  47.958 -24.432  1.00  0.00     0.031 C 
BRANCH  28  29
HETATM   29  C4  UNL     1      -5.152  48.122 -23.318  1.00  0.00    -0.027 C 
HETATM   30  C5  UNL     1      -3.975  48.753 -23.459  1.00  0.00     0.009 C 
BRANCH  30  31
HETATM   31  C6  UNL     1      -2.908  48.970 -22.399  1.00  0.00     0.106 C 
HETATM   32  C7  UNL     1      -1.738  49.883 -22.794  1.00  0.00     0.053 C 
HETATM   33  C8  UNL     1      -2.339  47.597 -22.006  1.00  0.00     0.053 C 
BRANCH  31  34
HETATM   34  O1  UNL     1      -3.552  49.477 -21.210  1.00  0.00    -0.229 OA
BRANCH  34  35
HETATM   35  O2  UNL     1      -3.904  50.876 -21.449  1.00  0.00    -0.249 OA
HETATM   36  H15 UNL     1      -4.830  50.716 -21.703  1.00  0.00     0.253 HD
ENDBRANCH  34  35
ENDBRANCH  31  34
ENDBRANCH  30  31
ENDBRANCH  28  29
ENDBRANCH  26  28
ENDBRANCH   1  26
TORSDOF 6
ENDMDL
MODEL 7
REMARK minimizedAffinity -7.1998744
REMARK CNNscore 0.159244001
REMARK CNNaffinity 5.99109697
REMARK  6 active torsions:
REMARK  status: ('A' for Active; 'I' for Inactive)
REMARK    1  A    between atoms: C2_2  and  C3_3 
REMARK    2  A    between atoms: C2_2  and  C9_11 
REMARK    3  A    between atoms: C3_3  and  C4_4 
REMARK    4  A    between atoms: C5_5  and  C6_6 
REMARK    5  A    between atoms: C6_6  and  O1_9 
REMARK    6  A    between atoms: O1_9  and  O2_10 
ROOT
HETATM    1  C9  UNL     1      -7.625  46.501 -20.460  1.00  0.00    -0.001 C 
HETATM    2  C10 UNL     1      -7.342  45.357 -21.476  1.00  0.00     0.007 C 
HETATM    3  C11 UNL     1      -6.557  45.967 -22.651  1.00  0.00     0.024 C 
HETATM    4  C12 UNL     1      -6.230  47.372 -22.200  1.00  0.00     0.092 C 
HETATM    5  C13 UNL     1      -4.908  47.421 -21.391  1.00  0.00     0.272 C 
HETATM    6  O3  UNL     1      -4.402  46.531 -20.730  1.00  0.00    -0.264 OA
HETATM    7  O4  UNL     1      -4.366  48.686 -21.522  1.00  0.00    -0.305 OA
HETATM    8  C14 UNL     1      -5.237  49.487 -22.357  1.00  0.00     0.113 C 
HETATM    9  C15 UNL     1      -6.305  50.116 -21.406  1.00  0.00     0.043 C 
HETATM   10  C16 UNL     1      -7.027  49.073 -20.506  1.00  0.00     0.014 C 
HETATM   11  C17 UNL     1      -7.435  47.803 -21.299  1.00  0.00    -0.020 C 
HETATM   12  C18 UNL     1      -8.707  48.137 -22.111  1.00  0.00     0.017 C 
HETATM   13  C19 UNL     1      -5.883  48.423 -23.181  1.00  0.00     0.137 A 
HETATM   14  O5  UNL     1      -6.702  48.729 -24.291  1.00  0.00    -0.364 OA
HETATM   15  C20 UNL     1      -5.426  48.119 -24.583  1.00  0.00     0.162 A 
HETATM   16  C21 UNL     1      -4.451  49.017 -25.271  1.00  0.00     0.041 C 
HETATM   17  C22 UNL     1      -3.537  49.762 -24.274  1.00  0.00     0.010 C 
HETATM   18  C23 UNL     1      -2.525  50.679 -25.017  1.00  0.00     0.056 C 
HETATM   19  C24 UNL     1      -1.623  49.909 -25.987  1.00  0.00     0.018 C 
HETATM   20  C25 UNL     1      -1.670  51.433 -24.001  1.00  0.00     0.131 C 
HETATM   21  O6  UNL     1      -0.444  51.501 -24.076  1.00  0.00    -0.298 OA
HETATM   22  C26 UNL     1      -2.417  52.187 -22.930  1.00  0.00     0.079 C 
HETATM   23  C27 UNL     1      -3.386  51.251 -22.222  1.00  0.00     0.020 C 
HETATM   24  C28 UNL     1      -4.383  50.527 -23.179  1.00  0.00    -0.004 C 
HETATM   25  C29 UNL     1      -5.304  51.595 -23.824  1.00  0.00     0.019 C 
ENDROOT
BRANCH   1  26
HETATM   26  C2  UNL     1      -8.867  46.244 -19.557  1.00  0.00    -0.010 C 
HETATM   27  C1  UNL     1      -9.946  45.301 -20.112  1.00  0.00     0.010 C 
BRANCH  26  28
HETATM   28  C3  UNL     1      -9.497  47.567 -19.068  1.00  0.00     0.031 C 
BRANCH  28  29
HETATM   29  C4  UNL     1     -10.803  47.368 -18.345  1.00  0.00    -0.027 C 
HETATM   30  C5  UNL     1     -12.002  47.662 -18.873  1.00  0.00     0.009 C 
BRANCH  30  31
HETATM   31  C6  UNL     1     -13.367  47.494 -18.225  1.00  0.00     0.106 C 
HETATM   32  C7  UNL     1     -13.999  46.098 -18.332  1.00  0.00     0.053 C 
HETATM   33  C8  UNL     1     -14.327  48.511 -18.862  1.00  0.00     0.053 C 
BRANCH  31  34
HETATM   34  O1  UNL     1     -13.256  47.882 -16.838  1.00  0.00    -0.229 OA
BRANCH  34  35
HETATM   35  O2  UNL     1     -13.865  46.831 -16.025  1.00  0.00    -0.249 OA
HETATM   36  H15 UNL     1     -13.037  46.366 -15.807  1.00  0.00     0.253 HD
ENDBRANCH  34  35
ENDBRANCH  31  34
ENDBRANCH  30  31
ENDBRANCH  28  29
ENDBRANCH  26  28
ENDBRANCH   1  26
TORSDOF 6
ENDMDL
MODEL 8
REMARK minimizedAffinity -7.99529696
REMARK CNNscore 0.156128392
REMARK CNNaffinity 5.0075717
REMARK  6 active torsions:
REMARK  status: ('A' for Active; 'I' for Inactive)
REMARK    1  A    between atoms: C2_2  and  C3_3 
REMARK    2  A    between atoms: C2_2  and  C9_11 
REMARK    3  A    between atoms: C3_3  and  C4_4 
REMARK    4  A    between atoms: C5_5  and  C6_6 
REMARK    5  A    between atoms: C6_6  and  O1_9 
REMARK    6  A    between atoms: O1_9  and  O2_10 
ROOT
HETATM    1  C9  UNL     1      -9.902  46.756 -27.477  1.00  0.00    -0.001 C 
HETATM    2  C10 UNL     1     -10.313  46.221 -28.879  1.00  0.00     0.007 C 
HETATM    3  C11 UNL     1     -11.727  45.627 -28.750  1.00  0.00     0.024 C 
HETATM    4  C12 UNL     1     -12.174  46.010 -27.358  1.00  0.00     0.092 C 
HETATM    5  C13 UNL     1     -12.842  47.410 -27.336  1.00  0.00     0.272 C 
HETATM    6  O3  UNL     1     -12.652  48.342 -28.097  1.00  0.00    -0.264 OA
HETATM    7  O4  UNL     1     -13.719  47.454 -26.267  1.00  0.00    -0.305 OA
HETATM    8  C14 UNL     1     -13.678  46.185 -25.572  1.00  0.00     0.113 C 
HETATM    9  C15 UNL     1     -12.514  46.287 -24.535  1.00  0.00     0.043 C 
HETATM   10  C16 UNL     1     -11.164  46.743 -25.158  1.00  0.00     0.014 C 
HETATM   11  C17 UNL     1     -10.866  46.018 -26.497  1.00  0.00    -0.020 C 
HETATM   12  C18 UNL     1     -10.353  44.599 -26.166  1.00  0.00     0.017 C 
HETATM   13  C19 UNL     1     -13.265  45.276 -26.682  1.00  0.00     0.137 A 
HETATM   14  O5  UNL     1     -13.261  43.870 -26.536  1.00  0.00    -0.364 OA
HETATM   15  C20 UNL     1     -14.261  44.422 -27.420  1.00  0.00     0.162 A 
HETATM   16  C21 UNL     1     -15.664  44.299 -26.924  1.00  0.00     0.041 C 
HETATM   17  C22 UNL     1     -16.112  45.538 -26.118  1.00  0.00     0.010 C 
HETATM   18  C23 UNL     1     -17.579  45.389 -25.626  1.00  0.00     0.056 C 
HETATM   19  C24 UNL     1     -18.576  45.194 -26.772  1.00  0.00     0.018 C 
HETATM   20  C25 UNL     1     -17.972  46.609 -24.797  1.00  0.00     0.131 C 
HETATM   21  O6  UNL     1     -19.019  47.228 -24.972  1.00  0.00    -0.298 OA
HETATM   22  C26 UNL     1     -17.043  46.974 -23.667  1.00  0.00     0.079 C 
HETATM   23  C27 UNL     1     -15.623  47.122 -24.195  1.00  0.00     0.020 C 
HETATM   24  C28 UNL     1     -15.094  45.867 -24.955  1.00  0.00    -0.004 C 
HETATM   25  C29 UNL     1     -14.993  44.692 -23.946  1.00  0.00     0.019 C 
ENDROOT
BRANCH   1  26
HETATM   26  C2  UNL     1      -8.361  46.827 -27.262  1.00  0.00    -0.010 C 
HETATM   27  C1  UNL     1      -7.864  46.910 -25.811  1.00  0.00     0.010 C 
BRANCH  26  28
HETATM   28  C3  UNL     1      -7.719  47.937 -28.124  1.00  0.00     0.031 C 
BRANCH  28  29
HETATM   29  C4  UNL     1      -7.090  47.413 -29.389  1.00  0.00    -0.027 C 
HETATM   30  C5  UNL     1      -6.423  48.182 -30.265  1.00  0.00     0.009 C 
BRANCH  30  31
HETATM   31  C6  UNL     1      -5.756  47.745 -31.560  1.00  0.00     0.106 C 
HETATM   32  C7  UNL     1      -6.672  47.636 -32.788  1.00  0.00     0.053 C 
HETATM   33  C8  UNL     1      -5.101  46.376 -31.321  1.00  0.00     0.053 C 
BRANCH  31  34
HETATM   34  O1  UNL     1      -4.668  48.654 -31.833  1.00  0.00    -0.229 OA
BRANCH  34  35
HETATM   35  O2  UNL     1      -4.602  49.621 -30.738  1.00  0.00    -0.249 OA
HETATM   36  H15 UNL     1      -3.901  49.169 -30.233  1.00  0.00     0.253 HD
ENDBRANCH  34  35
ENDBRANCH  31  34
ENDBRANCH  30  31
ENDBRANCH  28  29
ENDBRANCH  26  28
ENDBRANCH   1  26
TORSDOF 6
ENDMDL
MODEL 9
REMARK minimizedAffinity -7.51673317
REMARK CNNscore 0.146370158
REMARK CNNaffinity 5.15279818
REMARK  6 active torsions:
REMARK  status: ('A' for Active; 'I' for Inactive)
REMARK    1  A    between atoms: C2_2  and  C3_3 
REMARK    2  A    between atoms: C2_2  and  C9_11 
REMARK    3  A    between atoms: C3_3  and  C4_4 
REMARK    4  A    between atoms: C5_5  and  C6_6 
REMARK    5  A    between atoms: C6_6  and  O1_9 
REMARK    6  A    between atoms: O1_9  and  O2_10 
ROOT
HETATM    1  C9  UNL     1     -12.904  44.443 -27.440  1.00  0.00    -0.001 C 
HETATM    2  C10 UNL     1     -11.861  44.661 -26.306  1.00  0.00     0.007 C 
HETATM    3  C11 UNL     1     -12.606  45.264 -25.102  1.00  0.00     0.024 C 
HETATM    4  C12 UNL     1     -14.067  45.189 -25.485  1.00  0.00     0.092 C 
HETATM    5  C13 UNL     1     -14.692  43.824 -25.092  1.00  0.00     0.272 C 
HETATM    6  O3  UNL     1     -14.129  42.750 -24.972  1.00  0.00    -0.264 OA
HETATM    7  O4  UNL     1     -16.049  44.008 -24.903  1.00  0.00    -0.305 OA
HETATM    8  C14 UNL     1     -16.375  45.398 -25.147  1.00  0.00     0.113 C 
HETATM    9  C15 UNL     1     -16.639  45.527 -26.681  1.00  0.00     0.043 C 
HETATM   10  C16 UNL     1     -15.492  44.952 -27.560  1.00  0.00     0.014 C 
HETATM   11  C17 UNL     1     -14.092  45.371 -27.039  1.00  0.00    -0.020 C 
HETATM   12  C18 UNL     1     -13.838  46.830 -27.479  1.00  0.00     0.017 C 
HETATM   13  C19 UNL     1     -15.071  46.047 -24.820  1.00  0.00     0.137 A 
HETATM   14  O5  UNL     1     -14.934  47.451 -24.734  1.00  0.00    -0.364 OA
HETATM   15  C20 UNL     1     -14.829  46.718 -23.494  1.00  0.00     0.162 A 
HETATM   16  C21 UNL     1     -15.959  46.940 -22.543  1.00  0.00     0.041 C 
HETATM   17  C22 UNL     1     -17.088  45.902 -22.723  1.00  0.00     0.010 C 
HETATM   18  C23 UNL     1     -18.244  46.148 -21.713  1.00  0.00     0.056 C 
HETATM   19  C24 UNL     1     -17.784  46.087 -20.253  1.00  0.00     0.018 C 
HETATM   20  C25 UNL     1     -19.361  45.135 -21.949  1.00  0.00     0.131 C 
HETATM   21  O6  UNL     1     -19.881  44.488 -21.042  1.00  0.00    -0.298 OA
HETATM   22  C26 UNL     1     -19.874  45.025 -23.363  1.00  0.00     0.079 C 
HETATM   23  C27 UNL     1     -18.714  44.772 -24.313  1.00  0.00     0.020 C 
HETATM   24  C28 UNL     1     -17.576  45.836 -24.225  1.00  0.00    -0.004 C 
HETATM   25  C29 UNL     1     -18.147  47.201 -24.692  1.00  0.00     0.019 C 
ENDROOT
BRANCH   1  26
HETATM   26  C2  UNL     1     -12.282  44.426 -28.868  1.00  0.00    -0.010 C 
HETATM   27  C1  UNL     1     -10.903  43.766 -29.018  1.00  0.00     0.010 C 
BRANCH  26  28
HETATM   28  C3  UNL     1     -12.286  45.834 -29.505  1.00  0.00     0.031 C 
BRANCH  28  29
HETATM   29  C4  UNL     1     -10.948  46.231 -30.071  1.00  0.00    -0.027 C 
HETATM   30  C5  UNL     1     -10.394  47.443 -29.900  1.00  0.00     0.009 C 
BRANCH  30  31
HETATM   31  C6  UNL     1      -9.055  47.932 -30.427  1.00  0.00     0.106 C 
HETATM   32  C7  UNL     1      -8.929  49.446 -30.649  1.00  0.00     0.053 C 
HETATM   33  C8  UNL     1      -8.780  47.222 -31.762  1.00  0.00     0.053 C 
BRANCH  31  34
HETATM   34  O1  UNL     1      -8.024  47.476 -29.525  1.00  0.00    -0.229 OA
BRANCH  34  35
HETATM   35  O2  UNL     1      -7.253  48.641 -29.095  1.00  0.00    -0.249 OA
HETATM   36  H15 UNL     1      -7.721  48.780 -28.252  1.00  0.00     0.253 HD
ENDBRANCH  34  35
ENDBRANCH  31  34
ENDBRANCH  30  31
ENDBRANCH  28  29
ENDBRANCH  26  28
ENDBRANCH   1  26
TORSDOF 6
ENDMDL
