MODEL 1
REMARK minimizedAffinity -7.74657154
REMARK CNNscore 0.541946292
REMARK CNNaffinity 7.08372259
REMARK  16 active torsions:
REMARK  status: ('A' for Active; 'I' for Inactive)
REMARK    1  A    between atoms: C2_2  and  C3_3 
REMARK    2  A    between atoms: C2_2  and  C4_5 
REMARK    3  A    between atoms: C12_13  and  O2_14 
REMARK    4  A    between atoms: O2_14  and  C13_15 
REMARK    5  A    between atoms: C13_15  and  C14_17 
REMARK    6  A    between atoms: C14_17  and  C16_19 
REMARK    7  A    between atoms: C16_19  and  O4_20 
REMARK    8  A    between atoms: C16_19  and  C17_21 
REMARK    9  A    between atoms: C19_23  and  C20_24 
REMARK   10  A    between atoms: C20_24  and  C21_25 
REMARK   11  A    between atoms: C20_24  and  C22_27 
REMARK   12  A    between atoms: C21_25  and  O5_26 
REMARK   13  A    between atoms: C22_27  and  C23_28 
REMARK   14  A    between atoms: C23_28  and  C24_29 
REMARK   15  A    between atoms: C24_29  and  C25_30 
REMARK   16  A    between atoms: C25_30  and  C26_31 
ROOT
HETATM    1  C13 UNL     1      -1.351   8.926  12.766  1.00  0.00     0.266 C 
HETATM    2  O3  UNL     1      -1.600  10.091  13.047  1.00  0.00    -0.265 OA
ENDROOT
BRANCH   1   3
HETATM    3  O2  UNL     1      -0.105   8.440  12.505  1.00  0.00    -0.312 OA
BRANCH   3   4
HETATM    4  C12 UNL     1       0.437   8.768  11.210  1.00  0.00     0.170 C 
HETATM    5  C11 UNL     1      -0.429   8.104  10.142  1.00  0.00     0.036 C 
HETATM    6  C10 UNL     1       0.164   8.171   8.736  1.00  0.00     0.007 C 
HETATM    7  C8  UNL     1       1.708   8.215   8.677  1.00  0.00    -0.007 C 
HETATM    8  C6  UNL     1       2.380   7.547   9.919  1.00  0.00    -0.003 C 
HETATM    9  C9  UNL     1       2.176   7.676   7.322  1.00  0.00     0.011 C 
HETATM   10  C5  UNL     1       3.936   7.681   9.846  1.00  0.00     0.030 C 
HETATM   11  C7  UNL     1       2.034   6.042  10.019  1.00  0.00     0.019 C 
HETATM   12  C28 UNL     1       1.887   8.304  11.163  1.00  0.00     0.129 A 
HETATM   13  C4  UNL     1       4.668   7.125  11.091  1.00  0.00     0.094 C 
HETATM   14  C30 UNL     1       4.038   7.525  12.427  1.00  0.00     0.167 C 
HETATM   15  C29 UNL     1       2.755   8.266  12.410  1.00  0.00     0.230 A 
HETATM   16  O7  UNL     1       4.516   7.192  13.507  1.00  0.00    -0.294 OA
HETATM   17  O6  UNL     1       2.755   9.403  11.549  1.00  0.00    -0.358 OA
BRANCH  13  18
HETATM   18  C2  UNL     1       6.151   7.432  11.142  1.00  0.00    -0.018 C 
HETATM   19  C1  UNL     1       7.164   6.549  11.161  1.00  0.00     0.022 C 
BRANCH  18  20
HETATM   20  C3  UNL     1       6.520   8.883  11.196  1.00  0.00     0.265 C 
HETATM   21  O1  UNL     1       7.301   9.411  10.412  1.00  0.00    -0.302 OA
ENDBRANCH  18  20
ENDBRANCH  13  18
ENDBRANCH   3   4
ENDBRANCH   1   3
BRANCH   1  22
HETATM   22  C14 UNL     1      -2.397   7.830  12.732  1.00  0.00     0.114 C 
HETATM   23  C15 UNL     1      -3.781   8.464  12.872  1.00  0.00     0.023 C 
BRANCH  22  24
HETATM   24  C16 UNL     1      -2.096   6.771  13.805  1.00  0.00     0.159 C 
BRANCH  24  25
HETATM   25  O4  UNL     1      -0.780   6.256  13.603  1.00  0.00    -0.390 OA
HETATM   26  H24 UNL     1      -0.681   5.487  14.192  1.00  0.00     0.210 HD
ENDBRANCH  24  25
BRANCH  24  27
HETATM   27  C17 UNL     1      -3.050   5.581  13.811  1.00  0.00    -0.058 C 
HETATM   28  C18 UNL     1      -4.031   5.529  14.956  1.00  0.00     0.046 C 
HETATM   29  C19 UNL     1      -3.012   4.676  12.809  1.00  0.00    -0.015 C 
BRANCH  29  30
HETATM   30  C20 UNL     1      -3.895   3.452  12.637  1.00  0.00     0.032 C 
BRANCH  30  31
HETATM   31  C21 UNL     1      -3.166   2.337  11.860  1.00  0.00     0.172 C 
BRANCH  31  32
HETATM   32  O5  UNL     1      -4.077   1.325  11.441  1.00  0.00    -0.400 OA
HETATM   33  H32 UNL     1      -4.603   1.057  12.212  1.00  0.00     0.209 HD
ENDBRANCH  31  32
ENDBRANCH  30  31
BRANCH  30  34
HETATM   34  C22 UNL     1      -5.263   3.798  12.006  1.00  0.00     0.010 C 
BRANCH  34  35
HETATM   35  C23 UNL     1      -6.532   3.571  12.844  1.00  0.00     0.001 C 
BRANCH  35  36
HETATM   36  C24 UNL     1      -7.686   4.524  12.524  1.00  0.00     0.000 C 
BRANCH  36  37
HETATM   37  C25 UNL     1      -8.089   5.415  13.706  1.00  0.00    -0.000 C 
BRANCH  37  38
HETATM   38  C26 UNL     1      -9.289   6.330  13.451  1.00  0.00    -0.005 C 
HETATM   39  C27 UNL     1      -9.750   7.123  14.661  1.00  0.00     0.005 C 
ENDBRANCH  37  38
ENDBRANCH  36  37
ENDBRANCH  35  36
ENDBRANCH  34  35
ENDBRANCH  30  34
ENDBRANCH  29  30
ENDBRANCH  24  27
ENDBRANCH  22  24
ENDBRANCH   1  22
TORSDOF 16
ENDMDL
MODEL 2
REMARK minimizedAffinity -7.73967838
REMARK CNNscore 0.516302526
REMARK CNNaffinity 6.63554144
REMARK  16 active torsions:
REMARK  status: ('A' for Active; 'I' for Inactive)
REMARK    1  A    between atoms: C2_2  and  C3_3 
REMARK    2  A    between atoms: C2_2  and  C4_5 
REMARK    3  A    between atoms: C12_13  and  O2_14 
REMARK    4  A    between atoms: O2_14  and  C13_15 
REMARK    5  A    between atoms: C13_15  and  C14_17 
REMARK    6  A    between atoms: C14_17  and  C16_19 
REMARK    7  A    between atoms: C16_19  and  O4_20 
REMARK    8  A    between atoms: C16_19  and  C17_21 
REMARK    9  A    between atoms: C19_23  and  C20_24 
REMARK   10  A    between atoms: C20_24  and  C21_25 
REMARK   11  A    between atoms: C20_24  and  C22_27 
REMARK   12  A    between atoms: C21_25  and  O5_26 
REMARK   13  A    between atoms: C22_27  and  C23_28 
REMARK   14  A    between atoms: C23_28  and  C24_29 
REMARK   15  A    between atoms: C24_29  and  C25_30 
REMARK   16  A    between atoms: C25_30  and  C26_31 
ROOT
HETATM    1  C13 UNL     1      -3.851   8.111  13.297  1.00  0.00     0.266 C 
HETATM    2  O3  UNL     1      -4.776   8.583  12.651  1.00  0.00    -0.265 OA
ENDROOT
BRANCH   1   3
HETATM    3  O2  UNL     1      -2.667   8.745  13.533  1.00  0.00    -0.312 OA
BRANCH   3   4
HETATM    4  C12 UNL     1      -1.601   7.915  14.035  1.00  0.00     0.170 C 
HETATM    5  C11 UNL     1      -1.167   8.455  15.395  1.00  0.00     0.036 C 
HETATM    6  C10 UNL     1       0.111   7.816  15.934  1.00  0.00     0.007 C 
HETATM    7  C8  UNL     1       1.103   7.322  14.856  1.00  0.00    -0.007 C 
HETATM    8  C6  UNL     1       0.972   8.104  13.510  1.00  0.00    -0.003 C 
HETATM    9  C9  UNL     1       2.516   7.287  15.448  1.00  0.00     0.011 C 
HETATM   10  C5  UNL     1       1.944   7.520  12.433  1.00  0.00     0.030 C 
HETATM   11  C7  UNL     1       1.300   9.607  13.685  1.00  0.00     0.019 C 
HETATM   12  C28 UNL     1      -0.470   7.915  13.014  1.00  0.00     0.129 A 
HETATM   13  C4  UNL     1       1.804   8.184  11.042  1.00  0.00     0.094 C 
HETATM   14  C30 UNL     1       0.359   8.386  10.580  1.00  0.00     0.167 C 
HETATM   15  C29 UNL     1      -0.737   8.068  11.525  1.00  0.00     0.230 A 
HETATM   16  O7  UNL     1       0.078   8.870   9.488  1.00  0.00    -0.294 OA
HETATM   17  O6  UNL     1      -0.627   6.777  12.124  1.00  0.00    -0.358 OA
BRANCH  13  18
HETATM   18  C2  UNL     1       2.576   7.498   9.933  1.00  0.00    -0.018 C 
HETATM   19  C1  UNL     1       3.558   8.025   9.181  1.00  0.00     0.022 C 
BRANCH  18  20
HETATM   20  C3  UNL     1       2.185   6.083   9.637  1.00  0.00     0.265 C 
HETATM   21  O1  UNL     1       2.720   5.402   8.770  1.00  0.00    -0.302 OA
ENDBRANCH  18  20
ENDBRANCH  13  18
ENDBRANCH   3   4
ENDBRANCH   1   3
BRANCH   1  22
HETATM   22  C14 UNL     1      -3.912   6.766  13.991  1.00  0.00     0.114 C 
HETATM   23  C15 UNL     1      -4.126   5.677  12.939  1.00  0.00     0.023 C 
BRANCH  22  24
HETATM   24  C16 UNL     1      -4.990   6.779  15.088  1.00  0.00     0.159 C 
BRANCH  24  25
HETATM   25  O4  UNL     1      -4.441   6.250  16.295  1.00  0.00    -0.390 OA
HETATM   26  H24 UNL     1      -5.181   6.126  16.916  1.00  0.00     0.210 HD
ENDBRANCH  24  25
BRANCH  24  27
HETATM   27  C17 UNL     1      -6.238   5.964  14.764  1.00  0.00    -0.058 C 
HETATM   28  C18 UNL     1      -7.045   5.497  15.950  1.00  0.00     0.046 C 
HETATM   29  C19 UNL     1      -6.582   5.733  13.479  1.00  0.00    -0.015 C 
BRANCH  29  30
HETATM   30  C20 UNL     1      -7.795   4.970  12.972  1.00  0.00     0.032 C 
BRANCH  30  31
HETATM   31  C21 UNL     1      -7.409   3.554  12.497  1.00  0.00     0.172 C 
BRANCH  31  32
HETATM   32  O5  UNL     1      -8.366   2.590  12.929  1.00  0.00    -0.400 OA
HETATM   33  H32 UNL     1      -8.508   2.716  13.882  1.00  0.00     0.209 HD
ENDBRANCH  31  32
ENDBRANCH  30  31
BRANCH  30  34
HETATM   34  C22 UNL     1      -8.570   5.752  11.888  1.00  0.00     0.010 C 
BRANCH  34  35
HETATM   35  C23 UNL     1      -9.771   6.607  12.324  1.00  0.00     0.001 C 
BRANCH  35  36
HETATM   36  C24 UNL     1     -10.131   6.491  13.807  1.00  0.00     0.000 C 
BRANCH  36  37
HETATM   37  C25 UNL     1     -11.383   7.287  14.196  1.00  0.00    -0.000 C 
BRANCH  37  38
HETATM   38  C26 UNL     1     -12.653   6.451  14.386  1.00  0.00    -0.005 C 
HETATM   39  C27 UNL     1     -13.724   6.680  13.335  1.00  0.00     0.005 C 
ENDBRANCH  37  38
ENDBRANCH  36  37
ENDBRANCH  35  36
ENDBRANCH  34  35
ENDBRANCH  30  34
ENDBRANCH  29  30
ENDBRANCH  24  27
ENDBRANCH  22  24
ENDBRANCH   1  22
TORSDOF 16
ENDMDL
MODEL 3
REMARK minimizedAffinity -7.71208096
REMARK CNNscore 0.484757692
REMARK CNNaffinity 6.30032349
REMARK  16 active torsions:
REMARK  status: ('A' for Active; 'I' for Inactive)
REMARK    1  A    between atoms: C2_2  and  C3_3 
REMARK    2  A    between atoms: C2_2  and  C4_5 
REMARK    3  A    between atoms: C12_13  and  O2_14 
REMARK    4  A    between atoms: O2_14  and  C13_15 
REMARK    5  A    between atoms: C13_15  and  C14_17 
REMARK    6  A    between atoms: C14_17  and  C16_19 
REMARK    7  A    between atoms: C16_19  and  O4_20 
REMARK    8  A    between atoms: C16_19  and  C17_21 
REMARK    9  A    between atoms: C19_23  and  C20_24 
REMARK   10  A    between atoms: C20_24  and  C21_25 
REMARK   11  A    between atoms: C20_24  and  C22_27 
REMARK   12  A    between atoms: C21_25  and  O5_26 
REMARK   13  A    between atoms: C22_27  and  C23_28 
REMARK   14  A    between atoms: C23_28  and  C24_29 
REMARK   15  A    between atoms: C24_29  and  C25_30 
REMARK   16  A    between atoms: C25_30  and  C26_31 
ROOT
HETATM    1  C13 UNL     1       0.102  10.538  17.240  1.00  0.00     0.266 C 
HETATM    2  O3  UNL     1       0.661  11.152  16.341  1.00  0.00    -0.265 OA
ENDROOT
BRANCH   1   3
HETATM    3  O2  UNL     1      -0.795   9.530  17.050  1.00  0.00    -0.312 OA
BRANCH   3   4
HETATM    4  C12 UNL     1      -1.708   9.703  15.948  1.00  0.00     0.170 C 
HETATM    5  C11 UNL     1      -3.133   9.678  16.493  1.00  0.00     0.036 C 
HETATM    6  C10 UNL     1      -4.208   9.614  15.410  1.00  0.00     0.007 C 
HETATM    7  C8  UNL     1      -3.781   8.906  14.104  1.00  0.00    -0.007 C 
HETATM    8  C6  UNL     1      -2.650   7.852  14.329  1.00  0.00    -0.003 C 
HETATM    9  C9  UNL     1      -5.027   8.372  13.389  1.00  0.00     0.011 C 
HETATM   10  C5  UNL     1      -2.206   7.217  12.970  1.00  0.00     0.030 C 
HETATM   11  C7  UNL     1      -3.109   6.708  15.264  1.00  0.00     0.019 C 
HETATM   12  C28 UNL     1      -1.449   8.599  14.930  1.00  0.00     0.129 A 
HETATM   13  C4  UNL     1      -1.021   6.231  13.102  1.00  0.00     0.094 C 
HETATM   14  C30 UNL     1       0.118   6.725  13.998  1.00  0.00     0.167 C 
HETATM   15  C29 UNL     1      -0.067   7.994  14.741  1.00  0.00     0.230 A 
HETATM   16  O7  UNL     1       1.143   6.076  14.180  1.00  0.00    -0.294 OA
HETATM   17  O6  UNL     1      -0.511   9.080  13.929  1.00  0.00    -0.358 OA
BRANCH  13  18
HETATM   18  C2  UNL     1      -0.434   5.767  11.784  1.00  0.00    -0.018 C 
HETATM   19  C1  UNL     1      -0.051   6.536  10.750  1.00  0.00     0.022 C 
BRANCH  18  20
HETATM   20  C3  UNL     1      -0.285   4.286  11.616  1.00  0.00     0.265 C 
HETATM   21  O1  UNL     1      -0.844   3.647  10.732  1.00  0.00    -0.302 OA
ENDBRANCH  18  20
ENDBRANCH  13  18
ENDBRANCH   3   4
ENDBRANCH   1   3
BRANCH   1  22
HETATM   22  C14 UNL     1       0.379  10.769  18.712  1.00  0.00     0.114 C 
HETATM   23  C15 UNL     1      -0.411  11.992  19.177  1.00  0.00     0.023 C 
BRANCH  22  24
HETATM   24  C16 UNL     1       1.892  10.886  18.959  1.00  0.00     0.159 C 
BRANCH  24  25
HETATM   25  O4  UNL     1       2.567   9.836  18.263  1.00  0.00    -0.390 OA
HETATM   26  H24 UNL     1       3.493   9.844  18.563  1.00  0.00     0.210 HD
ENDBRANCH  24  25
BRANCH  24  27
HETATM   27  C17 UNL     1       2.307  10.796  20.423  1.00  0.00    -0.058 C 
HETATM   28  C18 UNL     1       1.897  11.957  21.296  1.00  0.00     0.046 C 
HETATM   29  C19 UNL     1       2.965   9.708  20.876  1.00  0.00    -0.015 C 
BRANCH  29  30
HETATM   30  C20 UNL     1       3.432   9.436  22.297  1.00  0.00     0.032 C 
BRANCH  30  31
HETATM   31  C21 UNL     1       2.389   8.616  23.084  1.00  0.00     0.172 C 
BRANCH  31  32
HETATM   32  O5  UNL     1       1.671   7.738  22.221  1.00  0.00    -0.400 OA
HETATM   33  H32 UNL     1       1.349   8.257  21.466  1.00  0.00     0.209 HD
ENDBRANCH  31  32
ENDBRANCH  30  31
BRANCH  30  34
HETATM   34  C22 UNL     1       3.832  10.730  23.041  1.00  0.00     0.010 C 
BRANCH  34  35
HETATM   35  C23 UNL     1       5.310  11.155  23.022  1.00  0.00     0.001 C 
BRANCH  35  36
HETATM   36  C24 UNL     1       5.568  12.538  22.419  1.00  0.00     0.000 C 
BRANCH  36  37
HETATM   37  C25 UNL     1       6.641  13.340  23.166  1.00  0.00    -0.000 C 
BRANCH  37  38
HETATM   38  C26 UNL     1       8.065  13.181  22.627  1.00  0.00    -0.005 C 
HETATM   39  C27 UNL     1       8.824  11.992  23.185  1.00  0.00     0.005 C 
ENDBRANCH  37  38
ENDBRANCH  36  37
ENDBRANCH  35  36
ENDBRANCH  34  35
ENDBRANCH  30  34
ENDBRANCH  29  30
ENDBRANCH  24  27
ENDBRANCH  22  24
ENDBRANCH   1  22
TORSDOF 16
ENDMDL
MODEL 4
REMARK minimizedAffinity -7.66231823
REMARK CNNscore 0.448613077
REMARK CNNaffinity 6.71102142
REMARK  16 active torsions:
REMARK  status: ('A' for Active; 'I' for Inactive)
REMARK    1  A    between atoms: C2_2  and  C3_3 
REMARK    2  A    between atoms: C2_2  and  C4_5 
REMARK    3  A    between atoms: C12_13  and  O2_14 
REMARK    4  A    between atoms: O2_14  and  C13_15 
REMARK    5  A    between atoms: C13_15  and  C14_17 
REMARK    6  A    between atoms: C14_17  and  C16_19 
REMARK    7  A    between atoms: C16_19  and  O4_20 
REMARK    8  A    between atoms: C16_19  and  C17_21 
REMARK    9  A    between atoms: C19_23  and  C20_24 
REMARK   10  A    between atoms: C20_24  and  C21_25 
REMARK   11  A    between atoms: C20_24  and  C22_27 
REMARK   12  A    between atoms: C21_25  and  O5_26 
REMARK   13  A    between atoms: C22_27  and  C23_28 
REMARK   14  A    between atoms: C23_28  and  C24_29 
REMARK   15  A    between atoms: C24_29  and  C25_30 
REMARK   16  A    between atoms: C25_30  and  C26_31 
ROOT
HETATM    1  C13 UNL     1      -2.294   8.003  13.641  1.00  0.00     0.266 C 
HETATM    2  O3  UNL     1      -2.726   7.973  12.497  1.00  0.00    -0.265 OA
ENDROOT
BRANCH   1   3
HETATM    3  O2  UNL     1      -1.220   8.738  14.046  1.00  0.00    -0.312 OA
BRANCH   3   4
HETATM    4  C12 UNL     1       0.012   8.009  14.212  1.00  0.00     0.170 C 
HETATM    5  C11 UNL     1       0.818   8.670  15.328  1.00  0.00     0.036 C 
HETATM    6  C10 UNL     1       2.247   8.146  15.452  1.00  0.00     0.007 C 
HETATM    7  C8  UNL     1       2.874   7.633  14.135  1.00  0.00    -0.007 C 
HETATM    8  C6  UNL     1       2.256   8.307  12.868  1.00  0.00    -0.003 C 
HETATM    9  C9  UNL     1       4.400   7.722  14.235  1.00  0.00     0.011 C 
HETATM   10  C5  UNL     1       2.872   7.703  11.564  1.00  0.00     0.030 C 
HETATM   11  C7  UNL     1       2.506   9.834  12.851  1.00  0.00     0.019 C 
HETATM   12  C28 UNL     1       0.751   8.000  12.880  1.00  0.00     0.129 A 
HETATM   13  C4  UNL     1       2.241   8.255  10.263  1.00  0.00     0.094 C 
HETATM   14  C30 UNL     1       0.712   8.341  10.289  1.00  0.00     0.167 C 
HETATM   15  C29 UNL     1       0.008   8.029  11.554  1.00  0.00     0.230 A 
HETATM   16  O7  UNL     1       0.058   8.727   9.325  1.00  0.00    -0.294 OA
HETATM   17  O6  UNL     1       0.404   6.794  12.148  1.00  0.00    -0.358 OA
BRANCH  13  18
HETATM   18  C2  UNL     1       2.665   7.537   8.999  1.00  0.00    -0.018 C 
HETATM   19  C1  UNL     1       2.878   6.218   8.846  1.00  0.00     0.022 C 
BRANCH  18  20
HETATM   20  C3  UNL     1       2.888   8.400   7.795  1.00  0.00     0.265 C 
HETATM   21  O1  UNL     1       3.519   9.450   7.825  1.00  0.00    -0.302 OA
ENDBRANCH  18  20
ENDBRANCH  13  18
ENDBRANCH   3   4
ENDBRANCH   1   3
BRANCH   1  22
HETATM   22  C14 UNL     1      -2.938   7.270  14.800  1.00  0.00     0.114 C 
HETATM   23  C15 UNL     1      -2.396   7.843  16.110  1.00  0.00     0.023 C 
BRANCH  22  24
HETATM   24  C16 UNL     1      -2.723   5.754  14.659  1.00  0.00     0.159 C 
BRANCH  24  25
HETATM   25  O4  UNL     1      -1.374   5.503  14.262  1.00  0.00    -0.390 OA
HETATM   26  H24 UNL     1      -1.315   4.559  14.031  1.00  0.00     0.210 HD
ENDBRANCH  24  25
BRANCH  24  27
HETATM   27  C17 UNL     1      -3.629   5.075  13.638  1.00  0.00    -0.058 C 
HETATM   28  C18 UNL     1      -5.028   5.628  13.528  1.00  0.00     0.046 C 
HETATM   29  C19 UNL     1      -3.153   4.070  12.872  1.00  0.00    -0.015 C 
BRANCH  29  30
HETATM   30  C20 UNL     1      -3.897   3.299  11.794  1.00  0.00     0.032 C 
BRANCH  30  31
HETATM   31  C21 UNL     1      -3.328   3.602  10.392  1.00  0.00     0.172 C 
BRANCH  31  32
HETATM   32  O5  UNL     1      -2.047   3.001  10.218  1.00  0.00    -0.400 OA
HETATM   33  H32 UNL     1      -1.497   3.241  10.982  1.00  0.00     0.209 HD
ENDBRANCH  31  32
ENDBRANCH  30  31
BRANCH  30  34
HETATM   34  C22 UNL     1      -5.424   3.524  11.859  1.00  0.00     0.010 C 
BRANCH  34  35
HETATM   35  C23 UNL     1      -6.342   2.291  11.887  1.00  0.00     0.001 C 
BRANCH  35  36
HETATM   36  C24 UNL     1      -7.544   2.412  12.826  1.00  0.00     0.000 C 
BRANCH  36  37
HETATM   37  C25 UNL     1      -7.709   3.812  13.431  1.00  0.00    -0.000 C 
BRANCH  37  38
HETATM   38  C26 UNL     1      -8.589   4.770  12.623  1.00  0.00    -0.005 C 
HETATM   39  C27 UNL     1      -9.019   6.018  13.372  1.00  0.00     0.005 C 
ENDBRANCH  37  38
ENDBRANCH  36  37
ENDBRANCH  35  36
ENDBRANCH  34  35
ENDBRANCH  30  34
ENDBRANCH  29  30
ENDBRANCH  24  27
ENDBRANCH  22  24
ENDBRANCH   1  22
TORSDOF 16
ENDMDL
MODEL 5
REMARK minimizedAffinity -7.50212431
REMARK CNNscore 0.410851777
REMARK CNNaffinity 6.61063433
REMARK  16 active torsions:
REMARK  status: ('A' for Active; 'I' for Inactive)
REMARK    1  A    between atoms: C2_2  and  C3_3 
REMARK    2  A    between atoms: C2_2  and  C4_5 
REMARK    3  A    between atoms: C12_13  and  O2_14 
REMARK    4  A    between atoms: O2_14  and  C13_15 
REMARK    5  A    between atoms: C13_15  and  C14_17 
REMARK    6  A    between atoms: C14_17  and  C16_19 
REMARK    7  A    between atoms: C16_19  and  O4_20 
REMARK    8  A    between atoms: C16_19  and  C17_21 
REMARK    9  A    between atoms: C19_23  and  C20_24 
REMARK   10  A    between atoms: C20_24  and  C21_25 
REMARK   11  A    between atoms: C20_24  and  C22_27 
REMARK   12  A    between atoms: C21_25  and  O5_26 
REMARK   13  A    between atoms: C22_27  and  C23_28 
REMARK   14  A    between atoms: C23_28  and  C24_29 
REMARK   15  A    between atoms: C24_29  and  C25_30 
REMARK   16  A    between atoms: C25_30  and  C26_31 
ROOT
HETATM    1  C13 UNL     1      -7.793   7.776  15.318  1.00  0.00     0.266 C 
HETATM    2  O3  UNL     1      -7.143   8.705  14.858  1.00  0.00    -0.265 OA
ENDROOT
BRANCH   1   3
HETATM    3  O2  UNL     1      -9.148   7.773  15.460  1.00  0.00    -0.312 OA
BRANCH   3   4
HETATM    4  C12 UNL     1      -9.842   8.895  14.877  1.00  0.00     0.170 C 
HETATM    5  C11 UNL     1      -9.731  10.081  15.832  1.00  0.00     0.036 C 
HETATM    6  C10 UNL     1     -10.618  11.264  15.452  1.00  0.00     0.007 C 
HETATM    7  C8  UNL     1     -11.914  10.896  14.696  1.00  0.00    -0.007 C 
HETATM    8  C6  UNL     1     -12.412   9.450  15.016  1.00  0.00    -0.003 C 
HETATM    9  C9  UNL     1     -12.956  11.999  14.913  1.00  0.00     0.011 C 
HETATM   10  C5  UNL     1     -13.683   9.102  14.174  1.00  0.00     0.030 C 
HETATM   11  C7  UNL     1     -12.770   9.285  16.513  1.00  0.00     0.019 C 
HETATM   12  C28 UNL     1     -11.285   8.485  14.615  1.00  0.00     0.129 A 
HETATM   13  C4  UNL     1     -14.179   7.649  14.368  1.00  0.00     0.094 C 
HETATM   14  C30 UNL     1     -13.070   6.593  14.349  1.00  0.00     0.167 C 
HETATM   15  C29 UNL     1     -11.661   7.049  14.287  1.00  0.00     0.230 A 
HETATM   16  O7  UNL     1     -13.301   5.393  14.457  1.00  0.00    -0.294 OA
HETATM   17  O6  UNL     1     -11.405   7.996  13.252  1.00  0.00    -0.358 OA
BRANCH  13  18
HETATM   18  C2  UNL     1     -15.272   7.221  13.410  1.00  0.00    -0.018 C 
HETATM   19  C1  UNL     1     -16.365   6.492  13.698  1.00  0.00     0.022 C 
BRANCH  18  20
HETATM   20  C3  UNL     1     -15.101   7.646  11.984  1.00  0.00     0.265 C 
HETATM   21  O1  UNL     1     -16.030   7.737  11.190  1.00  0.00    -0.302 OA
ENDBRANCH  18  20
ENDBRANCH  13  18
ENDBRANCH   3   4
ENDBRANCH   1   3
BRANCH   1  22
HETATM   22  C14 UNL     1      -7.184   6.454  15.740  1.00  0.00     0.114 C 
HETATM   23  C15 UNL     1      -5.704   6.447  15.357  1.00  0.00     0.023 C 
BRANCH  22  24
HETATM   24  C16 UNL     1      -7.979   5.283  15.139  1.00  0.00     0.159 C 
BRANCH  24  25
HETATM   25  O4  UNL     1      -7.819   4.130  15.966  1.00  0.00    -0.390 OA
HETATM   26  H24 UNL     1      -8.199   3.376  15.482  1.00  0.00     0.210 HD
ENDBRANCH  24  25
BRANCH  24  27
HETATM   27  C17 UNL     1      -7.560   4.888  13.727  1.00  0.00    -0.058 C 
HETATM   28  C18 UNL     1      -8.177   5.690  12.608  1.00  0.00     0.046 C 
HETATM   29  C19 UNL     1      -6.658   3.900  13.539  1.00  0.00    -0.015 C 
BRANCH  29  30
HETATM   30  C20 UNL     1      -6.108   3.392  12.217  1.00  0.00     0.032 C 
BRANCH  30  31
HETATM   31  C21 UNL     1      -6.706   2.019  11.850  1.00  0.00     0.172 C 
BRANCH  31  32
HETATM   32  O5  UNL     1      -7.774   1.674  12.729  1.00  0.00    -0.400 OA
HETATM   33  H32 UNL     1      -7.462   1.793  13.641  1.00  0.00     0.209 HD
ENDBRANCH  31  32
ENDBRANCH  30  31
BRANCH  30  34
HETATM   34  C22 UNL     1      -4.563   3.377  12.190  1.00  0.00     0.010 C 
BRANCH  34  35
HETATM   35  C23 UNL     1      -3.853   3.726  10.871  1.00  0.00     0.001 C 
BRANCH  35  36
HETATM   36  C24 UNL     1      -2.402   3.247  10.782  1.00  0.00     0.000 C 
BRANCH  36  37
HETATM   37  C25 UNL     1      -1.390   4.253  11.344  1.00  0.00    -0.000 C 
BRANCH  37  38
HETATM   38  C26 UNL     1      -1.970   5.286  12.315  1.00  0.00    -0.005 C 
HETATM   39  C27 UNL     1      -1.239   5.389  13.640  1.00  0.00     0.005 C 
ENDBRANCH  37  38
ENDBRANCH  36  37
ENDBRANCH  35  36
ENDBRANCH  34  35
ENDBRANCH  30  34
ENDBRANCH  29  30
ENDBRANCH  24  27
ENDBRANCH  22  24
ENDBRANCH   1  22
TORSDOF 16
ENDMDL
MODEL 6
REMARK minimizedAffinity -6.89147949
REMARK CNNscore 0.404934704
REMARK CNNaffinity 5.35710716
REMARK  16 active torsions:
REMARK  status: ('A' for Active; 'I' for Inactive)
REMARK    1  A    between atoms: C2_2  and  C3_3 
REMARK    2  A    between atoms: C2_2  and  C4_5 
REMARK    3  A    between atoms: C12_13  and  O2_14 
REMARK    4  A    between atoms: O2_14  and  C13_15 
REMARK    5  A    between atoms: C13_15  and  C14_17 
REMARK    6  A    between atoms: C14_17  and  C16_19 
REMARK    7  A    between atoms: C16_19  and  O4_20 
REMARK    8  A    between atoms: C16_19  and  C17_21 
REMARK    9  A    between atoms: C19_23  and  C20_24 
REMARK   10  A    between atoms: C20_24  and  C21_25 
REMARK   11  A    between atoms: C20_24  and  C22_27 
REMARK   12  A    between atoms: C21_25  and  O5_26 
REMARK   13  A    between atoms: C22_27  and  C23_28 
REMARK   14  A    between atoms: C23_28  and  C24_29 
REMARK   15  A    between atoms: C24_29  and  C25_30 
REMARK   16  A    between atoms: C25_30  and  C26_31 
ROOT
HETATM    1  C13 UNL     1       3.262  11.109  17.352  1.00  0.00     0.266 C 
HETATM    2  O3  UNL     1       4.415  10.844  17.042  1.00  0.00    -0.265 OA
ENDROOT
BRANCH   1   3
HETATM    3  O2  UNL     1       2.876  11.583  18.570  1.00  0.00    -0.312 OA
BRANCH   3   4
HETATM    4  C12 UNL     1       3.173  10.734  19.697  1.00  0.00     0.170 C 
HETATM    5  C11 UNL     1       1.869  10.427  20.428  1.00  0.00     0.036 C 
HETATM    6  C10 UNL     1       2.064   9.732  21.774  1.00  0.00     0.007 C 
HETATM    7  C8  UNL     1       3.391  10.062  22.496  1.00  0.00    -0.007 C 
HETATM    8  C6  UNL     1       3.963  11.462  22.100  1.00  0.00    -0.003 C 
HETATM    9  C9  UNL     1       3.215   9.840  24.002  1.00  0.00     0.011 C 
HETATM   10  C5  UNL     1       5.338  11.716  22.801  1.00  0.00     0.030 C 
HETATM   11  C7  UNL     1       3.003  12.608  22.500  1.00  0.00     0.019 C 
HETATM   12  C28 UNL     1       4.190  11.444  20.580  1.00  0.00     0.129 A 
HETATM   13  C4  UNL     1       6.013  13.044  22.383  1.00  0.00     0.094 C 
HETATM   14  C30 UNL     1       5.982  13.324  20.879  1.00  0.00     0.167 C 
HETATM   15  C29 UNL     1       5.219  12.403  20.004  1.00  0.00     0.230 A 
HETATM   16  O7  UNL     1       6.503  14.318  20.382  1.00  0.00    -0.294 OA
HETATM   17  O6  UNL     1       5.529  11.025  20.204  1.00  0.00    -0.358 OA
BRANCH  13  18
HETATM   18  C2  UNL     1       7.434  13.215  22.879  1.00  0.00    -0.018 C 
HETATM   19  C1  UNL     1       7.944  14.270  23.538  1.00  0.00     0.022 C 
BRANCH  18  20
HETATM   20  C3  UNL     1       8.374  12.086  22.584  1.00  0.00     0.265 C 
HETATM   21  O1  UNL     1       8.810  11.328  23.442  1.00  0.00    -0.302 OA
ENDBRANCH  18  20
ENDBRANCH  13  18
ENDBRANCH   3   4
ENDBRANCH   1   3
BRANCH   1  22
HETATM   22  C14 UNL     1       2.091  11.008  16.395  1.00  0.00     0.114 C 
HETATM   23  C15 UNL     1       0.874  11.680  17.031  1.00  0.00     0.023 C 
BRANCH  22  24
HETATM   24  C16 UNL     1       1.847   9.543  16.001  1.00  0.00     0.159 C 
BRANCH  24  25
HETATM   25  O4  UNL     1       2.370   8.687  17.018  1.00  0.00    -0.390 OA
HETATM   26  H24 UNL     1       2.342   7.779  16.670  1.00  0.00     0.210 HD
ENDBRANCH  24  25
BRANCH  24  27
HETATM   27  C17 UNL     1       2.489   9.122  14.683  1.00  0.00    -0.058 C 
HETATM   28  C18 UNL     1       1.840   9.662  13.433  1.00  0.00     0.046 C 
HETATM   29  C19 UNL     1       3.594   8.346  14.685  1.00  0.00    -0.015 C 
BRANCH  29  30
HETATM   30  C20 UNL     1       4.377   7.853  13.479  1.00  0.00     0.032 C 
BRANCH  30  31
HETATM   31  C21 UNL     1       5.883   7.740  13.794  1.00  0.00     0.172 C 
BRANCH  31  32
HETATM   32  O5  UNL     1       6.189   6.479  14.383  1.00  0.00    -0.400 OA
HETATM   33  H32 UNL     1       5.570   6.332  15.116  1.00  0.00     0.209 HD
ENDBRANCH  31  32
ENDBRANCH  30  31
BRANCH  30  34
HETATM   34  C22 UNL     1       4.113   8.706  12.218  1.00  0.00     0.010 C 
BRANCH  34  35
HETATM   35  C23 UNL     1       5.005   8.484  10.986  1.00  0.00     0.001 C 
BRANCH  35  36
HETATM   36  C24 UNL     1       4.344   7.694   9.854  1.00  0.00     0.000 C 
BRANCH  36  37
HETATM   37  C25 UNL     1       3.252   8.480   9.117  1.00  0.00    -0.000 C 
BRANCH  37  38
HETATM   38  C26 UNL     1       2.490   7.690   8.049  1.00  0.00    -0.005 C 
HETATM   39  C27 UNL     1       2.584   6.182   8.190  1.00  0.00     0.005 C 
ENDBRANCH  37  38
ENDBRANCH  36  37
ENDBRANCH  35  36
ENDBRANCH  34  35
ENDBRANCH  30  34
ENDBRANCH  29  30
ENDBRANCH  24  27
ENDBRANCH  22  24
ENDBRANCH   1  22
TORSDOF 16
ENDMDL
MODEL 7
REMARK minimizedAffinity -7.34827757
REMARK CNNscore 0.40429768
REMARK CNNaffinity 7.00691557
REMARK  16 active torsions:
REMARK  status: ('A' for Active; 'I' for Inactive)
REMARK    1  A    between atoms: C2_2  and  C3_3 
REMARK    2  A    between atoms: C2_2  and  C4_5 
REMARK    3  A    between atoms: C12_13  and  O2_14 
REMARK    4  A    between atoms: O2_14  and  C13_15 
REMARK    5  A    between atoms: C13_15  and  C14_17 
REMARK    6  A    between atoms: C14_17  and  C16_19 
REMARK    7  A    between atoms: C16_19  and  O4_20 
REMARK    8  A    between atoms: C16_19  and  C17_21 
REMARK    9  A    between atoms: C19_23  and  C20_24 
REMARK   10  A    between atoms: C20_24  and  C21_25 
REMARK   11  A    between atoms: C20_24  and  C22_27 
REMARK   12  A    between atoms: C21_25  and  O5_26 
REMARK   13  A    between atoms: C22_27  and  C23_28 
REMARK   14  A    between atoms: C23_28  and  C24_29 
REMARK   15  A    between atoms: C24_29  and  C25_30 
REMARK   16  A    between atoms: C25_30  and  C26_31 
ROOT
HETATM    1  C13 UNL     1      -3.754   8.953  15.155  1.00  0.00     0.266 C 
HETATM    2  O3  UNL     1      -4.090  10.108  15.382  1.00  0.00    -0.265 OA
ENDROOT
BRANCH   1   3
HETATM    3  O2  UNL     1      -4.540   7.861  15.371  1.00  0.00    -0.312 OA
BRANCH   3   4
HETATM    4  C12 UNL     1      -5.760   7.805  14.606  1.00  0.00     0.170 C 
HETATM    5  C11 UNL     1      -6.933   8.069  15.547  1.00  0.00     0.036 C 
HETATM    6  C10 UNL     1      -8.300   7.808  14.919  1.00  0.00     0.007 C 
HETATM    7  C8  UNL     1      -8.319   6.726  13.815  1.00  0.00    -0.007 C 
HETATM    8  C6  UNL     1      -7.174   5.674  13.979  1.00  0.00    -0.003 C 
HETATM    9  C9  UNL     1      -9.728   6.134  13.712  1.00  0.00     0.011 C 
HETATM   10  C5  UNL     1      -7.193   4.646  12.801  1.00  0.00     0.030 C 
HETATM   11  C7  UNL     1      -7.306   4.885  15.305  1.00  0.00     0.019 C 
HETATM   12  C28 UNL     1      -5.844   6.442  13.931  1.00  0.00     0.129 A 
HETATM   13  C4  UNL     1      -6.029   3.628  12.845  1.00  0.00     0.094 C 
HETATM   14  C30 UNL     1      -4.662   4.242  13.157  1.00  0.00     0.167 C 
HETATM   15  C29 UNL     1      -4.597   5.680  13.512  1.00  0.00     0.230 A 
HETATM   16  O7  UNL     1      -3.633   3.575  13.196  1.00  0.00    -0.294 OA
HETATM   17  O6  UNL     1      -5.281   6.533  12.595  1.00  0.00    -0.358 OA
BRANCH  13  18
HETATM   18  C2  UNL     1      -5.900   2.761  11.609  1.00  0.00    -0.018 C 
HETATM   19  C1  UNL     1      -6.089   1.433  11.525  1.00  0.00     0.022 C 
BRANCH  18  20
HETATM   20  C3  UNL     1      -5.500   3.467  10.350  1.00  0.00     0.265 C 
HETATM   21  O1  UNL     1      -4.347   3.512   9.938  1.00  0.00    -0.302 OA
ENDBRANCH  18  20
ENDBRANCH  13  18
ENDBRANCH   3   4
ENDBRANCH   1   3
BRANCH   1  22
HETATM   22  C14 UNL     1      -2.426   8.573  14.534  1.00  0.00     0.114 C 
HETATM   23  C15 UNL     1      -2.547   8.668  13.013  1.00  0.00     0.023 C 
BRANCH  22  24
HETATM   24  C16 UNL     1      -1.982   7.187  15.029  1.00  0.00     0.159 C 
BRANCH  24  25
HETATM   25  O4  UNL     1      -1.819   7.221  16.447  1.00  0.00    -0.390 OA
HETATM   26  H24 UNL     1      -1.392   6.386  16.706  1.00  0.00     0.210 HD
ENDBRANCH  24  25
BRANCH  24  27
HETATM   27  C17 UNL     1      -0.668   6.690  14.436  1.00  0.00    -0.058 C 
HETATM   28  C18 UNL     1      -0.749   5.419  13.626  1.00  0.00     0.046 C 
HETATM   29  C19 UNL     1       0.468   7.398  14.616  1.00  0.00    -0.015 C 
BRANCH  29  30
HETATM   30  C20 UNL     1       1.853   7.072  14.082  1.00  0.00     0.032 C 
BRANCH  30  31
HETATM   31  C21 UNL     1       2.951   7.788  14.895  1.00  0.00     0.172 C 
BRANCH  31  32
HETATM   32  O5  UNL     1       4.248   7.462  14.401  1.00  0.00    -0.400 OA
HETATM   33  H32 UNL     1       4.308   6.495  14.330  1.00  0.00     0.209 HD
ENDBRANCH  31  32
ENDBRANCH  30  31
BRANCH  30  34
HETATM   34  C22 UNL     1       1.980   7.350  12.568  1.00  0.00     0.010 C 
BRANCH  34  35
HETATM   35  C23 UNL     1       1.335   8.627  12.004  1.00  0.00     0.001 C 
BRANCH  35  36
HETATM   36  C24 UNL     1       0.438   8.403  10.785  1.00  0.00     0.000 C 
BRANCH  36  37
HETATM   37  C25 UNL     1       1.090   7.544   9.695  1.00  0.00    -0.000 C 
BRANCH  37  38
HETATM   38  C26 UNL     1       1.306   8.248   8.353  1.00  0.00    -0.005 C 
HETATM   39  C27 UNL     1       2.758   8.379   7.933  1.00  0.00     0.005 C 
ENDBRANCH  37  38
ENDBRANCH  36  37
ENDBRANCH  35  36
ENDBRANCH  34  35
ENDBRANCH  30  34
ENDBRANCH  29  30
ENDBRANCH  24  27
ENDBRANCH  22  24
ENDBRANCH   1  22
TORSDOF 16
ENDMDL
MODEL 8
REMARK minimizedAffinity -7.23056221
REMARK CNNscore 0.382274777
REMARK CNNaffinity 5.38311386
REMARK  16 active torsions:
REMARK  status: ('A' for Active; 'I' for Inactive)
REMARK    1  A    between atoms: C2_2  and  C3_3 
REMARK    2  A    between atoms: C2_2  and  C4_5 
REMARK    3  A    between atoms: C12_13  and  O2_14 
REMARK    4  A    between atoms: O2_14  and  C13_15 
REMARK    5  A    between atoms: C13_15  and  C14_17 
REMARK    6  A    between atoms: C14_17  and  C16_19 
REMARK    7  A    between atoms: C16_19  and  O4_20 
REMARK    8  A    between atoms: C16_19  and  C17_21 
REMARK    9  A    between atoms: C19_23  and  C20_24 
REMARK   10  A    between atoms: C20_24  and  C21_25 
REMARK   11  A    between atoms: C20_24  and  C22_27 
REMARK   12  A    between atoms: C21_25  and  O5_26 
REMARK   13  A    between atoms: C22_27  and  C23_28 
REMARK   14  A    between atoms: C23_28  and  C24_29 
REMARK   15  A    between atoms: C24_29  and  C25_30 
REMARK   16  A    between atoms: C25_30  and  C26_31 
ROOT
HETATM    1  C13 UNL     1       3.147  10.943  17.424  1.00  0.00     0.266 C 
HETATM    2  O3  UNL     1       4.244  10.579  17.021  1.00  0.00    -0.265 OA
ENDROOT
BRANCH   1   3
HETATM    3  O2  UNL     1       2.912  11.486  18.651  1.00  0.00    -0.312 OA
BRANCH   3   4
HETATM    4  C12 UNL     1       3.166  10.623  19.778  1.00  0.00     0.170 C 
HETATM    5  C11 UNL     1       1.847  10.382  20.508  1.00  0.00     0.036 C 
HETATM    6  C10 UNL     1       2.006   9.679  21.854  1.00  0.00     0.007 C 
HETATM    7  C8  UNL     1       3.347   9.942  22.577  1.00  0.00    -0.007 C 
HETATM    8  C6  UNL     1       3.989  11.311  22.182  1.00  0.00    -0.003 C 
HETATM    9  C9  UNL     1       3.158   9.729  24.083  1.00  0.00     0.011 C 
HETATM   10  C5  UNL     1       5.374  11.497  22.884  1.00  0.00     0.030 C 
HETATM   11  C7  UNL     1       3.087  12.504  22.580  1.00  0.00     0.019 C 
HETATM   12  C28 UNL     1       4.216  11.282  20.662  1.00  0.00     0.129 A 
HETATM   13  C4  UNL     1       6.115  12.790  22.467  1.00  0.00     0.094 C 
HETATM   14  C30 UNL     1       6.099  13.070  20.962  1.00  0.00     0.167 C 
HETATM   15  C29 UNL     1       5.292  12.189  20.086  1.00  0.00     0.230 A 
HETATM   16  O7  UNL     1       6.669  14.038  20.466  1.00  0.00    -0.294 OA
HETATM   17  O6  UNL     1       5.533  10.797  20.287  1.00  0.00    -0.358 OA
BRANCH  13  18
HETATM   18  C2  UNL     1       7.542  12.889  22.964  1.00  0.00    -0.018 C 
HETATM   19  C1  UNL     1       8.400  11.876  23.181  1.00  0.00     0.022 C 
BRANCH  18  20
HETATM   20  C3  UNL     1       8.040  14.270  23.261  1.00  0.00     0.265 C 
HETATM   21  O1  UNL     1       8.744  14.541  24.228  1.00  0.00    -0.302 OA
ENDBRANCH  18  20
ENDBRANCH  13  18
ENDBRANCH   3   4
ENDBRANCH   1   3
BRANCH   1  22
HETATM   22  C14 UNL     1       1.888  10.900  16.581  1.00  0.00     0.114 C 
HETATM   23  C15 UNL     1       0.895  11.927  17.125  1.00  0.00     0.023 C 
BRANCH  22  24
HETATM   24  C16 UNL     1       1.327   9.470  16.531  1.00  0.00     0.159 C 
BRANCH  24  25
HETATM   25  O4  UNL     1       2.265   8.573  17.127  1.00  0.00    -0.390 OA
HETATM   26  H24 UNL     1       1.955   7.669  16.941  1.00  0.00     0.210 HD
ENDBRANCH  24  25
BRANCH  24  27
HETATM   27  C17 UNL     1       1.034   8.949  15.128  1.00  0.00    -0.058 C 
HETATM   28  C18 UNL     1       1.529   9.808  13.991  1.00  0.00     0.046 C 
HETATM   29  C19 UNL     1       0.403   7.767  14.962  1.00  0.00    -0.015 C 
BRANCH  29  30
HETATM   30  C20 UNL     1       0.053   7.085  13.650  1.00  0.00     0.032 C 
BRANCH  30  31
HETATM   31  C21 UNL     1      -1.263   6.288  13.764  1.00  0.00     0.172 C 
BRANCH  31  32
HETATM   32  O5  UNL     1      -1.371   5.324  12.720  1.00  0.00    -0.400 OA
HETATM   33  H32 UNL     1      -1.196   5.775  11.877  1.00  0.00     0.209 HD
ENDBRANCH  31  32
ENDBRANCH  30  31
BRANCH  30  34
HETATM   34  C22 UNL     1       1.211   6.214  13.113  1.00  0.00     0.010 C 
BRANCH  34  35
HETATM   35  C23 UNL     1       2.011   6.728  11.904  1.00  0.00     0.001 C 
BRANCH  35  36
HETATM   36  C24 UNL     1       1.429   6.338  10.543  1.00  0.00     0.000 C 
BRANCH  36  37
HETATM   37  C25 UNL     1       2.477   6.283   9.423  1.00  0.00    -0.000 C 
BRANCH  37  38
HETATM   38  C26 UNL     1       2.491   7.494   8.486  1.00  0.00    -0.005 C 
HETATM   39  C27 UNL     1       2.009   7.208   7.076  1.00  0.00     0.005 C 
ENDBRANCH  37  38
ENDBRANCH  36  37
ENDBRANCH  35  36
ENDBRANCH  34  35
ENDBRANCH  30  34
ENDBRANCH  29  30
ENDBRANCH  24  27
ENDBRANCH  22  24
ENDBRANCH   1  22
TORSDOF 16
ENDMDL
MODEL 9
REMARK minimizedAffinity -6.76743031
REMARK CNNscore 0.345304668
REMARK CNNaffinity 5.23693275
REMARK  16 active torsions:
REMARK  status: ('A' for Active; 'I' for Inactive)
REMARK    1  A    between atoms: C2_2  and  C3_3 
REMARK    2  A    between atoms: C2_2  and  C4_5 
REMARK    3  A    between atoms: C12_13  and  O2_14 
REMARK    4  A    between atoms: O2_14  and  C13_15 
REMARK    5  A    between atoms: C13_15  and  C14_17 
REMARK    6  A    between atoms: C14_17  and  C16_19 
REMARK    7  A    between atoms: C16_19  and  O4_20 
REMARK    8  A    between atoms: C16_19  and  C17_21 
REMARK    9  A    between atoms: C19_23  and  C20_24 
REMARK   10  A    between atoms: C20_24  and  C21_25 
REMARK   11  A    between atoms: C20_24  and  C22_27 
REMARK   12  A    between atoms: C21_25  and  O5_26 
REMARK   13  A    between atoms: C22_27  and  C23_28 
REMARK   14  A    between atoms: C23_28  and  C24_29 
REMARK   15  A    between atoms: C24_29  and  C25_30 
REMARK   16  A    between atoms: C25_30  and  C26_31 
ROOT
HETATM    1  C13 UNL     1       2.863  11.055  17.476  1.00  0.00     0.266 C 
HETATM    2  O3  UNL     1       3.779  10.412  16.981  1.00  0.00    -0.265 OA
ENDROOT
BRANCH   1   3
HETATM    3  O2  UNL     1       2.896  11.623  18.715  1.00  0.00    -0.312 OA
BRANCH   3   4
HETATM    4  C12 UNL     1       3.181  10.727  19.808  1.00  0.00     0.170 C 
HETATM    5  C11 UNL     1       1.884  10.465  20.569  1.00  0.00     0.036 C 
HETATM    6  C10 UNL     1       2.081   9.723  21.888  1.00  0.00     0.007 C 
HETATM    7  C8  UNL     1       3.443   9.963  22.580  1.00  0.00    -0.007 C 
HETATM    8  C6  UNL     1       4.075  11.343  22.206  1.00  0.00    -0.003 C 
HETATM    9  C9  UNL     1       3.298   9.706  24.083  1.00  0.00     0.011 C 
HETATM   10  C5  UNL     1       5.480  11.506  22.873  1.00  0.00     0.030 C 
HETATM   11  C7  UNL     1       3.187  12.524  22.666  1.00  0.00     0.019 C 
HETATM   12  C28 UNL     1       4.258  11.359  20.680  1.00  0.00     0.129 A 
HETATM   13  C4  UNL     1       6.211  12.810  22.472  1.00  0.00     0.094 C 
HETATM   14  C30 UNL     1       6.152  13.135  20.977  1.00  0.00     0.167 C 
HETATM   15  C29 UNL     1       5.318  12.281  20.100  1.00  0.00     0.230 A 
HETATM   16  O7  UNL     1       6.709  14.117  20.493  1.00  0.00    -0.294 OA
HETATM   17  O6  UNL     1       5.562  10.883  20.252  1.00  0.00    -0.358 OA
BRANCH  13  18
HETATM   18  C2  UNL     1       7.653  12.894  22.930  1.00  0.00    -0.018 C 
HETATM   19  C1  UNL     1       8.516  11.875  23.086  1.00  0.00     0.022 C 
BRANCH  18  20
HETATM   20  C3  UNL     1       8.159  14.265  23.259  1.00  0.00     0.265 C 
HETATM   21  O1  UNL     1       8.773  14.529  24.287  1.00  0.00    -0.302 OA
ENDBRANCH  18  20
ENDBRANCH  13  18
ENDBRANCH   3   4
ENDBRANCH   1   3
BRANCH   1  22
HETATM   22  C14 UNL     1       1.572  11.373  16.750  1.00  0.00     0.114 C 
HETATM   23  C15 UNL     1       1.024  12.701  17.273  1.00  0.00     0.023 C 
BRANCH  22  24
HETATM   24  C16 UNL     1       0.581  10.205  16.885  1.00  0.00     0.159 C 
BRANCH  24  25
HETATM   25  O4  UNL     1       1.285   8.970  16.743  1.00  0.00    -0.390 OA
HETATM   26  H24 UNL     1       0.616   8.266  16.677  1.00  0.00     0.210 HD
ENDBRANCH  24  25
BRANCH  24  27
HETATM   27  C17 UNL     1      -0.545  10.203  15.858  1.00  0.00    -0.058 C 
HETATM   28  C18 UNL     1      -0.127   9.999  14.423  1.00  0.00     0.046 C 
HETATM   29  C19 UNL     1      -1.828  10.338  16.258  1.00  0.00    -0.015 C 
BRANCH  29  30
HETATM   30  C20 UNL     1      -3.072  10.334  15.385  1.00  0.00     0.032 C 
BRANCH  30  31
HETATM   31  C21 UNL     1      -4.258  11.018  16.095  1.00  0.00     0.172 C 
BRANCH  31  32
HETATM   32  O5  UNL     1      -4.480  12.327  15.575  1.00  0.00    -0.400 OA
HETATM   33  H32 UNL     1      -3.630  12.798  15.576  1.00  0.00     0.209 HD
ENDBRANCH  31  32
ENDBRANCH  30  31
BRANCH  30  34
HETATM   34  C22 UNL     1      -3.436   8.917  14.887  1.00  0.00     0.010 C 
BRANCH  34  35
HETATM   35  C23 UNL     1      -4.747   8.733  14.105  1.00  0.00     0.001 C 
BRANCH  35  36
HETATM   36  C24 UNL     1      -5.989   8.545  14.979  1.00  0.00     0.000 C 
BRANCH  36  37
HETATM   37  C25 UNL     1      -6.883   7.382  14.530  1.00  0.00    -0.000 C 
BRANCH  37  38
HETATM   38  C26 UNL     1      -6.668   6.068  15.286  1.00  0.00    -0.005 C 
HETATM   39  C27 UNL     1      -7.934   5.445  15.845  1.00  0.00     0.005 C 
ENDBRANCH  37  38
ENDBRANCH  36  37
ENDBRANCH  35  36
ENDBRANCH  34  35
ENDBRANCH  30  34
ENDBRANCH  29  30
ENDBRANCH  24  27
ENDBRANCH  22  24
ENDBRANCH   1  22
TORSDOF 16
ENDMDL
