MODEL 1
REMARK minimizedAffinity -10.1445255
REMARK CNNscore 0.556770325
REMARK CNNaffinity 7.73162222
REMARK  12 active torsions:
REMARK  status: ('A' for Active; 'I' for Inactive)
REMARK    1  A    between atoms: C16_17  and  O2_18 
REMARK    2  A    between atoms: O2_18  and  C17_19 
REMARK    3  A    between atoms: C17_19  and  C18_21 
REMARK    4  A    between atoms: C18_21  and  C19_22 
REMARK    5  A    between atoms: C19_22  and  C20_23 
REMARK       I    between atoms: C20_23  and  N1_25 
REMARK    6  A    between atoms: N1_25  and  C21_26 
REMARK    7  A    between atoms: C21_26  and  C22_27 
REMARK       I    between atoms: C22_27  and  N2_29 
REMARK    8  A    between atoms: N2_29  and  C23_30 
REMARK    9  A    between atoms: C23_30  and  C24_31 
REMARK   10  A    between atoms: C23_30  and  C33_41 
REMARK   11  A    between atoms: C24_31  and  C25_32 
REMARK   12  A    between atoms: C33_41  and  O7_43 
ROOT
HETATM    1  C19 UNL     1      -5.933   3.145  11.567  1.00  0.00     0.112 C 
ENDROOT
BRANCH   1   2
HETATM    2  C18 UNL     1      -5.985   3.749  12.966  1.00  0.00     0.120 C 
BRANCH   2   3
HETATM    3  C17 UNL     1      -7.337   3.514  13.601  1.00  0.00     0.259 C 
HETATM    4  O3  UNL     1      -8.159   2.701  13.194  1.00  0.00    -0.265 OA
BRANCH   3   5
HETATM    5  O2  UNL     1      -7.456   4.288  14.713  1.00  0.00    -0.315 OA
BRANCH   5   6
HETATM    6  C16 UNL     1      -6.709   5.521  14.737  1.00  0.00     0.140 C 
HETATM    7  C14 UNL     1      -7.642   6.704  14.383  1.00  0.00    -0.013 C 
HETATM    8  C13 UNL     1      -8.613   6.529  13.195  1.00  0.00     0.012 C 
HETATM    9  C15 UNL     1      -6.741   7.930  14.063  1.00  0.00     0.018 C 
HETATM   10  C36 UNL     1      -8.422   6.811  15.712  1.00  0.00     0.001 C 
HETATM   11  C12 UNL     1     -10.114   6.504  13.533  1.00  0.00     0.007 C 
HETATM   12  C11 UNL     1     -10.614   7.360  14.736  1.00  0.00     0.002 C 
HETATM   13  C2  UNL     1     -11.712   8.441  14.429  1.00  0.00    -0.016 C 
HETATM   14  C10 UNL     1      -9.463   7.914  15.621  1.00  0.00    -0.004 C 
HETATM   15  C1  UNL     1     -11.176   9.534  13.484  1.00  0.00     0.020 C 
HETATM   16  C3  UNL     1     -12.932   7.738  13.760  1.00  0.00     0.022 C 
HETATM   17  C7  UNL     1     -12.148   9.087  15.758  1.00  0.00    -0.068 C 
HETATM   18  C4  UNL     1     -14.203   8.575  13.765  1.00  0.00     0.084 C 
HETATM   19  C5  UNL     1     -14.547   9.002  15.168  1.00  0.00     0.149 C 
HETATM   20  O1  UNL     1     -15.705   9.176  15.539  1.00  0.00    -0.293 OA
HETATM   21  C6  UNL     1     -13.432   9.292  16.098  1.00  0.00     0.053 C 
HETATM   22  C8  UNL     1     -11.055   9.491  16.729  1.00  0.00     0.035 C 
HETATM   23  C9  UNL     1     -10.028   8.381  16.961  1.00  0.00     0.010 C 
HETATM   24  C35 UNL     1      -7.334   6.808  16.771  1.00  0.00     0.008 C 
HETATM   25  C34 UNL     1      -6.305   5.803  16.210  1.00  0.00     0.034 C 
ENDBRANCH   5   6
ENDBRANCH   3   5
ENDBRANCH   2   3
ENDBRANCH   1   2
BRANCH   1  26
HETATM   26  C20 UNL     1      -4.600   2.476  11.313  1.00  0.00     0.218 C 
HETATM   27  O4  UNL     1      -4.378   1.293  11.555  1.00  0.00    -0.274 OA
HETATM   28  N1  UNL     1      -3.646   3.313  10.788  1.00  0.00    -0.352 N 
HETATM   29  H27 UNL     1      -3.799   4.314  10.827  1.00  0.00     0.162 HD
BRANCH  28  30
HETATM   30  C21 UNL     1      -2.290   2.850  10.541  1.00  0.00     0.225 C 
BRANCH  30  31
HETATM   31  C22 UNL     1      -1.292   3.460  11.530  1.00  0.00     0.236 C 
HETATM   32  O5  UNL     1      -0.293   2.852  11.910  1.00  0.00    -0.272 OA
HETATM   33  N2  UNL     1      -1.626   4.713  11.987  1.00  0.00    -0.345 N 
HETATM   34  H30 UNL     1      -2.466   5.169  11.624  1.00  0.00     0.163 HD
BRANCH  33  35
HETATM   35  C23 UNL     1      -0.755   5.475  12.885  1.00  0.00     0.186 C 
BRANCH  35  36
HETATM   36  C24 UNL     1      -0.455   6.870  12.319  1.00  0.00     0.077 C 
BRANCH  36  37
HETATM   37  C25 UNL     1       0.929   6.998  11.760  1.00  0.00    -0.028 A 
HETATM   38  C26 UNL     1       2.112   6.727  12.419  1.00  0.00     0.096 A 
HETATM   39  N3  UNL     1       3.149   6.976  11.560  1.00  0.00    -0.365 N 
HETATM   40  C27 UNL     1       2.670   7.409  10.346  1.00  0.00     0.042 A 
HETATM   41  H35 UNL     1       4.129   6.863  11.780  1.00  0.00     0.165 HD
HETATM   42  C28 UNL     1       3.356   7.780   9.183  1.00  0.00     0.030 A 
HETATM   43  C32 UNL     1       1.278   7.437  10.442  1.00  0.00    -0.002 A 
HETATM   44  C29 UNL     1       2.596   8.188   8.083  1.00  0.00     0.002 A 
HETATM   45  C30 UNL     1       1.205   8.226   8.147  1.00  0.00     0.001 A 
HETATM   46  C31 UNL     1       0.535   7.855   9.319  1.00  0.00     0.014 A 
ENDBRANCH  36  37
ENDBRANCH  35  36
BRANCH  35  47
HETATM   47  C33 UNL     1      -1.463   5.606  14.229  1.00  0.00     0.163 C 
HETATM   48  O6  UNL     1      -2.659   5.779  14.406  1.00  0.00    -0.648 OA
BRANCH  47  49
HETATM   49  O7  UNL     1      -0.636   5.499  15.290  1.00  0.00    -0.775 OA
HETATM   50  H40 UNL     1      -1.223   5.595  16.066  1.00  0.00     0.167 HD
ENDBRANCH  47  49
ENDBRANCH  35  47
ENDBRANCH  33  35
ENDBRANCH  30  31
ENDBRANCH  28  30
ENDBRANCH   1  26
TORSDOF 12
ENDMDL
MODEL 2
REMARK minimizedAffinity -9.28696918
REMARK CNNscore 0.479372501
REMARK CNNaffinity 7.56536436
REMARK  12 active torsions:
REMARK  status: ('A' for Active; 'I' for Inactive)
REMARK    1  A    between atoms: C16_17  and  O2_18 
REMARK    2  A    between atoms: O2_18  and  C17_19 
REMARK    3  A    between atoms: C17_19  and  C18_21 
REMARK    4  A    between atoms: C18_21  and  C19_22 
REMARK    5  A    between atoms: C19_22  and  C20_23 
REMARK       I    between atoms: C20_23  and  N1_25 
REMARK    6  A    between atoms: N1_25  and  C21_26 
REMARK    7  A    between atoms: C21_26  and  C22_27 
REMARK       I    between atoms: C22_27  and  N2_29 
REMARK    8  A    between atoms: N2_29  and  C23_30 
REMARK    9  A    between atoms: C23_30  and  C24_31 
REMARK   10  A    between atoms: C23_30  and  C33_41 
REMARK   11  A    between atoms: C24_31  and  C25_32 
REMARK   12  A    between atoms: C33_41  and  O7_43 
ROOT
HETATM    1  C19 UNL     1       0.783   9.976  13.852  1.00  0.00     0.112 C 
ENDROOT
BRANCH   1   2
HETATM    2  C18 UNL     1      -0.004   8.739  13.431  1.00  0.00     0.120 C 
BRANCH   2   3
HETATM    3  C17 UNL     1      -1.449   9.092  13.156  1.00  0.00     0.259 C 
HETATM    4  O3  UNL     1      -1.925  10.212  13.297  1.00  0.00    -0.265 OA
BRANCH   3   5
HETATM    5  O2  UNL     1      -2.098   7.998  12.673  1.00  0.00    -0.315 OA
BRANCH   5   6
HETATM    6  C16 UNL     1      -2.004   6.784  13.445  1.00  0.00     0.140 C 
HETATM    7  C14 UNL     1      -3.246   6.650  14.359  1.00  0.00    -0.013 C 
HETATM    8  C13 UNL     1      -3.716   7.903  15.129  1.00  0.00     0.012 C 
HETATM    9  C15 UNL     1      -2.932   5.553  15.416  1.00  0.00     0.018 C 
HETATM   10  C36 UNL     1      -4.291   6.239  13.298  1.00  0.00     0.001 C 
HETATM   11  C12 UNL     1      -5.084   8.483  14.726  1.00  0.00     0.007 C 
HETATM   12  C11 UNL     1      -6.187   7.498  14.234  1.00  0.00     0.002 C 
HETATM   13  C2  UNL     1      -7.538   7.489  15.036  1.00  0.00    -0.016 C 
HETATM   14  C10 UNL     1      -5.654   6.067  13.945  1.00  0.00    -0.004 C 
HETATM   15  C1  UNL     1      -7.328   7.006  16.485  1.00  0.00     0.020 C 
HETATM   16  C3  UNL     1      -8.116   8.936  15.057  1.00  0.00     0.022 C 
HETATM   17  C7  UNL     1      -8.524   6.544  14.323  1.00  0.00    -0.068 C 
HETATM   18  C4  UNL     1      -9.585   9.005  15.451  1.00  0.00     0.084 C 
HETATM   19  C5  UNL     1     -10.413   8.121  14.556  1.00  0.00     0.149 C 
HETATM   20  O1  UNL     1     -11.580   8.378  14.273  1.00  0.00    -0.293 OA
HETATM   21  C6  UNL     1      -9.806   6.861  14.072  1.00  0.00     0.053 C 
HETATM   22  C8  UNL     1      -7.996   5.195  13.872  1.00  0.00     0.035 C 
HETATM   23  C9  UNL     1      -6.676   5.301  13.106  1.00  0.00     0.010 C 
HETATM   24  C35 UNL     1      -3.608   5.117  12.535  1.00  0.00     0.008 C 
HETATM   25  C34 UNL     1      -2.139   5.586  12.467  1.00  0.00     0.034 C 
ENDBRANCH   5   6
ENDBRANCH   3   5
ENDBRANCH   2   3
ENDBRANCH   1   2
BRANCH   1  26
HETATM   26  C20 UNL     1       2.236   9.637  14.100  1.00  0.00     0.218 C 
HETATM   27  O4  UNL     1       2.654   9.178  15.159  1.00  0.00    -0.274 OA
HETATM   28  N1  UNL     1       3.060   9.892  13.032  1.00  0.00    -0.352 N 
HETATM   29  H27 UNL     1       2.718  10.480  12.280  1.00  0.00     0.162 HD
BRANCH  28  30
HETATM   30  C21 UNL     1       4.496   9.683  13.120  1.00  0.00     0.225 C 
BRANCH  30  31
HETATM   31  C22 UNL     1       4.864   8.203  12.982  1.00  0.00     0.236 C 
HETATM   32  O5  UNL     1       5.087   7.491  13.959  1.00  0.00    -0.272 OA
HETATM   33  N2  UNL     1       4.966   7.752  11.687  1.00  0.00    -0.345 N 
HETATM   34  H30 UNL     1       4.758   8.393  10.918  1.00  0.00     0.163 HD
BRANCH  33  35
HETATM   35  C23 UNL     1       5.243   6.350  11.366  1.00  0.00     0.186 C 
BRANCH  35  36
HETATM   36  C24 UNL     1       4.327   5.844  10.243  1.00  0.00     0.077 C 
BRANCH  36  37
HETATM   37  C25 UNL     1       2.877   6.129  10.486  1.00  0.00    -0.028 A 
HETATM   38  C26 UNL     1       2.091   5.600  11.491  1.00  0.00     0.096 A 
HETATM   39  N3  UNL     1       0.826   6.110  11.360  1.00  0.00    -0.365 N 
HETATM   40  C27 UNL     1       0.764   6.964  10.284  1.00  0.00     0.042 A 
HETATM   41  H35 UNL     1       0.044   5.892  11.962  1.00  0.00     0.165 HD
HETATM   42  C28 UNL     1      -0.311   7.702   9.775  1.00  0.00     0.030 A 
HETATM   43  C32 UNL     1       2.037   6.994   9.712  1.00  0.00    -0.002 A 
HETATM   44  C29 UNL     1      -0.079   8.497   8.649  1.00  0.00     0.002 A 
HETATM   45  C30 UNL     1       1.180   8.549   8.056  1.00  0.00     0.001 A 
HETATM   46  C31 UNL     1       2.245   7.803   8.575  1.00  0.00     0.014 A 
ENDBRANCH  36  37
ENDBRANCH  35  36
BRANCH  35  47
HETATM   47  C33 UNL     1       6.700   6.245  10.930  1.00  0.00     0.163 C 
HETATM   48  O6  UNL     1       7.288   5.225  10.602  1.00  0.00    -0.648 OA
BRANCH  47  49
HETATM   49  O7  UNL     1       7.348   7.427  10.914  1.00  0.00    -0.775 OA
HETATM   50  H40 UNL     1       8.252   7.205  10.615  1.00  0.00     0.167 HD
ENDBRANCH  47  49
ENDBRANCH  35  47
ENDBRANCH  33  35
ENDBRANCH  30  31
ENDBRANCH  28  30
ENDBRANCH   1  26
TORSDOF 12
ENDMDL
MODEL 3
REMARK minimizedAffinity -8.93258953
REMARK CNNscore 0.426056355
REMARK CNNaffinity 7.20587873
REMARK  12 active torsions:
REMARK  status: ('A' for Active; 'I' for Inactive)
REMARK    1  A    between atoms: C16_17  and  O2_18 
REMARK    2  A    between atoms: O2_18  and  C17_19 
REMARK    3  A    between atoms: C17_19  and  C18_21 
REMARK    4  A    between atoms: C18_21  and  C19_22 
REMARK    5  A    between atoms: C19_22  and  C20_23 
REMARK       I    between atoms: C20_23  and  N1_25 
REMARK    6  A    between atoms: N1_25  and  C21_26 
REMARK    7  A    between atoms: C21_26  and  C22_27 
REMARK       I    between atoms: C22_27  and  N2_29 
REMARK    8  A    between atoms: N2_29  and  C23_30 
REMARK    9  A    between atoms: C23_30  and  C24_31 
REMARK   10  A    between atoms: C23_30  and  C33_41 
REMARK   11  A    between atoms: C24_31  and  C25_32 
REMARK   12  A    between atoms: C33_41  and  O7_43 
ROOT
HETATM    1  C19 UNL     1      -2.847   8.363  14.256  1.00  0.00     0.112 C 
ENDROOT
BRANCH   1   2
HETATM    2  C18 UNL     1      -3.365   7.673  12.999  1.00  0.00     0.120 C 
BRANCH   2   3
HETATM    3  C17 UNL     1      -3.842   6.273  13.315  1.00  0.00     0.259 C 
HETATM    4  O3  UNL     1      -3.115   5.366  13.699  1.00  0.00    -0.265 OA
BRANCH   3   5
HETATM    5  O2  UNL     1      -5.194   6.212  13.170  1.00  0.00    -0.315 OA
BRANCH   5   6
HETATM    6  C16 UNL     1      -5.891   5.209  13.935  1.00  0.00     0.140 C 
HETATM    7  C14 UNL     1      -6.983   5.879  14.803  1.00  0.00    -0.013 C 
HETATM    8  C13 UNL     1      -6.609   7.168  15.567  1.00  0.00     0.012 C 
HETATM    9  C15 UNL     1      -7.445   4.837  15.861  1.00  0.00     0.018 C 
HETATM   10  C36 UNL     1      -8.024   6.181  13.702  1.00  0.00     0.001 C 
HETATM   11  C12 UNL     1      -7.317   8.460  15.121  1.00  0.00     0.007 C 
HETATM   12  C11 UNL     1      -8.775   8.354  14.582  1.00  0.00     0.002 C 
HETATM   13  C2  UNL     1      -9.872   9.189  15.336  1.00  0.00    -0.016 C 
HETATM   14  C10 UNL     1      -9.226   6.893  14.300  1.00  0.00    -0.004 C 
HETATM   15  C1  UNL     1     -10.051   8.700  16.787  1.00  0.00     0.020 C 
HETATM   16  C3  UNL     1      -9.440  10.686  15.349  1.00  0.00     0.022 C 
HETATM   17  C7  UNL     1     -11.207   9.039  14.580  1.00  0.00    -0.068 C 
HETATM   18  C4  UNL     1     -10.568  11.649  15.692  1.00  0.00     0.084 C 
HETATM   19  C5  UNL     1     -11.734  11.447  14.760  1.00  0.00     0.149 C 
HETATM   20  O1  UNL     1     -12.486  12.363  14.438  1.00  0.00    -0.293 OA
HETATM   21  C6  UNL     1     -12.014  10.073  14.287  1.00  0.00     0.053 C 
HETATM   22  C8  UNL     1     -11.604   7.644  14.137  1.00  0.00     0.035 C 
HETATM   23  C9  UNL     1     -10.474   6.905  13.419  1.00  0.00     0.010 C 
HETATM   24  C35 UNL     1      -8.151   4.866  12.954  1.00  0.00     0.008 C 
HETATM   25  C34 UNL     1      -6.702   4.332  12.942  1.00  0.00     0.034 C 
ENDBRANCH   5   6
ENDBRANCH   3   5
ENDBRANCH   2   3
ENDBRANCH   1   2
BRANCH   1  26
HETATM   26  C20 UNL     1      -1.368   8.659  14.143  1.00  0.00     0.218 C 
HETATM   27  O4  UNL     1      -0.879   9.343  13.248  1.00  0.00    -0.274 OA
HETATM   28  N1  UNL     1      -0.607   8.087  15.133  1.00  0.00    -0.352 N 
HETATM   29  H27 UNL     1      -1.014   7.352  15.701  1.00  0.00     0.162 HD
BRANCH  28  30
HETATM   30  C21 UNL     1       0.842   8.218  15.142  1.00  0.00     0.225 C 
BRANCH  30  31
HETATM   31  C22 UNL     1       1.330   9.054  16.328  1.00  0.00     0.236 C 
HETATM   32  O5  UNL     1       2.196   8.649  17.101  1.00  0.00    -0.272 OA
HETATM   33  N2  UNL     1       0.696  10.264  16.480  1.00  0.00    -0.345 N 
HETATM   34  H30 UNL     1      -0.009  10.547  15.796  1.00  0.00     0.163 HD
BRANCH  33  35
HETATM   35  C23 UNL     1       1.080  11.223  17.519  1.00  0.00     0.186 C 
BRANCH  35  36
HETATM   36  C24 UNL     1       0.738  10.695  18.919  1.00  0.00     0.077 C 
BRANCH  36  37
HETATM   37  C25 UNL     1       1.286  11.547  20.024  1.00  0.00    -0.028 A 
HETATM   38  C26 UNL     1       1.099  12.905  20.187  1.00  0.00     0.096 A 
HETATM   39  N3  UNL     1       1.768  13.298  21.316  1.00  0.00    -0.365 N 
HETATM   40  C27 UNL     1       2.395  12.222  21.899  1.00  0.00     0.042 A 
HETATM   41  H35 UNL     1       1.804  14.243  21.674  1.00  0.00     0.165 HD
HETATM   42  C28 UNL     1       3.186  12.151  23.051  1.00  0.00     0.030 A 
HETATM   43  C32 UNL     1       2.113  11.107  21.108  1.00  0.00    -0.002 A 
HETATM   44  C29 UNL     1       3.702  10.903  23.409  1.00  0.00     0.002 A 
HETATM   45  C30 UNL     1       3.439   9.771  22.641  1.00  0.00     0.001 A 
HETATM   46  C31 UNL     1       2.648   9.860  21.490  1.00  0.00     0.014 A 
ENDBRANCH  36  37
ENDBRANCH  35  36
BRANCH  35  47
HETATM   47  C33 UNL     1       2.582  11.461  17.410  1.00  0.00     0.163 C 
HETATM   48  O6  UNL     1       3.451  10.938  18.092  1.00  0.00    -0.648 OA
BRANCH  47  49
HETATM   49  O7  UNL     1       2.924  12.334  16.441  1.00  0.00    -0.775 OA
HETATM   50  H40 UNL     1       3.900  12.379  16.487  1.00  0.00     0.167 HD
ENDBRANCH  47  49
ENDBRANCH  35  47
ENDBRANCH  33  35
ENDBRANCH  30  31
ENDBRANCH  28  30
ENDBRANCH   1  26
TORSDOF 12
ENDMDL
MODEL 4
REMARK minimizedAffinity -9.72032928
REMARK CNNscore 0.420951575
REMARK CNNaffinity 7.29296494
REMARK  12 active torsions:
REMARK  status: ('A' for Active; 'I' for Inactive)
REMARK    1  A    between atoms: C16_17  and  O2_18 
REMARK    2  A    between atoms: O2_18  and  C17_19 
REMARK    3  A    between atoms: C17_19  and  C18_21 
REMARK    4  A    between atoms: C18_21  and  C19_22 
REMARK    5  A    between atoms: C19_22  and  C20_23 
REMARK       I    between atoms: C20_23  and  N1_25 
REMARK    6  A    between atoms: N1_25  and  C21_26 
REMARK    7  A    between atoms: C21_26  and  C22_27 
REMARK       I    between atoms: C22_27  and  N2_29 
REMARK    8  A    between atoms: N2_29  and  C23_30 
REMARK    9  A    between atoms: C23_30  and  C24_31 
REMARK   10  A    between atoms: C23_30  and  C33_41 
REMARK   11  A    between atoms: C24_31  and  C25_32 
REMARK   12  A    between atoms: C33_41  and  O7_43 
ROOT
HETATM    1  C19 UNL     1      -1.512   5.328  13.484  1.00  0.00     0.112 C 
ENDROOT
BRANCH   1   2
HETATM    2  C18 UNL     1      -2.977   5.350  13.906  1.00  0.00     0.120 C 
BRANCH   2   3
HETATM    3  C17 UNL     1      -3.880   5.128  12.713  1.00  0.00     0.259 C 
HETATM    4  O3  UNL     1      -3.518   4.623  11.657  1.00  0.00    -0.265 OA
BRANCH   3   5
HETATM    5  O2  UNL     1      -5.147   5.511  13.027  1.00  0.00    -0.315 OA
BRANCH   5   6
HETATM    6  C16 UNL     1      -5.965   4.557  13.734  1.00  0.00     0.140 C 
HETATM    7  C14 UNL     1      -6.998   5.304  14.612  1.00  0.00    -0.013 C 
HETATM    8  C13 UNL     1      -6.507   6.512  15.438  1.00  0.00     0.012 C 
HETATM    9  C15 UNL     1      -7.593   4.274  15.614  1.00  0.00     0.018 C 
HETATM   10  C36 UNL     1      -7.976   5.762  13.507  1.00  0.00     0.001 C 
HETATM   11  C12 UNL     1      -7.062   7.890  15.036  1.00  0.00     0.007 C 
HETATM   12  C11 UNL     1      -8.510   7.965  14.467  1.00  0.00     0.002 C 
HETATM   13  C2  UNL     1      -9.529   8.881  15.237  1.00  0.00    -0.016 C 
HETATM   14  C10 UNL     1      -9.108   6.574  14.113  1.00  0.00    -0.004 C 
HETATM   15  C1  UNL     1      -9.792   8.354  16.662  1.00  0.00     0.020 C 
HETATM   16  C3  UNL     1      -8.939  10.320  15.324  1.00  0.00     0.022 C 
HETATM   17  C7  UNL     1     -10.854   8.907  14.452  1.00  0.00    -0.068 C 
HETATM   18  C4  UNL     1      -9.966  11.384  15.689  1.00  0.00     0.084 C 
HETATM   19  C5  UNL     1     -11.125  11.348  14.728  1.00  0.00     0.149 C 
HETATM   20  O1  UNL     1     -11.767  12.352  14.433  1.00  0.00    -0.293 OA
HETATM   21  C6  UNL     1     -11.540  10.033  14.190  1.00  0.00     0.053 C 
HETATM   22  C8  UNL     1     -11.388   7.582  13.941  1.00  0.00     0.035 C 
HETATM   23  C9  UNL     1     -10.327   6.757  13.211  1.00  0.00     0.010 C 
HETATM   24  C35 UNL     1      -8.225   4.501  12.699  1.00  0.00     0.008 C 
HETATM   25  C34 UNL     1      -6.842   3.815  12.689  1.00  0.00     0.034 C 
ENDBRANCH   5   6
ENDBRANCH   3   5
ENDBRANCH   2   3
ENDBRANCH   1   2
BRANCH   1  26
HETATM   26  C20 UNL     1      -0.779   6.545  14.003  1.00  0.00     0.218 C 
HETATM   27  O4  UNL     1      -1.260   7.675  14.010  1.00  0.00    -0.274 OA
HETATM   28  N1  UNL     1       0.486   6.280  14.468  1.00  0.00    -0.352 N 
HETATM   29  H27 UNL     1       0.920   5.396  14.229  1.00  0.00     0.162 HD
BRANCH  28  30
HETATM   30  C21 UNL     1       1.353   7.346  14.946  1.00  0.00     0.225 C 
BRANCH  30  31
HETATM   31  C22 UNL     1       2.187   7.950  13.813  1.00  0.00     0.236 C 
HETATM   32  O5  UNL     1       1.731   8.793  13.043  1.00  0.00    -0.272 OA
HETATM   33  N2  UNL     1       3.461   7.446  13.703  1.00  0.00    -0.345 N 
HETATM   34  H30 UNL     1       3.784   6.753  14.382  1.00  0.00     0.163 HD
BRANCH  33  35
HETATM   35  C23 UNL     1       4.422   7.954  12.720  1.00  0.00     0.186 C 
BRANCH  35  36
HETATM   36  C24 UNL     1       3.727   8.338  11.407  1.00  0.00     0.077 C 
BRANCH  36  37
HETATM   37  C25 UNL     1       3.663   7.213  10.419  1.00  0.00    -0.028 A 
HETATM   38  C26 UNL     1       4.226   5.960  10.560  1.00  0.00     0.096 A 
HETATM   39  N3  UNL     1       3.941   5.233   9.434  1.00  0.00    -0.365 N 
HETATM   40  C27 UNL     1       3.203   5.986   8.552  1.00  0.00     0.042 A 
HETATM   41  H35 UNL     1       4.233   4.280   9.266  1.00  0.00     0.165 HD
HETATM   42  C28 UNL     1       2.696   5.662   7.288  1.00  0.00     0.030 A 
HETATM   43  C32 UNL     1       3.014   7.237   9.142  1.00  0.00    -0.002 A 
HETATM   44  C29 UNL     1       1.971   6.644   6.607  1.00  0.00     0.002 A 
HETATM   45  C30 UNL     1       1.765   7.901   7.169  1.00  0.00     0.001 A 
HETATM   46  C31 UNL     1       2.281   8.211   8.432  1.00  0.00     0.014 A 
ENDBRANCH  36  37
ENDBRANCH  35  36
BRANCH  35  47
HETATM   47  C33 UNL     1       5.105   9.178  13.319  1.00  0.00     0.163 C 
HETATM   48  O6  UNL     1       6.269   9.254  13.683  1.00  0.00    -0.648 OA
BRANCH  47  49
HETATM   49  O7  UNL     1       4.299  10.254  13.420  1.00  0.00    -0.775 OA
HETATM   50  H40 UNL     1       4.868  10.949  13.807  1.00  0.00     0.167 HD
ENDBRANCH  47  49
ENDBRANCH  35  47
ENDBRANCH  33  35
ENDBRANCH  30  31
ENDBRANCH  28  30
ENDBRANCH   1  26
TORSDOF 12
ENDMDL
MODEL 5
REMARK minimizedAffinity -9.13135815
REMARK CNNscore 0.400652379
REMARK CNNaffinity 7.35467529
REMARK  12 active torsions:
REMARK  status: ('A' for Active; 'I' for Inactive)
REMARK    1  A    between atoms: C16_17  and  O2_18 
REMARK    2  A    between atoms: O2_18  and  C17_19 
REMARK    3  A    between atoms: C17_19  and  C18_21 
REMARK    4  A    between atoms: C18_21  and  C19_22 
REMARK    5  A    between atoms: C19_22  and  C20_23 
REMARK       I    between atoms: C20_23  and  N1_25 
REMARK    6  A    between atoms: N1_25  and  C21_26 
REMARK    7  A    between atoms: C21_26  and  C22_27 
REMARK       I    between atoms: C22_27  and  N2_29 
REMARK    8  A    between atoms: N2_29  and  C23_30 
REMARK    9  A    between atoms: C23_30  and  C24_31 
REMARK   10  A    between atoms: C23_30  and  C33_41 
REMARK   11  A    between atoms: C24_31  and  C25_32 
REMARK   12  A    between atoms: C33_41  and  O7_43 
ROOT
HETATM    1  C19 UNL     1      -5.873   6.404  13.435  1.00  0.00     0.112 C 
ENDROOT
BRANCH   1   2
HETATM    2  C18 UNL     1      -4.722   6.565  14.422  1.00  0.00     0.120 C 
BRANCH   2   3
HETATM    3  C17 UNL     1      -3.412   6.153  13.788  1.00  0.00     0.259 C 
HETATM    4  O3  UNL     1      -3.310   5.661  12.671  1.00  0.00    -0.265 OA
BRANCH   3   5
HETATM    5  O2  UNL     1      -2.385   6.477  14.620  1.00  0.00    -0.315 OA
BRANCH   5   6
HETATM    6  C16 UNL     1      -1.967   7.857  14.641  1.00  0.00     0.140 C 
HETATM    7  C14 UNL     1      -0.622   8.006  13.889  1.00  0.00    -0.013 C 
HETATM    8  C13 UNL     1       0.482   6.964  14.168  1.00  0.00     0.012 C 
HETATM    9  C15 UNL     1      -0.039   9.402  14.249  1.00  0.00     0.018 C 
HETATM   10  C36 UNL     1      -1.135   7.880  12.437  1.00  0.00     0.001 C 
HETATM   11  C12 UNL     1       0.863   6.038  13.000  1.00  0.00     0.007 C 
HETATM   12  C11 UNL     1       0.772   6.603  11.551  1.00  0.00     0.002 C 
HETATM   13  C2  UNL     1       2.092   6.582  10.698  1.00  0.00    -0.016 C 
HETATM   14  C10 UNL     1       0.027   7.964  11.463  1.00  0.00    -0.004 C 
HETATM   15  C1  UNL     1       3.171   7.496  11.310  1.00  0.00     0.020 C 
HETATM   16  C3  UNL     1       2.629   5.120  10.644  1.00  0.00     0.022 C 
HETATM   17  C7  UNL     1       1.762   7.069   9.274  1.00  0.00    -0.068 C 
HETATM   18  C4  UNL     1       3.661   4.884   9.550  1.00  0.00     0.084 C 
HETATM   19  C5  UNL     1       3.111   5.291   8.209  1.00  0.00     0.149 C 
HETATM   20  O1  UNL     1       3.447   4.741   7.164  1.00  0.00    -0.293 OA
HETATM   21  C6  UNL     1       2.190   6.449   8.160  1.00  0.00     0.053 C 
HETATM   22  C8  UNL     1       0.892   8.304   9.143  1.00  0.00     0.035 C 
HETATM   23  C9  UNL     1      -0.365   8.239  10.012  1.00  0.00     0.010 C 
HETATM   24  C35 UNL     1      -2.309   8.842  12.384  1.00  0.00     0.008 C 
HETATM   25  C34 UNL     1      -2.965   8.669  13.771  1.00  0.00     0.034 C 
ENDBRANCH   5   6
ENDBRANCH   3   5
ENDBRANCH   2   3
ENDBRANCH   1   2
BRANCH   1  26
HETATM   26  C20 UNL     1      -7.188   6.222  14.160  1.00  0.00     0.218 C 
HETATM   27  O4  UNL     1      -8.065   5.446  13.789  1.00  0.00    -0.274 OA
HETATM   28  N1  UNL     1      -7.324   7.008  15.277  1.00  0.00    -0.352 N 
HETATM   29  H27 UNL     1      -6.690   7.788  15.407  1.00  0.00     0.162 HD
BRANCH  28  30
HETATM   30  C21 UNL     1      -8.552   7.005  16.057  1.00  0.00     0.225 C 
BRANCH  30  31
HETATM   31  C22 UNL     1      -9.750   7.487  15.234  1.00  0.00     0.236 C 
HETATM   32  O5  UNL     1      -9.952   8.679  15.011  1.00  0.00    -0.272 OA
HETATM   33  N2  UNL     1     -10.594   6.491  14.807  1.00  0.00    -0.345 N 
HETATM   34  H30 UNL     1     -10.364   5.517  15.017  1.00  0.00     0.163 HD
BRANCH  33  35
HETATM   35  C23 UNL     1     -11.753   6.760  13.952  1.00  0.00     0.186 C 
BRANCH  35  36
HETATM   36  C24 UNL     1     -12.824   7.564  14.702  1.00  0.00     0.077 C 
BRANCH  36  37
HETATM   37  C25 UNL     1     -14.211   7.335  14.182  1.00  0.00    -0.028 A 
HETATM   38  C26 UNL     1     -15.023   8.266  13.566  1.00  0.00     0.096 A 
HETATM   39  N3  UNL     1     -16.209   7.658  13.248  1.00  0.00    -0.365 N 
HETATM   40  C27 UNL     1     -16.192   6.342  13.646  1.00  0.00     0.042 A 
HETATM   41  H35 UNL     1     -16.990   8.106  12.789  1.00  0.00     0.165 HD
HETATM   42  C28 UNL     1     -17.173   5.349  13.532  1.00  0.00     0.030 A 
HETATM   43  C32 UNL     1     -14.950   6.110  14.239  1.00  0.00    -0.002 A 
HETATM   44  C29 UNL     1     -16.875   4.080  14.036  1.00  0.00     0.002 A 
HETATM   45  C30 UNL     1     -15.645   3.817  14.633  1.00  0.00     0.001 A 
HETATM   46  C31 UNL     1     -14.676   4.821  14.743  1.00  0.00     0.014 A 
ENDBRANCH  36  37
ENDBRANCH  35  36
BRANCH  35  47
HETATM   47  C33 UNL     1     -11.271   7.549  12.739  1.00  0.00     0.163 C 
HETATM   48  O6  UNL     1     -10.566   7.129  11.834  1.00  0.00    -0.648 OA
BRANCH  47  49
HETATM   49  O7  UNL     1     -11.709   8.824  12.713  1.00  0.00    -0.775 OA
HETATM   50  H40 UNL     1     -11.331   9.194  11.890  1.00  0.00     0.167 HD
ENDBRANCH  47  49
ENDBRANCH  35  47
ENDBRANCH  33  35
ENDBRANCH  30  31
ENDBRANCH  28  30
ENDBRANCH   1  26
TORSDOF 12
ENDMDL
MODEL 6
REMARK minimizedAffinity -10.1509409
REMARK CNNscore 0.353892744
REMARK CNNaffinity 7.12082291
REMARK  12 active torsions:
REMARK  status: ('A' for Active; 'I' for Inactive)
REMARK    1  A    between atoms: C16_17  and  O2_18 
REMARK    2  A    between atoms: O2_18  and  C17_19 
REMARK    3  A    between atoms: C17_19  and  C18_21 
REMARK    4  A    between atoms: C18_21  and  C19_22 
REMARK    5  A    between atoms: C19_22  and  C20_23 
REMARK       I    between atoms: C20_23  and  N1_25 
REMARK    6  A    between atoms: N1_25  and  C21_26 
REMARK    7  A    between atoms: C21_26  and  C22_27 
REMARK       I    between atoms: C22_27  and  N2_29 
REMARK    8  A    between atoms: N2_29  and  C23_30 
REMARK    9  A    between atoms: C23_30  and  C24_31 
REMARK   10  A    between atoms: C23_30  and  C33_41 
REMARK   11  A    between atoms: C24_31  and  C25_32 
REMARK   12  A    between atoms: C33_41  and  O7_43 
ROOT
HETATM    1  C19 UNL     1       2.274   7.462   8.232  1.00  0.00     0.112 C 
ENDROOT
BRANCH   1   2
HETATM    2  C18 UNL     1       0.863   7.636   8.783  1.00  0.00     0.120 C 
BRANCH   2   3
HETATM    3  C17 UNL     1       0.901   7.992  10.252  1.00  0.00     0.259 C 
HETATM    4  O3  UNL     1       1.690   8.788  10.749  1.00  0.00    -0.265 OA
BRANCH   3   5
HETATM    5  O2  UNL     1      -0.106   7.349  10.901  1.00  0.00    -0.315 OA
BRANCH   5   6
HETATM    6  C16 UNL     1       0.268   6.298  11.815  1.00  0.00     0.140 C 
HETATM    7  C14 UNL     1      -0.829   6.130  12.894  1.00  0.00    -0.013 C 
HETATM    8  C13 UNL     1      -1.411   7.407  13.538  1.00  0.00     0.012 C 
HETATM    9  C15 UNL     1      -0.228   5.270  14.042  1.00  0.00     0.018 C 
HETATM   10  C36 UNL     1      -1.902   5.411  12.047  1.00  0.00     0.001 C 
HETATM   11  C12 UNL     1      -2.891   7.713  13.242  1.00  0.00     0.007 C 
HETATM   12  C11 UNL     1      -3.865   6.514  13.040  1.00  0.00     0.002 C 
HETATM   13  C2  UNL     1      -5.102   6.435  14.007  1.00  0.00    -0.016 C 
HETATM   14  C10 UNL     1      -3.141   5.147  12.885  1.00  0.00    -0.004 C 
HETATM   15  C1  UNL     1      -4.660   6.221  15.468  1.00  0.00     0.020 C 
HETATM   16  C3  UNL     1      -5.902   7.768  13.903  1.00  0.00     0.022 C 
HETATM   17  C7  UNL     1      -5.992   5.257  13.568  1.00  0.00    -0.068 C 
HETATM   18  C4  UNL     1      -7.311   7.685  14.474  1.00  0.00     0.084 C 
HETATM   19  C5  UNL     1      -8.077   6.561  13.826  1.00  0.00     0.149 C 
HETATM   20  O1  UNL     1      -9.293   6.598  13.666  1.00  0.00    -0.293 OA
HETATM   21  C6  UNL     1      -7.328   5.341  13.446  1.00  0.00     0.053 C 
HETATM   22  C8  UNL     1      -5.303   3.945  13.243  1.00  0.00     0.035 C 
HETATM   23  C9  UNL     1      -4.109   4.119  12.302  1.00  0.00     0.010 C 
HETATM   24  C35 UNL     1      -1.133   4.294  11.363  1.00  0.00     0.008 C 
HETATM   25  C34 UNL     1       0.224   4.954  11.038  1.00  0.00     0.034 C 
ENDBRANCH   5   6
ENDBRANCH   3   5
ENDBRANCH   2   3
ENDBRANCH   1   2
BRANCH   1  26
HETATM   26  C20 UNL     1       3.042   6.426   9.023  1.00  0.00     0.218 C 
HETATM   27  O4  UNL     1       2.800   5.223   8.979  1.00  0.00    -0.274 OA
HETATM   28  N1  UNL     1       4.041   6.948   9.807  1.00  0.00    -0.352 N 
HETATM   29  H27 UNL     1       4.049   7.945   9.990  1.00  0.00     0.162 HD
BRANCH  28  30
HETATM   30  C21 UNL     1       4.836   6.099  10.680  1.00  0.00     0.225 C 
BRANCH  30  31
HETATM   31  C22 UNL     1       5.797   6.918  11.547  1.00  0.00     0.236 C 
HETATM   32  O5  UNL     1       6.941   7.182  11.185  1.00  0.00    -0.272 OA
HETATM   33  N2  UNL     1       5.293   7.292  12.770  1.00  0.00    -0.345 N 
HETATM   34  H30 UNL     1       4.329   7.049  13.008  1.00  0.00     0.163 HD
BRANCH  33  35
HETATM   35  C23 UNL     1       6.046   8.135  13.702  1.00  0.00     0.186 C 
BRANCH  35  36
HETATM   36  C24 UNL     1       6.064   9.598  13.241  1.00  0.00     0.077 C 
BRANCH  36  37
HETATM   37  C25 UNL     1       7.426  10.220  13.289  1.00  0.00    -0.028 A 
HETATM   38  C26 UNL     1       7.732  11.552  13.089  1.00  0.00     0.096 A 
HETATM   39  N3  UNL     1       9.087  11.705  13.215  1.00  0.00    -0.365 N 
HETATM   40  C27 UNL     1       9.681  10.496  13.492  1.00  0.00     0.042 A 
HETATM   41  H35 UNL     1       9.587  12.577  13.116  1.00  0.00     0.165 HD
HETATM   42  C28 UNL     1      11.028  10.175  13.695  1.00  0.00     0.030 A 
HETATM   43  C32 UNL     1       8.663   9.542  13.541  1.00  0.00    -0.002 A 
HETATM   44  C29 UNL     1      11.346   8.840  13.960  1.00  0.00     0.002 A 
HETATM   45  C30 UNL     1      10.353   7.865  14.017  1.00  0.00     0.001 A 
HETATM   46  C31 UNL     1       9.010   8.202  13.808  1.00  0.00     0.014 A 
ENDBRANCH  36  37
ENDBRANCH  35  36
BRANCH  35  47
HETATM   47  C33 UNL     1       5.383   8.034  15.071  1.00  0.00     0.163 C 
HETATM   48  O6  UNL     1       4.917   8.958  15.722  1.00  0.00    -0.648 OA
BRANCH  47  49
HETATM   49  O7  UNL     1       5.323   6.776  15.554  1.00  0.00    -0.775 OA
HETATM   50  H40 UNL     1       4.874   6.868  16.418  1.00  0.00     0.167 HD
ENDBRANCH  47  49
ENDBRANCH  35  47
ENDBRANCH  33  35
ENDBRANCH  30  31
ENDBRANCH  28  30
ENDBRANCH   1  26
TORSDOF 12
ENDMDL
MODEL 7
REMARK minimizedAffinity -8.57675076
REMARK CNNscore 0.316576183
REMARK CNNaffinity 6.88076162
REMARK  12 active torsions:
REMARK  status: ('A' for Active; 'I' for Inactive)
REMARK    1  A    between atoms: C16_17  and  O2_18 
REMARK    2  A    between atoms: O2_18  and  C17_19 
REMARK    3  A    between atoms: C17_19  and  C18_21 
REMARK    4  A    between atoms: C18_21  and  C19_22 
REMARK    5  A    between atoms: C19_22  and  C20_23 
REMARK       I    between atoms: C20_23  and  N1_25 
REMARK    6  A    between atoms: N1_25  and  C21_26 
REMARK    7  A    between atoms: C21_26  and  C22_27 
REMARK       I    between atoms: C22_27  and  N2_29 
REMARK    8  A    between atoms: N2_29  and  C23_30 
REMARK    9  A    between atoms: C23_30  and  C24_31 
REMARK   10  A    between atoms: C23_30  and  C33_41 
REMARK   11  A    between atoms: C24_31  and  C25_32 
REMARK   12  A    between atoms: C33_41  and  O7_43 
ROOT
HETATM    1  C19 UNL     1      -9.003   5.516  13.416  1.00  0.00     0.112 C 
ENDROOT
BRANCH   1   2
HETATM    2  C18 UNL     1      -7.679   5.833  12.730  1.00  0.00     0.120 C 
BRANCH   2   3
HETATM    3  C17 UNL     1      -6.593   4.893  13.201  1.00  0.00     0.259 C 
HETATM    4  O3  UNL     1      -6.790   3.745  13.580  1.00  0.00    -0.265 OA
BRANCH   3   5
HETATM    5  O2  UNL     1      -5.381   5.499  13.073  1.00  0.00    -0.315 OA
BRANCH   5   6
HETATM    6  C16 UNL     1      -4.985   6.404  14.123  1.00  0.00     0.140 C 
HETATM    7  C14 UNL     1      -3.441   6.486  14.186  1.00  0.00    -0.013 C 
HETATM    8  C13 UNL     1      -2.642   5.167  14.097  1.00  0.00     0.012 C 
HETATM    9  C15 UNL     1      -3.064   7.160  15.535  1.00  0.00     0.018 C 
HETATM   10  C36 UNL     1      -3.188   7.360  12.938  1.00  0.00     0.001 C 
HETATM   11  C12 UNL     1      -1.770   4.976  12.843  1.00  0.00     0.007 C 
HETATM   12  C11 UNL     1      -1.129   6.238  12.192  1.00  0.00     0.002 C 
HETATM   13  C2  UNL     1       0.437   6.252  12.067  1.00  0.00    -0.016 C 
HETATM   14  C10 UNL     1      -1.697   7.575  12.743  1.00  0.00    -0.004 C 
HETATM   15  C1  UNL     1       1.111   6.255  13.454  1.00  0.00     0.020 C 
HETATM   16  C3  UNL     1       0.889   4.985  11.281  1.00  0.00     0.022 C 
HETATM   17  C7  UNL     1       0.855   7.520  11.298  1.00  0.00    -0.068 C 
HETATM   18  C4  UNL     1       2.315   5.064  10.754  1.00  0.00     0.084 C 
HETATM   19  C5  UNL     1       2.497   6.299   9.910  1.00  0.00     0.149 C 
HETATM   20  O1  UNL     1       3.281   6.342   8.967  1.00  0.00    -0.293 OA
HETATM   21  C6  UNL     1       1.751   7.518  10.295  1.00  0.00     0.053 C 
HETATM   22  C8  UNL     1       0.196   8.827  11.695  1.00  0.00     0.035 C 
HETATM   23  C9  UNL     1      -1.326   8.716  11.797  1.00  0.00     0.010 C 
HETATM   24  C35 UNL     1      -4.158   8.516  13.104  1.00  0.00     0.008 C 
HETATM   25  C34 UNL     1      -5.410   7.837  13.702  1.00  0.00     0.034 C 
ENDBRANCH   5   6
ENDBRANCH   3   5
ENDBRANCH   2   3
ENDBRANCH   1   2
BRANCH   1  26
HETATM   26  C20 UNL     1      -9.791   6.778  13.686  1.00  0.00     0.218 C 
HETATM   27  O4  UNL     1      -9.688   7.435  14.718  1.00  0.00    -0.274 OA
HETATM   28  N1  UNL     1     -10.646   7.131  12.670  1.00  0.00    -0.352 N 
HETATM   29  H27 UNL     1     -10.867   6.446  11.957  1.00  0.00     0.162 HD
BRANCH  28  30
HETATM   30  C21 UNL     1     -11.525   8.283  12.790  1.00  0.00     0.225 C 
BRANCH  30  31
HETATM   31  C22 UNL     1     -12.997   7.869  12.868  1.00  0.00     0.236 C 
HETATM   32  O5  UNL     1     -13.339   6.705  13.067  1.00  0.00    -0.272 OA
HETATM   33  N2  UNL     1     -13.895   8.888  12.657  1.00  0.00    -0.345 N 
HETATM   34  H30 UNL     1     -13.546   9.837  12.507  1.00  0.00     0.163 HD
BRANCH  33  35
HETATM   35  C23 UNL     1     -15.343   8.690  12.760  1.00  0.00     0.186 C 
BRANCH  35  36
HETATM   36  C24 UNL     1     -15.854   9.039  14.164  1.00  0.00     0.077 C 
BRANCH  36  37
HETATM   37  C25 UNL     1     -16.188   7.835  14.991  1.00  0.00    -0.028 A 
HETATM   38  C26 UNL     1     -15.363   7.209  15.905  1.00  0.00     0.096 A 
HETATM   39  N3  UNL     1     -16.043   6.147  16.441  1.00  0.00    -0.365 N 
HETATM   40  C27 UNL     1     -17.301   6.061  15.893  1.00  0.00     0.042 A 
HETATM   41  H35 UNL     1     -15.677   5.511  17.136  1.00  0.00     0.165 HD
HETATM   42  C28 UNL     1     -18.331   5.143  16.133  1.00  0.00     0.030 A 
HETATM   43  C32 UNL     1     -17.421   7.106  14.976  1.00  0.00    -0.002 A 
HETATM   44  C29 UNL     1     -19.521   5.300  15.417  1.00  0.00     0.002 A 
HETATM   45  C30 UNL     1     -19.672   6.334  14.496  1.00  0.00     0.001 A 
HETATM   46  C31 UNL     1     -18.631   7.241  14.265  1.00  0.00     0.014 A 
ENDBRANCH  36  37
ENDBRANCH  35  36
BRANCH  35  47
HETATM   47  C33 UNL     1     -16.017   9.587  11.728  1.00  0.00     0.163 C 
HETATM   48  O6  UNL     1     -16.397  10.735  11.902  1.00  0.00    -0.648 OA
BRANCH  47  49
HETATM   49  O7  UNL     1     -16.171   9.004  10.522  1.00  0.00    -0.775 OA
HETATM   50  H40 UNL     1     -16.603   9.690   9.974  1.00  0.00     0.167 HD
ENDBRANCH  47  49
ENDBRANCH  35  47
ENDBRANCH  33  35
ENDBRANCH  30  31
ENDBRANCH  28  30
ENDBRANCH   1  26
TORSDOF 12
ENDMDL
MODEL 8
REMARK minimizedAffinity -10.103508
REMARK CNNscore 0.293418705
REMARK CNNaffinity 7.04147148
REMARK  12 active torsions:
REMARK  status: ('A' for Active; 'I' for Inactive)
REMARK    1  A    between atoms: C16_17  and  O2_18 
REMARK    2  A    between atoms: O2_18  and  C17_19 
REMARK    3  A    between atoms: C17_19  and  C18_21 
REMARK    4  A    between atoms: C18_21  and  C19_22 
REMARK    5  A    between atoms: C19_22  and  C20_23 
REMARK       I    between atoms: C20_23  and  N1_25 
REMARK    6  A    between atoms: N1_25  and  C21_26 
REMARK    7  A    between atoms: C21_26  and  C22_27 
REMARK       I    between atoms: C22_27  and  N2_29 
REMARK    8  A    between atoms: N2_29  and  C23_30 
REMARK    9  A    between atoms: C23_30  and  C24_31 
REMARK   10  A    between atoms: C23_30  and  C33_41 
REMARK   11  A    between atoms: C24_31  and  C25_32 
REMARK   12  A    between atoms: C33_41  and  O7_43 
ROOT
HETATM    1  C19 UNL     1       1.042   7.869   7.715  1.00  0.00     0.112 C 
ENDROOT
BRANCH   1   2
HETATM    2  C18 UNL     1       0.100   8.532   8.714  1.00  0.00     0.120 C 
BRANCH   2   3
HETATM    3  C17 UNL     1       0.599   8.340  10.129  1.00  0.00     0.259 C 
HETATM    4  O3  UNL     1       1.673   8.758  10.545  1.00  0.00    -0.265 OA
BRANCH   3   5
HETATM    5  O2  UNL     1      -0.352   7.700  10.861  1.00  0.00    -0.315 OA
BRANCH   5   6
HETATM    6  C16 UNL     1       0.090   6.625  11.715  1.00  0.00     0.140 C 
HETATM    7  C14 UNL     1      -0.969   6.362  12.813  1.00  0.00    -0.013 C 
HETATM    8  C13 UNL     1      -1.586   7.582  13.531  1.00  0.00     0.012 C 
HETATM    9  C15 UNL     1      -0.302   5.477  13.903  1.00  0.00     0.018 C 
HETATM   10  C36 UNL     1      -2.034   5.637  11.960  1.00  0.00     0.001 C 
HETATM   11  C12 UNL     1      -3.084   7.838  13.287  1.00  0.00     0.007 C 
HETATM   12  C11 UNL     1      -4.013   6.608  13.054  1.00  0.00     0.002 C 
HETATM   13  C2  UNL     1      -5.218   6.433  14.047  1.00  0.00    -0.016 C 
HETATM   14  C10 UNL     1      -3.238   5.282  12.817  1.00  0.00    -0.004 C 
HETATM   15  C1  UNL     1      -4.728   6.172  15.485  1.00  0.00     0.020 C 
HETATM   16  C3  UNL     1      -6.076   7.734  14.027  1.00  0.00     0.022 C 
HETATM   17  C7  UNL     1      -6.071   5.239  13.576  1.00  0.00    -0.068 C 
HETATM   18  C4  UNL     1      -7.464   7.565  14.629  1.00  0.00     0.084 C 
HETATM   19  C5  UNL     1      -8.199   6.440  13.949  1.00  0.00     0.149 C 
HETATM   20  O1  UNL     1      -9.420   6.433  13.822  1.00  0.00    -0.293 OA
HETATM   21  C6  UNL     1      -7.412   5.272  13.493  1.00  0.00     0.053 C 
HETATM   22  C8  UNL     1      -5.338   3.974  13.173  1.00  0.00     0.035 C 
HETATM   23  C9  UNL     1      -4.178   4.242  12.212  1.00  0.00     0.010 C 
HETATM   24  C35 UNL     1      -1.239   4.586  11.206  1.00  0.00     0.008 C 
HETATM   25  C34 UNL     1       0.081   5.318  10.877  1.00  0.00     0.034 C 
ENDBRANCH   5   6
ENDBRANCH   3   5
ENDBRANCH   2   3
ENDBRANCH   1   2
BRANCH   1  26
HETATM   26  C20 UNL     1       2.361   7.513   8.365  1.00  0.00     0.218 C 
HETATM   27  O4  UNL     1       3.321   8.276   8.413  1.00  0.00    -0.274 OA
HETATM   28  N1  UNL     1       2.397   6.248   8.900  1.00  0.00    -0.352 N 
HETATM   29  H27 UNL     1       1.679   5.584   8.633  1.00  0.00     0.162 HD
BRANCH  28  30
HETATM   30  C21 UNL     1       3.608   5.721   9.508  1.00  0.00     0.225 C 
BRANCH  30  31
HETATM   31  C22 UNL     1       4.072   6.579  10.688  1.00  0.00     0.236 C 
HETATM   32  O5  UNL     1       3.480   6.583  11.766  1.00  0.00    -0.272 OA
HETATM   33  N2  UNL     1       5.167   7.369  10.431  1.00  0.00    -0.345 N 
HETATM   34  H30 UNL     1       5.619   7.312   9.517  1.00  0.00     0.163 HD
BRANCH  33  35
HETATM   35  C23 UNL     1       5.788   8.204  11.462  1.00  0.00     0.186 C 
BRANCH  35  36
HETATM   36  C24 UNL     1       6.998   7.502  12.093  1.00  0.00     0.077 C 
BRANCH  36  37
HETATM   37  C25 UNL     1       7.166   7.804  13.551  1.00  0.00    -0.028 A 
HETATM   38  C26 UNL     1       6.352   7.374  14.581  1.00  0.00     0.096 A 
HETATM   39  N3  UNL     1       6.848   7.872  15.757  1.00  0.00    -0.365 N 
HETATM   40  C27 UNL     1       7.973   8.626  15.520  1.00  0.00     0.042 A 
HETATM   41  H35 UNL     1       6.447   7.716  16.671  1.00  0.00     0.165 HD
HETATM   42  C28 UNL     1       8.800   9.322  16.410  1.00  0.00     0.030 A 
HETATM   43  C32 UNL     1       8.197   8.604  14.143  1.00  0.00    -0.002 A 
HETATM   44  C29 UNL     1       9.891  10.014  15.877  1.00  0.00     0.002 A 
HETATM   45  C30 UNL     1      10.141  10.012  14.507  1.00  0.00     0.001 A 
HETATM   46  C31 UNL     1       9.303   9.314  13.630  1.00  0.00     0.014 A 
ENDBRANCH  36  37
ENDBRANCH  35  36
BRANCH  35  47
HETATM   47  C33 UNL     1       6.232   9.508  10.809  1.00  0.00     0.163 C 
HETATM   48  O6  UNL     1       5.556  10.517  10.672  1.00  0.00    -0.648 OA
BRANCH  47  49
HETATM   49  O7  UNL     1       7.507   9.490  10.372  1.00  0.00    -0.775 OA
HETATM   50  H40 UNL     1       7.646  10.380   9.990  1.00  0.00     0.167 HD
ENDBRANCH  47  49
ENDBRANCH  35  47
ENDBRANCH  33  35
ENDBRANCH  30  31
ENDBRANCH  28  30
ENDBRANCH   1  26
TORSDOF 12
ENDMDL
MODEL 9
REMARK minimizedAffinity -9.58540535
REMARK CNNscore 0.271702379
REMARK CNNaffinity 7.12863588
REMARK  12 active torsions:
REMARK  status: ('A' for Active; 'I' for Inactive)
REMARK    1  A    between atoms: C16_17  and  O2_18 
REMARK    2  A    between atoms: O2_18  and  C17_19 
REMARK    3  A    between atoms: C17_19  and  C18_21 
REMARK    4  A    between atoms: C18_21  and  C19_22 
REMARK    5  A    between atoms: C19_22  and  C20_23 
REMARK       I    between atoms: C20_23  and  N1_25 
REMARK    6  A    between atoms: N1_25  and  C21_26 
REMARK    7  A    between atoms: C21_26  and  C22_27 
REMARK       I    between atoms: C22_27  and  N2_29 
REMARK    8  A    between atoms: N2_29  and  C23_30 
REMARK    9  A    between atoms: C23_30  and  C24_31 
REMARK   10  A    between atoms: C23_30  and  C33_41 
REMARK   11  A    between atoms: C24_31  and  C25_32 
REMARK   12  A    between atoms: C33_41  and  O7_43 
ROOT
HETATM    1  C19 UNL     1      -9.028   5.646  13.292  1.00  0.00     0.112 C 
ENDROOT
BRANCH   1   2
HETATM    2  C18 UNL     1      -7.710   5.294  13.974  1.00  0.00     0.120 C 
BRANCH   2   3
HETATM    3  C17 UNL     1      -6.754   4.653  12.994  1.00  0.00     0.259 C 
HETATM    4  O3  UNL     1      -6.995   3.631  12.362  1.00  0.00    -0.265 OA
BRANCH   3   5
HETATM    5  O2  UNL     1      -5.636   5.421  12.882  1.00  0.00    -0.315 OA
BRANCH   5   6
HETATM    6  C16 UNL     1      -5.286   6.239  14.017  1.00  0.00     0.140 C 
HETATM    7  C14 UNL     1      -3.746   6.318  14.148  1.00  0.00    -0.013 C 
HETATM    8  C13 UNL     1      -2.939   5.012  13.984  1.00  0.00     0.012 C 
HETATM    9  C15 UNL     1      -3.425   6.882  15.561  1.00  0.00     0.018 C 
HETATM   10  C36 UNL     1      -3.448   7.291  12.985  1.00  0.00     0.001 C 
HETATM   11  C12 UNL     1      -2.017   4.923  12.755  1.00  0.00     0.007 C 
HETATM   12  C11 UNL     1      -1.356   6.235  12.233  1.00  0.00     0.002 C 
HETATM   13  C2  UNL     1       0.214   6.262  12.173  1.00  0.00    -0.016 C 
HETATM   14  C10 UNL     1      -1.951   7.523  12.868  1.00  0.00    -0.004 C 
HETATM   15  C1  UNL     1       0.832   6.153  13.580  1.00  0.00     0.020 C 
HETATM   16  C3  UNL     1       0.702   5.063  11.305  1.00  0.00     0.022 C 
HETATM   17  C7  UNL     1       0.656   7.588  11.525  1.00  0.00    -0.068 C 
HETATM   18  C4  UNL     1       2.147   5.187  10.842  1.00  0.00     0.084 C 
HETATM   19  C5  UNL     1       2.356   6.485  10.109  1.00  0.00     0.149 C 
HETATM   20  O1  UNL     1       3.177   6.606   9.204  1.00  0.00    -0.293 OA
HETATM   21  C6  UNL     1       1.591   7.669  10.562  1.00  0.00     0.053 C 
HETATM   22  C8  UNL     1      -0.025   8.858  11.999  1.00  0.00     0.035 C 
HETATM   23  C9  UNL     1      -1.549   8.737  12.032  1.00  0.00     0.010 C 
HETATM   24  C35 UNL     1      -4.430   8.428  13.206  1.00  0.00     0.008 C 
HETATM   25  C34 UNL     1      -5.701   7.701  13.696  1.00  0.00     0.034 C 
ENDBRANCH   5   6
ENDBRANCH   3   5
ENDBRANCH   2   3
ENDBRANCH   1   2
BRANCH   1  26
HETATM   26  C20 UNL     1      -9.683   6.836  13.958  1.00  0.00     0.218 C 
HETATM   27  O4  UNL     1      -9.131   7.526  14.810  1.00  0.00    -0.274 OA
HETATM   28  N1  UNL     1     -10.964   7.081  13.528  1.00  0.00    -0.352 N 
HETATM   29  H27 UNL     1     -11.453   6.360  13.009  1.00  0.00     0.162 HD
BRANCH  28  30
HETATM   30  C21 UNL     1     -11.763   8.149  14.108  1.00  0.00     0.225 C 
BRANCH  30  31
HETATM   31  C22 UNL     1     -13.260   7.828  14.062  1.00  0.00     0.236 C 
HETATM   32  O5  UNL     1     -13.986   7.953  15.046  1.00  0.00    -0.272 OA
HETATM   33  N2  UNL     1     -13.711   7.353  12.853  1.00  0.00    -0.345 N 
HETATM   34  H30 UNL     1     -13.057   7.283  12.070  1.00  0.00     0.163 HD
BRANCH  33  35
HETATM   35  C23 UNL     1     -15.124   7.059  12.606  1.00  0.00     0.186 C 
BRANCH  35  36
HETATM   36  C24 UNL     1     -15.799   6.479  13.856  1.00  0.00     0.077 C 
BRANCH  36  37
HETATM   37  C25 UNL     1     -16.617   5.255  13.575  1.00  0.00    -0.028 A 
HETATM   38  C26 UNL     1     -17.790   5.197  12.849  1.00  0.00     0.096 A 
HETATM   39  N3  UNL     1     -18.220   3.896  12.832  1.00  0.00    -0.365 N 
HETATM   40  C27 UNL     1     -17.351   3.096  13.536  1.00  0.00     0.042 A 
HETATM   41  H35 UNL     1     -19.057   3.564  12.373  1.00  0.00     0.165 HD
HETATM   42  C28 UNL     1     -17.389   1.719  13.786  1.00  0.00     0.030 A 
HETATM   43  C32 UNL     1     -16.335   3.922  14.018  1.00  0.00    -0.002 A 
HETATM   44  C29 UNL     1     -16.355   1.168  14.548  1.00  0.00     0.002 A 
HETATM   45  C30 UNL     1     -15.326   1.966  15.043  1.00  0.00     0.001 A 
HETATM   46  C31 UNL     1     -15.305   3.342  14.787  1.00  0.00     0.014 A 
ENDBRANCH  36  37
ENDBRANCH  35  36
BRANCH  35  47
HETATM   47  C33 UNL     1     -15.813   8.358  12.204  1.00  0.00     0.163 C 
HETATM   48  O6  UNL     1     -16.219   9.229  12.959  1.00  0.00    -0.648 OA
BRANCH  47  49
HETATM   49  O7  UNL     1     -15.950   8.510  10.871  1.00  0.00    -0.775 OA
HETATM   50  H40 UNL     1     -16.394   9.375  10.768  1.00  0.00     0.167 HD
ENDBRANCH  47  49
ENDBRANCH  35  47
ENDBRANCH  33  35
ENDBRANCH  30  31
ENDBRANCH  28  30
ENDBRANCH   1  26
TORSDOF 12
ENDMDL
