MODEL 1
REMARK minimizedAffinity -8.77871132
REMARK  12 active torsions:
REMARK  status: ('A' for Active; 'I' for Inactive)
REMARK    1  A    between atoms: C2_2  and  C23_27 
REMARK    2  A    between atoms: C3_3  and  C4_4 
REMARK    3  A    between atoms: C4_4  and  C5_5 
REMARK    4  A    between atoms: C13_13  and  C14_14 
REMARK    5  A    between atoms: C14_14  and  C16_16 
REMARK    6  A    between atoms: C17_17  and  C18_18 
REMARK    7  A    between atoms: C18_18  and  O1_19 
REMARK    8  A    between atoms: C18_18  and  C19_20 
REMARK    9  A    between atoms: C20_21  and  C21_23 
REMARK   10  A    between atoms: C21_23  and  C22_24 
REMARK   11  A    between atoms: C22_24  and  O2_25 
REMARK   12  A    between atoms: C23_27  and  O4_29 
ROOT
HETATM    1  C5  UNL     1      -1.739  50.467 -21.484  1.00  0.00     0.225 C 
HETATM    2  C6  UNL     1      -2.120  49.849 -20.132  1.00  0.00     0.036 C 
HETATM    3  C7  UNL     1      -3.632  49.752 -19.987  1.00  0.00     0.005 C 
HETATM    4  C8  UNL     1      -4.234  49.023 -21.186  1.00  0.00     0.042 C 
HETATM    5  C9  UNL     1      -3.800  49.622 -22.560  1.00  0.00     0.162 C 
HETATM    6  C10 UNL     1      -4.489  50.976 -22.816  1.00  0.00     0.042 C 
HETATM    7  C11 UNL     1      -5.895  50.634 -23.302  1.00  0.00     0.003 C 
HETATM    8  C12 UNL     1      -5.851  49.192 -23.808  1.00  0.00     0.008 C 
HETATM    9  C13 UNL     1      -4.384  48.721 -23.703  1.00  0.00     0.031 C 
HETATM   10  N1  UNL     1      -2.335  49.704 -22.592  1.00  0.00     0.098 N 
HETATM   11  H35 UNL     1      -2.022  50.103 -23.474  1.00  0.00     0.317 HD
ENDROOT
BRANCH   9  12
HETATM   12  C14 UNL     1      -3.652  48.699 -25.086  1.00  0.00     0.010 C 
HETATM   13  C15 UNL     1      -4.622  48.226 -26.187  1.00  0.00     0.015 C 
BRANCH  12  14
HETATM   14  C16 UNL     1      -2.910  49.971 -25.449  1.00  0.00    -0.023 C 
HETATM   15  C17 UNL     1      -3.329  50.951 -26.270  1.00  0.00     0.005 C 
BRANCH  15  16
HETATM   16  C18 UNL     1      -2.534  52.177 -26.613  1.00  0.00     0.165 C 
BRANCH  16  17
HETATM   17  O1  UNL     1      -2.496  52.969 -25.443  1.00  0.00    -0.388 OA
HETATM   18  H28 UNL     1      -1.589  53.289 -25.319  1.00  0.00     0.210 HD
ENDBRANCH  16  17
BRANCH  16  19
HETATM   19  C19 UNL     1      -1.186  51.793 -27.174  1.00  0.00     0.028 C 
HETATM   20  C20 UNL     1      -0.127  52.510 -27.588  1.00  0.00     0.013 C 
HETATM   21 CL1  UNL     1      -0.083  54.239 -27.527  1.00  0.00    -0.089 Cl
BRANCH  20  22
HETATM   22  C21 UNL     1       1.145  51.868 -28.099  1.00  0.00     0.077 C 
BRANCH  22  23
HETATM   23  C22 UNL     1       2.180  51.632 -26.997  1.00  0.00     0.169 C 
BRANCH  23  24
HETATM   24  O2  UNL     1       3.478  52.059 -27.397  1.00  0.00    -0.401 OA
HETATM   25  H34 UNL     1       3.704  51.587 -28.220  1.00  0.00     0.209 HD
ENDBRANCH  23  24
ENDBRANCH  22  23
ENDBRANCH  20  22
ENDBRANCH  16  19
ENDBRANCH  15  16
ENDBRANCH  12  14
ENDBRANCH   9  12
BRANCH   1  26
HETATM   26  C4  UNL     1      -0.203  50.577 -21.646  1.00  0.00     0.063 C 
BRANCH  26  27
HETATM   27  C3  UNL     1       0.391  51.903 -21.244  1.00  0.00    -0.011 C 
HETATM   28  C2  UNL     1       0.791  52.912 -22.045  1.00  0.00     0.008 C 
HETATM   29  C1  UNL     1       0.688  52.948 -23.540  1.00  0.00     0.055 C 
BRANCH  28  30
HETATM   30  C23 UNL     1       1.377  54.098 -21.366  1.00  0.00     0.171 C 
HETATM   31  O3  UNL     1       1.453  54.292 -20.166  1.00  0.00    -0.646 OA
BRANCH  30  32
HETATM   32  O4  UNL     1       1.860  55.001 -22.238  1.00  0.00    -0.773 OA
HETATM   33  H36 UNL     1       2.203  55.708 -21.653  1.00  0.00     0.167 HD
ENDBRANCH  30  32
ENDBRANCH  28  30
ENDBRANCH  26  27
ENDBRANCH   1  26
TORSDOF 12
ENDMDL
MODEL 2
REMARK minimizedAffinity -8.66369438
REMARK  12 active torsions:
REMARK  status: ('A' for Active; 'I' for Inactive)
REMARK    1  A    between atoms: C2_2  and  C23_27 
REMARK    2  A    between atoms: C3_3  and  C4_4 
REMARK    3  A    between atoms: C4_4  and  C5_5 
REMARK    4  A    between atoms: C13_13  and  C14_14 
REMARK    5  A    between atoms: C14_14  and  C16_16 
REMARK    6  A    between atoms: C17_17  and  C18_18 
REMARK    7  A    between atoms: C18_18  and  O1_19 
REMARK    8  A    between atoms: C18_18  and  C19_20 
REMARK    9  A    between atoms: C20_21  and  C21_23 
REMARK   10  A    between atoms: C21_23  and  C22_24 
REMARK   11  A    between atoms: C22_24  and  O2_25 
REMARK   12  A    between atoms: C23_27  and  O4_29 
ROOT
HETATM    1  C5  UNL     1      -1.441  52.001 -23.945  1.00  0.00     0.225 C 
HETATM    2  C6  UNL     1      -0.483  51.526 -22.845  1.00  0.00     0.036 C 
HETATM    3  C7  UNL     1      -1.212  50.658 -21.829  1.00  0.00     0.005 C 
HETATM    4  C8  UNL     1      -1.949  49.522 -22.534  1.00  0.00     0.042 C 
HETATM    5  C9  UNL     1      -2.882  50.007 -23.688  1.00  0.00     0.162 C 
HETATM    6  C10 UNL     1      -4.135  50.707 -23.130  1.00  0.00     0.042 C 
HETATM    7  C11 UNL     1      -5.079  49.583 -22.713  1.00  0.00     0.003 C 
HETATM    8  C12 UNL     1      -4.637  48.329 -23.467  1.00  0.00     0.008 C 
HETATM    9  C13 UNL     1      -3.484  48.748 -24.404  1.00  0.00     0.031 C 
HETATM   10  N1  UNL     1      -2.099  50.857 -24.594  1.00  0.00     0.098 N 
HETATM   11  H35 UNL     1      -2.685  51.198 -25.352  1.00  0.00     0.317 HD
ENDROOT
BRANCH   9  12
HETATM   12  C14 UNL     1      -3.931  48.880 -25.898  1.00  0.00     0.010 C 
HETATM   13  C15 UNL     1      -2.762  48.512 -26.832  1.00  0.00     0.015 C 
BRANCH  12  14
HETATM   14  C16 UNL     1      -5.226  48.173 -26.254  1.00  0.00    -0.023 C 
HETATM   15  C17 UNL     1      -5.652  47.825 -27.481  1.00  0.00     0.005 C 
BRANCH  15  16
HETATM   16  C18 UNL     1      -6.961  47.151 -27.772  1.00  0.00     0.165 C 
BRANCH  16  17
HETATM   17  O1  UNL     1      -7.589  46.942 -26.523  1.00  0.00    -0.388 OA
HETATM   18  H28 UNL     1      -8.521  47.197 -26.603  1.00  0.00     0.210 HD
ENDBRANCH  16  17
BRANCH  16  19
HETATM   19  C19 UNL     1      -7.760  47.956 -28.768  1.00  0.00     0.028 C 
HETATM   20  C20 UNL     1      -8.954  47.762 -29.357  1.00  0.00     0.013 C 
HETATM   21 CL1  UNL     1      -9.952  46.387 -29.024  1.00  0.00    -0.089 Cl
BRANCH  20  22
HETATM   22  C21 UNL     1      -9.558  48.755 -30.326  1.00  0.00     0.077 C 
BRANCH  22  23
HETATM   23  C22 UNL     1      -8.510  49.643 -31.003  1.00  0.00     0.169 C 
BRANCH  23  24
HETATM   24  O2  UNL     1      -8.773  51.025 -30.782  1.00  0.00    -0.401 OA
HETATM   25  H34 UNL     1      -9.674  51.210 -31.105  1.00  0.00     0.209 HD
ENDBRANCH  23  24
ENDBRANCH  22  23
ENDBRANCH  20  22
ENDBRANCH  16  19
ENDBRANCH  15  16
ENDBRANCH  12  14
ENDBRANCH   9  12
BRANCH   1  26
HETATM   26  C4  UNL     1      -0.715  52.890 -24.985  1.00  0.00     0.063 C 
BRANCH  26  27
HETATM   27  C3  UNL     1       0.666  52.426 -25.373  1.00  0.00    -0.011 C 
HETATM   28  C2  UNL     1       1.054  51.843 -26.526  1.00  0.00     0.008 C 
HETATM   29  C1  UNL     1       0.182  51.563 -27.713  1.00  0.00     0.055 C 
BRANCH  28  30
HETATM   30  C23 UNL     1       2.487  51.457 -26.618  1.00  0.00     0.171 C 
HETATM   31  O3  UNL     1       3.052  50.580 -25.989  1.00  0.00    -0.646 OA
BRANCH  30  32
HETATM   32  O4  UNL     1       3.160  52.196 -27.518  1.00  0.00    -0.773 OA
HETATM   33  H36 UNL     1       4.068  51.833 -27.465  1.00  0.00     0.167 HD
ENDBRANCH  30  32
ENDBRANCH  28  30
ENDBRANCH  26  27
ENDBRANCH   1  26
TORSDOF 12
ENDMDL
MODEL 3
REMARK minimizedAffinity -8.59657192
REMARK  12 active torsions:
REMARK  status: ('A' for Active; 'I' for Inactive)
REMARK    1  A    between atoms: C2_2  and  C23_27 
REMARK    2  A    between atoms: C3_3  and  C4_4 
REMARK    3  A    between atoms: C4_4  and  C5_5 
REMARK    4  A    between atoms: C13_13  and  C14_14 
REMARK    5  A    between atoms: C14_14  and  C16_16 
REMARK    6  A    between atoms: C17_17  and  C18_18 
REMARK    7  A    between atoms: C18_18  and  O1_19 
REMARK    8  A    between atoms: C18_18  and  C19_20 
REMARK    9  A    between atoms: C20_21  and  C21_23 
REMARK   10  A    between atoms: C21_23  and  C22_24 
REMARK   11  A    between atoms: C22_24  and  O2_25 
REMARK   12  A    between atoms: C23_27  and  O4_29 
ROOT
HETATM    1  C5  UNL     1      -0.964  51.960 -23.197  1.00  0.00     0.225 C 
HETATM    2  C6  UNL     1       0.244  52.605 -22.505  1.00  0.00     0.036 C 
HETATM    3  C7  UNL     1       0.134  52.476 -20.992  1.00  0.00     0.005 C 
HETATM    4  C8  UNL     1      -0.093  51.018 -20.599  1.00  0.00     0.042 C 
HETATM    5  C9  UNL     1      -1.289  50.351 -21.347  1.00  0.00     0.162 C 
HETATM    6  C10 UNL     1      -2.636  50.883 -20.822  1.00  0.00     0.042 C 
HETATM    7  C11 UNL     1      -2.899  50.123 -19.526  1.00  0.00     0.003 C 
HETATM    8  C12 UNL     1      -2.041  48.858 -19.571  1.00  0.00     0.008 C 
HETATM    9  C13 UNL     1      -1.343  48.835 -20.948  1.00  0.00     0.031 C 
HETATM   10  N1  UNL     1      -1.109  50.554 -22.789  1.00  0.00     0.098 N 
HETATM   11  H35 UNL     1      -1.883  50.138 -23.304  1.00  0.00     0.317 HD
ENDROOT
BRANCH   9  12
HETATM   12  C14 UNL     1      -1.998  47.822 -21.945  1.00  0.00     0.010 C 
HETATM   13  C15 UNL     1      -2.600  46.635 -21.168  1.00  0.00     0.015 C 
BRANCH  12  14
HETATM   14  C16 UNL     1      -2.960  48.428 -22.950  1.00  0.00    -0.023 C 
HETATM   15  C17 UNL     1      -4.304  48.382 -22.919  1.00  0.00     0.005 C 
BRANCH  15  16
HETATM   16  C18 UNL     1      -5.203  48.979 -23.962  1.00  0.00     0.165 C 
BRANCH  16  17
HETATM   17  O1  UNL     1      -5.552  50.268 -23.497  1.00  0.00    -0.388 OA
HETATM   18  H28 UNL     1      -5.473  50.891 -24.237  1.00  0.00     0.210 HD
ENDBRANCH  16  17
BRANCH  16  19
HETATM   19  C19 UNL     1      -4.539  48.941 -25.317  1.00  0.00     0.028 C 
HETATM   20  C20 UNL     1      -4.882  48.384 -26.491  1.00  0.00     0.013 C 
HETATM   21 CL1  UNL     1      -6.359  47.510 -26.719  1.00  0.00    -0.089 Cl
BRANCH  20  22
HETATM   22  C21 UNL     1      -4.032  48.513 -27.737  1.00  0.00     0.077 C 
BRANCH  22  23
HETATM   23  C22 UNL     1      -3.475  49.926 -27.936  1.00  0.00     0.169 C 
BRANCH  23  24
HETATM   24  O2  UNL     1      -3.600  50.350 -29.290  1.00  0.00    -0.401 OA
HETATM   25  H34 UNL     1      -3.144  49.694 -29.849  1.00  0.00     0.209 HD
ENDBRANCH  23  24
ENDBRANCH  22  23
ENDBRANCH  20  22
ENDBRANCH  16  19
ENDBRANCH  15  16
ENDBRANCH  12  14
ENDBRANCH   9  12
BRANCH   1  26
HETATM   26  C4  UNL     1      -0.870  52.086 -24.738  1.00  0.00     0.063 C 
BRANCH  26  27
HETATM   27  C3  UNL     1       0.464  51.711 -25.333  1.00  0.00    -0.011 C 
HETATM   28  C2  UNL     1       0.958  52.045 -26.543  1.00  0.00     0.008 C 
HETATM   29  C1  UNL     1       0.287  52.915 -27.563  1.00  0.00     0.055 C 
BRANCH  28  30
HETATM   30  C23 UNL     1       2.300  51.500 -26.878  1.00  0.00     0.171 C 
HETATM   31  O3  UNL     1       3.009  50.808 -26.169  1.00  0.00    -0.646 OA
BRANCH  30  32
HETATM   32  O4  UNL     1       2.699  51.844 -28.115  1.00  0.00    -0.773 OA
HETATM   33  H36 UNL     1       3.579  51.421 -28.188  1.00  0.00     0.167 HD
ENDBRANCH  30  32
ENDBRANCH  28  30
ENDBRANCH  26  27
ENDBRANCH   1  26
TORSDOF 12
ENDMDL
MODEL 4
REMARK minimizedAffinity -8.59618092
REMARK  12 active torsions:
REMARK  status: ('A' for Active; 'I' for Inactive)
REMARK    1  A    between atoms: C2_2  and  C23_27 
REMARK    2  A    between atoms: C3_3  and  C4_4 
REMARK    3  A    between atoms: C4_4  and  C5_5 
REMARK    4  A    between atoms: C13_13  and  C14_14 
REMARK    5  A    between atoms: C14_14  and  C16_16 
REMARK    6  A    between atoms: C17_17  and  C18_18 
REMARK    7  A    between atoms: C18_18  and  O1_19 
REMARK    8  A    between atoms: C18_18  and  C19_20 
REMARK    9  A    between atoms: C20_21  and  C21_23 
REMARK   10  A    between atoms: C21_23  and  C22_24 
REMARK   11  A    between atoms: C22_24  and  O2_25 
REMARK   12  A    between atoms: C23_27  and  O4_29 
ROOT
HETATM    1  C5  UNL     1      -2.045  50.366 -25.603  1.00  0.00     0.225 C 
HETATM    2  C6  UNL     1      -2.843  49.823 -26.796  1.00  0.00     0.036 C 
HETATM    3  C7  UNL     1      -3.599  48.558 -26.413  1.00  0.00     0.005 C 
HETATM    4  C8  UNL     1      -4.447  48.804 -25.168  1.00  0.00     0.042 C 
HETATM    5  C9  UNL     1      -3.642  49.407 -23.974  1.00  0.00     0.162 C 
HETATM    6  C10 UNL     1      -2.712  48.352 -23.345  1.00  0.00     0.042 C 
HETATM    7  C11 UNL     1      -3.605  47.508 -22.440  1.00  0.00     0.003 C 
HETATM    8  C12 UNL     1      -4.852  48.342 -22.144  1.00  0.00     0.008 C 
HETATM    9  C13 UNL     1      -4.641  49.720 -22.807  1.00  0.00     0.031 C 
HETATM   10  N1  UNL     1      -2.927  50.598 -24.448  1.00  0.00     0.098 N 
HETATM   11  H35 UNL     1      -2.382  51.007 -23.692  1.00  0.00     0.317 HD
ENDROOT
BRANCH   9  12
HETATM   12  C14 UNL     1      -4.263  50.838 -21.779  1.00  0.00     0.010 C 
HETATM   13  C15 UNL     1      -5.208  50.777 -20.563  1.00  0.00     0.015 C 
BRANCH  12  14
HETATM   14  C16 UNL     1      -2.796  50.897 -21.393  1.00  0.00    -0.023 C 
HETATM   15  C17 UNL     1      -2.208  50.304 -20.339  1.00  0.00     0.005 C 
BRANCH  15  16
HETATM   16  C18 UNL     1      -0.753  50.423 -19.993  1.00  0.00     0.165 C 
BRANCH  16  17
HETATM   17  O1  UNL     1      -0.099  49.350 -20.641  1.00  0.00    -0.388 OA
HETATM   18  H28 UNL     1       0.708  49.691 -21.058  1.00  0.00     0.210 HD
ENDBRANCH  16  17
BRANCH  16  19
HETATM   19  C19 UNL     1      -0.237  51.798 -20.345  1.00  0.00     0.028 C 
HETATM   20  C20 UNL     1       0.370  52.761 -19.629  1.00  0.00     0.013 C 
HETATM   21 CL1  UNL     1       0.758  52.580 -17.952  1.00  0.00    -0.089 Cl
BRANCH  20  22
HETATM   22  C21 UNL     1       0.818  54.072 -20.238  1.00  0.00     0.077 C 
BRANCH  22  23
HETATM   23  C22 UNL     1       1.407  53.909 -21.642  1.00  0.00     0.169 C 
BRANCH  23  24
HETATM   24  O2  UNL     1       1.971  55.127 -22.117  1.00  0.00    -0.401 OA
HETATM   25  H34 UNL     1       1.273  55.807 -22.089  1.00  0.00     0.209 HD
ENDBRANCH  23  24
ENDBRANCH  22  23
ENDBRANCH  20  22
ENDBRANCH  16  19
ENDBRANCH  15  16
ENDBRANCH  12  14
ENDBRANCH   9  12
BRANCH   1  26
HETATM   26  C4  UNL     1      -1.267  51.651 -25.976  1.00  0.00     0.063 C 
BRANCH  26  27
HETATM   27  C3  UNL     1       0.235  51.515 -25.974  1.00  0.00    -0.011 C 
HETATM   28  C2  UNL     1       1.077  51.572 -27.027  1.00  0.00     0.008 C 
HETATM   29  C1  UNL     1       0.693  51.832 -28.453  1.00  0.00     0.055 C 
BRANCH  28  30
HETATM   30  C23 UNL     1       2.518  51.368 -26.728  1.00  0.00     0.171 C 
HETATM   31  O3  UNL     1       2.997  50.598 -25.915  1.00  0.00    -0.646 OA
BRANCH  30  32
HETATM   32  O4  UNL     1       3.314  52.146 -27.483  1.00  0.00    -0.773 OA
HETATM   33  H36 UNL     1       4.212  51.904 -27.177  1.00  0.00     0.167 HD
ENDBRANCH  30  32
ENDBRANCH  28  30
ENDBRANCH  26  27
ENDBRANCH   1  26
TORSDOF 12
ENDMDL
MODEL 5
REMARK minimizedAffinity -8.53397655
REMARK  12 active torsions:
REMARK  status: ('A' for Active; 'I' for Inactive)
REMARK    1  A    between atoms: C2_2  and  C23_27 
REMARK    2  A    between atoms: C3_3  and  C4_4 
REMARK    3  A    between atoms: C4_4  and  C5_5 
REMARK    4  A    between atoms: C13_13  and  C14_14 
REMARK    5  A    between atoms: C14_14  and  C16_16 
REMARK    6  A    between atoms: C17_17  and  C18_18 
REMARK    7  A    between atoms: C18_18  and  O1_19 
REMARK    8  A    between atoms: C18_18  and  C19_20 
REMARK    9  A    between atoms: C20_21  and  C21_23 
REMARK   10  A    between atoms: C21_23  and  C22_24 
REMARK   11  A    between atoms: C22_24  and  O2_25 
REMARK   12  A    between atoms: C23_27  and  O4_29 
ROOT
HETATM    1  C5  UNL     1      -1.116  51.509 -22.969  1.00  0.00     0.225 C 
HETATM    2  C6  UNL     1      -0.459  50.715 -21.833  1.00  0.00     0.036 C 
HETATM    3  C7  UNL     1      -1.464  49.783 -21.170  1.00  0.00     0.005 C 
HETATM    4  C8  UNL     1      -2.146  48.907 -22.218  1.00  0.00     0.042 C 
HETATM    5  C9  UNL     1      -2.766  49.716 -23.399  1.00  0.00     0.162 C 
HETATM    6  C10 UNL     1      -4.034  50.467 -22.950  1.00  0.00     0.042 C 
HETATM    7  C11 UNL     1      -5.149  49.425 -22.954  1.00  0.00     0.003 C 
HETATM    8  C12 UNL     1      -4.684  48.281 -23.856  1.00  0.00     0.008 C 
HETATM    9  C13 UNL     1      -3.326  48.703 -24.457  1.00  0.00     0.031 C 
HETATM   10  N1  UNL     1      -1.734  50.602 -23.950  1.00  0.00     0.098 N 
HETATM   11  H35 UNL     1      -2.113  51.153 -24.717  1.00  0.00     0.317 HD
ENDROOT
BRANCH   9  12
HETATM   12  C14 UNL     1      -3.439  49.165 -25.948  1.00  0.00     0.010 C 
HETATM   13  C15 UNL     1      -2.044  49.175 -26.603  1.00  0.00     0.015 C 
BRANCH  12  14
HETATM   14  C16 UNL     1      -4.482  48.439 -26.777  1.00  0.00    -0.023 C 
HETATM   15  C17 UNL     1      -4.597  48.433 -28.117  1.00  0.00     0.005 C 
BRANCH  15  16
HETATM   16  C18 UNL     1      -5.672  47.716 -28.880  1.00  0.00     0.165 C 
BRANCH  16  17
HETATM   17  O1  UNL     1      -6.800  48.569 -28.878  1.00  0.00    -0.388 OA
HETATM   18  H28 UNL     1      -7.172  48.586 -29.773  1.00  0.00     0.210 HD
ENDBRANCH  16  17
BRANCH  16  19
HETATM   19  C19 UNL     1      -5.172  47.315 -30.247  1.00  0.00     0.028 C 
HETATM   20  C20 UNL     1      -5.716  47.370 -31.475  1.00  0.00     0.013 C 
HETATM   21 CL1  UNL     1      -7.290  48.024 -31.775  1.00  0.00    -0.089 Cl
BRANCH  20  22
HETATM   22  C21 UNL     1      -4.981  46.913 -32.716  1.00  0.00     0.077 C 
BRANCH  22  23
HETATM   23  C22 UNL     1      -4.347  48.068 -33.496  1.00  0.00     0.169 C 
BRANCH  23  24
HETATM   24  O2  UNL     1      -2.925  48.005 -33.461  1.00  0.00    -0.401 OA
HETATM   25  H34 UNL     1      -2.651  48.000 -32.526  1.00  0.00     0.209 HD
ENDBRANCH  23  24
ENDBRANCH  22  23
ENDBRANCH  20  22
ENDBRANCH  16  19
ENDBRANCH  15  16
ENDBRANCH  12  14
ENDBRANCH   9  12
BRANCH   1  26
HETATM   26  C4  UNL     1      -0.108  52.465 -23.652  1.00  0.00     0.063 C 
BRANCH  26  27
HETATM   27  C3  UNL     1      -0.431  52.825 -25.081  1.00  0.00    -0.011 C 
HETATM   28  C2  UNL     1       0.187  52.406 -26.204  1.00  0.00     0.008 C 
HETATM   29  C1  UNL     1       1.328  51.436 -26.276  1.00  0.00     0.055 C 
BRANCH  28  30
HETATM   30  C23 UNL     1      -0.330  52.958 -27.484  1.00  0.00     0.171 C 
HETATM   31  O3  UNL     1      -0.838  54.051 -27.659  1.00  0.00    -0.646 OA
BRANCH  30  32
HETATM   32  O4  UNL     1      -0.176  52.103 -28.510  1.00  0.00    -0.773 OA
HETATM   33  H36 UNL     1      -0.556  52.596 -29.266  1.00  0.00     0.167 HD
ENDBRANCH  30  32
ENDBRANCH  28  30
ENDBRANCH  26  27
ENDBRANCH   1  26
TORSDOF 12
ENDMDL
MODEL 6
REMARK minimizedAffinity -8.50260067
REMARK  12 active torsions:
REMARK  status: ('A' for Active; 'I' for Inactive)
REMARK    1  A    between atoms: C2_2  and  C23_27 
REMARK    2  A    between atoms: C3_3  and  C4_4 
REMARK    3  A    between atoms: C4_4  and  C5_5 
REMARK    4  A    between atoms: C13_13  and  C14_14 
REMARK    5  A    between atoms: C14_14  and  C16_16 
REMARK    6  A    between atoms: C17_17  and  C18_18 
REMARK    7  A    between atoms: C18_18  and  O1_19 
REMARK    8  A    between atoms: C18_18  and  C19_20 
REMARK    9  A    between atoms: C20_21  and  C21_23 
REMARK   10  A    between atoms: C21_23  and  C22_24 
REMARK   11  A    between atoms: C22_24  and  O2_25 
REMARK   12  A    between atoms: C23_27  and  O4_29 
ROOT
HETATM    1  C5  UNL     1       0.017  52.293 -22.991  1.00  0.00     0.225 C 
HETATM    2  C6  UNL     1       0.861  52.948 -21.890  1.00  0.00     0.036 C 
HETATM    3  C7  UNL     1       0.080  53.030 -20.585  1.00  0.00     0.005 C 
HETATM    4  C8  UNL     1      -0.464  51.655 -20.206  1.00  0.00     0.042 C 
HETATM    5  C9  UNL     1      -1.276  50.969 -21.350  1.00  0.00     0.162 C 
HETATM    6  C10 UNL     1      -2.644  51.651 -21.542  1.00  0.00     0.042 C 
HETATM    7  C11 UNL     1      -3.539  51.088 -20.441  1.00  0.00     0.003 C 
HETATM    8  C12 UNL     1      -2.902  49.777 -19.977  1.00  0.00     0.008 C 
HETATM    9  C13 UNL     1      -1.675  49.527 -20.881  1.00  0.00     0.031 C 
HETATM   10  N1  UNL     1      -0.456  50.966 -22.567  1.00  0.00     0.098 N 
HETATM   11  H35 UNL     1      -0.965  50.535 -23.335  1.00  0.00     0.317 HD
ENDROOT
BRANCH   9  12
HETATM   12  C14 UNL     1      -1.936  48.433 -21.970  1.00  0.00     0.010 C 
HETATM   13  C15 UNL     1      -2.107  47.055 -21.300  1.00  0.00     0.015 C 
BRANCH  12  14
HETATM   14  C16 UNL     1      -3.035  48.754 -22.965  1.00  0.00    -0.023 C 
HETATM   15  C17 UNL     1      -4.236  48.158 -23.071  1.00  0.00     0.005 C 
BRANCH  15  16
HETATM   16  C18 UNL     1      -5.273  48.503 -24.099  1.00  0.00     0.165 C 
BRANCH  16  17
HETATM   17  O1  UNL     1      -5.863  49.718 -23.680  1.00  0.00    -0.388 OA
HETATM   18  H28 UNL     1      -5.938  50.303 -24.449  1.00  0.00     0.210 HD
ENDBRANCH  16  17
BRANCH  16  19
HETATM   19  C19 UNL     1      -4.662  48.528 -25.479  1.00  0.00     0.028 C 
HETATM   20  C20 UNL     1      -5.120  48.170 -26.692  1.00  0.00     0.013 C 
HETATM   21 CL1  UNL     1      -6.719  47.559 -26.948  1.00  0.00    -0.089 Cl
BRANCH  20  22
HETATM   22  C21 UNL     1      -4.296  48.319 -27.953  1.00  0.00     0.077 C 
BRANCH  22  23
HETATM   23  C22 UNL     1      -5.141  48.268 -29.229  1.00  0.00     0.169 C 
BRANCH  23  24
HETATM   24  O2  UNL     1      -4.755  49.280 -30.153  1.00  0.00    -0.401 OA
HETATM   25  H34 UNL     1      -4.829  50.139 -29.699  1.00  0.00     0.209 HD
ENDBRANCH  23  24
ENDBRANCH  22  23
ENDBRANCH  20  22
ENDBRANCH  16  19
ENDBRANCH  15  16
ENDBRANCH  12  14
ENDBRANCH   9  12
BRANCH   1  26
HETATM   26  C4  UNL     1       0.795  52.206 -24.327  1.00  0.00     0.063 C 
BRANCH  26  27
HETATM   27  C3  UNL     1       0.256  53.068 -25.441  1.00  0.00    -0.011 C 
HETATM   28  C2  UNL     1       0.403  52.896 -26.771  1.00  0.00     0.008 C 
HETATM   29  C1  UNL     1       1.113  51.759 -27.442  1.00  0.00     0.055 C 
BRANCH  28  30
HETATM   30  C23 UNL     1      -0.214  53.932 -27.640  1.00  0.00     0.171 C 
HETATM   31  O3  UNL     1      -0.333  55.119 -27.394  1.00  0.00    -0.646 OA
BRANCH  30  32
HETATM   32  O4  UNL     1      -0.654  53.428 -28.807  1.00  0.00    -0.773 OA
HETATM   33  H36 UNL     1      -1.026  54.213 -29.259  1.00  0.00     0.167 HD
ENDBRANCH  30  32
ENDBRANCH  28  30
ENDBRANCH  26  27
ENDBRANCH   1  26
TORSDOF 12
ENDMDL
MODEL 7
REMARK minimizedAffinity -8.44458866
REMARK  12 active torsions:
REMARK  status: ('A' for Active; 'I' for Inactive)
REMARK    1  A    between atoms: C2_2  and  C23_27 
REMARK    2  A    between atoms: C3_3  and  C4_4 
REMARK    3  A    between atoms: C4_4  and  C5_5 
REMARK    4  A    between atoms: C13_13  and  C14_14 
REMARK    5  A    between atoms: C14_14  and  C16_16 
REMARK    6  A    between atoms: C17_17  and  C18_18 
REMARK    7  A    between atoms: C18_18  and  O1_19 
REMARK    8  A    between atoms: C18_18  and  C19_20 
REMARK    9  A    between atoms: C20_21  and  C21_23 
REMARK   10  A    between atoms: C21_23  and  C22_24 
REMARK   11  A    between atoms: C22_24  and  O2_25 
REMARK   12  A    between atoms: C23_27  and  O4_29 
ROOT
HETATM    1  C5  UNL     1      -4.010  48.923 -23.337  1.00  0.00     0.225 C 
HETATM    2  C6  UNL     1      -5.247  49.784 -23.624  1.00  0.00     0.036 C 
HETATM    3  C7  UNL     1      -5.897  50.247 -22.328  1.00  0.00     0.005 C 
HETATM    4  C8  UNL     1      -4.867  50.932 -21.433  1.00  0.00     0.042 C 
HETATM    5  C9  UNL     1      -3.586  50.074 -21.188  1.00  0.00     0.162 C 
HETATM    6  C10 UNL     1      -3.882  48.895 -20.242  1.00  0.00     0.042 C 
HETATM    7  C11 UNL     1      -3.868  49.488 -18.836  1.00  0.00     0.003 C 
HETATM    8  C12 UNL     1      -3.090  50.801 -18.914  1.00  0.00     0.008 C 
HETATM    9  C13 UNL     1      -2.565  50.929 -20.361  1.00  0.00     0.031 C 
HETATM   10  N1  UNL     1      -3.053  49.652 -22.489  1.00  0.00     0.098 N 
HETATM   11  H35 UNL     1      -2.221  49.079 -22.361  1.00  0.00     0.317 HD
ENDROOT
BRANCH   9  12
HETATM   12  C14 UNL     1      -1.040  50.599 -20.485  1.00  0.00     0.010 C 
HETATM   13  C15 UNL     1      -0.847  49.095 -20.758  1.00  0.00     0.015 C 
BRANCH  12  14
HETATM   14  C16 UNL     1      -0.259  51.485 -21.438  1.00  0.00    -0.023 C 
HETATM   15  C17 UNL     1      -0.753  52.235 -22.440  1.00  0.00     0.005 C 
BRANCH  15  16
HETATM   16  C18 UNL     1       0.077  53.071 -23.371  1.00  0.00     0.165 C 
BRANCH  16  17
HETATM   17  O1  UNL     1       1.111  53.634 -22.587  1.00  0.00    -0.388 OA
HETATM   18  H28 UNL     1       1.945  53.546 -23.073  1.00  0.00     0.210 HD
ENDBRANCH  16  17
BRANCH  16  19
HETATM   19  C19 UNL     1       0.539  52.249 -24.550  1.00  0.00     0.028 C 
HETATM   20  C20 UNL     1       0.560  52.478 -25.875  1.00  0.00     0.013 C 
HETATM   21 CL1  UNL     1       0.019  53.963 -26.580  1.00  0.00    -0.089 Cl
BRANCH  20  22
HETATM   22  C21 UNL     1       1.109  51.476 -26.868  1.00  0.00     0.077 C 
BRANCH  22  23
HETATM   23  C22 UNL     1       2.600  51.194 -26.671  1.00  0.00     0.169 C 
BRANCH  23  24
HETATM   24  O2  UNL     1       3.407  52.110 -27.405  1.00  0.00    -0.401 OA
HETATM   25  H34 UNL     1       3.143  52.052 -28.342  1.00  0.00     0.209 HD
ENDBRANCH  23  24
ENDBRANCH  22  23
ENDBRANCH  20  22
ENDBRANCH  16  19
ENDBRANCH  15  16
ENDBRANCH  12  14
ENDBRANCH   9  12
BRANCH   1  26
HETATM   26  C4  UNL     1      -3.338  48.440 -24.646  1.00  0.00     0.063 C 
BRANCH  26  27
HETATM   27  C3  UNL     1      -3.153  49.500 -25.702  1.00  0.00    -0.011 C 
HETATM   28  C2  UNL     1      -3.490  49.442 -27.007  1.00  0.00     0.008 C 
HETATM   29  C1  UNL     1      -4.175  48.299 -27.693  1.00  0.00     0.055 C 
BRANCH  28  30
HETATM   30  C23 UNL     1      -3.152  50.636 -27.827  1.00  0.00     0.171 C 
HETATM   31  O3  UNL     1      -2.594  51.650 -27.450  1.00  0.00    -0.646 OA
BRANCH  30  32
HETATM   32  O4  UNL     1      -3.529  50.499 -29.110  1.00  0.00    -0.773 OA
HETATM   33  H36 UNL     1      -3.247  51.346 -29.513  1.00  0.00     0.167 HD
ENDBRANCH  30  32
ENDBRANCH  28  30
ENDBRANCH  26  27
ENDBRANCH   1  26
TORSDOF 12
ENDMDL
MODEL 8
REMARK minimizedAffinity -8.39145088
REMARK  12 active torsions:
REMARK  status: ('A' for Active; 'I' for Inactive)
REMARK    1  A    between atoms: C2_2  and  C23_27 
REMARK    2  A    between atoms: C3_3  and  C4_4 
REMARK    3  A    between atoms: C4_4  and  C5_5 
REMARK    4  A    between atoms: C13_13  and  C14_14 
REMARK    5  A    between atoms: C14_14  and  C16_16 
REMARK    6  A    between atoms: C17_17  and  C18_18 
REMARK    7  A    between atoms: C18_18  and  O1_19 
REMARK    8  A    between atoms: C18_18  and  C19_20 
REMARK    9  A    between atoms: C20_21  and  C21_23 
REMARK   10  A    between atoms: C21_23  and  C22_24 
REMARK   11  A    between atoms: C22_24  and  O2_25 
REMARK   12  A    between atoms: C23_27  and  O4_29 
ROOT
HETATM    1  C5  UNL     1      -0.938  51.976 -23.086  1.00  0.00     0.225 C 
HETATM    2  C6  UNL     1       0.268  52.587 -22.360  1.00  0.00     0.036 C 
HETATM    3  C7  UNL     1       0.139  52.411 -20.853  1.00  0.00     0.005 C 
HETATM    4  C8  UNL     1      -0.108  50.945 -20.508  1.00  0.00     0.042 C 
HETATM    5  C9  UNL     1      -1.302  50.313 -21.290  1.00  0.00     0.162 C 
HETATM    6  C10 UNL     1      -2.649  50.844 -20.765  1.00  0.00     0.042 C 
HETATM    7  C11 UNL     1      -2.935  50.046 -19.496  1.00  0.00     0.003 C 
HETATM    8  C12 UNL     1      -2.089  48.774 -19.571  1.00  0.00     0.008 C 
HETATM    9  C13 UNL     1      -1.375  48.787 -20.940  1.00  0.00     0.031 C 
HETATM   10  N1  UNL     1      -1.102  50.560 -22.724  1.00  0.00     0.098 N 
HETATM   11  H35 UNL     1      -1.874  50.168 -23.260  1.00  0.00     0.317 HD
ENDROOT
BRANCH   9  12
HETATM   12  C14 UNL     1      -2.029  47.812 -21.976  1.00  0.00     0.010 C 
HETATM   13  C15 UNL     1      -2.860  46.743 -21.240  1.00  0.00     0.015 C 
BRANCH  12  14
HETATM   14  C16 UNL     1      -2.783  48.480 -23.111  1.00  0.00    -0.023 C 
HETATM   15  C17 UNL     1      -4.077  48.310 -23.438  1.00  0.00     0.005 C 
BRANCH  15  16
HETATM   16  C18 UNL     1      -4.761  48.979 -24.594  1.00  0.00     0.165 C 
BRANCH  16  17
HETATM   17  O1  UNL     1      -3.984  48.690 -25.740  1.00  0.00    -0.388 OA
HETATM   18  H28 UNL     1      -4.583  48.436 -26.459  1.00  0.00     0.210 HD
ENDBRANCH  16  17
BRANCH  16  19
HETATM   19  C19 UNL     1      -6.206  48.552 -24.672  1.00  0.00     0.028 C 
HETATM   20  C20 UNL     1      -7.313  48.935 -24.010  1.00  0.00     0.013 C 
HETATM   21 CL1  UNL     1      -7.302  50.173 -22.802  1.00  0.00    -0.089 Cl
BRANCH  20  22
HETATM   22  C21 UNL     1      -8.680  48.352 -24.299  1.00  0.00     0.077 C 
BRANCH  22  23
HETATM   23  C22 UNL     1      -9.184  48.680 -25.707  1.00  0.00     0.169 C 
BRANCH  23  24
HETATM   24  O2  UNL     1      -9.537  50.054 -25.829  1.00  0.00    -0.401 OA
HETATM   25  H34 UNL     1     -10.203  50.251 -25.146  1.00  0.00     0.209 HD
ENDBRANCH  23  24
ENDBRANCH  22  23
ENDBRANCH  20  22
ENDBRANCH  16  19
ENDBRANCH  15  16
ENDBRANCH  12  14
ENDBRANCH   9  12
BRANCH   1  26
HETATM   26  C4  UNL     1      -0.824  52.149 -24.620  1.00  0.00     0.063 C 
BRANCH  26  27
HETATM   27  C3  UNL     1       0.501  51.744 -25.216  1.00  0.00    -0.011 C 
HETATM   28  C2  UNL     1       0.973  52.009 -26.451  1.00  0.00     0.008 C 
HETATM   29  C1  UNL     1       0.282  52.818 -27.507  1.00  0.00     0.055 C 
BRANCH  28  30
HETATM   30  C23 UNL     1       2.311  51.448 -26.778  1.00  0.00     0.171 C 
HETATM   31  O3  UNL     1       2.999  50.734 -26.071  1.00  0.00    -0.646 OA
BRANCH  30  32
HETATM   32  O4  UNL     1       2.730  51.805 -28.005  1.00  0.00    -0.773 OA
HETATM   33  H36 UNL     1       3.605  51.370 -28.073  1.00  0.00     0.167 HD
ENDBRANCH  30  32
ENDBRANCH  28  30
ENDBRANCH  26  27
ENDBRANCH   1  26
TORSDOF 12
ENDMDL
MODEL 9
REMARK minimizedAffinity -8.32246208
REMARK  12 active torsions:
REMARK  status: ('A' for Active; 'I' for Inactive)
REMARK    1  A    between atoms: C2_2  and  C23_27 
REMARK    2  A    between atoms: C3_3  and  C4_4 
REMARK    3  A    between atoms: C4_4  and  C5_5 
REMARK    4  A    between atoms: C13_13  and  C14_14 
REMARK    5  A    between atoms: C14_14  and  C16_16 
REMARK    6  A    between atoms: C17_17  and  C18_18 
REMARK    7  A    between atoms: C18_18  and  O1_19 
REMARK    8  A    between atoms: C18_18  and  C19_20 
REMARK    9  A    between atoms: C20_21  and  C21_23 
REMARK   10  A    between atoms: C21_23  and  C22_24 
REMARK   11  A    between atoms: C22_24  and  O2_25 
REMARK   12  A    between atoms: C23_27  and  O4_29 
ROOT
HETATM    1  C5  UNL     1      -1.374  52.067 -23.975  1.00  0.00     0.225 C 
HETATM    2  C6  UNL     1      -2.896  52.250 -24.038  1.00  0.00     0.036 C 
HETATM    3  C7  UNL     1      -3.586  51.410 -22.972  1.00  0.00     0.005 C 
HETATM    4  C8  UNL     1      -2.988  51.701 -21.597  1.00  0.00     0.042 C 
HETATM    5  C9  UNL     1      -1.434  51.566 -21.553  1.00  0.00     0.162 C 
HETATM    6  C10 UNL     1      -1.005  50.088 -21.620  1.00  0.00     0.042 C 
HETATM    7  C11 UNL     1      -1.187  49.546 -20.205  1.00  0.00     0.003 C 
HETATM    8  C12 UNL     1      -1.204  50.753 -19.266  1.00  0.00     0.008 C 
HETATM    9  C13 UNL     1      -0.937  52.003 -20.132  1.00  0.00     0.031 C 
HETATM   10  N1  UNL     1      -0.865  52.383 -22.632  1.00  0.00     0.098 N 
HETATM   11  H35 UNL     1       0.150  52.306 -22.635  1.00  0.00     0.317 HD
ENDROOT
BRANCH   9  12
HETATM   12  C14 UNL     1       0.525  52.543 -19.984  1.00  0.00     0.010 C 
HETATM   13  C15 UNL     1       0.640  53.935 -20.635  1.00  0.00     0.015 C 
BRANCH  12  14
HETATM   14  C16 UNL     1       1.099  52.489 -18.581  1.00  0.00    -0.023 C 
HETATM   15  C17 UNL     1       0.546  51.914 -17.497  1.00  0.00     0.005 C 
BRANCH  15  16
HETATM   16  C18 UNL     1       1.152  51.919 -16.124  1.00  0.00     0.165 C 
BRANCH  16  17
HETATM   17  O1  UNL     1       1.462  53.267 -15.829  1.00  0.00    -0.388 OA
HETATM   18  H28 UNL     1       1.173  53.455 -14.923  1.00  0.00     0.210 HD
ENDBRANCH  16  17
BRANCH  16  19
HETATM   19  C19 UNL     1       0.232  51.240 -15.139  1.00  0.00     0.028 C 
HETATM   20  C20 UNL     1      -0.188  49.970 -15.002  1.00  0.00     0.013 C 
HETATM   21 CL1  UNL     1       0.332  48.691 -16.046  1.00  0.00    -0.089 Cl
BRANCH  20  22
HETATM   22  C21 UNL     1      -1.115  49.532 -13.888  1.00  0.00     0.077 C 
BRANCH  22  23
HETATM   23  C22 UNL     1      -2.349  50.428 -13.750  1.00  0.00     0.169 C 
BRANCH  23  24
HETATM   24  O2  UNL     1      -3.242  50.261 -14.847  1.00  0.00    -0.401 OA
HETATM   25  H34 UNL     1      -2.745  50.445 -15.664  1.00  0.00     0.209 HD
ENDBRANCH  23  24
ENDBRANCH  22  23
ENDBRANCH  20  22
ENDBRANCH  16  19
ENDBRANCH  15  16
ENDBRANCH  12  14
ENDBRANCH   9  12
BRANCH   1  26
HETATM   26  C4  UNL     1      -0.655  52.911 -25.056  1.00  0.00     0.063 C 
BRANCH  26  27
HETATM   27  C3  UNL     1       0.716  52.420 -25.448  1.00  0.00    -0.011 C 
HETATM   28  C2  UNL     1       1.125  51.969 -26.652  1.00  0.00     0.008 C 
HETATM   29  C1  UNL     1       0.295  51.899 -27.899  1.00  0.00     0.055 C 
BRANCH  28  30
HETATM   30  C23 UNL     1       2.537  51.513 -26.738  1.00  0.00     0.171 C 
HETATM   31  O3  UNL     1       3.060  50.620 -26.095  1.00  0.00    -0.646 OA
BRANCH  30  32
HETATM   32  O4  UNL     1       3.244  52.203 -27.651  1.00  0.00    -0.773 OA
HETATM   33  H36 UNL     1       4.133  51.798 -27.592  1.00  0.00     0.167 HD
ENDBRANCH  30  32
ENDBRANCH  28  30
ENDBRANCH  26  27
ENDBRANCH   1  26
TORSDOF 12
ENDMDL
