MODEL 1
REMARK minimizedAffinity -10.1661167
REMARK CNNscore 0.651946664
REMARK CNNaffinity 6.58011675
REMARK  8 active torsions:
REMARK  status: ('A' for Active; 'I' for Inactive)
REMARK    1  A    between atoms: C11_11  and  O1_12 
REMARK    2  A    between atoms: O1_12  and  C12_13 
REMARK    3  A    between atoms: C14_16  and  O3_17 
REMARK    4  A    between atoms: C15_18  and  O4_19 
REMARK    5  A    between atoms: C16_20  and  O5_21 
REMARK    6  A    between atoms: C19_24  and  C20_25 
REMARK    7  A    between atoms: C21_27  and  O7_28 
REMARK    8  A    between atoms: C24_31  and  C25_32 
ROOT
HETATM    1  C1  UNL     1      -1.819  51.388 -18.568  1.00  0.00     0.019 C 
HETATM    2  C2  UNL     1      -2.188  50.831 -19.968  1.00  0.00    -0.005 C 
HETATM    3  C3  UNL     1      -3.411  51.635 -20.457  1.00  0.00     0.013 C 
HETATM    4  C4  UNL     1      -4.072  51.091 -21.718  1.00  0.00     0.007 C 
HETATM    5  C5  UNL     1      -4.396  49.580 -21.676  1.00  0.00     0.012 C 
HETATM    6  C6  UNL     1      -3.970  48.931 -20.325  1.00  0.00     0.027 C 
HETATM    7  C7  UNL     1      -4.224  47.406 -20.349  1.00  0.00     0.012 C 
HETATM    8  C8  UNL     1      -5.672  47.062 -20.690  1.00  0.00     0.036 C 
HETATM    9  C9  UNL     1      -6.082  47.728 -21.982  1.00  0.00    -0.065 C 
HETATM   10  C10 UNL     1      -6.525  46.979 -23.009  1.00  0.00     0.009 C 
HETATM   11  C11 UNL     1      -6.795  47.494 -24.390  1.00  0.00     0.148 C 
HETATM   12  C17 UNL     1      -5.990  48.773 -24.619  1.00  0.00     0.037 C 
HETATM   13  C18 UNL     1      -6.234  49.782 -23.496  1.00  0.00     0.024 C 
HETATM   14  C19 UNL     1      -5.878  49.245 -22.070  1.00  0.00     0.040 C 
HETATM   15  C21 UNL     1      -2.507  49.280 -19.922  1.00  0.00     0.070 C 
HETATM   16  C22 UNL     1      -1.435  48.609 -20.803  1.00  0.00     0.040 C 
HETATM   17  C23 UNL     1      -0.268  49.583 -20.784  1.00  0.00     0.013 C 
HETATM   18  C24 UNL     1      -0.965  50.939 -20.950  1.00  0.00     0.028 C 
ENDROOT
BRANCH  11  19
HETATM   19  O1  UNL     1      -8.179  47.812 -24.514  1.00  0.00    -0.349 OA
BRANCH  19  20
HETATM   20  C12 UNL     1      -8.657  47.830 -25.864  1.00  0.00     0.291 C 
HETATM   21  O2  UNL     1      -8.829  46.515 -26.402  1.00  0.00    -0.356 OA
HETATM   22  C13 UNL     1     -10.112  45.962 -26.088  1.00  0.00     0.205 C 
HETATM   23  C14 UNL     1     -11.190  46.699 -26.891  1.00  0.00     0.173 C 
HETATM   24  C15 UNL     1     -10.863  48.200 -27.019  1.00  0.00     0.182 C 
HETATM   25  C16 UNL     1      -9.965  48.657 -25.870  1.00  0.00     0.204 C 
BRANCH  23  26
HETATM   26  O3  UNL     1     -11.273  46.117 -28.204  1.00  0.00    -0.391 OA
HETATM   27  H20 UNL     1     -10.386  46.166 -28.604  1.00  0.00     0.210 HD
ENDBRANCH  23  26
BRANCH  24  28
HETATM   28  O4  UNL     1     -12.074  48.972 -27.003  1.00  0.00    -0.390 OA
HETATM   29  H22 UNL     1     -11.783  49.905 -26.962  1.00  0.00     0.210 HD
ENDBRANCH  24  28
BRANCH  25  30
HETATM   30  O5  UNL     1      -9.693  50.064 -25.996  1.00  0.00    -0.388 OA
HETATM   31  H24 UNL     1      -9.228  50.324 -25.179  1.00  0.00     0.210 HD
ENDBRANCH  25  30
ENDBRANCH  19  20
ENDBRANCH  11  19
BRANCH  14  32
HETATM   32  C20 UNL     1      -6.851  49.971 -21.108  1.00  0.00     0.245 C 
HETATM   33  O6  UNL     1      -7.154  49.611 -19.974  1.00  0.00    -0.306 OA
ENDBRANCH  14  32
BRANCH  15  34
HETATM   34  O7  UNL     1      -2.299  48.809 -18.583  1.00  0.00    -0.389 OA
HETATM   35  H30 UNL     1      -2.269  47.837 -18.583  1.00  0.00     0.210 HD
ENDBRANCH  15  34
BRANCH  18  36
HETATM   36  C25 UNL     1      -0.051  52.131 -20.832  1.00  0.00    -0.045 A 
HETATM   37  C26 UNL     1       0.502  52.855 -21.807  1.00  0.00     0.087 A 
HETATM   38  C27 UNL     1       1.231  53.952 -21.178  1.00  0.00     0.283 A 
HETATM   39  O8  UNL     1       1.843  54.815 -21.780  1.00  0.00    -0.260 OA
HETATM   40  O9  UNL     1       1.096  53.861 -19.828  1.00  0.00    -0.314 OA
HETATM   41  C28 UNL     1       0.308  52.714 -19.515  1.00  0.00     0.213 A 
ENDBRANCH  18  36
TORSDOF 8
ENDMDL
MODEL 2
REMARK minimizedAffinity -9.48737621
REMARK CNNscore 0.637761354
REMARK CNNaffinity 6.6506238
REMARK  8 active torsions:
REMARK  status: ('A' for Active; 'I' for Inactive)
REMARK    1  A    between atoms: C11_11  and  O1_12 
REMARK    2  A    between atoms: O1_12  and  C12_13 
REMARK    3  A    between atoms: C14_16  and  O3_17 
REMARK    4  A    between atoms: C15_18  and  O4_19 
REMARK    5  A    between atoms: C16_20  and  O5_21 
REMARK    6  A    between atoms: C19_24  and  C20_25 
REMARK    7  A    between atoms: C21_27  and  O7_28 
REMARK    8  A    between atoms: C24_31  and  C25_32 
ROOT
HETATM    1  C1  UNL     1      -2.168  51.212 -19.185  1.00  0.00     0.019 C 
HETATM    2  C2  UNL     1      -2.568  50.570 -20.539  1.00  0.00    -0.005 C 
HETATM    3  C3  UNL     1      -3.801  51.344 -21.050  1.00  0.00     0.013 C 
HETATM    4  C4  UNL     1      -4.489  50.724 -22.260  1.00  0.00     0.007 C 
HETATM    5  C5  UNL     1      -4.813  49.219 -22.117  1.00  0.00     0.012 C 
HETATM    6  C6  UNL     1      -4.358  48.654 -20.738  1.00  0.00     0.027 C 
HETATM    7  C7  UNL     1      -4.613  47.131 -20.662  1.00  0.00     0.012 C 
HETATM    8  C8  UNL     1      -6.068  46.769 -20.949  1.00  0.00     0.036 C 
HETATM    9  C9  UNL     1      -6.505  47.354 -22.271  1.00  0.00    -0.065 C 
HETATM   10  C10 UNL     1      -6.971  46.544 -23.240  1.00  0.00     0.009 C 
HETATM   11  C11 UNL     1      -7.271  46.972 -24.643  1.00  0.00     0.148 C 
HETATM   12  C17 UNL     1      -6.471  48.233 -24.969  1.00  0.00     0.037 C 
HETATM   13  C18 UNL     1      -6.690  49.310 -23.906  1.00  0.00     0.024 C 
HETATM   14  C19 UNL     1      -6.304  48.863 -22.457  1.00  0.00     0.040 C 
HETATM   15  C21 UNL     1      -2.886  49.025 -20.389  1.00  0.00     0.070 C 
HETATM   16  C22 UNL     1      -1.834  48.300 -21.250  1.00  0.00     0.040 C 
HETATM   17  C23 UNL     1      -0.666  49.272 -21.317  1.00  0.00     0.013 C 
HETATM   18  C24 UNL     1      -1.366  50.616 -21.552  1.00  0.00     0.028 C 
ENDROOT
BRANCH  11  19
HETATM   19  O1  UNL     1      -8.657  47.284 -24.757  1.00  0.00    -0.349 OA
BRANCH  19  20
HETATM   20  C12 UNL     1      -9.109  47.461 -26.104  1.00  0.00     0.291 C 
HETATM   21  O2  UNL     1      -9.351  46.218 -26.770  1.00  0.00    -0.356 OA
HETATM   22  C13 UNL     1     -10.671  45.719 -26.526  1.00  0.00     0.205 C 
HETATM   23  C14 UNL     1     -11.688  46.595 -27.266  1.00  0.00     0.173 C 
HETATM   24  C15 UNL     1     -11.268  48.078 -27.244  1.00  0.00     0.182 C 
HETATM   25  C16 UNL     1     -10.364  48.365 -26.045  1.00  0.00     0.204 C 
BRANCH  23  26
HETATM   26  O3  UNL     1     -11.782  46.149 -28.630  1.00  0.00    -0.391 OA
HETATM   27  H20 UNL     1     -10.888  46.180 -29.014  1.00  0.00     0.210 HD
ENDBRANCH  23  26
BRANCH  24  28
HETATM   28  O4  UNL     1     -12.430  48.919 -27.167  1.00  0.00    -0.390 OA
HETATM   29  H22 UNL     1     -12.083  49.823 -27.032  1.00  0.00     0.210 HD
ENDBRANCH  24  28
BRANCH  25  30
HETATM   30  O5  UNL     1     -10.004  49.758 -26.031  1.00  0.00    -0.388 OA
HETATM   31  H24 UNL     1      -9.539  49.909 -25.187  1.00  0.00     0.210 HD
ENDBRANCH  25  30
ENDBRANCH  19  20
ENDBRANCH  11  19
BRANCH  14  32
HETATM   32  C20 UNL     1      -7.255  49.649 -21.522  1.00  0.00     0.245 C 
HETATM   33  O6  UNL     1      -7.929  49.177 -20.609  1.00  0.00    -0.306 OA
ENDBRANCH  14  32
BRANCH  15  34
HETATM   34  O7  UNL     1      -2.649  48.638 -19.029  1.00  0.00    -0.389 OA
HETATM   35  H30 UNL     1      -2.619  47.668 -18.969  1.00  0.00     0.210 HD
ENDBRANCH  15  34
BRANCH  18  36
HETATM   36  C25 UNL     1      -0.450  51.811 -21.528  1.00  0.00    -0.045 A 
HETATM   37  C26 UNL     1       0.154  52.375 -20.481  1.00  0.00     0.087 A 
HETATM   38  C27 UNL     1       1.001  53.449 -20.991  1.00  0.00     0.283 A 
HETATM   39  O8  UNL     1       1.709  54.161 -20.303  1.00  0.00    -0.260 OA
HETATM   40  O9  UNL     1       0.887  53.504 -22.344  1.00  0.00    -0.314 OA
HETATM   41  C28 UNL     1      -0.037  52.505 -22.774  1.00  0.00     0.213 A 
ENDBRANCH  18  36
TORSDOF 8
ENDMDL
MODEL 3
REMARK minimizedAffinity -8.23353577
REMARK CNNscore 0.532898545
REMARK CNNaffinity 6.52536249
REMARK  8 active torsions:
REMARK  status: ('A' for Active; 'I' for Inactive)
REMARK    1  A    between atoms: C11_11  and  O1_12 
REMARK    2  A    between atoms: O1_12  and  C12_13 
REMARK    3  A    between atoms: C14_16  and  O3_17 
REMARK    4  A    between atoms: C15_18  and  O4_19 
REMARK    5  A    between atoms: C16_20  and  O5_21 
REMARK    6  A    between atoms: C19_24  and  C20_25 
REMARK    7  A    between atoms: C21_27  and  O7_28 
REMARK    8  A    between atoms: C24_31  and  C25_32 
ROOT
HETATM    1  C1  UNL     1      -2.025  51.744 -19.133  1.00  0.00     0.019 C 
HETATM    2  C2  UNL     1      -2.427  50.853 -20.337  1.00  0.00    -0.005 C 
HETATM    3  C3  UNL     1      -3.680  51.497 -20.968  1.00  0.00     0.013 C 
HETATM    4  C4  UNL     1      -4.369  50.651 -22.030  1.00  0.00     0.007 C 
HETATM    5  C5  UNL     1      -4.663  49.194 -21.604  1.00  0.00     0.012 C 
HETATM    6  C6  UNL     1      -4.184  48.905 -20.149  1.00  0.00     0.027 C 
HETATM    7  C7  UNL     1      -4.409  47.419 -19.786  1.00  0.00     0.012 C 
HETATM    8  C8  UNL     1      -5.861  46.986 -19.980  1.00  0.00     0.036 C 
HETATM    9  C9  UNL     1      -6.323  47.306 -21.382  1.00  0.00    -0.065 C 
HETATM   10  C10 UNL     1      -6.784  46.321 -22.175  1.00  0.00     0.009 C 
HETATM   11  C11 UNL     1      -7.105  46.473 -23.630  1.00  0.00     0.148 C 
HETATM   12  C17 UNL     1      -6.332  47.664 -24.197  1.00  0.00     0.037 C 
HETATM   13  C18 UNL     1      -6.560  48.917 -23.352  1.00  0.00     0.024 C 
HETATM   14  C19 UNL     1      -6.151  48.756 -21.851  1.00  0.00     0.040 C 
HETATM   15  C21 UNL     1      -2.715  49.359 -19.896  1.00  0.00     0.070 C 
HETATM   16  C22 UNL     1      -1.659  48.502 -20.620  1.00  0.00     0.040 C 
HETATM   17  C23 UNL     1      -0.510  49.462 -20.884  1.00  0.00     0.013 C 
HETATM   18  C24 UNL     1      -1.237  50.727 -21.357  1.00  0.00     0.028 C 
ENDROOT
BRANCH  11  19
HETATM   19  O1  UNL     1      -8.499  46.736 -23.781  1.00  0.00    -0.349 OA
BRANCH  19  20
HETATM   20  C12 UNL     1      -9.201  45.749 -24.545  1.00  0.00     0.291 C 
HETATM   21  O2  UNL     1      -9.316  46.105 -25.927  1.00  0.00    -0.356 OA
HETATM   22  C13 UNL     1      -8.174  45.701 -26.689  1.00  0.00     0.205 C 
HETATM   23  C14 UNL     1      -8.173  44.174 -26.829  1.00  0.00     0.173 C 
HETATM   24  C15 UNL     1      -8.682  43.496 -25.541  1.00  0.00     0.182 C 
HETATM   25  C16 UNL     1      -8.467  44.404 -24.331  1.00  0.00     0.204 C 
BRANCH  23  26
HETATM   26  O3  UNL     1      -9.025  43.806 -27.928  1.00  0.00    -0.391 OA
HETATM   27  H20 UNL     1      -9.907  44.183 -27.757  1.00  0.00     0.210 HD
ENDBRANCH  23  26
BRANCH  24  28
HETATM   28  O4  UNL     1      -7.987  42.258 -25.328  1.00  0.00    -0.390 OA
HETATM   29  H22 UNL     1      -8.271  41.954 -24.443  1.00  0.00     0.210 HD
ENDBRANCH  24  28
BRANCH  25  30
HETATM   30  O5  UNL     1      -8.927  43.742 -23.139  1.00  0.00    -0.388 OA
HETATM   31  H24 UNL     1      -8.652  44.307 -22.393  1.00  0.00     0.210 HD
ENDBRANCH  25  30
ENDBRANCH  19  20
ENDBRANCH  11  19
BRANCH  14  32
HETATM   32  C20 UNL     1      -7.107  49.688 -21.066  1.00  0.00     0.245 C 
HETATM   33  O6  UNL     1      -7.001  50.009 -19.885  1.00  0.00    -0.306 OA
ENDBRANCH  14  32
BRANCH  15  34
HETATM   34  O7  UNL     1      -2.457  49.237 -18.491  1.00  0.00    -0.389 OA
HETATM   35  H30 UNL     1      -2.409  48.297 -18.251  1.00  0.00     0.210 HD
ENDBRANCH  15  34
BRANCH  18  36
HETATM   36  C25 UNL     1      -0.343  51.920 -21.570  1.00  0.00    -0.045 A 
HETATM   37  C26 UNL     1       0.381  52.588 -20.670  1.00  0.00     0.087 A 
HETATM   38  C27 UNL     1       1.141  53.606 -21.389  1.00  0.00     0.283 A 
HETATM   39  O8  UNL     1       1.919  54.386 -20.872  1.00  0.00    -0.260 OA
HETATM   40  O9  UNL     1       0.855  53.524 -22.715  1.00  0.00    -0.314 OA
HETATM   41  C28 UNL     1      -0.102  52.486 -22.921  1.00  0.00     0.213 A 
ENDBRANCH  18  36
TORSDOF 8
ENDMDL
MODEL 4
REMARK minimizedAffinity -7.78664589
REMARK CNNscore 0.519120336
REMARK CNNaffinity 6.3737793
REMARK  8 active torsions:
REMARK  status: ('A' for Active; 'I' for Inactive)
REMARK    1  A    between atoms: C11_11  and  O1_12 
REMARK    2  A    between atoms: O1_12  and  C12_13 
REMARK    3  A    between atoms: C14_16  and  O3_17 
REMARK    4  A    between atoms: C15_18  and  O4_19 
REMARK    5  A    between atoms: C16_20  and  O5_21 
REMARK    6  A    between atoms: C19_24  and  C20_25 
REMARK    7  A    between atoms: C21_27  and  O7_28 
REMARK    8  A    between atoms: C24_31  and  C25_32 
ROOT
HETATM    1  C1  UNL     1      -2.952  50.050 -19.642  1.00  0.00     0.019 C 
HETATM    2  C2  UNL     1      -3.289  49.412 -21.015  1.00  0.00    -0.005 C 
HETATM    3  C3  UNL     1      -4.388  50.288 -21.653  1.00  0.00     0.013 C 
HETATM    4  C4  UNL     1      -5.022  49.704 -22.910  1.00  0.00     0.007 C 
HETATM    5  C5  UNL     1      -5.504  48.243 -22.770  1.00  0.00     0.012 C 
HETATM    6  C6  UNL     1      -5.235  47.674 -21.344  1.00  0.00     0.027 C 
HETATM    7  C7  UNL     1      -5.645  46.186 -21.264  1.00  0.00     0.012 C 
HETATM    8  C8  UNL     1      -7.097  45.958 -21.679  1.00  0.00     0.036 C 
HETATM    9  C9  UNL     1      -7.352  46.547 -23.046  1.00  0.00    -0.065 C 
HETATM   10  C10 UNL     1      -7.807  45.759 -24.039  1.00  0.00     0.009 C 
HETATM   11  C11 UNL     1      -7.933  46.175 -25.472  1.00  0.00     0.148 C 
HETATM   12  C17 UNL     1      -6.986  47.343 -25.745  1.00  0.00     0.037 C 
HETATM   13  C18 UNL     1      -7.193  48.466 -24.727  1.00  0.00     0.024 C 
HETATM   14  C19 UNL     1      -6.986  48.023 -23.241  1.00  0.00     0.040 C 
HETATM   15  C21 UNL     1      -3.771  47.910 -20.867  1.00  0.00     0.070 C 
HETATM   16  C22 UNL     1      -2.722  47.062 -21.612  1.00  0.00     0.040 C 
HETATM   17  C23 UNL     1      -1.463  47.914 -21.589  1.00  0.00     0.013 C 
HETATM   18  C24 UNL     1      -2.002  49.313 -21.913  1.00  0.00     0.028 C 
ENDROOT
BRANCH  11  19
HETATM   19  O1  UNL     1      -9.266  46.617 -25.720  1.00  0.00    -0.349 OA
BRANCH  19  20
HETATM   20  C12 UNL     1      -9.844  46.091 -26.920  1.00  0.00     0.291 C 
HETATM   21  O2  UNL     1     -10.141  47.112 -27.879  1.00  0.00    -0.356 OA
HETATM   22  C13 UNL     1      -9.016  47.425 -28.706  1.00  0.00     0.205 C 
HETATM   23  C14 UNL     1      -8.753  46.258 -29.665  1.00  0.00     0.173 C 
HETATM   24  C15 UNL     1      -9.017  44.902 -28.980  1.00  0.00     0.182 C 
HETATM   25  C16 UNL     1      -8.863  45.025 -27.464  1.00  0.00     0.204 C 
BRANCH  23  26
HETATM   26  O3  UNL     1      -9.616  46.389 -30.807  1.00  0.00    -0.391 OA
HETATM   27  H20 UNL     1     -10.533  46.428 -30.481  1.00  0.00     0.210 HD
ENDBRANCH  23  26
BRANCH  24  28
HETATM   28  O4  UNL     1      -8.094  43.915 -29.466  1.00  0.00    -0.390 OA
HETATM   29  H22 UNL     1      -8.240  43.129 -28.904  1.00  0.00     0.210 HD
ENDBRANCH  24  28
BRANCH  25  30
HETATM   30  O5  UNL     1      -9.091  43.744 -26.849  1.00  0.00    -0.388 OA
HETATM   31  H24 UNL     1      -8.858  43.852 -25.907  1.00  0.00     0.210 HD
ENDBRANCH  25  30
ENDBRANCH  19  20
ENDBRANCH  11  19
BRANCH  14  32
HETATM   32  C20 UNL     1      -7.936  48.923 -22.413  1.00  0.00     0.245 C 
HETATM   33  O6  UNL     1      -7.965  49.015 -21.188  1.00  0.00    -0.306 OA
ENDBRANCH  14  32
BRANCH  15  34
HETATM   34  O7  UNL     1      -3.698  47.539 -19.483  1.00  0.00    -0.389 OA
HETATM   35  H30 UNL     1      -3.770  46.573 -19.403  1.00  0.00     0.210 HD
ENDBRANCH  15  34
BRANCH  18  36
HETATM   36  C25 UNL     1      -0.978  50.414 -21.826  1.00  0.00    -0.045 A 
HETATM   37  C26 UNL     1      -0.785  51.438 -22.659  1.00  0.00     0.087 A 
HETATM   38  C27 UNL     1       0.270  52.272 -22.090  1.00  0.00     0.283 A 
HETATM   39  O8  UNL     1       0.685  53.301 -22.589  1.00  0.00    -0.260 OA
HETATM   40  O9  UNL     1       0.687  51.726 -20.918  1.00  0.00    -0.314 OA
HETATM   41  C28 UNL     1      -0.042  50.523 -20.679  1.00  0.00     0.213 A 
ENDBRANCH  18  36
TORSDOF 8
ENDMDL
MODEL 5
REMARK minimizedAffinity -8.32086849
REMARK CNNscore 0.453431666
REMARK CNNaffinity 6.18341446
REMARK  8 active torsions:
REMARK  status: ('A' for Active; 'I' for Inactive)
REMARK    1  A    between atoms: C11_11  and  O1_12 
REMARK    2  A    between atoms: O1_12  and  C12_13 
REMARK    3  A    between atoms: C14_16  and  O3_17 
REMARK    4  A    between atoms: C15_18  and  O4_19 
REMARK    5  A    between atoms: C16_20  and  O5_21 
REMARK    6  A    between atoms: C19_24  and  C20_25 
REMARK    7  A    between atoms: C21_27  and  O7_28 
REMARK    8  A    between atoms: C24_31  and  C25_32 
ROOT
HETATM    1  C1  UNL     1      -1.963  49.413 -18.070  1.00  0.00     0.019 C 
HETATM    2  C2  UNL     1      -2.559  49.355 -19.501  1.00  0.00    -0.005 C 
HETATM    3  C3  UNL     1      -3.890  50.136 -19.459  1.00  0.00     0.013 C 
HETATM    4  C4  UNL     1      -4.747  50.007 -20.712  1.00  0.00     0.007 C 
HETATM    5  C5  UNL     1      -4.983  48.555 -21.187  1.00  0.00     0.012 C 
HETATM    6  C6  UNL     1      -4.282  47.518 -20.258  1.00  0.00     0.027 C 
HETATM    7  C7  UNL     1      -4.461  46.085 -20.809  1.00  0.00     0.012 C 
HETATM    8  C8  UNL     1      -5.928  45.722 -21.024  1.00  0.00     0.036 C 
HETATM    9  C9  UNL     1      -6.604  46.755 -21.894  1.00  0.00    -0.065 C 
HETATM   10  C10 UNL     1      -7.194  46.378 -23.044  1.00  0.00     0.009 C 
HETATM   11  C11 UNL     1      -7.741  47.319 -24.074  1.00  0.00     0.148 C 
HETATM   12  C17 UNL     1      -7.057  48.678 -23.933  1.00  0.00     0.037 C 
HETATM   13  C18 UNL     1      -7.136  49.184 -22.492  1.00  0.00     0.024 C 
HETATM   14  C19 UNL     1      -6.495  48.216 -21.442  1.00  0.00     0.040 C 
HETATM   15  C21 UNL     1      -2.788  47.865 -19.987  1.00  0.00     0.070 C 
HETATM   16  C22 UNL     1      -1.867  47.681 -21.209  1.00  0.00     0.040 C 
HETATM   17  C23 UNL     1      -0.766  48.710 -21.011  1.00  0.00     0.013 C 
HETATM   18  C24 UNL     1      -1.548  49.947 -20.550  1.00  0.00     0.028 C 
ENDROOT
BRANCH  11  19
HETATM   19  O1  UNL     1      -9.138  47.500 -23.854  1.00  0.00    -0.349 OA
BRANCH  19  20
HETATM   20  C12 UNL     1      -9.949  47.257 -25.009  1.00  0.00     0.291 C 
HETATM   21  O2  UNL     1     -10.394  48.466 -25.631  1.00  0.00    -0.356 OA
HETATM   22  C13 UNL     1      -9.439  48.981 -26.565  1.00  0.00     0.205 C 
HETATM   23  C14 UNL     1      -9.397  48.071 -27.799  1.00  0.00     0.173 C 
HETATM   24  C15 UNL     1      -9.566  46.590 -27.406  1.00  0.00     0.182 C 
HETATM   25  C16 UNL     1      -9.122  46.361 -25.962  1.00  0.00     0.204 C 
BRANCH  23  26
HETATM   26  O3  UNL     1     -10.459  48.450 -28.693  1.00  0.00    -0.391 OA
HETATM   27  H20 UNL     1     -11.295  48.397 -28.196  1.00  0.00     0.210 HD
ENDBRANCH  23  26
BRANCH  24  28
HETATM   28  O4  UNL     1      -8.782  45.757 -28.275  1.00  0.00    -0.390 OA
HETATM   29  H22 UNL     1      -8.841  44.860 -27.891  1.00  0.00     0.210 HD
ENDBRANCH  24  28
BRANCH  25  30
HETATM   30  O5  UNL     1      -9.265  44.969 -25.626  1.00  0.00    -0.388 OA
HETATM   31  H24 UNL     1      -8.854  44.860 -24.748  1.00  0.00     0.210 HD
ENDBRANCH  25  30
ENDBRANCH  19  20
ENDBRANCH  11  19
BRANCH  14  32
HETATM   32  C20 UNL     1      -7.306  48.434 -20.140  1.00  0.00     0.245 C 
HETATM   33  O6  UNL     1      -8.208  47.715 -19.718  1.00  0.00    -0.306 OA
ENDBRANCH  14  32
BRANCH  15  34
HETATM   34  O7  UNL     1      -2.311  46.973 -18.970  1.00  0.00    -0.389 OA
HETATM   35  H30 UNL     1      -2.234  46.076 -19.336  1.00  0.00     0.210 HD
ENDBRANCH  15  34
BRANCH  18  36
HETATM   36  C25 UNL     1      -0.687  51.114 -20.139  1.00  0.00    -0.045 A 
HETATM   37  C26 UNL     1      -0.407  52.222 -20.827  1.00  0.00     0.087 A 
HETATM   38  C27 UNL     1       0.396  53.082 -19.962  1.00  0.00     0.283 A 
HETATM   39  O8  UNL     1       0.812  54.183 -20.270  1.00  0.00    -0.260 OA
HETATM   40  O9  UNL     1       0.579  52.464 -18.765  1.00  0.00    -0.314 OA
HETATM   41  C28 UNL     1      -0.063  51.190 -18.795  1.00  0.00     0.213 A 
ENDBRANCH  18  36
TORSDOF 8
ENDMDL
MODEL 6
REMARK minimizedAffinity -7.48910761
REMARK CNNscore 0.425459653
REMARK CNNaffinity 6.67146349
REMARK  8 active torsions:
REMARK  status: ('A' for Active; 'I' for Inactive)
REMARK    1  A    between atoms: C11_11  and  O1_12 
REMARK    2  A    between atoms: O1_12  and  C12_13 
REMARK    3  A    between atoms: C14_16  and  O3_17 
REMARK    4  A    between atoms: C15_18  and  O4_19 
REMARK    5  A    between atoms: C16_20  and  O5_21 
REMARK    6  A    between atoms: C19_24  and  C20_25 
REMARK    7  A    between atoms: C21_27  and  O7_28 
REMARK    8  A    between atoms: C24_31  and  C25_32 
ROOT
HETATM    1  C1  UNL     1      -0.063  49.747 -19.668  1.00  0.00     0.019 C 
HETATM    2  C2  UNL     1      -0.619  50.587 -18.489  1.00  0.00    -0.005 C 
HETATM    3  C3  UNL     1       0.516  50.694 -17.447  1.00  0.00     0.013 C 
HETATM    4  C4  UNL     1       0.100  51.290 -16.108  1.00  0.00     0.007 C 
HETATM    5  C5  UNL     1      -1.157  50.649 -15.479  1.00  0.00     0.012 C 
HETATM    6  C6  UNL     1      -1.736  49.507 -16.368  1.00  0.00     0.027 C 
HETATM    7  C7  UNL     1      -3.042  48.949 -15.757  1.00  0.00     0.012 C 
HETATM    8  C8  UNL     1      -2.857  48.480 -14.315  1.00  0.00     0.036 C 
HETATM    9  C9  UNL     1      -2.261  49.585 -13.475  1.00  0.00    -0.065 C 
HETATM   10  C10 UNL     1      -2.916  50.020 -12.382  1.00  0.00     0.009 C 
HETATM   11  C11 UNL     1      -2.524  51.216 -11.569  1.00  0.00     0.148 C 
HETATM   12  C17 UNL     1      -1.684  52.160 -12.430  1.00  0.00     0.037 C 
HETATM   13  C18 UNL     1      -0.519  51.415 -13.083  1.00  0.00     0.024 C 
HETATM   14  C19 UNL     1      -0.958  50.213 -13.984  1.00  0.00     0.040 C 
HETATM   15  C21 UNL     1      -1.915  49.932 -17.855  1.00  0.00     0.070 C 
HETATM   16  C22 UNL     1      -3.049  50.949 -18.088  1.00  0.00     0.040 C 
HETATM   17  C23 UNL     1      -2.593  51.754 -19.294  1.00  0.00     0.013 C 
HETATM   18  C24 UNL     1      -1.109  51.994 -18.991  1.00  0.00     0.028 C 
ENDROOT
BRANCH  11  19
HETATM   19  O1  UNL     1      -1.726  50.796 -10.464  1.00  0.00    -0.349 OA
BRANCH  19  20
HETATM   20  C12 UNL     1      -2.216  51.230  -9.190  1.00  0.00     0.291 C 
HETATM   21  O2  UNL     1      -2.349  50.152  -8.257  1.00  0.00    -0.356 OA
HETATM   22  C13 UNL     1      -1.129  49.886  -7.557  1.00  0.00     0.205 C 
HETATM   23  C14 UNL     1      -0.851  51.029  -6.573  1.00  0.00     0.173 C 
HETATM   24  C15 UNL     1      -1.271  52.390  -7.165  1.00  0.00     0.182 C 
HETATM   25  C16 UNL     1      -1.260  52.340  -8.692  1.00  0.00     0.204 C 
BRANCH  23  26
HETATM   26  O3  UNL     1      -1.586  50.790  -5.361  1.00  0.00    -0.391 OA
HETATM   27  H20 UNL     1      -2.527  50.700  -5.599  1.00  0.00     0.210 HD
ENDBRANCH  23  26
BRANCH  24  28
HETATM   28  O4  UNL     1      -0.373  53.419  -6.723  1.00  0.00    -0.390 OA
HETATM   29  H22 UNL     1      -0.626  54.215  -7.230  1.00  0.00     0.210 HD
ENDBRANCH  24  28
BRANCH  25  30
HETATM   30  O5  UNL     1      -1.633  53.626  -9.222  1.00  0.00    -0.388 OA
HETATM   31  H24 UNL     1      -1.487  53.573 -10.185  1.00  0.00     0.210 HD
ENDBRANCH  25  30
ENDBRANCH  19  20
ENDBRANCH  11  19
BRANCH  14  32
HETATM   32  C20 UNL     1       0.201  49.189 -13.889  1.00  0.00     0.245 C 
HETATM   33  O6  UNL     1       0.503  48.524 -12.901  1.00  0.00    -0.306 OA
ENDBRANCH  14  32
BRANCH  15  34
HETATM   34  O7  UNL     1      -2.249  48.758 -18.607  1.00  0.00    -0.389 OA
HETATM   35  H30 UNL     1      -3.151  48.475 -18.381  1.00  0.00     0.210 HD
ENDBRANCH  15  34
BRANCH  18  36
HETATM   36  C25 UNL     1      -0.344  52.668 -20.100  1.00  0.00    -0.045 A 
HETATM   37  C26 UNL     1       0.584  53.622 -20.010  1.00  0.00     0.087 A 
HETATM   38  C27 UNL     1       1.083  53.876 -21.358  1.00  0.00     0.283 A 
HETATM   39  O8  UNL     1       1.953  54.680 -21.637  1.00  0.00    -0.260 OA
HETATM   40  O9  UNL     1       0.438  53.061 -22.234  1.00  0.00    -0.314 OA
HETATM   41  C28 UNL     1      -0.509  52.267 -21.520  1.00  0.00     0.213 A 
ENDBRANCH  18  36
TORSDOF 8
ENDMDL
MODEL 7
REMARK minimizedAffinity -8.33296776
REMARK CNNscore 0.397526056
REMARK CNNaffinity 5.77412176
REMARK  8 active torsions:
REMARK  status: ('A' for Active; 'I' for Inactive)
REMARK    1  A    between atoms: C11_11  and  O1_12 
REMARK    2  A    between atoms: O1_12  and  C12_13 
REMARK    3  A    between atoms: C14_16  and  O3_17 
REMARK    4  A    between atoms: C15_18  and  O4_19 
REMARK    5  A    between atoms: C16_20  and  O5_21 
REMARK    6  A    between atoms: C19_24  and  C20_25 
REMARK    7  A    between atoms: C21_27  and  O7_28 
REMARK    8  A    between atoms: C24_31  and  C25_32 
ROOT
HETATM    1  C1  UNL     1      -2.552  49.032 -18.171  1.00  0.00     0.019 C 
HETATM    2  C2  UNL     1      -3.052  49.079 -19.638  1.00  0.00    -0.005 C 
HETATM    3  C3  UNL     1      -4.395  49.839 -19.626  1.00  0.00     0.013 C 
HETATM    4  C4  UNL     1      -5.165  49.798 -20.940  1.00  0.00     0.007 C 
HETATM    5  C5  UNL     1      -5.346  48.385 -21.539  1.00  0.00     0.012 C 
HETATM    6  C6  UNL     1      -4.690  47.287 -20.648  1.00  0.00     0.027 C 
HETATM    7  C7  UNL     1      -4.809  45.898 -21.317  1.00  0.00     0.012 C 
HETATM    8  C8  UNL     1      -6.253  45.537 -21.657  1.00  0.00     0.036 C 
HETATM    9  C9  UNL     1      -6.886  46.627 -22.489  1.00  0.00    -0.065 C 
HETATM   10  C10 UNL     1      -7.393  46.333 -23.702  1.00  0.00     0.009 C 
HETATM   11  C11 UNL     1      -7.886  47.344 -24.691  1.00  0.00     0.148 C 
HETATM   12  C17 UNL     1      -7.235  48.696 -24.400  1.00  0.00     0.037 C 
HETATM   13  C18 UNL     1      -7.418  49.088 -22.933  1.00  0.00     0.024 C 
HETATM   14  C19 UNL     1      -6.832  48.049 -21.920  1.00  0.00     0.040 C 
HETATM   15  C21 UNL     1      -3.223  47.628 -20.251  1.00  0.00     0.070 C 
HETATM   16  C22 UNL     1      -2.221  47.550 -21.419  1.00  0.00     0.040 C 
HETATM   17  C23 UNL     1      -1.152  48.573 -21.069  1.00  0.00     0.013 C 
HETATM   18  C24 UNL     1      -1.983  49.761 -20.568  1.00  0.00     0.028 C 
ENDROOT
BRANCH  11  19
HETATM   19  O1  UNL     1      -9.298  47.492 -24.552  1.00  0.00    -0.349 OA
BRANCH  19  20
HETATM   20  C12 UNL     1     -10.051  46.990 -25.662  1.00  0.00     0.291 C 
HETATM   21  O2  UNL     1     -10.950  45.942 -25.285  1.00  0.00    -0.356 OA
HETATM   22  C13 UNL     1     -12.207  46.444 -24.820  1.00  0.00     0.205 C 
HETATM   23  C14 UNL     1     -12.989  47.024 -26.004  1.00  0.00     0.173 C 
HETATM   24  C15 UNL     1     -12.050  47.732 -27.001  1.00  0.00     0.182 C 
HETATM   25  C16 UNL     1     -10.774  48.200 -26.301  1.00  0.00     0.204 C 
BRANCH  23  26
HETATM   26  O3  UNL     1     -13.677  45.955 -26.676  1.00  0.00    -0.391 OA
HETATM   27  H20 UNL     1     -13.012  45.292 -26.935  1.00  0.00     0.210 HD
ENDBRANCH  23  26
BRANCH  24  28
HETATM   28  O4  UNL     1     -12.710  48.868 -27.580  1.00  0.00    -0.390 OA
HETATM   29  H22 UNL     1     -12.020  49.329 -28.097  1.00  0.00     0.210 HD
ENDBRANCH  24  28
BRANCH  25  30
HETATM   30  O5  UNL     1      -9.924  48.877 -27.244  1.00  0.00    -0.388 OA
HETATM   31  H24 UNL     1      -9.194  49.260 -26.723  1.00  0.00     0.210 HD
ENDBRANCH  25  30
ENDBRANCH  19  20
ENDBRANCH  11  19
BRANCH  14  32
HETATM   32  C20 UNL     1      -7.730  48.156 -20.663  1.00  0.00     0.245 C 
HETATM   33  O6  UNL     1      -8.957  48.205 -20.649  1.00  0.00    -0.306 OA
ENDBRANCH  14  32
BRANCH  15  34
HETATM   34  O7  UNL     1      -2.800  46.665 -19.275  1.00  0.00    -0.389 OA
HETATM   35  H30 UNL     1      -2.684  45.801 -19.704  1.00  0.00     0.210 HD
ENDBRANCH  15  34
BRANCH  18  36
HETATM   36  C25 UNL     1      -1.171  50.902 -20.013  1.00  0.00    -0.045 A 
HETATM   37  C26 UNL     1       0.098  51.223 -20.272  1.00  0.00     0.087 A 
HETATM   38  C27 UNL     1       0.391  52.460 -19.554  1.00  0.00     0.283 A 
HETATM   39  O8  UNL     1       1.459  53.043 -19.583  1.00  0.00    -0.260 OA
HETATM   40  O9  UNL     1      -0.718  52.858 -18.877  1.00  0.00    -0.314 OA
HETATM   41  C28 UNL     1      -1.762  51.910 -19.097  1.00  0.00     0.213 A 
ENDBRANCH  18  36
TORSDOF 8
ENDMDL
MODEL 8
REMARK minimizedAffinity -8.68607521
REMARK CNNscore 0.39656195
REMARK CNNaffinity 6.48644114
REMARK  8 active torsions:
REMARK  status: ('A' for Active; 'I' for Inactive)
REMARK    1  A    between atoms: C11_11  and  O1_12 
REMARK    2  A    between atoms: O1_12  and  C12_13 
REMARK    3  A    between atoms: C14_16  and  O3_17 
REMARK    4  A    between atoms: C15_18  and  O4_19 
REMARK    5  A    between atoms: C16_20  and  O5_21 
REMARK    6  A    between atoms: C19_24  and  C20_25 
REMARK    7  A    between atoms: C21_27  and  O7_28 
REMARK    8  A    between atoms: C24_31  and  C25_32 
ROOT
HETATM    1  C1  UNL     1      -2.738  51.740 -27.196  1.00  0.00     0.019 C 
HETATM    2  C2  UNL     1      -2.519  51.166 -25.771  1.00  0.00    -0.005 C 
HETATM    3  C3  UNL     1      -2.745  49.642 -25.866  1.00  0.00     0.013 C 
HETATM    4  C4  UNL     1      -2.799  48.919 -24.527  1.00  0.00     0.007 C 
HETATM    5  C5  UNL     1      -3.761  49.547 -23.493  1.00  0.00     0.012 C 
HETATM    6  C6  UNL     1      -4.482  50.808 -24.058  1.00  0.00     0.027 C 
HETATM    7  C7  UNL     1      -5.365  51.464 -22.973  1.00  0.00     0.012 C 
HETATM    8  C8  UNL     1      -6.369  50.485 -22.368  1.00  0.00     0.036 C 
HETATM    9  C9  UNL     1      -5.660  49.252 -21.858  1.00  0.00    -0.065 C 
HETATM   10  C10 UNL     1      -5.781  48.899 -20.564  1.00  0.00     0.009 C 
HETATM   11  C11 UNL     1      -4.997  47.810 -19.897  1.00  0.00     0.148 C 
HETATM   12  C17 UNL     1      -3.706  47.565 -20.678  1.00  0.00     0.037 C 
HETATM   13  C18 UNL     1      -3.998  47.333 -22.161  1.00  0.00     0.024 C 
HETATM   14  C19 UNL     1      -4.756  48.515 -22.852  1.00  0.00     0.040 C 
HETATM   15  C21 UNL     1      -3.498  51.823 -24.713  1.00  0.00     0.070 C 
HETATM   16  C22 UNL     1      -2.591  52.557 -23.707  1.00  0.00     0.040 C 
HETATM   17  C23 UNL     1      -1.318  52.846 -24.488  1.00  0.00     0.013 C 
HETATM   18  C24 UNL     1      -1.084  51.530 -25.240  1.00  0.00     0.028 C 
ENDROOT
BRANCH  11  19
HETATM   19  O1  UNL     1      -5.759  46.605 -19.909  1.00  0.00    -0.349 OA
BRANCH  19  20
HETATM   20  C12 UNL     1      -5.815  45.935 -18.644  1.00  0.00     0.291 C 
HETATM   21  O2  UNL     1      -4.990  44.767 -18.604  1.00  0.00    -0.356 OA
HETATM   22  C13 UNL     1      -3.638  45.069 -18.243  1.00  0.00     0.205 C 
HETATM   23  C14 UNL     1      -3.585  45.456 -16.760  1.00  0.00     0.173 C 
HETATM   24  C15 UNL     1      -4.829  46.270 -16.352  1.00  0.00     0.182 C 
HETATM   25  C16 UNL     1      -5.434  46.976 -17.564  1.00  0.00     0.204 C 
BRANCH  23  26
HETATM   26  O3  UNL     1      -3.518  44.258 -15.968  1.00  0.00    -0.391 OA
HETATM   27  H20 UNL     1      -4.287  43.708 -16.200  1.00  0.00     0.210 HD
ENDBRANCH  23  26
BRANCH  24  28
HETATM   28  O4  UNL     1      -4.474  47.252 -15.366  1.00  0.00    -0.390 OA
HETATM   29  H22 UNL     1      -5.275  47.800 -15.251  1.00  0.00     0.210 HD
ENDBRANCH  24  28
BRANCH  25  30
HETATM   30  O5  UNL     1      -6.578  47.748 -17.155  1.00  0.00    -0.388 OA
HETATM   31  H24 UNL     1      -6.844  48.271 -17.935  1.00  0.00     0.210 HD
ENDBRANCH  25  30
ENDBRANCH  19  20
ENDBRANCH  11  19
BRANCH  14  32
HETATM   32  C20 UNL     1      -5.610  47.856 -23.963  1.00  0.00     0.245 C 
HETATM   33  O6  UNL     1      -6.723  48.219 -24.335  1.00  0.00    -0.306 OA
ENDBRANCH  14  32
BRANCH  15  34
HETATM   34  O7  UNL     1      -4.283  52.825 -25.374  1.00  0.00    -0.389 OA
HETATM   35  H30 UNL     1      -4.718  53.385 -24.709  1.00  0.00     0.210 HD
ENDBRANCH  15  34
BRANCH  18  36
HETATM   36  C25 UNL     1       0.058  51.564 -26.221  1.00  0.00    -0.045 A 
HETATM   37  C26 UNL     1       1.369  51.558 -25.971  1.00  0.00     0.087 A 
HETATM   38  C27 UNL     1       2.059  51.512 -27.257  1.00  0.00     0.283 A 
HETATM   39  O8  UNL     1       3.268  51.480 -27.395  1.00  0.00    -0.260 OA
HETATM   40  O9  UNL     1       1.139  51.490 -28.257  1.00  0.00    -0.314 OA
HETATM   41  C28 UNL     1      -0.169  51.541 -27.687  1.00  0.00     0.213 A 
ENDBRANCH  18  36
TORSDOF 8
ENDMDL
MODEL 9
REMARK minimizedAffinity -8.75119495
REMARK CNNscore 0.385425091
REMARK CNNaffinity 5.84085321
REMARK  8 active torsions:
REMARK  status: ('A' for Active; 'I' for Inactive)
REMARK    1  A    between atoms: C11_11  and  O1_12 
REMARK    2  A    between atoms: O1_12  and  C12_13 
REMARK    3  A    between atoms: C14_16  and  O3_17 
REMARK    4  A    between atoms: C15_18  and  O4_19 
REMARK    5  A    between atoms: C16_20  and  O5_21 
REMARK    6  A    between atoms: C19_24  and  C20_25 
REMARK    7  A    between atoms: C21_27  and  O7_28 
REMARK    8  A    between atoms: C24_31  and  C25_32 
ROOT
HETATM    1  C1  UNL     1     -19.104  47.039 -19.013  1.00  0.00     0.019 C 
HETATM    2  C2  UNL     1     -18.394  46.146 -20.063  1.00  0.00    -0.005 C 
HETATM    3  C3  UNL     1     -18.417  46.924 -21.396  1.00  0.00     0.013 C 
HETATM    4  C4  UNL     1     -17.968  46.124 -22.612  1.00  0.00     0.007 C 
HETATM    5  C5  UNL     1     -18.660  44.751 -22.772  1.00  0.00     0.012 C 
HETATM    6  C6  UNL     1     -19.689  44.481 -21.633  1.00  0.00     0.027 C 
HETATM    7  C7  UNL     1     -20.296  43.066 -21.771  1.00  0.00     0.012 C 
HETATM    8  C8  UNL     1     -20.924  42.832 -23.143  1.00  0.00     0.036 C 
HETATM    9  C9  UNL     1     -19.927  43.134 -24.237  1.00  0.00    -0.065 C 
HETATM   10  C10 UNL     1     -19.608  42.179 -25.132  1.00  0.00     0.009 C 
HETATM   11  C11 UNL     1     -18.515  42.292 -26.149  1.00  0.00     0.148 C 
HETATM   12  C17 UNL     1     -17.492  43.326 -25.681  1.00  0.00     0.037 C 
HETATM   13  C18 UNL     1     -18.173  44.646 -25.319  1.00  0.00     0.024 C 
HETATM   14  C19 UNL     1     -19.263  44.515 -24.203  1.00  0.00     0.040 C 
HETATM   15  C21 UNL     1     -19.099  44.736 -20.214  1.00  0.00     0.070 C 
HETATM   16  C22 UNL     1     -18.049  43.697 -19.774  1.00  0.00     0.040 C 
HETATM   17  C23 UNL     1     -17.120  44.469 -18.849  1.00  0.00     0.013 C 
HETATM   18  C24 UNL     1     -16.933  45.794 -19.598  1.00  0.00     0.028 C 
ENDROOT
BRANCH  11  19
HETATM   19  O1  UNL     1     -19.065  42.741 -27.386  1.00  0.00    -0.349 OA
BRANCH  19  20
HETATM   20  C12 UNL     1     -18.474  42.138 -28.543  1.00  0.00     0.291 C 
HETATM   21  O2  UNL     1     -18.980  40.823 -28.795  1.00  0.00    -0.356 OA
HETATM   22  C13 UNL     1     -20.181  40.843 -29.574  1.00  0.00     0.205 C 
HETATM   23  C14 UNL     1     -19.845  41.256 -31.012  1.00  0.00     0.173 C 
HETATM   24  C15 UNL     1     -18.736  42.327 -31.040  1.00  0.00     0.182 C 
HETATM   25  C16 UNL     1     -18.705  43.107 -29.727  1.00  0.00     0.204 C 
BRANCH  23  26
HETATM   26  O3  UNL     1     -19.405  40.096 -31.739  1.00  0.00    -0.391 OA
HETATM   27  H20 UNL     1     -18.651  39.714 -31.256  1.00  0.00     0.210 HD
ENDBRANCH  23  26
BRANCH  24  28
HETATM   28  O4  UNL     1     -18.960  43.241 -32.124  1.00  0.00    -0.390 OA
HETATM   29  H22 UNL     1     -18.297  43.950 -32.002  1.00  0.00     0.210 HD
ENDBRANCH  24  28
BRANCH  25  30
HETATM   30  O5  UNL     1     -17.680  44.115 -29.785  1.00  0.00    -0.388 OA
HETATM   31  H24 UNL     1     -17.789  44.658 -28.982  1.00  0.00     0.210 HD
ENDBRANCH  25  30
ENDBRANCH  19  20
ENDBRANCH  11  19
BRANCH  14  32
HETATM   32  C20 UNL     1     -20.304  45.617 -24.519  1.00  0.00     0.245 C 
HETATM   33  O6  UNL     1     -20.088  46.673 -25.107  1.00  0.00    -0.306 OA
ENDBRANCH  14  32
BRANCH  15  34
HETATM   34  O7  UNL     1     -20.179  44.660 -19.273  1.00  0.00    -0.389 OA
HETATM   35  H30 UNL     1     -20.474  43.737 -19.193  1.00  0.00     0.210 HD
ENDBRANCH  15  34
BRANCH  18  36
HETATM   36  C25 UNL     1     -16.150  46.835 -18.841  1.00  0.00    -0.045 A 
HETATM   37  C26 UNL     1     -16.338  48.155 -18.805  1.00  0.00     0.087 A 
HETATM   38  C27 UNL     1     -15.373  48.709 -17.861  1.00  0.00     0.283 A 
HETATM   39  O8  UNL     1     -15.280  49.888 -17.575  1.00  0.00    -0.260 OA
HETATM   40  O9  UNL     1     -14.621  47.700 -17.347  1.00  0.00    -0.314 OA
HETATM   41  C28 UNL     1     -15.035  46.467 -17.933  1.00  0.00     0.213 A 
ENDBRANCH  18  36
TORSDOF 8
ENDMDL
