MODEL 1
REMARK minimizedAffinity -7.24190235
REMARK CNNscore 0.77807647
REMARK CNNaffinity 6.91451836
REMARK  15 active torsions:
REMARK  status: ('A' for Active; 'I' for Inactive)
REMARK    1  A    between atoms: C2_2  and  C4_4 
REMARK    2  A    between atoms: C4_4  and  C5_5 
REMARK    3  A    between atoms: C4_4  and  C28_40 
REMARK    4  A    between atoms: C6_6  and  C7_7 
REMARK    5  A    between atoms: C7_7  and  C8_8 
REMARK    6  A    between atoms: C7_7  and  C9_14 
REMARK    7  A    between atoms: C8_8  and  O1_9 
REMARK    8  A    between atoms: O1_9  and  S1_10 
REMARK    9  A    between atoms: S1_10  and  O4_13 
REMARK   10  A    between atoms: C17_22  and  O5_23 
REMARK   11  A    between atoms: C18_24  and  O6_25 
REMARK   12  A    between atoms: O6_25  and  S2_26 
REMARK   13  A    between atoms: S2_26  and  O9_29 
REMARK   14  A    between atoms: C19_30  and  O10_31 
REMARK   15  A    between atoms: C28_40  and  O11_41 
ROOT
HETATM    1  C9  UNL     1      14.146  -6.628   3.335  1.00  0.00     0.004 C 
HETATM    2  C10 UNL     1      13.646  -6.545   1.868  1.00  0.00     0.006 C 
HETATM    3  C11 UNL     1      14.013  -5.134   1.373  1.00  0.00     0.006 C 
HETATM    4  C12 UNL     1      14.817  -4.527   2.522  1.00  0.00    -0.002 C 
HETATM    5  C13 UNL     1      14.989  -3.003   2.572  1.00  0.00    -0.005 C 
HETATM    6  C14 UNL     1      15.634  -2.475   1.276  1.00  0.00     0.006 C 
HETATM    7  C15 UNL     1      16.766  -1.485   1.511  1.00  0.00     0.008 C 
HETATM    8  C16 UNL     1      16.406  -0.420   2.558  1.00  0.00     0.026 C 
HETATM    9  C17 UNL     1      17.535   0.639   2.643  1.00  0.00     0.156 C 
HETATM   10  C18 UNL     1      17.339   1.547   3.855  1.00  0.00     0.202 C 
HETATM   11  C19 UNL     1      17.461   0.754   5.162  1.00  0.00     0.151 C 
HETATM   12  C20 UNL     1      17.048  -0.720   5.042  1.00  0.00     0.044 C 
HETATM   13  C21 UNL     1      15.984  -1.039   3.951  1.00  0.00    -0.032 C 
HETATM   14  C22 UNL     1      14.642  -0.387   4.386  1.00  0.00     0.016 C 
HETATM   15  C23 UNL     1      15.816  -2.610   3.833  1.00  0.00    -0.001 C 
HETATM   16  C24 UNL     1      15.294  -3.296   5.123  1.00  0.00     0.006 C 
HETATM   17  C25 UNL     1      15.075  -4.812   4.975  1.00  0.00     0.010 C 
HETATM   18  C26 UNL     1      14.160  -5.137   3.788  1.00  0.00    -0.036 C 
HETATM   19  C27 UNL     1      12.743  -4.576   4.055  1.00  0.00     0.016 C 
ENDROOT
BRANCH   1  20
HETATM   20  C7  UNL     1      13.527  -7.767   4.195  1.00  0.00     0.038 C 
BRANCH  20  21
HETATM   21  C6  UNL     1      13.686  -7.434   5.675  1.00  0.00    -0.023 C 
HETATM   22  C5  UNL     1      12.752  -6.985   6.532  1.00  0.00    -0.023 C 
BRANCH  22  23
HETATM   23  C4  UNL     1      13.024  -6.717   8.002  1.00  0.00     0.035 C 
BRANCH  23  24
HETATM   24  C2  UNL     1      11.802  -6.017   8.670  1.00  0.00    -0.013 C 
HETATM   25  C1  UNL     1      11.457  -6.655  10.025  1.00  0.00     0.010 C 
HETATM   26  C3  UNL     1      12.021  -4.514   8.883  1.00  0.00     0.010 C 
ENDBRANCH  23  24
BRANCH  23  27
HETATM   27  C28 UNL     1      14.330  -5.905   8.124  1.00  0.00     0.173 C 
BRANCH  27  28
HETATM   28  O11 UNL     1      14.865  -5.981   9.443  1.00  0.00    -0.400 OA
HETATM   29  H48 UNL     1      15.083  -6.913   9.614  1.00  0.00     0.209 HD
ENDBRANCH  27  28
ENDBRANCH  23  27
ENDBRANCH  22  23
ENDBRANCH  20  21
BRANCH  20  30
HETATM   30  C8  UNL     1      12.126  -8.292   3.834  1.00  0.00     0.201 C 
BRANCH  30  31
HETATM   31  O1  UNL     1      11.913  -9.599   4.334  1.00  0.00    -0.263 OA
BRANCH  31  32
HETATM   32  S1  UNL     1      10.936 -10.572   3.481  1.00  0.00     0.240 S 
HETATM   33  O2  UNL     1      11.193 -11.930   3.903  1.00  0.00    -0.579 OA
HETATM   34  O3  UNL     1       9.608 -10.006   3.462  1.00  0.00    -0.579 OA
BRANCH  32  35
HETATM   35  O4  UNL     1      11.554 -10.446   2.000  1.00  0.00    -0.274 OA
HETATM   36  H14 UNL     1      12.394 -10.946   1.983  1.00  0.00     0.234 HD
ENDBRANCH  32  35
ENDBRANCH  31  32
ENDBRANCH  30  31
ENDBRANCH  20  30
ENDBRANCH   1  20
BRANCH   9  37
HETATM   37  O5  UNL     1      18.821   0.012   2.717  1.00  0.00    -0.392 OA
HETATM   38  H28 UNL     1      19.486   0.725   2.745  1.00  0.00     0.210 HD
ENDBRANCH   9  37
BRANCH  11  39
HETATM   39  O10 UNL     1      16.655   1.389   6.162  1.00  0.00    -0.393 OA
HETATM   40  H32 UNL     1      17.123   2.198   6.437  1.00  0.00     0.210 HD
ENDBRANCH  11  39
BRANCH  10  41
HETATM   41  O6  UNL     1      18.356   2.555   3.864  1.00  0.00    -0.253 OA
BRANCH  41  42
HETATM   42  S2  UNL     1      18.282   3.709   5.002  1.00  0.00     0.240 S 
HETATM   43  O7  UNL     1      16.905   4.112   5.155  1.00  0.00    -0.579 OA
HETATM   44  O8  UNL     1      19.079   3.303   6.135  1.00  0.00    -0.579 OA
BRANCH  42  45
HETATM   45  O9  UNL     1      19.039   4.951   4.313  1.00  0.00    -0.274 OA
HETATM   46  H30 UNL     1      18.922   5.729   4.895  1.00  0.00     0.234 HD
ENDBRANCH  42  45
ENDBRANCH  41  42
ENDBRANCH  10  41
TORSDOF 15
ENDMDL
MODEL 2
REMARK minimizedAffinity -8.42810726
REMARK CNNscore 0.517996073
REMARK CNNaffinity 6.97112513
REMARK  15 active torsions:
REMARK  status: ('A' for Active; 'I' for Inactive)
REMARK    1  A    between atoms: C2_2  and  C4_4 
REMARK    2  A    between atoms: C4_4  and  C5_5 
REMARK    3  A    between atoms: C4_4  and  C28_40 
REMARK    4  A    between atoms: C6_6  and  C7_7 
REMARK    5  A    between atoms: C7_7  and  C8_8 
REMARK    6  A    between atoms: C7_7  and  C9_14 
REMARK    7  A    between atoms: C8_8  and  O1_9 
REMARK    8  A    between atoms: O1_9  and  S1_10 
REMARK    9  A    between atoms: S1_10  and  O4_13 
REMARK   10  A    between atoms: C17_22  and  O5_23 
REMARK   11  A    between atoms: C18_24  and  O6_25 
REMARK   12  A    between atoms: O6_25  and  S2_26 
REMARK   13  A    between atoms: S2_26  and  O9_29 
REMARK   14  A    between atoms: C19_30  and  O10_31 
REMARK   15  A    between atoms: C28_40  and  O11_41 
ROOT
HETATM    1  C9  UNL     1      -4.831   6.288  13.396  1.00  0.00     0.004 C 
HETATM    2  C10 UNL     1      -5.389   4.888  13.022  1.00  0.00     0.006 C 
HETATM    3  C11 UNL     1      -6.908   4.958  13.264  1.00  0.00     0.006 C 
HETATM    4  C12 UNL     1      -7.166   6.418  13.633  1.00  0.00    -0.002 C 
HETATM    5  C13 UNL     1      -8.477   6.773  14.348  1.00  0.00    -0.005 C 
HETATM    6  C14 UNL     1      -9.698   6.321  13.524  1.00  0.00     0.006 C 
HETATM    7  C15 UNL     1     -10.786   7.379  13.402  1.00  0.00     0.008 C 
HETATM    8  C16 UNL     1     -11.102   8.051  14.747  1.00  0.00     0.026 C 
HETATM    9  C17 UNL     1     -12.312   9.006  14.588  1.00  0.00     0.156 C 
HETATM   10  C18 UNL     1     -12.476   9.888  15.823  1.00  0.00     0.202 C 
HETATM   11  C19 UNL     1     -11.272  10.823  15.995  1.00  0.00     0.151 C 
HETATM   12  C20 UNL     1      -9.958  10.263  15.434  1.00  0.00     0.044 C 
HETATM   13  C21 UNL     1      -9.832   8.711  15.422  1.00  0.00    -0.032 C 
HETATM   14  C22 UNL     1      -9.759   8.226  16.897  1.00  0.00     0.016 C 
HETATM   15  C23 UNL     1      -8.514   8.302  14.646  1.00  0.00    -0.001 C 
HETATM   16  C24 UNL     1      -7.202   8.812  15.300  1.00  0.00     0.006 C 
HETATM   17  C25 UNL     1      -5.927   8.354  14.572  1.00  0.00     0.010 C 
HETATM   18  C26 UNL     1      -5.886   6.830  14.406  1.00  0.00    -0.036 C 
HETATM   19  C27 UNL     1      -5.787   6.158  15.798  1.00  0.00     0.016 C 
ENDROOT
BRANCH   1  20
HETATM   20  C7  UNL     1      -3.299   6.356  13.656  1.00  0.00     0.038 C 
BRANCH  20  21
HETATM   21  C6  UNL     1      -2.558   5.649  12.526  1.00  0.00    -0.023 C 
HETATM   22  C5  UNL     1      -2.043   4.407  12.517  1.00  0.00    -0.023 C 
BRANCH  22  23
HETATM   23  C4  UNL     1      -1.348   3.796  11.313  1.00  0.00     0.035 C 
BRANCH  23  24
HETATM   24  C2  UNL     1      -2.066   2.485  10.869  1.00  0.00    -0.013 C 
HETATM   25  C1  UNL     1      -1.094   1.295  10.831  1.00  0.00     0.010 C 
HETATM   26  C3  UNL     1      -3.247   2.119  11.775  1.00  0.00     0.010 C 
ENDBRANCH  23  24
BRANCH  23  27
HETATM   27  C28 UNL     1       0.142   3.587  11.654  1.00  0.00     0.173 C 
BRANCH  27  28
HETATM   28  O11 UNL     1       0.962   4.551  11.000  1.00  0.00    -0.400 OA
HETATM   29  H48 UNL     1       0.705   5.427  11.336  1.00  0.00     0.209 HD
ENDBRANCH  27  28
ENDBRANCH  23  27
ENDBRANCH  22  23
ENDBRANCH  20  21
BRANCH  20  30
HETATM   30  C8  UNL     1      -2.672   7.706  14.048  1.00  0.00     0.201 C 
BRANCH  30  31
HETATM   31  O1  UNL     1      -1.396   7.881  13.459  1.00  0.00    -0.263 OA
BRANCH  31  32
HETATM   32  S1  UNL     1      -1.113   9.287  12.703  1.00  0.00     0.240 S 
HETATM   33  O2  UNL     1      -1.490   9.123  11.318  1.00  0.00    -0.579 OA
HETATM   34  O3  UNL     1      -1.614  10.368  13.519  1.00  0.00    -0.579 OA
BRANCH  32  35
HETATM   35  O4  UNL     1       0.496   9.353  12.718  1.00  0.00    -0.274 OA
HETATM   36  H14 UNL     1       0.827   8.708  12.063  1.00  0.00     0.234 HD
ENDBRANCH  32  35
ENDBRANCH  31  32
ENDBRANCH  30  31
ENDBRANCH  20  30
ENDBRANCH   1  20
BRANCH   9  37
HETATM   37  O5  UNL     1     -12.164   9.832  13.426  1.00  0.00    -0.392 OA
HETATM   38  H28 UNL     1     -12.961  10.390  13.368  1.00  0.00     0.210 HD
ENDBRANCH   9  37
BRANCH  11  39
HETATM   39  O10 UNL     1     -11.107  11.107  17.390  1.00  0.00    -0.393 OA
HETATM   40  H32 UNL     1     -11.812  11.729  17.643  1.00  0.00     0.210 HD
ENDBRANCH  11  39
BRANCH  10  41
HETATM   41  O6  UNL     1     -13.642  10.706  15.674  1.00  0.00    -0.253 OA
BRANCH  41  42
HETATM   42  S2  UNL     1     -14.720  10.732  16.885  1.00  0.00     0.240 S 
HETATM   43  O7  UNL     1     -15.432   9.476  16.890  1.00  0.00    -0.579 OA
HETATM   44  O8  UNL     1     -14.079  11.241  18.074  1.00  0.00    -0.579 OA
BRANCH  42  45
HETATM   45  O9  UNL     1     -15.779  11.846  16.407  1.00  0.00    -0.274 OA
HETATM   46  H30 UNL     1     -16.533  11.825  17.032  1.00  0.00     0.234 HD
ENDBRANCH  42  45
ENDBRANCH  41  42
ENDBRANCH  10  41
TORSDOF 15
ENDMDL
MODEL 3
REMARK minimizedAffinity -9.17617989
REMARK CNNscore 0.41943565
REMARK CNNaffinity 6.99255991
REMARK  15 active torsions:
REMARK  status: ('A' for Active; 'I' for Inactive)
REMARK    1  A    between atoms: C2_2  and  C4_4 
REMARK    2  A    between atoms: C4_4  and  C5_5 
REMARK    3  A    between atoms: C4_4  and  C28_40 
REMARK    4  A    between atoms: C6_6  and  C7_7 
REMARK    5  A    between atoms: C7_7  and  C8_8 
REMARK    6  A    between atoms: C7_7  and  C9_14 
REMARK    7  A    between atoms: C8_8  and  O1_9 
REMARK    8  A    between atoms: O1_9  and  S1_10 
REMARK    9  A    between atoms: S1_10  and  O4_13 
REMARK   10  A    between atoms: C17_22  and  O5_23 
REMARK   11  A    between atoms: C18_24  and  O6_25 
REMARK   12  A    between atoms: O6_25  and  S2_26 
REMARK   13  A    between atoms: S2_26  and  O9_29 
REMARK   14  A    between atoms: C19_30  and  O10_31 
REMARK   15  A    between atoms: C28_40  and  O11_41 
ROOT
HETATM    1  C9  UNL     1      -2.860   6.742  13.101  1.00  0.00     0.004 C 
HETATM    2  C10 UNL     1      -2.892   5.284  12.570  1.00  0.00     0.006 C 
HETATM    3  C11 UNL     1      -4.363   4.834  12.650  1.00  0.00     0.006 C 
HETATM    4  C12 UNL     1      -5.117   6.088  13.093  1.00  0.00    -0.002 C 
HETATM    5  C13 UNL     1      -6.524   5.926  13.685  1.00  0.00    -0.005 C 
HETATM    6  C14 UNL     1      -7.458   5.192  12.704  1.00  0.00     0.006 C 
HETATM    7  C15 UNL     1      -8.821   5.850  12.542  1.00  0.00     0.008 C 
HETATM    8  C16 UNL     1      -9.446   6.242  13.890  1.00  0.00     0.026 C 
HETATM    9  C17 UNL     1     -10.887   6.767  13.670  1.00  0.00     0.156 C 
HETATM   10  C18 UNL     1     -11.430   7.417  14.940  1.00  0.00     0.202 C 
HETATM   11  C19 UNL     1     -10.621   8.667  15.308  1.00  0.00     0.151 C 
HETATM   12  C20 UNL     1      -9.155   8.621  14.854  1.00  0.00     0.044 C 
HETATM   13  C21 UNL     1      -8.524   7.202  14.744  1.00  0.00    -0.032 C 
HETATM   14  C22 UNL     1      -8.410   6.617  16.179  1.00  0.00     0.016 C 
HETATM   15  C23 UNL     1      -7.088   7.322  14.087  1.00  0.00    -0.001 C 
HETATM   16  C24 UNL     1      -6.073   8.157  14.914  1.00  0.00     0.006 C 
HETATM   17  C25 UNL     1      -4.665   8.212  14.297  1.00  0.00     0.010 C 
HETATM   18  C26 UNL     1      -4.110   6.808  14.028  1.00  0.00    -0.036 C 
HETATM   19  C27 UNL     1      -3.904   6.064  15.370  1.00  0.00     0.016 C 
ENDROOT
BRANCH   1  20
HETATM   20  C7  UNL     1      -1.461   7.273  13.529  1.00  0.00     0.038 C 
BRANCH  20  21
HETATM   21  C6  UNL     1      -0.388   6.664  12.632  1.00  0.00    -0.023 C 
HETATM   22  C5  UNL     1       0.522   7.300  11.875  1.00  0.00    -0.023 C 
BRANCH  22  23
HETATM   23  C4  UNL     1       1.570   6.581  11.043  1.00  0.00     0.035 C 
BRANCH  23  24
HETATM   24  C2  UNL     1       1.417   6.940   9.533  1.00  0.00    -0.013 C 
HETATM   25  C1  UNL     1       0.395   8.069   9.322  1.00  0.00     0.010 C 
HETATM   26  C3  UNL     1       2.742   7.356   8.885  1.00  0.00     0.010 C 
ENDBRANCH  23  24
BRANCH  23  27
HETATM   27  C28 UNL     1       1.467   5.066  11.320  1.00  0.00     0.173 C 
BRANCH  27  28
HETATM   28  O11 UNL     1       2.356   4.327  10.487  1.00  0.00    -0.400 OA
HETATM   29  H48 UNL     1       3.261   4.605  10.709  1.00  0.00     0.209 HD
ENDBRANCH  27  28
ENDBRANCH  23  27
ENDBRANCH  22  23
ENDBRANCH  20  21
BRANCH  20  30
HETATM   30  C8  UNL     1      -1.280   8.783  13.761  1.00  0.00     0.201 C 
BRANCH  30  31
HETATM   31  O1  UNL     1      -0.200   9.052  14.636  1.00  0.00    -0.263 OA
BRANCH  31  32
HETATM   32  S1  UNL     1      -0.357   8.580  16.178  1.00  0.00     0.240 S 
HETATM   33  O2  UNL     1      -1.753   8.696  16.532  1.00  0.00    -0.579 OA
HETATM   34  O3  UNL     1       0.392   7.361  16.376  1.00  0.00    -0.579 OA
BRANCH  32  35
HETATM   35  O4  UNL     1       0.398   9.763  16.967  1.00  0.00    -0.274 OA
HETATM   36  H14 UNL     1      -0.178  10.552  16.943  1.00  0.00     0.234 HD
ENDBRANCH  32  35
ENDBRANCH  31  32
ENDBRANCH  30  31
ENDBRANCH  20  30
ENDBRANCH   1  20
BRANCH   9  37
HETATM   37  O5  UNL     1     -10.930   7.712  12.593  1.00  0.00    -0.392 OA
HETATM   38  H28 UNL     1     -11.860   7.986  12.489  1.00  0.00     0.210 HD
ENDBRANCH   9  37
BRANCH  11  39
HETATM   39  O10 UNL     1     -10.668   8.843  16.729  1.00  0.00    -0.393 OA
HETATM   40  H32 UNL     1     -11.557   9.175  16.949  1.00  0.00     0.210 HD
ENDBRANCH  11  39
BRANCH  10  41
HETATM   41  O6  UNL     1     -12.785   7.826  14.725  1.00  0.00    -0.253 OA
BRANCH  41  42
HETATM   42  S2  UNL     1     -13.868   6.698  14.294  1.00  0.00     0.240 S 
HETATM   43  O7  UNL     1     -13.273   5.397  14.484  1.00  0.00    -0.579 OA
HETATM   44  O8  UNL     1     -15.149   7.033  14.868  1.00  0.00    -0.579 OA
BRANCH  42  45
HETATM   45  O9  UNL     1     -13.997   6.904  12.703  1.00  0.00    -0.274 OA
HETATM   46  H30 UNL     1     -14.541   6.170  12.352  1.00  0.00     0.234 HD
ENDBRANCH  42  45
ENDBRANCH  41  42
ENDBRANCH  10  41
TORSDOF 15
ENDMDL
MODEL 4
REMARK minimizedAffinity -9.51391315
REMARK CNNscore 0.387297392
REMARK CNNaffinity 6.8418498
REMARK  15 active torsions:
REMARK  status: ('A' for Active; 'I' for Inactive)
REMARK    1  A    between atoms: C2_2  and  C4_4 
REMARK    2  A    between atoms: C4_4  and  C5_5 
REMARK    3  A    between atoms: C4_4  and  C28_40 
REMARK    4  A    between atoms: C6_6  and  C7_7 
REMARK    5  A    between atoms: C7_7  and  C8_8 
REMARK    6  A    between atoms: C7_7  and  C9_14 
REMARK    7  A    between atoms: C8_8  and  O1_9 
REMARK    8  A    between atoms: O1_9  and  S1_10 
REMARK    9  A    between atoms: S1_10  and  O4_13 
REMARK   10  A    between atoms: C17_22  and  O5_23 
REMARK   11  A    between atoms: C18_24  and  O6_25 
REMARK   12  A    between atoms: O6_25  and  S2_26 
REMARK   13  A    between atoms: S2_26  and  O9_29 
REMARK   14  A    between atoms: C19_30  and  O10_31 
REMARK   15  A    between atoms: C28_40  and  O11_41 
ROOT
HETATM    1  C9  UNL     1      -1.989   6.286  12.820  1.00  0.00     0.004 C 
HETATM    2  C10 UNL     1      -2.041   4.803  12.366  1.00  0.00     0.006 C 
HETATM    3  C11 UNL     1      -3.507   4.359  12.534  1.00  0.00     0.006 C 
HETATM    4  C12 UNL     1      -4.243   5.633  12.945  1.00  0.00    -0.002 C 
HETATM    5  C13 UNL     1      -5.622   5.502  13.607  1.00  0.00    -0.005 C 
HETATM    6  C14 UNL     1      -6.597   4.720  12.706  1.00  0.00     0.006 C 
HETATM    7  C15 UNL     1      -7.967   5.369  12.571  1.00  0.00     0.008 C 
HETATM    8  C16 UNL     1      -8.533   5.829  13.923  1.00  0.00     0.026 C 
HETATM    9  C17 UNL     1      -9.983   6.343  13.741  1.00  0.00     0.156 C 
HETATM   10  C18 UNL     1     -10.471   7.057  14.999  1.00  0.00     0.202 C 
HETATM   11  C19 UNL     1      -9.648   8.324  15.267  1.00  0.00     0.151 C 
HETATM   12  C20 UNL     1      -8.204   8.254  14.751  1.00  0.00     0.044 C 
HETATM   13  C21 UNL     1      -7.575   6.832  14.686  1.00  0.00    -0.032 C 
HETATM   14  C22 UNL     1      -7.397   6.320  16.143  1.00  0.00     0.016 C 
HETATM   15  C23 UNL     1      -6.170   6.917  13.961  1.00  0.00    -0.001 C 
HETATM   16  C24 UNL     1      -5.121   7.792  14.699  1.00  0.00     0.006 C 
HETATM   17  C25 UNL     1      -3.742   7.815  14.018  1.00  0.00     0.010 C 
HETATM   18  C26 UNL     1      -3.197   6.399  13.797  1.00  0.00    -0.036 C 
HETATM   19  C27 UNL     1      -2.930   5.725  15.164  1.00  0.00     0.016 C 
ENDROOT
BRANCH   1  20
HETATM   20  C7  UNL     1      -0.574   6.837  13.158  1.00  0.00     0.038 C 
BRANCH  20  21
HETATM   21  C6  UNL     1       0.369   6.578  11.987  1.00  0.00    -0.023 C 
HETATM   22  C5  UNL     1       0.946   7.476  11.170  1.00  0.00    -0.023 C 
BRANCH  22  23
HETATM   23  C4  UNL     1       1.899   7.097  10.049  1.00  0.00     0.035 C 
BRANCH  23  24
HETATM   24  C2  UNL     1       1.273   7.423   8.659  1.00  0.00    -0.013 C 
HETATM   25  C1  UNL     1       0.102   8.410   8.785  1.00  0.00     0.010 C 
HETATM   26  C3  UNL     1       2.292   8.001   7.670  1.00  0.00     0.010 C 
ENDBRANCH  23  24
BRANCH  23  27
HETATM   27  C28 UNL     1       2.285   5.612  10.209  1.00  0.00     0.173 C 
BRANCH  27  28
HETATM   28  O11 UNL     1       3.665   5.468  10.535  1.00  0.00    -0.400 OA
HETATM   29  H48 UNL     1       3.807   5.901  11.393  1.00  0.00     0.209 HD
ENDBRANCH  27  28
ENDBRANCH  23  27
ENDBRANCH  22  23
ENDBRANCH  20  21
BRANCH  20  30
HETATM   30  C8  UNL     1      -0.450   8.256  13.741  1.00  0.00     0.201 C 
BRANCH  30  31
HETATM   31  O1  UNL     1       0.720   8.399  14.526  1.00  0.00    -0.263 OA
BRANCH  31  32
HETATM   32  S1  UNL     1       0.542   8.377  16.137  1.00  0.00     0.240 S 
HETATM   33  O2  UNL     1       1.837   8.631  16.724  1.00  0.00    -0.579 OA
HETATM   34  O3  UNL     1      -0.631   9.143  16.491  1.00  0.00    -0.579 OA
BRANCH  32  35
HETATM   35  O4  UNL     1       0.227   6.823  16.415  1.00  0.00    -0.274 OA
HETATM   36  H14 UNL     1       1.060   6.325  16.303  1.00  0.00     0.234 HD
ENDBRANCH  32  35
ENDBRANCH  31  32
ENDBRANCH  30  31
ENDBRANCH  20  30
ENDBRANCH   1  20
BRANCH   9  37
HETATM   37  O5  UNL     1     -10.075   7.232  12.620  1.00  0.00    -0.392 OA
HETATM   38  H28 UNL     1     -11.009   7.501  12.544  1.00  0.00     0.210 HD
ENDBRANCH   9  37
BRANCH  11  39
HETATM   39  O10 UNL     1      -9.633   8.572  16.678  1.00  0.00    -0.393 OA
HETATM   40  H32 UNL     1     -10.512   8.915  16.919  1.00  0.00     0.210 HD
ENDBRANCH  11  39
BRANCH  10  41
HETATM   41  O6  UNL     1     -11.835   7.455  14.824  1.00  0.00    -0.253 OA
BRANCH  41  42
HETATM   42  S2  UNL     1     -12.131   8.914  14.180  1.00  0.00     0.240 S 
HETATM   43  O7  UNL     1     -13.210   9.528  14.917  1.00  0.00    -0.579 OA
HETATM   44  O8  UNL     1     -10.877   9.598  13.969  1.00  0.00    -0.579 OA
BRANCH  42  45
HETATM   45  O9  UNL     1     -12.725   8.559  12.727  1.00  0.00    -0.274 OA
HETATM   46  H30 UNL     1     -13.047   9.393  12.327  1.00  0.00     0.234 HD
ENDBRANCH  42  45
ENDBRANCH  41  42
ENDBRANCH  10  41
TORSDOF 15
ENDMDL
MODEL 5
REMARK minimizedAffinity -9.67713451
REMARK CNNscore 0.36646083
REMARK CNNaffinity 6.59868097
REMARK  15 active torsions:
REMARK  status: ('A' for Active; 'I' for Inactive)
REMARK    1  A    between atoms: C2_2  and  C4_4 
REMARK    2  A    between atoms: C4_4  and  C5_5 
REMARK    3  A    between atoms: C4_4  and  C28_40 
REMARK    4  A    between atoms: C6_6  and  C7_7 
REMARK    5  A    between atoms: C7_7  and  C8_8 
REMARK    6  A    between atoms: C7_7  and  C9_14 
REMARK    7  A    between atoms: C8_8  and  O1_9 
REMARK    8  A    between atoms: O1_9  and  S1_10 
REMARK    9  A    between atoms: S1_10  and  O4_13 
REMARK   10  A    between atoms: C17_22  and  O5_23 
REMARK   11  A    between atoms: C18_24  and  O6_25 
REMARK   12  A    between atoms: O6_25  and  S2_26 
REMARK   13  A    between atoms: S2_26  and  O9_29 
REMARK   14  A    between atoms: C19_30  and  O10_31 
REMARK   15  A    between atoms: C28_40  and  O11_41 
ROOT
HETATM    1  C9  UNL     1      -5.648   6.128  13.388  1.00  0.00     0.004 C 
HETATM    2  C10 UNL     1      -5.856   7.494  14.096  1.00  0.00     0.006 C 
HETATM    3  C11 UNL     1      -4.527   8.257  13.945  1.00  0.00     0.006 C 
HETATM    4  C12 UNL     1      -3.673   7.357  13.052  1.00  0.00    -0.002 C 
HETATM    5  C13 UNL     1      -2.154   7.576  13.028  1.00  0.00    -0.005 C 
HETATM    6  C14 UNL     1      -1.809   9.023  12.628  1.00  0.00     0.006 C 
HETATM    7  C15 UNL     1      -0.711   9.127  11.579  1.00  0.00     0.008 C 
HETATM    8  C16 UNL     1       0.487   8.218  11.893  1.00  0.00     0.026 C 
HETATM    9  C17 UNL     1       1.627   8.478  10.875  1.00  0.00     0.156 C 
HETATM   10  C18 UNL     1       2.712   7.409  10.988  1.00  0.00     0.202 C 
HETATM   11  C19 UNL     1       2.165   6.029  10.604  1.00  0.00     0.151 C 
HETATM   12  C20 UNL     1       0.666   5.848  10.881  1.00  0.00     0.044 C 
HETATM   13  C21 UNL     1       0.085   6.697  12.050  1.00  0.00    -0.032 C 
HETATM   14  C22 UNL     1       0.699   6.166  13.376  1.00  0.00     0.016 C 
HETATM   15  C23 UNL     1      -1.490   6.537  12.075  1.00  0.00    -0.001 C 
HETATM   16  C24 UNL     1      -1.983   5.089  12.339  1.00  0.00     0.006 C 
HETATM   17  C25 UNL     1      -3.513   4.961  12.424  1.00  0.00     0.010 C 
HETATM   18  C26 UNL     1      -4.105   5.924  13.459  1.00  0.00    -0.036 C 
HETATM   19  C27 UNL     1      -3.615   5.532  14.874  1.00  0.00     0.016 C 
ENDROOT
BRANCH   1  20
HETATM   20  C7  UNL     1      -6.666   5.013  13.763  1.00  0.00     0.038 C 
BRANCH  20  21
HETATM   21  C6  UNL     1      -7.860   5.632  14.481  1.00  0.00    -0.023 C 
HETATM   22  C5  UNL     1      -8.833   6.404  13.967  1.00  0.00    -0.023 C 
BRANCH  22  23
HETATM   23  C4  UNL     1      -9.997   6.940  14.782  1.00  0.00     0.035 C 
BRANCH  23  24
HETATM   24  C2  UNL     1     -11.199   7.300  13.856  1.00  0.00    -0.013 C 
HETATM   25  C1  UNL     1     -10.861   7.064  12.375  1.00  0.00     0.010 C 
HETATM   26  C3  UNL     1     -12.468   6.511  14.197  1.00  0.00     0.010 C 
ENDBRANCH  23  24
BRANCH  23  27
HETATM   27  C28 UNL     1      -9.502   8.134  15.626  1.00  0.00     0.173 C 
BRANCH  27  28
HETATM   28  O11 UNL     1      -9.869   7.986  16.995  1.00  0.00    -0.400 OA
HETATM   29  H48 UNL     1      -9.427   7.187  17.329  1.00  0.00     0.209 HD
ENDBRANCH  27  28
ENDBRANCH  23  27
ENDBRANCH  22  23
ENDBRANCH  20  21
BRANCH  20  30
HETATM   30  C8  UNL     1      -7.065   3.981  12.692  1.00  0.00     0.201 C 
BRANCH  30  31
HETATM   31  O1  UNL     1      -6.297   2.797  12.795  1.00  0.00    -0.263 OA
BRANCH  31  32
HETATM   32  S1  UNL     1      -5.686   2.184  11.424  1.00  0.00     0.240 S 
HETATM   33  O2  UNL     1      -5.851   3.178  10.389  1.00  0.00    -0.579 OA
HETATM   34  O3  UNL     1      -4.410   1.571  11.711  1.00  0.00    -0.579 OA
BRANCH  32  35
HETATM   35  O4  UNL     1      -6.738   1.014  11.086  1.00  0.00    -0.274 OA
HETATM   36  H14 UNL     1      -7.559   1.434  10.764  1.00  0.00     0.234 HD
ENDBRANCH  32  35
ENDBRANCH  31  32
ENDBRANCH  30  31
ENDBRANCH  20  30
ENDBRANCH   1  20
BRANCH   9  37
HETATM   37  O5  UNL     1       1.121   8.507   9.535  1.00  0.00    -0.392 OA
HETATM   38  H28 UNL     1       1.876   8.695   8.948  1.00  0.00     0.210 HD
ENDBRANCH   9  37
BRANCH  11  39
HETATM   39  O10 UNL     1       2.900   5.029  11.322  1.00  0.00    -0.393 OA
HETATM   40  H32 UNL     1       3.777   4.960  10.903  1.00  0.00     0.210 HD
ENDBRANCH  11  39
BRANCH  10  41
HETATM   41  O6  UNL     1       3.781   7.718  10.087  1.00  0.00    -0.253 OA
BRANCH  41  42
HETATM   42  S2  UNL     1       5.187   8.230  10.711  1.00  0.00     0.240 S 
HETATM   43  O7  UNL     1       4.966   8.606  12.087  1.00  0.00    -0.579 OA
HETATM   44  O8  UNL     1       6.231   7.304  10.341  1.00  0.00    -0.579 OA
BRANCH  42  45
HETATM   45  O9  UNL     1       5.466   9.599   9.911  1.00  0.00    -0.274 OA
HETATM   46  H30 UNL     1       6.239  10.033  10.328  1.00  0.00     0.234 HD
ENDBRANCH  42  45
ENDBRANCH  41  42
ENDBRANCH  10  41
TORSDOF 15
ENDMDL
MODEL 6
REMARK minimizedAffinity -8.91143227
REMARK CNNscore 0.280928075
REMARK CNNaffinity 6.24761057
REMARK  15 active torsions:
REMARK  status: ('A' for Active; 'I' for Inactive)
REMARK    1  A    between atoms: C2_2  and  C4_4 
REMARK    2  A    between atoms: C4_4  and  C5_5 
REMARK    3  A    between atoms: C4_4  and  C28_40 
REMARK    4  A    between atoms: C6_6  and  C7_7 
REMARK    5  A    between atoms: C7_7  and  C8_8 
REMARK    6  A    between atoms: C7_7  and  C9_14 
REMARK    7  A    between atoms: C8_8  and  O1_9 
REMARK    8  A    between atoms: O1_9  and  S1_10 
REMARK    9  A    between atoms: S1_10  and  O4_13 
REMARK   10  A    between atoms: C17_22  and  O5_23 
REMARK   11  A    between atoms: C18_24  and  O6_25 
REMARK   12  A    between atoms: O6_25  and  S2_26 
REMARK   13  A    between atoms: S2_26  and  O9_29 
REMARK   14  A    between atoms: C19_30  and  O10_31 
REMARK   15  A    between atoms: C28_40  and  O11_41 
ROOT
HETATM    1  C9  UNL     1      -2.191   5.179  12.209  1.00  0.00     0.004 C 
HETATM    2  C10 UNL     1      -3.344   4.412  12.909  1.00  0.00     0.006 C 
HETATM    3  C11 UNL     1      -3.902   5.368  13.980  1.00  0.00     0.006 C 
HETATM    4  C12 UNL     1      -3.138   6.673  13.757  1.00  0.00    -0.002 C 
HETATM    5  C13 UNL     1      -3.114   7.711  14.887  1.00  0.00    -0.005 C 
HETATM    6  C14 UNL     1      -4.543   8.118  15.296  1.00  0.00     0.006 C 
HETATM    7  C15 UNL     1      -4.738   9.621  15.438  1.00  0.00     0.008 C 
HETATM    8  C16 UNL     1      -3.602  10.287  16.229  1.00  0.00     0.026 C 
HETATM    9  C17 UNL     1      -3.931  11.783  16.466  1.00  0.00     0.156 C 
HETATM   10  C18 UNL     1      -2.713  12.531  17.001  1.00  0.00     0.202 C 
HETATM   11  C19 UNL     1      -1.580  12.549  15.967  1.00  0.00     0.151 C 
HETATM   12  C20 UNL     1      -1.573  11.338  15.024  1.00  0.00     0.044 C 
HETATM   13  C21 UNL     1      -2.174  10.023  15.603  1.00  0.00    -0.032 C 
HETATM   14  C22 UNL     1      -1.232   9.525  16.735  1.00  0.00     0.016 C 
HETATM   15  C23 UNL     1      -2.263   8.941  14.451  1.00  0.00    -0.001 C 
HETATM   16  C24 UNL     1      -0.892   8.531  13.849  1.00  0.00     0.006 C 
HETATM   17  C25 UNL     1      -0.989   7.434  12.776  1.00  0.00     0.010 C 
HETATM   18  C26 UNL     1      -1.735   6.199  13.295  1.00  0.00    -0.036 C 
HETATM   19  C27 UNL     1      -0.922   5.541  14.435  1.00  0.00     0.016 C 
ENDROOT
BRANCH   1  20
HETATM   20  C7  UNL     1      -1.192   4.303  11.400  1.00  0.00     0.038 C 
BRANCH  20  21
HETATM   21  C6  UNL     1      -0.058   5.175  10.871  1.00  0.00    -0.023 C 
HETATM   22  C5  UNL     1       1.257   5.081  11.134  1.00  0.00    -0.023 C 
BRANCH  22  23
HETATM   23  C4  UNL     1       2.302   5.995  10.518  1.00  0.00     0.035 C 
BRANCH  23  24
HETATM   24  C2  UNL     1       1.650   6.958   9.480  1.00  0.00    -0.013 C 
HETATM   25  C1  UNL     1       1.388   8.346  10.085  1.00  0.00     0.010 C 
HETATM   26  C3  UNL     1       2.500   7.132   8.216  1.00  0.00     0.010 C 
ENDBRANCH  23  24
BRANCH  23  27
HETATM   27  C28 UNL     1       3.426   5.126   9.917  1.00  0.00     0.173 C 
BRANCH  27  28
HETATM   28  O11 UNL     1       3.089   3.741   9.961  1.00  0.00    -0.400 OA
HETATM   29  H48 UNL     1       2.297   3.618   9.410  1.00  0.00     0.209 HD
ENDBRANCH  27  28
ENDBRANCH  23  27
ENDBRANCH  22  23
ENDBRANCH  20  21
BRANCH  20  30
HETATM   30  C8  UNL     1      -0.707   2.975  12.010  1.00  0.00     0.201 C 
BRANCH  30  31
HETATM   31  O1  UNL     1      -0.086   2.150  11.042  1.00  0.00    -0.263 OA
BRANCH  31  32
HETATM   32  S1  UNL     1      -0.818   0.750  10.677  1.00  0.00     0.240 S 
HETATM   33  O2  UNL     1       0.034  -0.322  11.137  1.00  0.00    -0.579 OA
HETATM   34  O3  UNL     1      -2.212   0.840  11.040  1.00  0.00    -0.579 OA
BRANCH  32  35
HETATM   35  O4  UNL     1      -0.719   0.733   9.070  1.00  0.00    -0.274 OA
HETATM   36  H14 UNL     1       0.208   0.539   8.829  1.00  0.00     0.234 HD
ENDBRANCH  32  35
ENDBRANCH  31  32
ENDBRANCH  30  31
ENDBRANCH  20  30
ENDBRANCH   1  20
BRANCH   9  37
HETATM   37  O5  UNL     1      -4.382  12.406  15.257  1.00  0.00    -0.392 OA
HETATM   38  H28 UNL     1      -4.594  13.333  15.474  1.00  0.00     0.210 HD
ENDBRANCH   9  37
BRANCH  11  39
HETATM   39  O10 UNL     1      -0.327  12.613  16.660  1.00  0.00    -0.393 OA
HETATM   40  H32 UNL     1      -0.231  13.522  16.997  1.00  0.00     0.210 HD
ENDBRANCH  11  39
BRANCH  10  41
HETATM   41  O6  UNL     1      -3.070  13.890  17.276  1.00  0.00    -0.253 OA
BRANCH  41  42
HETATM   42  S2  UNL     1      -2.699  14.501  18.732  1.00  0.00     0.240 S 
HETATM   43  O7  UNL     1      -2.075  15.789  18.542  1.00  0.00    -0.579 OA
HETATM   44  O8  UNL     1      -3.830  14.334  19.613  1.00  0.00    -0.579 OA
BRANCH  42  45
HETATM   45  O9  UNL     1      -1.542  13.515  19.259  1.00  0.00    -0.274 OA
HETATM   46  H30 UNL     1      -1.178  13.899  20.082  1.00  0.00     0.234 HD
ENDBRANCH  42  45
ENDBRANCH  41  42
ENDBRANCH  10  41
TORSDOF 15
ENDMDL
MODEL 7
REMARK minimizedAffinity -9.51280594
REMARK CNNscore 0.279609442
REMARK CNNaffinity 6.04295874
REMARK  15 active torsions:
REMARK  status: ('A' for Active; 'I' for Inactive)
REMARK    1  A    between atoms: C2_2  and  C4_4 
REMARK    2  A    between atoms: C4_4  and  C5_5 
REMARK    3  A    between atoms: C4_4  and  C28_40 
REMARK    4  A    between atoms: C6_6  and  C7_7 
REMARK    5  A    between atoms: C7_7  and  C8_8 
REMARK    6  A    between atoms: C7_7  and  C9_14 
REMARK    7  A    between atoms: C8_8  and  O1_9 
REMARK    8  A    between atoms: O1_9  and  S1_10 
REMARK    9  A    between atoms: S1_10  and  O4_13 
REMARK   10  A    between atoms: C17_22  and  O5_23 
REMARK   11  A    between atoms: C18_24  and  O6_25 
REMARK   12  A    between atoms: O6_25  and  S2_26 
REMARK   13  A    between atoms: S2_26  and  O9_29 
REMARK   14  A    between atoms: C19_30  and  O10_31 
REMARK   15  A    between atoms: C28_40  and  O11_41 
ROOT
HETATM    1  C9  UNL     1      -6.247   7.420  14.570  1.00  0.00     0.004 C 
HETATM    2  C10 UNL     1      -6.039   8.780  15.288  1.00  0.00     0.006 C 
HETATM    3  C11 UNL     1      -4.607   9.230  14.940  1.00  0.00     0.006 C 
HETATM    4  C12 UNL     1      -4.115   8.183  13.941  1.00  0.00    -0.002 C 
HETATM    5  C13 UNL     1      -2.605   8.057  13.695  1.00  0.00    -0.005 C 
HETATM    6  C14 UNL     1      -2.004   9.399  13.236  1.00  0.00     0.006 C 
HETATM    7  C15 UNL     1      -1.073   9.280  12.038  1.00  0.00     0.008 C 
HETATM    8  C16 UNL     1      -0.077   8.119  12.184  1.00  0.00     0.026 C 
HETATM    9  C17 UNL     1       0.934   8.141  11.009  1.00  0.00     0.156 C 
HETATM   10  C18 UNL     1       1.755   6.854  10.974  1.00  0.00     0.202 C 
HETATM   11  C19 UNL     1       0.863   5.640  10.686  1.00  0.00     0.151 C 
HETATM   12  C20 UNL     1      -0.583   5.793  11.178  1.00  0.00     0.044 C 
HETATM   13  C21 UNL     1      -0.784   6.722  12.411  1.00  0.00    -0.032 C 
HETATM   14  C22 UNL     1      -0.122   6.036  13.639  1.00  0.00     0.016 C 
HETATM   15  C23 UNL     1      -2.335   6.919  12.666  1.00  0.00    -0.001 C 
HETATM   16  C24 UNL     1      -3.098   5.612  13.011  1.00  0.00     0.006 C 
HETATM   17  C25 UNL     1      -4.590   5.827  13.318  1.00  0.00     0.010 C 
HETATM   18  C26 UNL     1      -4.796   6.874  14.420  1.00  0.00    -0.036 C 
HETATM   19  C27 UNL     1      -4.209   6.349  15.752  1.00  0.00     0.016 C 
ENDROOT
BRANCH   1  20
HETATM   20  C7  UNL     1      -7.425   6.552  15.099  1.00  0.00     0.038 C 
BRANCH  20  21
HETATM   21  C6  UNL     1      -8.750   7.224  14.752  1.00  0.00    -0.023 C 
HETATM   22  C5  UNL     1      -9.806   6.697  14.108  1.00  0.00    -0.023 C 
BRANCH  22  23
HETATM   23  C4  UNL     1     -11.093   7.460  13.846  1.00  0.00     0.035 C 
BRANCH  23  24
HETATM   24  C2  UNL     1     -11.043   8.871  14.508  1.00  0.00    -0.013 C 
HETATM   25  C1  UNL     1     -11.562   9.960  13.555  1.00  0.00     0.010 C 
HETATM   26  C3  UNL     1     -11.846   8.944  15.812  1.00  0.00     0.010 C 
ENDBRANCH  23  24
BRANCH  23  27
HETATM   27  C28 UNL     1     -12.283   6.605  14.331  1.00  0.00     0.173 C 
BRANCH  27  28
HETATM   28  O11 UNL     1     -13.351   6.623  13.387  1.00  0.00    -0.400 OA
HETATM   29  H48 UNL     1     -13.019   6.224  12.565  1.00  0.00     0.209 HD
ENDBRANCH  27  28
ENDBRANCH  23  27
ENDBRANCH  22  23
ENDBRANCH  20  21
BRANCH  20  30
HETATM   30  C8  UNL     1      -7.416   5.038  14.821  1.00  0.00     0.201 C 
BRANCH  30  31
HETATM   31  O1  UNL     1      -6.730   4.732  13.621  1.00  0.00    -0.263 OA
BRANCH  31  32
HETATM   32  S1  UNL     1      -7.586   4.039  12.431  1.00  0.00     0.240 S 
HETATM   33  O2  UNL     1      -8.272   5.090  11.716  1.00  0.00    -0.579 OA
HETATM   34  O3  UNL     1      -6.758   3.062  11.763  1.00  0.00    -0.579 OA
BRANCH  32  35
HETATM   35  O4  UNL     1      -8.722   3.251  13.255  1.00  0.00    -0.274 OA
HETATM   36  H14 UNL     1      -9.357   3.911  13.595  1.00  0.00     0.234 HD
ENDBRANCH  32  35
ENDBRANCH  31  32
ENDBRANCH  30  31
ENDBRANCH  20  30
ENDBRANCH   1  20
BRANCH   9  37
HETATM   37  O5  UNL     1       0.261   8.314   9.756  1.00  0.00    -0.392 OA
HETATM   38  H28 UNL     1       0.947   8.342   9.064  1.00  0.00     0.210 HD
ENDBRANCH   9  37
BRANCH  11  39
HETATM   39  O10 UNL     1       1.449   4.484  11.298  1.00  0.00    -0.393 OA
HETATM   40  H32 UNL     1       2.219   4.231  10.758  1.00  0.00     0.210 HD
ENDBRANCH  11  39
BRANCH  10  41
HETATM   41  O6  UNL     1       2.726   6.937   9.924  1.00  0.00    -0.253 OA
BRANCH  41  42
HETATM   42  S2  UNL     1       4.250   6.489  10.252  1.00  0.00     0.240 S 
HETATM   43  O7  UNL     1       4.501   5.221   9.610  1.00  0.00    -0.579 OA
HETATM   44  O8  UNL     1       5.125   7.620  10.056  1.00  0.00    -0.579 OA
BRANCH  42  45
HETATM   45  O9  UNL     1       4.211   6.191  11.833  1.00  0.00    -0.274 OA
HETATM   46  H30 UNL     1       5.070   5.791  12.080  1.00  0.00     0.234 HD
ENDBRANCH  42  45
ENDBRANCH  41  42
ENDBRANCH  10  41
TORSDOF 15
ENDMDL
MODEL 8
REMARK minimizedAffinity -6.89964247
REMARK CNNscore 0.26384595
REMARK CNNaffinity 5.66552305
REMARK  15 active torsions:
REMARK  status: ('A' for Active; 'I' for Inactive)
REMARK    1  A    between atoms: C2_2  and  C4_4 
REMARK    2  A    between atoms: C4_4  and  C5_5 
REMARK    3  A    between atoms: C4_4  and  C28_40 
REMARK    4  A    between atoms: C6_6  and  C7_7 
REMARK    5  A    between atoms: C7_7  and  C8_8 
REMARK    6  A    between atoms: C7_7  and  C9_14 
REMARK    7  A    between atoms: C8_8  and  O1_9 
REMARK    8  A    between atoms: O1_9  and  S1_10 
REMARK    9  A    between atoms: S1_10  and  O4_13 
REMARK   10  A    between atoms: C17_22  and  O5_23 
REMARK   11  A    between atoms: C18_24  and  O6_25 
REMARK   12  A    between atoms: O6_25  and  S2_26 
REMARK   13  A    between atoms: S2_26  and  O9_29 
REMARK   14  A    between atoms: C19_30  and  O10_31 
REMARK   15  A    between atoms: C28_40  and  O11_41 
ROOT
HETATM    1  C9  UNL     1      -1.382  10.576  17.762  1.00  0.00     0.004 C 
HETATM    2  C10 UNL     1      -2.574   9.659  18.146  1.00  0.00     0.006 C 
HETATM    3  C11 UNL     1      -2.645   8.576  17.053  1.00  0.00     0.006 C 
HETATM    4  C12 UNL     1      -1.421   8.842  16.176  1.00  0.00    -0.002 C 
HETATM    5  C13 UNL     1      -1.388   8.244  14.763  1.00  0.00    -0.005 C 
HETATM    6  C14 UNL     1      -1.555   6.713  14.805  1.00  0.00     0.006 C 
HETATM    7  C15 UNL     1      -0.560   5.960  13.934  1.00  0.00     0.008 C 
HETATM    8  C16 UNL     1      -0.423   6.577  12.534  1.00  0.00     0.026 C 
HETATM    9  C17 UNL     1       0.486   5.685  11.651  1.00  0.00     0.156 C 
HETATM   10  C18 UNL     1       0.864   6.403  10.357  1.00  0.00     0.202 C 
HETATM   11  C19 UNL     1       1.714   7.646  10.646  1.00  0.00     0.151 C 
HETATM   12  C20 UNL     1       1.434   8.295  12.009  1.00  0.00     0.044 C 
HETATM   13  C21 UNL     1      -0.006   8.103  12.568  1.00  0.00    -0.032 C 
HETATM   14  C22 UNL     1      -0.983   8.895  11.654  1.00  0.00     0.016 C 
HETATM   15  C23 UNL     1      -0.068   8.663  14.048  1.00  0.00    -0.001 C 
HETATM   16  C24 UNL     1       0.217  10.184  14.170  1.00  0.00     0.006 C 
HETATM   17  C25 UNL     1       0.091  10.726  15.604  1.00  0.00     0.010 C 
HETATM   18  C26 UNL     1      -1.272  10.385  16.220  1.00  0.00    -0.036 C 
HETATM   19  C27 UNL     1      -2.392  11.117  15.441  1.00  0.00     0.016 C 
ENDROOT
BRANCH   1  20
HETATM   20  C7  UNL     1      -1.362  11.975  18.444  1.00  0.00     0.038 C 
BRANCH  20  21
HETATM   21  C6  UNL     1      -2.771  12.344  18.895  1.00  0.00    -0.023 C 
HETATM   22  C5  UNL     1      -3.691  13.071  18.239  1.00  0.00    -0.023 C 
BRANCH  22  23
HETATM   23  C4  UNL     1      -5.083  13.348  18.780  1.00  0.00     0.035 C 
BRANCH  23  24
HETATM   24  C2  UNL     1      -5.647  14.679  18.196  1.00  0.00    -0.013 C 
HETATM   25  C1  UNL     1      -4.654  15.334  17.224  1.00  0.00     0.010 C 
HETATM   26  C3  UNL     1      -6.985  14.489  17.471  1.00  0.00     0.010 C 
ENDBRANCH  23  24
BRANCH  23  27
HETATM   27  C28 UNL     1      -5.026  13.337  20.322  1.00  0.00     0.173 C 
BRANCH  27  28
HETATM   28  O11 UNL     1      -4.709  14.628  20.836  1.00  0.00    -0.400 OA
HETATM   29  H48 UNL     1      -5.427  15.229  20.574  1.00  0.00     0.209 HD
ENDBRANCH  27  28
ENDBRANCH  23  27
ENDBRANCH  22  23
ENDBRANCH  20  21
BRANCH  20  30
HETATM   30  C8  UNL     1      -0.284  12.268  19.504  1.00  0.00     0.201 C 
BRANCH  30  31
HETATM   31  O1  UNL     1       0.430  11.099  19.861  1.00  0.00    -0.263 OA
BRANCH  31  32
HETATM   32  S1  UNL     1       2.041  11.128  19.685  1.00  0.00     0.240 S 
HETATM   33  O2  UNL     1       2.325  11.319  18.281  1.00  0.00    -0.579 OA
HETATM   34  O3  UNL     1       2.611  11.971  20.710  1.00  0.00    -0.579 OA
BRANCH  32  35
HETATM   35  O4  UNL     1       2.439   9.603  20.012  1.00  0.00    -0.274 OA
HETATM   36  H14 UNL     1       2.169   9.054  19.251  1.00  0.00     0.234 HD
ENDBRANCH  32  35
ENDBRANCH  31  32
ENDBRANCH  30  31
ENDBRANCH  20  30
ENDBRANCH   1  20
BRANCH   9  37
HETATM   37  O5  UNL     1       1.676   5.310  12.355  1.00  0.00    -0.392 OA
HETATM   38  H28 UNL     1       2.192   4.736  11.760  1.00  0.00     0.210 HD
ENDBRANCH   9  37
BRANCH  11  39
HETATM   39  O10 UNL     1       1.486   8.610   9.610  1.00  0.00    -0.393 OA
HETATM   40  H32 UNL     1       1.954   8.294   8.816  1.00  0.00     0.210 HD
ENDBRANCH  11  39
BRANCH  10  41
HETATM   41  O6  UNL     1       1.642   5.527   9.535  1.00  0.00    -0.253 OA
BRANCH  41  42
HETATM   42  S2  UNL     1       3.219   5.855   9.342  1.00  0.00     0.240 S 
HETATM   43  O7  UNL     1       3.854   4.707   8.742  1.00  0.00    -0.579 OA
HETATM   44  O8  UNL     1       3.358   7.176   8.777  1.00  0.00    -0.579 OA
BRANCH  42  45
HETATM   45  O9  UNL     1       3.764   5.930  10.855  1.00  0.00    -0.274 OA
HETATM   46  H30 UNL     1       4.740   6.000  10.814  1.00  0.00     0.234 HD
ENDBRANCH  42  45
ENDBRANCH  41  42
ENDBRANCH  10  41
TORSDOF 15
ENDMDL
MODEL 9
REMARK minimizedAffinity -7.24380875
REMARK CNNscore 0.258500844
REMARK CNNaffinity 5.46979094
REMARK  15 active torsions:
REMARK  status: ('A' for Active; 'I' for Inactive)
REMARK    1  A    between atoms: C2_2  and  C4_4 
REMARK    2  A    between atoms: C4_4  and  C5_5 
REMARK    3  A    between atoms: C4_4  and  C28_40 
REMARK    4  A    between atoms: C6_6  and  C7_7 
REMARK    5  A    between atoms: C7_7  and  C8_8 
REMARK    6  A    between atoms: C7_7  and  C9_14 
REMARK    7  A    between atoms: C8_8  and  O1_9 
REMARK    8  A    between atoms: O1_9  and  S1_10 
REMARK    9  A    between atoms: S1_10  and  O4_13 
REMARK   10  A    between atoms: C17_22  and  O5_23 
REMARK   11  A    between atoms: C18_24  and  O6_25 
REMARK   12  A    between atoms: O6_25  and  S2_26 
REMARK   13  A    between atoms: S2_26  and  O9_29 
REMARK   14  A    between atoms: C19_30  and  O10_31 
REMARK   15  A    between atoms: C28_40  and  O11_41 
ROOT
HETATM    1  C9  UNL     1       1.846  11.227  18.664  1.00  0.00     0.004 C 
HETATM    2  C10 UNL     1       0.644  11.566  19.585  1.00  0.00     0.006 C 
HETATM    3  C11 UNL     1       1.226  12.358  20.771  1.00  0.00     0.006 C 
HETATM    4  C12 UNL     1       2.700  12.548  20.411  1.00  0.00    -0.002 C 
HETATM    5  C13 UNL     1       3.686  12.914  21.528  1.00  0.00    -0.005 C 
HETATM    6  C14 UNL     1       3.254  14.206  22.248  1.00  0.00     0.006 C 
HETATM    7  C15 UNL     1       4.385  15.202  22.458  1.00  0.00     0.008 C 
HETATM    8  C16 UNL     1       5.661  14.536  22.994  1.00  0.00     0.026 C 
HETATM    9  C17 UNL     1       6.721  15.616  23.325  1.00  0.00     0.156 C 
HETATM   10  C18 UNL     1       8.083  14.980  23.595  1.00  0.00     0.202 C 
HETATM   11  C19 UNL     1       8.624  14.287  22.338  1.00  0.00     0.151 C 
HETATM   12  C20 UNL     1       7.535  13.761  21.393  1.00  0.00     0.044 C 
HETATM   13  C21 UNL     1       6.187  13.368  22.065  1.00  0.00    -0.032 C 
HETATM   14  C22 UNL     1       6.441  12.118  22.952  1.00  0.00     0.016 C 
HETATM   15  C23 UNL     1       5.124  13.033  20.940  1.00  0.00    -0.001 C 
HETATM   16  C24 UNL     1       5.501  11.822  20.044  1.00  0.00     0.006 C 
HETATM   17  C25 UNL     1       4.431  11.468  18.997  1.00  0.00     0.010 C 
HETATM   18  C26 UNL     1       3.058  11.248  19.643  1.00  0.00    -0.036 C 
HETATM   19  C27 UNL     1       3.109  10.006  20.565  1.00  0.00     0.016 C 
ENDROOT
BRANCH   1  20
HETATM   20  C7  UNL     1       1.608  10.081  17.640  1.00  0.00     0.038 C 
BRANCH  20  21
HETATM   21  C6  UNL     1       0.173  10.144  17.127  1.00  0.00    -0.023 C 
HETATM   22  C5  UNL     1      -0.257  10.481  15.899  1.00  0.00    -0.023 C 
BRANCH  22  23
HETATM   23  C4  UNL     1      -1.721  10.477  15.493  1.00  0.00     0.035 C 
BRANCH  23  24
HETATM   24  C2  UNL     1      -2.551   9.548  16.430  1.00  0.00    -0.013 C 
HETATM   25  C1  UNL     1      -3.642  10.330  17.178  1.00  0.00     0.010 C 
HETATM   26  C3  UNL     1      -3.213   8.386  15.680  1.00  0.00     0.010 C 
ENDBRANCH  23  24
BRANCH  23  27
HETATM   27  C28 UNL     1      -1.821  10.082  14.004  1.00  0.00     0.173 C 
BRANCH  27  28
HETATM   28  O11 UNL     1      -0.541  10.105  13.377  1.00  0.00    -0.400 OA
HETATM   29  H48 UNL     1       0.011   9.440  13.820  1.00  0.00     0.209 HD
ENDBRANCH  27  28
ENDBRANCH  23  27
ENDBRANCH  22  23
ENDBRANCH  20  21
BRANCH  20  30
HETATM   30  C8  UNL     1       2.646   9.853  16.526  1.00  0.00     0.201 C 
BRANCH  30  31
HETATM   31  O1  UNL     1       2.881   8.474  16.305  1.00  0.00    -0.263 OA
BRANCH  31  32
HETATM   32  S1  UNL     1       4.121   8.077  15.339  1.00  0.00     0.240 S 
HETATM   33  O2  UNL     1       3.593   7.875  14.009  1.00  0.00    -0.579 OA
HETATM   34  O3  UNL     1       5.228   8.965  15.605  1.00  0.00    -0.579 OA
BRANCH  32  35
HETATM   35  O4  UNL     1       4.512   6.614  15.885  1.00  0.00    -0.274 OA
HETATM   36  H14 UNL     1       3.822   5.989  15.586  1.00  0.00     0.234 HD
ENDBRANCH  32  35
ENDBRANCH  31  32
ENDBRANCH  30  31
ENDBRANCH  20  30
ENDBRANCH   1  20
BRANCH   9  37
HETATM   37  O5  UNL     1       6.839  16.564  22.257  1.00  0.00    -0.392 OA
HETATM   38  H28 UNL     1       7.499  17.226  22.533  1.00  0.00     0.210 HD
ENDBRANCH   9  37
BRANCH  11  39
HETATM   39  O10 UNL     1       9.465  13.198  22.741  1.00  0.00    -0.393 OA
HETATM   40  H32 UNL     1      10.299  13.583  23.066  1.00  0.00     0.210 HD
ENDBRANCH  11  39
BRANCH  10  41
HETATM   41  O6  UNL     1       9.019  15.996  23.967  1.00  0.00    -0.253 OA
BRANCH  41  42
HETATM   42  S2  UNL     1       9.836  16.755  22.790  1.00  0.00     0.240 S 
HETATM   43  O7  UNL     1      10.204  15.783  21.789  1.00  0.00    -0.579 OA
HETATM   44  O8  UNL     1       9.138  17.970  22.441  1.00  0.00    -0.579 OA
BRANCH  42  45
HETATM   45  O9  UNL     1      11.205  17.191  23.516  1.00  0.00    -0.274 OA
HETATM   46  H30 UNL     1      11.806  17.544  22.828  1.00  0.00     0.234 HD
ENDBRANCH  42  45
ENDBRANCH  41  42
ENDBRANCH  10  41
TORSDOF 15
ENDMDL
