MODEL 1
REMARK minimizedAffinity -10.8752289
REMARK  7 active torsions:
REMARK  status: ('A' for Active; 'I' for Inactive)
REMARK    1  A    between atoms: C3_3  and  C4_4 
REMARK    2  A    between atoms: C4_4  and  O1_5 
REMARK    3  A    between atoms: C6_9  and  C7_10 
REMARK    4  A    between atoms: C7_10  and  C9_12 
REMARK    5  A    between atoms: C9_12  and  O4_13 
REMARK    6  A    between atoms: C10_14  and  O5_15 
REMARK    7  A    between atoms: C17_22  and  O6_23 
ROOT
HETATM    1  C9  UNL     1       6.541  64.244 -35.617  1.00  0.00     0.097 C 
HETATM    2  C10 UNL     1       5.765  64.078 -34.246  1.00  0.00     0.154 C 
HETATM    3  C11 UNL     1       4.441  64.851 -34.370  1.00  0.00     0.040 C 
HETATM    4  C12 UNL     1       4.389  65.302 -35.822  1.00  0.00     0.004 C 
HETATM    5  C13 UNL     1       3.440  66.460 -36.170  1.00  0.00    -0.001 C 
HETATM    6  C14 UNL     1       2.006  66.131 -35.745  1.00  0.00     0.033 C 
HETATM    7  C15 UNL     1       1.009  67.111 -36.271  1.00  0.00    -0.019 C 
HETATM    8  C16 UNL     1       1.229  67.963 -37.291  1.00  0.00    -0.035 C 
HETATM    9  C17 UNL     1       0.182  68.959 -37.771  1.00  0.00     0.171 C 
HETATM   10  C18 UNL     1      -0.012  68.886 -39.247  1.00  0.00     0.013 C 
HETATM   11  C19 UNL     1       0.867  68.336 -40.094  1.00  0.00     0.050 C 
HETATM   12  C20 UNL     1       2.162  67.792 -39.604  1.00  0.00     0.162 C 
HETATM   13  O7  UNL     1       2.909  67.294 -40.447  1.00  0.00    -0.292 OA
HETATM   14  C21 UNL     1       2.545  67.953 -38.103  1.00  0.00     0.051 C 
HETATM   15  C22 UNL     1       3.259  69.312 -37.945  1.00  0.00     0.029 C 
HETATM   16  C23 UNL     1       3.489  66.745 -37.697  1.00  0.00     0.011 C 
HETATM   17  C24 UNL     1       4.956  66.886 -38.186  1.00  0.00     0.007 C 
HETATM   18  C25 UNL     1       5.876  65.740 -37.730  1.00  0.00     0.013 C 
HETATM   19  C26 UNL     1       5.875  65.561 -36.194  1.00  0.00    -0.006 C 
HETATM   20  C27 UNL     1       6.449  66.826 -35.501  1.00  0.00     0.019 C 
ENDROOT
BRANCH   1  21
HETATM   21  C7  UNL     1       8.113  64.184 -35.486  1.00  0.00     0.049 C 
HETATM   22  C8  UNL     1       8.815  65.059 -36.540  1.00  0.00     0.016 C 
BRANCH  21  23
HETATM   23  C6  UNL     1       8.686  62.723 -35.615  1.00  0.00     0.143 C 
HETATM   24  O3  UNL     1       8.406  61.926 -34.447  1.00  0.00    -0.311 OA
HETATM   25  C5  UNL     1       9.205  62.001 -33.347  1.00  0.00     0.292 C 
HETATM   26  C3  UNL     1      10.515  62.696 -33.488  1.00  0.00     0.042 C 
HETATM   27  O2  UNL     1       8.819  61.542 -32.275  1.00  0.00    -0.260 OA
HETATM   28  C2  UNL     1      10.990  62.980 -34.719  1.00  0.00    -0.067 C 
HETATM   29  C1  UNL     1      12.302  63.653 -35.005  1.00  0.00     0.044 C 
HETATM   30  C28 UNL     1      10.182  62.597 -35.924  1.00  0.00     0.067 C 
BRANCH  26  31
HETATM   31  C4  UNL     1      11.223  62.993 -32.200  1.00  0.00     0.209 C 
BRANCH  31  32
HETATM   32  O1  UNL     1      11.390  61.788 -31.458  1.00  0.00    -0.396 OA
HETATM   33  H6  UNL     1      11.591  62.050 -30.545  1.00  0.00     0.209 HD
ENDBRANCH  31  32
ENDBRANCH  26  31
ENDBRANCH  21  23
ENDBRANCH   1  21
BRANCH   1  34
HETATM   34  O4  UNL     1       6.148  63.155 -36.484  1.00  0.00    -0.386 OA
HETATM   35  H12 UNL     1       6.187  62.330 -35.969  1.00  0.00     0.210 HD
ENDBRANCH   1  34
BRANCH   2  36
HETATM   36  O5  UNL     1       6.477  64.615 -33.137  1.00  0.00    -0.392 OA
HETATM   37  H14 UNL     1       6.190  64.107 -32.351  1.00  0.00     0.210 HD
ENDBRANCH   2  36
BRANCH   9  38
HETATM   38  O6  UNL     1      -1.087  68.717 -37.184  1.00  0.00    -0.387 OA
HETATM   39  H23 UNL     1      -1.000  68.963 -36.247  1.00  0.00     0.210 HD
ENDBRANCH   9  38
TORSDOF 7
ENDMDL
MODEL 2
REMARK minimizedAffinity -10.2175522
REMARK  7 active torsions:
REMARK  status: ('A' for Active; 'I' for Inactive)
REMARK    1  A    between atoms: C3_3  and  C4_4 
REMARK    2  A    between atoms: C4_4  and  O1_5 
REMARK    3  A    between atoms: C6_9  and  C7_10 
REMARK    4  A    between atoms: C7_10  and  C9_12 
REMARK    5  A    between atoms: C9_12  and  O4_13 
REMARK    6  A    between atoms: C10_14  and  O5_15 
REMARK    7  A    between atoms: C17_22  and  O6_23 
ROOT
HETATM    1  C9  UNL     1      -2.810  51.656 -24.584  1.00  0.00     0.097 C 
HETATM    2  C10 UNL     1      -4.356  51.339 -24.449  1.00  0.00     0.154 C 
HETATM    3  C11 UNL     1      -4.620  50.938 -22.988  1.00  0.00     0.040 C 
HETATM    4  C12 UNL     1      -3.299  51.182 -22.275  1.00  0.00     0.004 C 
HETATM    5  C13 UNL     1      -3.080  50.473 -20.928  1.00  0.00    -0.001 C 
HETATM    6  C14 UNL     1      -4.200  50.827 -19.943  1.00  0.00     0.033 C 
HETATM    7  C15 UNL     1      -3.913  50.362 -18.554  1.00  0.00    -0.019 C 
HETATM    8  C16 UNL     1      -2.695  50.015 -18.091  1.00  0.00    -0.035 C 
HETATM    9  C17 UNL     1      -2.464  49.525 -16.668  1.00  0.00     0.171 C 
HETATM   10  C18 UNL     1      -1.356  50.267 -16.003  1.00  0.00     0.013 C 
HETATM   11  C19 UNL     1      -0.423  50.969 -16.658  1.00  0.00     0.050 C 
HETATM   12  C20 UNL     1      -0.404  51.013 -18.145  1.00  0.00     0.162 C 
HETATM   13  O7  UNL     1       0.481  51.691 -18.668  1.00  0.00    -0.292 OA
HETATM   14  C21 UNL     1      -1.418  50.151 -18.952  1.00  0.00     0.051 C 
HETATM   15  C22 UNL     1      -0.788  48.758 -19.162  1.00  0.00     0.029 C 
HETATM   16  C23 UNL     1      -1.702  50.878 -20.333  1.00  0.00     0.011 C 
HETATM   17  C24 UNL     1      -0.575  50.714 -21.388  1.00  0.00     0.007 C 
HETATM   18  C25 UNL     1      -0.893  51.369 -22.743  1.00  0.00     0.013 C 
HETATM   19  C26 UNL     1      -2.222  50.859 -23.347  1.00  0.00    -0.006 C 
HETATM   20  C27 UNL     1      -2.128  49.340 -23.656  1.00  0.00     0.019 C 
ENDROOT
BRANCH   1  21
HETATM   21  C7  UNL     1      -2.212  51.380 -26.018  1.00  0.00     0.049 C 
HETATM   22  C8  UNL     1      -1.109  50.307 -25.988  1.00  0.00     0.016 C 
BRANCH  21  23
HETATM   23  C6  UNL     1      -1.609  52.670 -26.691  1.00  0.00     0.143 C 
HETATM   24  O3  UNL     1      -0.864  52.360 -27.886  1.00  0.00    -0.311 OA
HETATM   25  C5  UNL     1       0.434  51.955 -27.807  1.00  0.00     0.292 C 
HETATM   26  C3  UNL     1       1.135  52.118 -26.503  1.00  0.00     0.042 C 
HETATM   27  O2  UNL     1       0.975  51.435 -28.781  1.00  0.00    -0.260 OA
HETATM   28  C2  UNL     1       0.583  52.890 -25.542  1.00  0.00    -0.067 C 
HETATM   29  C1  UNL     1       1.191  53.158 -24.195  1.00  0.00     0.044 C 
HETATM   30  C28 UNL     1      -0.733  53.561 -25.806  1.00  0.00     0.067 C 
BRANCH  26  31
HETATM   31  C4  UNL     1       2.452  51.410 -26.392  1.00  0.00     0.209 C 
BRANCH  31  32
HETATM   32  O1  UNL     1       3.372  51.966 -27.327  1.00  0.00    -0.396 OA
HETATM   33  H6  UNL     1       4.095  51.324 -27.419  1.00  0.00     0.209 HD
ENDBRANCH  31  32
ENDBRANCH  26  31
ENDBRANCH  21  23
ENDBRANCH   1  21
BRANCH   1  34
HETATM   34  O4  UNL     1      -2.620  53.063 -24.309  1.00  0.00    -0.386 OA
HETATM   35  H12 UNL     1      -3.291  53.561 -24.810  1.00  0.00     0.210 HD
ENDBRANCH   1  34
BRANCH   2  36
HETATM   36  O5  UNL     1      -4.776  50.258 -25.276  1.00  0.00    -0.392 OA
HETATM   37  H14 UNL     1      -5.720  50.414 -25.479  1.00  0.00     0.210 HD
ENDBRANCH   2  36
BRANCH   9  38
HETATM   38  O6  UNL     1      -3.614  49.703 -15.855  1.00  0.00    -0.387 OA
HETATM   39  H23 UNL     1      -4.272  49.062 -16.177  1.00  0.00     0.210 HD
ENDBRANCH   9  38
TORSDOF 7
ENDMDL
MODEL 3
REMARK minimizedAffinity -10.1765718
REMARK  7 active torsions:
REMARK  status: ('A' for Active; 'I' for Inactive)
REMARK    1  A    between atoms: C3_3  and  C4_4 
REMARK    2  A    between atoms: C4_4  and  O1_5 
REMARK    3  A    between atoms: C6_9  and  C7_10 
REMARK    4  A    between atoms: C7_10  and  C9_12 
REMARK    5  A    between atoms: C9_12  and  O4_13 
REMARK    6  A    between atoms: C10_14  and  O5_15 
REMARK    7  A    between atoms: C17_22  and  O6_23 
ROOT
HETATM    1  C9  UNL     1      -0.697  51.008 -19.406  1.00  0.00     0.097 C 
HETATM    2  C10 UNL     1      -2.280  50.958 -19.436  1.00  0.00     0.154 C 
HETATM    3  C11 UNL     1      -2.723  51.239 -20.882  1.00  0.00     0.040 C 
HETATM    4  C12 UNL     1      -1.430  51.281 -21.682  1.00  0.00     0.004 C 
HETATM    5  C13 UNL     1      -1.469  51.976 -23.053  1.00  0.00    -0.001 C 
HETATM    6  C14 UNL     1      -2.538  51.343 -23.950  1.00  0.00     0.033 C 
HETATM    7  C15 UNL     1      -2.457  51.815 -25.364  1.00  0.00    -0.019 C 
HETATM    8  C16 UNL     1      -1.384  52.416 -25.918  1.00  0.00    -0.035 C 
HETATM    9  C17 UNL     1      -1.365  52.899 -27.362  1.00  0.00     0.171 C 
HETATM   10  C18 UNL     1      -0.161  52.409 -28.090  1.00  0.00     0.013 C 
HETATM   11  C19 UNL     1       0.948  51.961 -27.491  1.00  0.00     0.050 C 
HETATM   12  C20 UNL     1       1.074  51.972 -26.009  1.00  0.00     0.162 C 
HETATM   13  O7  UNL     1       2.123  51.532 -25.538  1.00  0.00    -0.292 OA
HETATM   14  C21 UNL     1      -0.058  52.604 -25.146  1.00  0.00     0.051 C 
HETATM   15  C22 UNL     1       0.247  54.111 -25.006  1.00  0.00     0.029 C 
HETATM   16  C23 UNL     1      -0.076  51.878 -23.737  1.00  0.00     0.011 C 
HETATM   17  C24 UNL     1       1.049  52.331 -22.767  1.00  0.00     0.007 C 
HETATM   18  C25 UNL     1       0.979  51.666 -21.382  1.00  0.00     0.013 C 
HETATM   19  C26 UNL     1      -0.390  51.877 -20.695  1.00  0.00    -0.006 C 
HETATM   20  C27 UNL     1      -0.629  53.387 -20.419  1.00  0.00     0.019 C 
ENDROOT
BRANCH   1  21
HETATM   21  C7  UNL     1      -0.087  51.461 -18.023  1.00  0.00     0.049 C 
HETATM   22  C8  UNL     1       1.177  52.320 -18.202  1.00  0.00     0.016 C 
BRANCH  21  23
HETATM   23  C6  UNL     1       0.284  50.249 -17.088  1.00  0.00     0.143 C 
HETATM   24  O3  UNL     1      -0.827  49.350 -16.898  1.00  0.00    -0.311 OA
HETATM   25  C5  UNL     1      -1.778  49.613 -15.959  1.00  0.00     0.292 C 
HETATM   26  C3  UNL     1      -1.489  50.677 -14.957  1.00  0.00     0.042 C 
HETATM   27  O2  UNL     1      -2.848  49.009 -15.984  1.00  0.00    -0.260 OA
HETATM   28  C2  UNL     1      -0.231  51.148 -14.829  1.00  0.00    -0.067 C 
HETATM   29  C1  UNL     1       0.203  52.199 -13.847  1.00  0.00     0.044 C 
HETATM   30  C28 UNL     1       0.853  50.595 -15.708  1.00  0.00     0.067 C 
BRANCH  26  31
HETATM   31  C4  UNL     1      -2.663  51.113 -14.133  1.00  0.00     0.209 C 
BRANCH  31  32
HETATM   32  O1  UNL     1      -3.685  51.618 -14.988  1.00  0.00    -0.396 OA
HETATM   33  H6  UNL     1      -4.290  52.129 -14.425  1.00  0.00     0.209 HD
ENDBRANCH  31  32
ENDBRANCH  26  31
ENDBRANCH  21  23
ENDBRANCH   1  21
BRANCH   1  34
HETATM   34  O4  UNL     1      -0.205  49.674 -19.669  1.00  0.00    -0.386 OA
HETATM   35  H12 UNL     1      -0.710  49.052 -19.114  1.00  0.00     0.210 HD
ENDBRANCH   1  34
BRANCH   2  36
HETATM   36  O5  UNL     1      -2.883  51.940 -18.601  1.00  0.00    -0.392 OA
HETATM   37  H14 UNL     1      -3.751  51.579 -18.329  1.00  0.00     0.210 HD
ENDBRANCH   2  36
BRANCH   9  38
HETATM   38  O6  UNL     1      -2.493  52.436 -28.088  1.00  0.00    -0.387 OA
HETATM   39  H23 UNL     1      -3.259  52.919 -27.732  1.00  0.00     0.210 HD
ENDBRANCH   9  38
TORSDOF 7
ENDMDL
MODEL 4
REMARK minimizedAffinity -10.1353884
REMARK  7 active torsions:
REMARK  status: ('A' for Active; 'I' for Inactive)
REMARK    1  A    between atoms: C3_3  and  C4_4 
REMARK    2  A    between atoms: C4_4  and  O1_5 
REMARK    3  A    between atoms: C6_9  and  C7_10 
REMARK    4  A    between atoms: C7_10  and  C9_12 
REMARK    5  A    between atoms: C9_12  and  O4_13 
REMARK    6  A    between atoms: C10_14  and  O5_15 
REMARK    7  A    between atoms: C17_22  and  O6_23 
ROOT
HETATM    1  C9  UNL     1      -1.590  50.907 -23.405  1.00  0.00     0.097 C 
HETATM    2  C10 UNL     1      -0.838  50.368 -22.119  1.00  0.00     0.154 C 
HETATM    3  C11 UNL     1      -1.708  49.257 -21.508  1.00  0.00     0.040 C 
HETATM    4  C12 UNL     1      -2.836  49.053 -22.508  1.00  0.00     0.004 C 
HETATM    5  C13 UNL     1      -4.108  48.350 -22.007  1.00  0.00    -0.001 C 
HETATM    6  C14 UNL     1      -3.770  46.977 -21.418  1.00  0.00     0.033 C 
HETATM    7  C15 UNL     1      -4.985  46.155 -21.137  1.00  0.00    -0.019 C 
HETATM    8  C16 UNL     1      -6.207  46.381 -21.659  1.00  0.00    -0.035 C 
HETATM    9  C17 UNL     1      -7.418  45.523 -21.318  1.00  0.00     0.171 C 
HETATM   10  C18 UNL     1      -8.126  45.059 -22.545  1.00  0.00     0.013 C 
HETATM   11  C19 UNL     1      -7.989  45.624 -23.750  1.00  0.00     0.050 C 
HETATM   12  C20 UNL     1      -7.132  46.825 -23.938  1.00  0.00     0.162 C 
HETATM   13  O7  UNL     1      -7.052  47.276 -25.081  1.00  0.00    -0.292 OA
HETATM   14  C21 UNL     1      -6.464  47.494 -22.700  1.00  0.00     0.051 C 
HETATM   15  C22 UNL     1      -7.465  48.517 -22.124  1.00  0.00     0.029 C 
HETATM   16  C23 UNL     1      -5.122  48.192 -23.174  1.00  0.00     0.011 C 
HETATM   17  C24 UNL     1      -5.328  49.542 -23.913  1.00  0.00     0.007 C 
HETATM   18  C25 UNL     1      -4.015  50.239 -24.310  1.00  0.00     0.013 C 
HETATM   19  C26 UNL     1      -3.082  50.469 -23.099  1.00  0.00    -0.006 C 
HETATM   20  C27 UNL     1      -3.746  51.432 -22.078  1.00  0.00     0.019 C 
ENDROOT
BRANCH   1  21
HETATM   21  C7  UNL     1      -1.298  52.420 -23.743  1.00  0.00     0.049 C 
HETATM   22  C8  UNL     1      -2.098  52.905 -24.965  1.00  0.00     0.016 C 
BRANCH  21  23
HETATM   23  C6  UNL     1       0.226  52.705 -24.023  1.00  0.00     0.143 C 
HETATM   24  O3  UNL     1       0.472  54.095 -24.316  1.00  0.00    -0.311 OA
HETATM   25  C5  UNL     1       0.285  54.582 -25.574  1.00  0.00     0.292 C 
HETATM   26  C3  UNL     1       0.106  53.600 -26.679  1.00  0.00     0.042 C 
HETATM   27  O2  UNL     1       0.229  55.795 -25.761  1.00  0.00    -0.260 OA
HETATM   28  C2  UNL     1       0.398  52.299 -26.469  1.00  0.00    -0.067 C 
HETATM   29  C1  UNL     1       0.285  51.211 -27.497  1.00  0.00     0.044 C 
HETATM   30  C28 UNL     1       0.891  51.867 -25.119  1.00  0.00     0.067 C 
BRANCH  26  31
HETATM   31  C4  UNL     1      -0.369  54.180 -27.978  1.00  0.00     0.209 C 
BRANCH  31  32
HETATM   32  O1  UNL     1      -1.760  53.915 -28.139  1.00  0.00    -0.396 OA
HETATM   33  H6  UNL     1      -1.961  54.053 -29.079  1.00  0.00     0.209 HD
ENDBRANCH  31  32
ENDBRANCH  26  31
ENDBRANCH  21  23
ENDBRANCH   1  21
BRANCH   1  34
HETATM   34  O4  UNL     1      -1.144  50.126 -24.539  1.00  0.00    -0.386 OA
HETATM   35  H12 UNL     1      -0.173  50.066 -24.500  1.00  0.00     0.210 HD
ENDBRANCH   1  34
BRANCH   2  36
HETATM   36  O5  UNL     1      -0.654  51.369 -21.124  1.00  0.00    -0.392 OA
HETATM   37  H14 UNL     1       0.147  51.117 -20.621  1.00  0.00     0.210 HD
ENDBRANCH   2  36
BRANCH   9  38
HETATM   38  O6  UNL     1      -7.053  44.356 -20.596  1.00  0.00    -0.387 OA
HETATM   39  H23 UNL     1      -6.778  44.662 -19.714  1.00  0.00     0.210 HD
ENDBRANCH   9  38
TORSDOF 7
ENDMDL
MODEL 5
REMARK minimizedAffinity -9.91463947
REMARK  7 active torsions:
REMARK  status: ('A' for Active; 'I' for Inactive)
REMARK    1  A    between atoms: C3_3  and  C4_4 
REMARK    2  A    between atoms: C4_4  and  O1_5 
REMARK    3  A    between atoms: C6_9  and  C7_10 
REMARK    4  A    between atoms: C7_10  and  C9_12 
REMARK    5  A    between atoms: C9_12  and  O4_13 
REMARK    6  A    between atoms: C10_14  and  O5_15 
REMARK    7  A    between atoms: C17_22  and  O6_23 
ROOT
HETATM    1  C9  UNL     1      -1.899  48.476 -19.823  1.00  0.00     0.097 C 
HETATM    2  C10 UNL     1      -3.155  47.583 -20.187  1.00  0.00     0.154 C 
HETATM    3  C11 UNL     1      -3.511  47.864 -21.657  1.00  0.00     0.040 C 
HETATM    4  C12 UNL     1      -2.391  48.760 -22.162  1.00  0.00     0.004 C 
HETATM    5  C13 UNL     1      -2.661  49.583 -23.432  1.00  0.00    -0.001 C 
HETATM    6  C14 UNL     1      -3.069  48.668 -24.592  1.00  0.00     0.033 C 
HETATM    7  C15 UNL     1      -3.110  49.382 -25.903  1.00  0.00    -0.019 C 
HETATM    8  C16 UNL     1      -2.515  50.566 -26.156  1.00  0.00    -0.035 C 
HETATM    9  C17 UNL     1      -2.610  51.261 -27.507  1.00  0.00     0.171 C 
HETATM   10  C18 UNL     1      -1.268  51.662 -28.016  1.00  0.00     0.013 C 
HETATM   11  C19 UNL     1      -0.178  51.776 -27.248  1.00  0.00     0.050 C 
HETATM   12  C20 UNL     1      -0.251  51.554 -25.779  1.00  0.00     0.162 C 
HETATM   13  O7  UNL     1       0.800  51.669 -25.147  1.00  0.00    -0.292 OA
HETATM   14  C21 UNL     1      -1.631  51.283 -25.110  1.00  0.00     0.051 C 
HETATM   15  C22 UNL     1      -2.257  52.648 -24.756  1.00  0.00     0.029 C 
HETATM   16  C23 UNL     1      -1.393  50.396 -23.818  1.00  0.00     0.011 C 
HETATM   17  C24 UNL     1      -0.847  51.179 -22.594  1.00  0.00     0.007 C 
HETATM   18  C25 UNL     1      -0.683  50.319 -21.329  1.00  0.00     0.013 C 
HETATM   19  C26 UNL     1      -1.996  49.611 -20.924  1.00  0.00    -0.006 C 
HETATM   20  C27 UNL     1      -3.082  50.657 -20.551  1.00  0.00     0.019 C 
ENDROOT
BRANCH   1  21
HETATM   21  C7  UNL     1      -1.818  48.897 -18.304  1.00  0.00     0.049 C 
HETATM   22  C8  UNL     1      -2.750  48.051 -17.419  1.00  0.00     0.016 C 
BRANCH  21  23
HETATM   23  C6  UNL     1      -2.173  50.412 -18.066  1.00  0.00     0.143 C 
HETATM   24  O3  UNL     1      -1.026  51.270 -18.230  1.00  0.00    -0.311 OA
HETATM   25  C5  UNL     1      -0.145  51.452 -17.207  1.00  0.00     0.292 C 
HETATM   26  C3  UNL     1      -0.548  50.983 -15.852  1.00  0.00     0.042 C 
HETATM   27  O2  UNL     1       0.956  51.951 -17.427  1.00  0.00    -0.260 OA
HETATM   28  C2  UNL     1      -1.835  50.654 -15.616  1.00  0.00    -0.067 C 
HETATM   29  C1  UNL     1      -2.381  50.191 -14.295  1.00  0.00     0.044 C 
HETATM   30  C28 UNL     1      -2.836  50.760 -16.729  1.00  0.00     0.067 C 
BRANCH  26  31
HETATM   31  C4  UNL     1       0.552  50.953 -14.833  1.00  0.00     0.209 C 
BRANCH  31  32
HETATM   32  O1  UNL     1       0.947  52.284 -14.517  1.00  0.00    -0.396 OA
HETATM   33  H6  UNL     1       1.814  52.221 -14.084  1.00  0.00     0.209 HD
ENDBRANCH  31  32
ENDBRANCH  26  31
ENDBRANCH  21  23
ENDBRANCH   1  21
BRANCH   1  34
HETATM   34  O4  UNL     1      -0.709  47.707 -20.113  1.00  0.00    -0.386 OA
HETATM   35  H12 UNL     1      -0.829  46.814 -19.741  1.00  0.00     0.210 HD
ENDBRANCH   1  34
BRANCH   2  36
HETATM   36  O5  UNL     1      -4.301  47.889 -19.399  1.00  0.00    -0.392 OA
HETATM   37  H14 UNL     1      -4.833  47.069 -19.352  1.00  0.00     0.210 HD
ENDBRANCH   2  36
BRANCH   9  38
HETATM   38  O6  UNL     1      -3.182  50.419 -28.496  1.00  0.00    -0.387 OA
HETATM   39  H23 UNL     1      -4.121  50.326 -28.260  1.00  0.00     0.210 HD
ENDBRANCH   9  38
TORSDOF 7
ENDMDL
MODEL 6
REMARK minimizedAffinity -9.8005724
REMARK  7 active torsions:
REMARK  status: ('A' for Active; 'I' for Inactive)
REMARK    1  A    between atoms: C3_3  and  C4_4 
REMARK    2  A    between atoms: C4_4  and  O1_5 
REMARK    3  A    between atoms: C6_9  and  C7_10 
REMARK    4  A    between atoms: C7_10  and  C9_12 
REMARK    5  A    between atoms: C9_12  and  O4_13 
REMARK    6  A    between atoms: C10_14  and  O5_15 
REMARK    7  A    between atoms: C17_22  and  O6_23 
ROOT
HETATM    1  C9  UNL     1      -2.385  50.627 -23.679  1.00  0.00     0.097 C 
HETATM    2  C10 UNL     1      -2.568  51.899 -22.754  1.00  0.00     0.154 C 
HETATM    3  C11 UNL     1      -3.816  51.662 -21.886  1.00  0.00     0.040 C 
HETATM    4  C12 UNL     1      -4.232  50.231 -22.188  1.00  0.00     0.004 C 
HETATM    5  C13 UNL     1      -5.675  49.825 -21.844  1.00  0.00    -0.001 C 
HETATM    6  C14 UNL     1      -5.969  50.081 -20.362  1.00  0.00     0.033 C 
HETATM    7  C15 UNL     1      -7.267  49.487 -19.921  1.00  0.00    -0.019 C 
HETATM    8  C16 UNL     1      -7.942  48.528 -20.586  1.00  0.00    -0.035 C 
HETATM    9  C17 UNL     1      -9.275  47.975 -20.101  1.00  0.00     0.171 C 
HETATM   10  C18 UNL     1      -9.271  46.485 -20.061  1.00  0.00     0.013 C 
HETATM   11  C19 UNL     1      -8.400  45.719 -20.727  1.00  0.00     0.050 C 
HETATM   12  C20 UNL     1      -7.376  46.324 -21.621  1.00  0.00     0.162 C 
HETATM   13  O7  UNL     1      -6.606  45.549 -22.188  1.00  0.00    -0.292 OA
HETATM   14  C21 UNL     1      -7.382  47.862 -21.863  1.00  0.00     0.051 C 
HETATM   15  C22 UNL     1      -8.328  48.146 -23.049  1.00  0.00     0.029 C 
HETATM   16  C23 UNL     1      -5.897  48.323 -22.177  1.00  0.00     0.011 C 
HETATM   17  C24 UNL     1      -5.417  48.000 -23.618  1.00  0.00     0.007 C 
HETATM   18  C25 UNL     1      -3.999  48.511 -23.929  1.00  0.00     0.013 C 
HETATM   19  C26 UNL     1      -3.853  50.030 -23.681  1.00  0.00    -0.006 C 
HETATM   20  C27 UNL     1      -4.777  50.827 -24.641  1.00  0.00     0.019 C 
ENDROOT
BRANCH   1  21
HETATM   21  C7  UNL     1      -1.685  50.924 -25.062  1.00  0.00     0.049 C 
HETATM   22  C8  UNL     1      -1.753  49.718 -26.015  1.00  0.00     0.016 C 
BRANCH  21  23
HETATM   23  C6  UNL     1      -0.172  51.333 -24.911  1.00  0.00     0.143 C 
HETATM   24  O3  UNL     1      -0.019  52.716 -24.534  1.00  0.00    -0.311 OA
HETATM   25  C5  UNL     1      -0.055  53.699 -25.476  1.00  0.00     0.292 C 
HETATM   26  C3  UNL     1       0.036  53.294 -26.906  1.00  0.00     0.042 C 
HETATM   27  O2  UNL     1      -0.200  54.871 -25.135  1.00  0.00    -0.260 OA
HETATM   28  C2  UNL     1       0.417  52.038 -27.220  1.00  0.00    -0.067 C 
HETATM   29  C1  UNL     1       0.572  51.505 -28.616  1.00  0.00     0.044 C 
HETATM   30  C28 UNL     1       0.735  51.070 -26.118  1.00  0.00     0.067 C 
BRANCH  26  31
HETATM   31  C4  UNL     1      -0.286  54.373 -27.897  1.00  0.00     0.209 C 
BRANCH  31  32
HETATM   32  O1  UNL     1      -1.655  54.279 -28.277  1.00  0.00    -0.396 OA
HETATM   33  H6  UNL     1      -1.752  54.794 -29.095  1.00  0.00     0.209 HD
ENDBRANCH  31  32
ENDBRANCH  26  31
ENDBRANCH  21  23
ENDBRANCH   1  21
BRANCH   1  34
HETATM   34  O4  UNL     1      -1.545  49.683 -22.974  1.00  0.00    -0.386 OA
HETATM   35  H12 UNL     1      -0.782  50.170 -22.613  1.00  0.00     0.210 HD
ENDBRANCH   1  34
BRANCH   2  36
HETATM   36  O5  UNL     1      -2.777  53.098 -23.492  1.00  0.00    -0.392 OA
HETATM   37  H14 UNL     1      -2.441  53.829 -22.936  1.00  0.00     0.210 HD
ENDBRANCH   2  36
BRANCH   9  38
HETATM   38  O6  UNL     1      -9.583  48.413 -18.786  1.00  0.00    -0.387 OA
HETATM   39  H23 UNL     1      -9.782  49.363 -18.860  1.00  0.00     0.210 HD
ENDBRANCH   9  38
TORSDOF 7
ENDMDL
MODEL 7
REMARK minimizedAffinity -9.64867115
REMARK  7 active torsions:
REMARK  status: ('A' for Active; 'I' for Inactive)
REMARK    1  A    between atoms: C3_3  and  C4_4 
REMARK    2  A    between atoms: C4_4  and  O1_5 
REMARK    3  A    between atoms: C6_9  and  C7_10 
REMARK    4  A    between atoms: C7_10  and  C9_12 
REMARK    5  A    between atoms: C9_12  and  O4_13 
REMARK    6  A    between atoms: C10_14  and  O5_15 
REMARK    7  A    between atoms: C17_22  and  O6_23 
ROOT
HETATM    1  C9  UNL     1      -2.693  51.050 -23.709  1.00  0.00     0.097 C 
HETATM    2  C10 UNL     1      -3.964  51.994 -23.745  1.00  0.00     0.154 C 
HETATM    3  C11 UNL     1      -5.015  51.387 -22.799  1.00  0.00     0.040 C 
HETATM    4  C12 UNL     1      -4.302  50.228 -22.120  1.00  0.00     0.004 C 
HETATM    5  C13 UNL     1      -5.176  49.147 -21.463  1.00  0.00    -0.001 C 
HETATM    6  C14 UNL     1      -6.120  49.769 -20.429  1.00  0.00     0.033 C 
HETATM    7  C15 UNL     1      -6.817  48.745 -19.595  1.00  0.00    -0.019 C 
HETATM    8  C16 UNL     1      -6.428  47.461 -19.464  1.00  0.00    -0.035 C 
HETATM    9  C17 UNL     1      -7.193  46.452 -18.618  1.00  0.00     0.171 C 
HETATM   10  C18 UNL     1      -6.292  45.730 -17.675  1.00  0.00     0.013 C 
HETATM   11  C19 UNL     1      -4.963  45.660 -17.812  1.00  0.00     0.050 C 
HETATM   12  C20 UNL     1      -4.281  46.276 -18.982  1.00  0.00     0.162 C 
HETATM   13  O7  UNL     1      -3.054  46.175 -19.026  1.00  0.00    -0.292 OA
HETATM   14  C21 UNL     1      -5.132  46.924 -20.114  1.00  0.00     0.051 C 
HETATM   15  C22 UNL     1      -5.486  45.815 -21.127  1.00  0.00     0.029 C 
HETATM   16  C23 UNL     1      -4.276  48.077 -20.784  1.00  0.00     0.011 C 
HETATM   17  C24 UNL     1      -3.180  47.576 -21.763  1.00  0.00     0.007 C 
HETATM   18  C25 UNL     1      -2.400  48.707 -22.455  1.00  0.00     0.013 C 
HETATM   19  C26 UNL     1      -3.330  49.690 -23.205  1.00  0.00    -0.006 C 
HETATM   20  C27 UNL     1      -4.072  48.960 -24.357  1.00  0.00     0.019 C 
ENDROOT
BRANCH   1  21
HETATM   21  C7  UNL     1      -1.850  51.043 -25.044  1.00  0.00     0.049 C 
HETATM   22  C8  UNL     1      -1.953  49.700 -25.787  1.00  0.00     0.016 C 
BRANCH  21  23
HETATM   23  C6  UNL     1      -0.323  51.347 -24.808  1.00  0.00     0.143 C 
HETATM   24  O3  UNL     1      -0.100  52.703 -24.373  1.00  0.00    -0.311 OA
HETATM   25  C5  UNL     1      -0.027  53.718 -25.278  1.00  0.00     0.292 C 
HETATM   26  C3  UNL     1       0.105  53.358 -26.717  1.00  0.00     0.042 C 
HETATM   27  O2  UNL     1      -0.113  54.884 -24.900  1.00  0.00    -0.260 OA
HETATM   28  C2  UNL     1       0.420  52.091 -27.060  1.00  0.00    -0.067 C 
HETATM   29  C1  UNL     1       0.607  51.598 -28.467  1.00  0.00     0.044 C 
HETATM   30  C28 UNL     1       0.622  51.067 -25.982  1.00  0.00     0.067 C 
BRANCH  26  31
HETATM   31  C4  UNL     1      -0.098  54.489 -27.680  1.00  0.00     0.209 C 
BRANCH  31  32
HETATM   32  O1  UNL     1      -0.036  55.728 -26.981  1.00  0.00    -0.396 OA
HETATM   33  H6  UNL     1      -0.435  56.396 -27.563  1.00  0.00     0.209 HD
ENDBRANCH  31  32
ENDBRANCH  26  31
ENDBRANCH  21  23
ENDBRANCH   1  21
BRANCH   1  34
HETATM   34  O4  UNL     1      -1.818  51.522 -22.659  1.00  0.00    -0.386 OA
HETATM   35  H12 UNL     1      -1.737  52.489 -22.747  1.00  0.00     0.210 HD
ENDBRANCH   1  34
BRANCH   2  36
HETATM   36  O5  UNL     1      -4.550  52.088 -25.038  1.00  0.00    -0.392 OA
HETATM   37  H14 UNL     1      -4.989  52.962 -25.082  1.00  0.00     0.210 HD
ENDBRANCH   2  36
BRANCH   9  38
HETATM   38  O6  UNL     1      -8.191  47.076 -17.825  1.00  0.00    -0.387 OA
HETATM   39  H23 UNL     1      -8.880  47.371 -18.445  1.00  0.00     0.210 HD
ENDBRANCH   9  38
TORSDOF 7
ENDMDL
MODEL 8
REMARK minimizedAffinity -9.63110352
REMARK  7 active torsions:
REMARK  status: ('A' for Active; 'I' for Inactive)
REMARK    1  A    between atoms: C3_3  and  C4_4 
REMARK    2  A    between atoms: C4_4  and  O1_5 
REMARK    3  A    between atoms: C6_9  and  C7_10 
REMARK    4  A    between atoms: C7_10  and  C9_12 
REMARK    5  A    between atoms: C9_12  and  O4_13 
REMARK    6  A    between atoms: C10_14  and  O5_15 
REMARK    7  A    between atoms: C17_22  and  O6_23 
ROOT
HETATM    1  C9  UNL     1      -3.679  50.032 -24.064  1.00  0.00     0.097 C 
HETATM    2  C10 UNL     1      -3.000  51.270 -24.781  1.00  0.00     0.154 C 
HETATM    3  C11 UNL     1      -2.034  51.914 -23.772  1.00  0.00     0.040 C 
HETATM    4  C12 UNL     1      -2.038  50.974 -22.577  1.00  0.00     0.004 C 
HETATM    5  C13 UNL     1      -1.542  51.534 -21.234  1.00  0.00    -0.001 C 
HETATM    6  C14 UNL     1      -0.121  52.089 -21.371  1.00  0.00     0.033 C 
HETATM    7  C15 UNL     1       0.496  52.425 -20.053  1.00  0.00    -0.019 C 
HETATM    8  C16 UNL     1       0.063  51.971 -18.860  1.00  0.00    -0.035 C 
HETATM    9  C17 UNL     1       0.718  52.366 -17.543  1.00  0.00     0.171 C 
HETATM   10  C18 UNL     1       1.036  51.174 -16.707  1.00  0.00     0.013 C 
HETATM   11  C19 UNL     1       0.477  49.969 -16.874  1.00  0.00     0.050 C 
HETATM   12  C20 UNL     1      -0.571  49.749 -17.906  1.00  0.00     0.162 C 
HETATM   13  O7  UNL     1      -1.025  48.609 -18.002  1.00  0.00    -0.292 OA
HETATM   14  C21 UNL     1      -1.097  50.957 -18.737  1.00  0.00     0.051 C 
HETATM   15  C22 UNL     1      -2.259  51.597 -17.948  1.00  0.00     0.029 C 
HETATM   16  C23 UNL     1      -1.575  50.420 -20.150  1.00  0.00     0.011 C 
HETATM   17  C24 UNL     1      -2.954  49.708 -20.132  1.00  0.00     0.007 C 
HETATM   18  C25 UNL     1      -3.436  49.250 -21.520  1.00  0.00     0.013 C 
HETATM   19  C26 UNL     1      -3.485  50.412 -22.538  1.00  0.00    -0.006 C 
HETATM   20  C27 UNL     1      -4.524  51.478 -22.093  1.00  0.00     0.019 C 
ENDROOT
BRANCH   1  21
HETATM   21  C7  UNL     1      -5.131  49.695 -24.584  1.00  0.00     0.049 C 
HETATM   22  C8  UNL     1      -6.221  50.219 -23.633  1.00  0.00     0.016 C 
BRANCH  21  23
HETATM   23  C6  UNL     1      -5.369  48.152 -24.785  1.00  0.00     0.143 C 
HETATM   24  O3  UNL     1      -5.728  47.831 -26.145  1.00  0.00    -0.311 OA
HETATM   25  C5  UNL     1      -7.016  47.952 -26.569  1.00  0.00     0.292 C 
HETATM   26  C3  UNL     1      -8.072  48.140 -25.536  1.00  0.00     0.042 C 
HETATM   27  O2  UNL     1      -7.270  47.947 -27.771  1.00  0.00    -0.260 OA
HETATM   28  C2  UNL     1      -7.782  47.915 -24.237  1.00  0.00    -0.067 C 
HETATM   29  C1  UNL     1      -8.754  48.043 -23.099  1.00  0.00     0.044 C 
HETATM   30  C28 UNL     1      -6.394  47.488 -23.858  1.00  0.00     0.067 C 
BRANCH  26  31
HETATM   31  C4  UNL     1      -9.418  48.543 -26.062  1.00  0.00     0.209 C 
BRANCH  31  32
HETATM   32  O1  UNL     1      -9.550  49.960 -25.997  1.00  0.00    -0.396 OA
HETATM   33  H6  UNL     1     -10.499  50.153 -26.080  1.00  0.00     0.209 HD
ENDBRANCH  31  32
ENDBRANCH  26  31
ENDBRANCH  21  23
ENDBRANCH   1  21
BRANCH   1  34
HETATM   34  O4  UNL     1      -2.859  48.868 -24.317  1.00  0.00    -0.386 OA
HETATM   35  H12 UNL     1      -2.639  48.854 -25.266  1.00  0.00     0.210 HD
ENDBRANCH   1  34
BRANCH   2  36
HETATM   36  O5  UNL     1      -3.937  52.265 -25.178  1.00  0.00    -0.392 OA
HETATM   37  H14 UNL     1      -3.548  52.722 -25.951  1.00  0.00     0.210 HD
ENDBRANCH   2  36
BRANCH   9  38
HETATM   38  O6  UNL     1       1.942  53.055 -17.747  1.00  0.00    -0.387 OA
HETATM   39  H23 UNL     1       1.704  53.924 -18.113  1.00  0.00     0.210 HD
ENDBRANCH   9  38
TORSDOF 7
ENDMDL
MODEL 9
REMARK minimizedAffinity -9.62616539
REMARK  7 active torsions:
REMARK  status: ('A' for Active; 'I' for Inactive)
REMARK    1  A    between atoms: C3_3  and  C4_4 
REMARK    2  A    between atoms: C4_4  and  O1_5 
REMARK    3  A    between atoms: C6_9  and  C7_10 
REMARK    4  A    between atoms: C7_10  and  C9_12 
REMARK    5  A    between atoms: C9_12  and  O4_13 
REMARK    6  A    between atoms: C10_14  and  O5_15 
REMARK    7  A    between atoms: C17_22  and  O6_23 
ROOT
HETATM    1  C9  UNL     1      -2.869  50.809 -23.924  1.00  0.00     0.097 C 
HETATM    2  C10 UNL     1      -3.303  50.384 -25.387  1.00  0.00     0.154 C 
HETATM    3  C11 UNL     1      -4.621  49.599 -25.268  1.00  0.00     0.040 C 
HETATM    4  C12 UNL     1      -5.011  49.717 -23.803  1.00  0.00     0.004 C 
HETATM    5  C13 UNL     1      -6.016  48.692 -23.253  1.00  0.00    -0.001 C 
HETATM    6  C14 UNL     1      -7.311  48.712 -24.072  1.00  0.00     0.033 C 
HETATM    7  C15 UNL     1      -8.404  47.914 -23.441  1.00  0.00    -0.019 C 
HETATM    8  C16 UNL     1      -8.430  47.524 -22.151  1.00  0.00    -0.035 C 
HETATM    9  C17 UNL     1      -9.562  46.690 -21.566  1.00  0.00     0.171 C 
HETATM   10  C18 UNL     1     -10.096  47.289 -20.311  1.00  0.00     0.013 C 
HETATM   11  C19 UNL     1      -9.438  48.189 -19.569  1.00  0.00     0.050 C 
HETATM   12  C20 UNL     1      -8.064  48.624 -19.936  1.00  0.00     0.162 C 
HETATM   13  O7  UNL     1      -7.535  49.463 -19.207  1.00  0.00    -0.292 OA
HETATM   14  C21 UNL     1      -7.341  47.952 -21.141  1.00  0.00     0.051 C 
HETATM   15  C22 UNL     1      -6.612  46.700 -20.610  1.00  0.00     0.029 C 
HETATM   16  C23 UNL     1      -6.327  49.000 -21.761  1.00  0.00     0.011 C 
HETATM   17  C24 UNL     1      -5.015  49.181 -20.951  1.00  0.00     0.007 C 
HETATM   18  C25 UNL     1      -4.013  50.152 -21.599  1.00  0.00     0.013 C 
HETATM   19  C26 UNL     1      -3.654  49.747 -23.048  1.00  0.00    -0.006 C 
HETATM   20  C27 UNL     1      -2.935  48.371 -23.063  1.00  0.00     0.019 C 
ENDROOT
BRANCH   1  21
HETATM   21  C7  UNL     1      -1.311  50.953 -23.724  1.00  0.00     0.049 C 
HETATM   22  C8  UNL     1      -0.870  50.553 -22.305  1.00  0.00     0.016 C 
BRANCH  21  23
HETATM   23  C6  UNL     1      -0.789  52.414 -23.996  1.00  0.00     0.143 C 
HETATM   24  O3  UNL     1      -1.568  53.090 -25.003  1.00  0.00    -0.311 OA
HETATM   25  C5  UNL     1      -1.312  52.894 -26.326  1.00  0.00     0.292 C 
HETATM   26  C3  UNL     1      -0.043  52.205 -26.692  1.00  0.00     0.042 C 
HETATM   27  O2  UNL     1      -2.134  53.244 -27.169  1.00  0.00    -0.260 OA
HETATM   28  C2  UNL     1       0.921  52.044 -25.761  1.00  0.00    -0.067 C 
HETATM   29  C1  UNL     1       2.252  51.391 -25.999  1.00  0.00     0.044 C 
HETATM   30  C28 UNL     1       0.691  52.557 -24.370  1.00  0.00     0.067 C 
BRANCH  26  31
HETATM   31  C4  UNL     1       0.057  51.770 -28.124  1.00  0.00     0.209 C 
BRANCH  31  32
HETATM   32  O1  UNL     1       0.030  52.913 -28.973  1.00  0.00    -0.396 OA
HETATM   33  H6  UNL     1      -0.178  52.591 -29.865  1.00  0.00     0.209 HD
ENDBRANCH  31  32
ENDBRANCH  26  31
ENDBRANCH  21  23
ENDBRANCH   1  21
BRANCH   1  34
HETATM   34  O4  UNL     1      -3.454  52.102 -23.646  1.00  0.00    -0.386 OA
HETATM   35  H12 UNL     1      -3.294  52.677 -24.416  1.00  0.00     0.210 HD
ENDBRANCH   1  34
BRANCH   2  36
HETATM   36  O5  UNL     1      -2.352  49.538 -26.025  1.00  0.00    -0.392 OA
HETATM   37  H14 UNL     1      -2.446  49.691 -26.988  1.00  0.00     0.210 HD
ENDBRANCH   2  36
BRANCH   9  38
HETATM   38  O6  UNL     1     -10.658  46.584 -22.462  1.00  0.00    -0.387 OA
HETATM   39  H23 UNL     1     -10.355  46.016 -23.191  1.00  0.00     0.210 HD
ENDBRANCH   9  38
TORSDOF 7
ENDMDL
