MODEL 1
REMARK minimizedAffinity -8.18660641
REMARK CNNscore 0.605108202
REMARK CNNaffinity 7.10547829
REMARK  8 active torsions:
REMARK  status: ('A' for Active; 'I' for Inactive)
REMARK    1  A    between atoms: C2_2  and  C30_34 
REMARK    2  A    between atoms: C3_3  and  C4_4 
REMARK    3  A    between atoms: C4_4  and  O1_5 
REMARK    4  A    between atoms: C4_4  and  C5_6 
REMARK    5  A    between atoms: C5_6  and  C6_7 
REMARK    6  A    between atoms: C6_7  and  C8_9 
REMARK    7  A    between atoms: C10_11  and  O2_12 
REMARK    8  A    between atoms: C30_34  and  O6_36 
ROOT
HETATM    1  C8  UNL     1      -8.648   7.053  14.714  1.00  0.00     0.001 C 
HETATM    2  C9  UNL     1      -9.152   5.818  13.912  1.00  0.00     0.038 C 
HETATM    3  C10 UNL     1      -7.899   5.060  13.424  1.00  0.00     0.131 C 
HETATM    4  C11 UNL     1      -6.751   5.597  14.319  1.00  0.00     0.014 C 
HETATM    5  C12 UNL     1      -6.800   4.860  15.695  1.00  0.00     0.023 C 
HETATM    6  C13 UNL     1      -5.309   5.459  13.840  1.00  0.00    -0.058 C 
HETATM    7  C14 UNL     1      -4.356   6.349  14.213  1.00  0.00    -0.000 C 
HETATM    8  C15 UNL     1      -4.754   7.434  15.202  1.00  0.00     0.157 C 
HETATM    9  O3  UNL     1      -3.901   7.996  15.887  1.00  0.00    -0.293 OA
HETATM   10  C16 UNL     1      -6.224   7.807  15.386  1.00  0.00     0.094 C 
HETATM   11  C17 UNL     1      -7.131   7.128  14.358  1.00  0.00    -0.019 C 
HETATM   12  C18 UNL     1      -6.933   7.850  12.992  1.00  0.00     0.017 C 
HETATM   13  C19 UNL     1      -2.884   6.279  13.743  1.00  0.00    -0.008 C 
HETATM   14  C20 UNL     1      -2.466   7.679  13.214  1.00  0.00     0.021 C 
HETATM   15  C21 UNL     1      -1.999   5.894  14.965  1.00  0.00     0.022 C 
HETATM   16  C22 UNL     1      -0.747   5.087  14.657  1.00  0.00     0.080 C 
HETATM   17  C23 UNL     1      -0.254   5.345  13.260  1.00  0.00     0.135 C 
HETATM   18  O4  UNL     1       0.887   5.760  13.058  1.00  0.00    -0.297 OA
HETATM   19  C24 UNL     1      -1.211   4.978  12.124  1.00  0.00     0.018 C 
HETATM   20  C25 UNL     1      -0.873   5.823  10.874  1.00  0.00     0.023 C 
HETATM   21  C26 UNL     1      -0.893   3.514  11.757  1.00  0.00     0.023 C 
HETATM   22  C27 UNL     1      -2.708   5.237  12.559  1.00  0.00     0.014 C 
HETATM   23  C28 UNL     1      -3.500   3.958  12.882  1.00  0.00     0.011 C 
HETATM   24  C29 UNL     1      -4.993   4.253  13.000  1.00  0.00     0.036 C 
ENDROOT
BRANCH   1  25
HETATM   25  C6  UNL     1      -9.607   8.279  14.643  1.00  0.00    -0.011 C 
HETATM   26  C7  UNL     1      -9.668   9.186  15.878  1.00  0.00     0.010 C 
BRANCH  25  27
HETATM   27  C5  UNL     1     -11.029   7.859  14.205  1.00  0.00     0.040 C 
BRANCH  27  28
HETATM   28  C4  UNL     1     -11.560   8.538  12.933  1.00  0.00     0.142 C 
BRANCH  28  29
HETATM   29  C3  UNL     1     -13.037   8.355  12.717  1.00  0.00     0.018 C 
HETATM   30  C2  UNL     1     -13.850   7.382  13.181  1.00  0.00     0.010 C 
HETATM   31  C1  UNL     1     -13.422   6.196  13.996  1.00  0.00     0.055 C 
BRANCH  30  32
HETATM   32  C30 UNL     1     -15.306   7.404  12.874  1.00  0.00     0.171 C 
HETATM   33  O5  UNL     1     -16.182   7.773  13.636  1.00  0.00    -0.646 OA
BRANCH  32  34
HETATM   34  O6  UNL     1     -15.612   6.965  11.642  1.00  0.00    -0.773 OA
HETATM   35  H44 UNL     1     -16.588   7.045  11.612  1.00  0.00     0.167 HD
ENDBRANCH  32  34
ENDBRANCH  30  32
ENDBRANCH  28  29
BRANCH  28  36
HETATM   36  O1  UNL     1     -11.241   9.924  12.996  1.00  0.00    -0.392 OA
HETATM   37  H6  UNL     1     -11.629  10.344  12.209  1.00  0.00     0.210 HD
ENDBRANCH  28  36
ENDBRANCH  27  28
ENDBRANCH  25  27
ENDBRANCH   1  25
BRANCH   3  38
HETATM   38  O2  UNL     1      -8.094   3.658  13.529  1.00  0.00    -0.394 OA
HETATM   39  H17 UNL     1      -8.892   3.432  13.019  1.00  0.00     0.210 HD
ENDBRANCH   3  38
TORSDOF 8
ENDMDL
MODEL 2
REMARK minimizedAffinity -8.3097868
REMARK CNNscore 0.585019112
REMARK CNNaffinity 6.4857688
REMARK  8 active torsions:
REMARK  status: ('A' for Active; 'I' for Inactive)
REMARK    1  A    between atoms: C2_2  and  C30_34 
REMARK    2  A    between atoms: C3_3  and  C4_4 
REMARK    3  A    between atoms: C4_4  and  O1_5 
REMARK    4  A    between atoms: C4_4  and  C5_6 
REMARK    5  A    between atoms: C5_6  and  C6_7 
REMARK    6  A    between atoms: C6_7  and  C8_9 
REMARK    7  A    between atoms: C10_11  and  O2_12 
REMARK    8  A    between atoms: C30_34  and  O6_36 
ROOT
HETATM    1  C8  UNL     1       6.861  10.173  15.333  1.00  0.00     0.001 C 
HETATM    2  C9  UNL     1       5.604  10.379  16.226  1.00  0.00     0.038 C 
HETATM    3  C10 UNL     1       4.417   9.731  15.485  1.00  0.00     0.131 C 
HETATM    4  C11 UNL     1       5.079   8.793  14.441  1.00  0.00     0.014 C 
HETATM    5  C12 UNL     1       5.503   7.469  15.153  1.00  0.00     0.023 C 
HETATM    6  C13 UNL     1       4.276   8.354  13.220  1.00  0.00    -0.058 C 
HETATM    7  C14 UNL     1       4.887   8.061  12.045  1.00  0.00    -0.000 C 
HETATM    8  C15 UNL     1       6.407   8.092  12.015  1.00  0.00     0.157 C 
HETATM    9  O3  UNL     1       7.026   7.462  11.159  1.00  0.00    -0.293 OA
HETATM   10  C16 UNL     1       7.183   8.872  13.074  1.00  0.00     0.094 C 
HETATM   11  C17 UNL     1       6.268   9.715  13.964  1.00  0.00    -0.019 C 
HETATM   12  C18 UNL     1       5.801  10.951  13.139  1.00  0.00     0.017 C 
HETATM   13  C19 UNL     1       4.129   7.634  10.767  1.00  0.00    -0.008 C 
HETATM   14  C20 UNL     1       4.632   8.501   9.580  1.00  0.00     0.021 C 
HETATM   15  C21 UNL     1       4.442   6.134  10.491  1.00  0.00     0.022 C 
HETATM   16  C22 UNL     1       3.341   5.334   9.812  1.00  0.00     0.080 C 
HETATM   17  C23 UNL     1       2.452   6.215   8.978  1.00  0.00     0.135 C 
HETATM   18  O4  UNL     1       2.298   6.002   7.776  1.00  0.00    -0.297 OA
HETATM   19  C24 UNL     1       1.695   7.315   9.724  1.00  0.00     0.018 C 
HETATM   20  C25 UNL     1       1.353   8.460   8.743  1.00  0.00     0.023 C 
HETATM   21  C26 UNL     1       0.349   6.691  10.149  1.00  0.00     0.023 C 
HETATM   22  C27 UNL     1       2.567   7.873  10.918  1.00  0.00     0.014 C 
HETATM   23  C28 UNL     1       2.110   7.397  12.308  1.00  0.00     0.011 C 
HETATM   24  C29 UNL     1       2.793   8.197  13.413  1.00  0.00     0.036 C 
ENDROOT
BRANCH   1  25
HETATM   25  C6  UNL     1       7.921  11.308  15.471  1.00  0.00    -0.011 C 
HETATM   26  C7  UNL     1       9.150  11.225  14.558  1.00  0.00     0.010 C 
BRANCH  25  27
HETATM   27  C5  UNL     1       8.348  11.504  16.944  1.00  0.00     0.040 C 
BRANCH  27  28
HETATM   28  C4  UNL     1       9.520  10.630  17.417  1.00  0.00     0.142 C 
BRANCH  28  29
HETATM   29  C3  UNL     1      10.153  11.102  18.698  1.00  0.00     0.018 C 
HETATM   30  C2  UNL     1      11.418  11.521  18.918  1.00  0.00     0.010 C 
HETATM   31  C1  UNL     1      12.522  11.548  17.901  1.00  0.00     0.055 C 
BRANCH  30  32
HETATM   32  C30 UNL     1      11.836  11.983  20.268  1.00  0.00     0.171 C 
HETATM   33  O5  UNL     1      11.085  12.207  21.201  1.00  0.00    -0.646 OA
BRANCH  32  34
HETATM   34  O6  UNL     1      13.162  12.151  20.404  1.00  0.00    -0.773 OA
HETATM   35  H44 UNL     1      13.256  12.451  21.331  1.00  0.00     0.167 HD
ENDBRANCH  32  34
ENDBRANCH  30  32
ENDBRANCH  28  29
BRANCH  28  36
HETATM   36  O1  UNL     1       9.054   9.293  17.563  1.00  0.00    -0.392 OA
HETATM   37  H6  UNL     1       9.795   8.768  17.912  1.00  0.00     0.210 HD
ENDBRANCH  28  36
ENDBRANCH  27  28
ENDBRANCH  25  27
ENDBRANCH   1  25
BRANCH   3  38
HETATM   38  O2  UNL     1       3.568   9.055  16.399  1.00  0.00    -0.394 OA
HETATM   39  H17 UNL     1       3.284   9.699  17.071  1.00  0.00     0.210 HD
ENDBRANCH   3  38
TORSDOF 8
ENDMDL
MODEL 3
REMARK minimizedAffinity -8.28454494
REMARK CNNscore 0.571231127
REMARK CNNaffinity 7.19945908
REMARK  8 active torsions:
REMARK  status: ('A' for Active; 'I' for Inactive)
REMARK    1  A    between atoms: C2_2  and  C30_34 
REMARK    2  A    between atoms: C3_3  and  C4_4 
REMARK    3  A    between atoms: C4_4  and  O1_5 
REMARK    4  A    between atoms: C4_4  and  C5_6 
REMARK    5  A    between atoms: C5_6  and  C6_7 
REMARK    6  A    between atoms: C6_7  and  C8_9 
REMARK    7  A    between atoms: C10_11  and  O2_12 
REMARK    8  A    between atoms: C30_34  and  O6_36 
ROOT
HETATM    1  C8  UNL     1      -5.350   5.762  14.617  1.00  0.00     0.001 C 
HETATM    2  C9  UNL     1      -5.283   6.490  15.990  1.00  0.00     0.038 C 
HETATM    3  C10 UNL     1      -6.667   7.128  16.226  1.00  0.00     0.131 C 
HETATM    4  C11 UNL     1      -7.607   6.386  15.239  1.00  0.00     0.014 C 
HETATM    5  C12 UNL     1      -8.009   5.012  15.864  1.00  0.00     0.023 C 
HETATM    6  C13 UNL     1      -8.923   7.042  14.829  1.00  0.00    -0.058 C 
HETATM    7  C14 UNL     1      -9.486   6.794  13.620  1.00  0.00    -0.000 C 
HETATM    8  C15 UNL     1      -8.809   5.767  12.726  1.00  0.00     0.157 C 
HETATM    9  O3  UNL     1      -9.445   5.196  11.841  1.00  0.00    -0.293 OA
HETATM   10  C16 UNL     1      -7.342   5.402  12.945  1.00  0.00     0.094 C 
HETATM   11  C17 UNL     1      -6.664   6.305  13.976  1.00  0.00    -0.019 C 
HETATM   12  C18 UNL     1      -6.405   7.688  13.306  1.00  0.00     0.017 C 
HETATM   13  C19 UNL     1     -10.803   7.445  13.137  1.00  0.00    -0.008 C 
HETATM   14  C20 UNL     1     -10.575   8.027  11.715  1.00  0.00     0.021 C 
HETATM   15  C21 UNL     1     -11.901   6.343  13.084  1.00  0.00     0.022 C 
HETATM   16  C22 UNL     1     -13.325   6.803  13.355  1.00  0.00     0.080 C 
HETATM   17  C23 UNL     1     -13.515   8.251  12.999  1.00  0.00     0.135 C 
HETATM   18  O4  UNL     1     -14.370   8.596  12.184  1.00  0.00    -0.297 OA
HETATM   19  C24 UNL     1     -12.656   9.257  13.768  1.00  0.00     0.018 C 
HETATM   20  C25 UNL     1     -12.490  10.542  12.924  1.00  0.00     0.023 C 
HETATM   21  C26 UNL     1     -13.478   9.656  15.010  1.00  0.00     0.023 C 
HETATM   22  C27 UNL     1     -11.237   8.639  14.089  1.00  0.00     0.014 C 
HETATM   23  C28 UNL     1     -11.053   8.214  15.557  1.00  0.00     0.011 C 
HETATM   24  C29 UNL     1      -9.589   7.911  15.860  1.00  0.00     0.036 C 
ENDROOT
BRANCH   1  25
HETATM   25  C6  UNL     1      -3.985   5.716  13.866  1.00  0.00    -0.011 C 
HETATM   26  C7  UNL     1      -3.709   6.837  12.856  1.00  0.00     0.010 C 
BRANCH  25  27
HETATM   27  C5  UNL     1      -3.742   4.331  13.222  1.00  0.00     0.040 C 
BRANCH  27  28
HETATM   28  C4  UNL     1      -3.418   4.345  11.719  1.00  0.00     0.142 C 
BRANCH  28  29
HETATM   29  C3  UNL     1      -2.268   3.455  11.336  1.00  0.00     0.018 C 
HETATM   30  C2  UNL     1      -2.218   2.106  11.284  1.00  0.00     0.010 C 
HETATM   31  C1  UNL     1      -3.327   1.171  11.670  1.00  0.00     0.055 C 
BRANCH  30  32
HETATM   32  C30 UNL     1      -0.977   1.414  10.843  1.00  0.00     0.171 C 
HETATM   33  O5  UNL     1      -0.925   0.292  10.370  1.00  0.00    -0.646 OA
BRANCH  32  34
HETATM   34  O6  UNL     1       0.143   2.137  11.011  1.00  0.00    -0.773 OA
HETATM   35  H44 UNL     1       0.845   1.542  10.677  1.00  0.00     0.167 HD
ENDBRANCH  32  34
ENDBRANCH  30  32
ENDBRANCH  28  29
BRANCH  28  36
HETATM   36  O1  UNL     1      -4.590   3.970  11.003  1.00  0.00    -0.392 OA
HETATM   37  H6  UNL     1      -4.351   3.935  10.061  1.00  0.00     0.210 HD
ENDBRANCH  28  36
ENDBRANCH  27  28
ENDBRANCH  25  27
ENDBRANCH   1  25
BRANCH   3  38
HETATM   38  O2  UNL     1      -7.052   6.995  17.586  1.00  0.00    -0.394 OA
HETATM   39  H17 UNL     1      -6.355   7.400  18.131  1.00  0.00     0.210 HD
ENDBRANCH   3  38
TORSDOF 8
ENDMDL
MODEL 4
REMARK minimizedAffinity -8.46752357
REMARK CNNscore 0.481436282
REMARK CNNaffinity 6.85122681
REMARK  8 active torsions:
REMARK  status: ('A' for Active; 'I' for Inactive)
REMARK    1  A    between atoms: C2_2  and  C30_34 
REMARK    2  A    between atoms: C3_3  and  C4_4 
REMARK    3  A    between atoms: C4_4  and  O1_5 
REMARK    4  A    between atoms: C4_4  and  C5_6 
REMARK    5  A    between atoms: C5_6  and  C6_7 
REMARK    6  A    between atoms: C6_7  and  C8_9 
REMARK    7  A    between atoms: C10_11  and  O2_12 
REMARK    8  A    between atoms: C30_34  and  O6_36 
ROOT
HETATM    1  C8  UNL     1      -0.576   8.245  14.207  1.00  0.00     0.001 C 
HETATM    2  C9  UNL     1      -1.210   9.631  14.521  1.00  0.00     0.038 C 
HETATM    3  C10 UNL     1      -2.740   9.432  14.526  1.00  0.00     0.131 C 
HETATM    4  C11 UNL     1      -2.929   7.899  14.672  1.00  0.00     0.014 C 
HETATM    5  C12 UNL     1      -2.761   7.513  16.177  1.00  0.00     0.023 C 
HETATM    6  C13 UNL     1      -4.250   7.268  14.240  1.00  0.00    -0.058 C 
HETATM    7  C14 UNL     1      -4.305   5.989  13.793  1.00  0.00    -0.000 C 
HETATM    8  C15 UNL     1      -3.021   5.175  13.826  1.00  0.00     0.157 C 
HETATM    9  O3  UNL     1      -3.063   3.946  13.839  1.00  0.00    -0.293 OA
HETATM   10  C16 UNL     1      -1.666   5.876  13.887  1.00  0.00     0.094 C 
HETATM   11  C17 UNL     1      -1.785   7.392  13.712  1.00  0.00    -0.019 C 
HETATM   12  C18 UNL     1      -2.066   7.679  12.207  1.00  0.00     0.017 C 
HETATM   13  C19 UNL     1      -5.607   5.301  13.319  1.00  0.00    -0.008 C 
HETATM   14  C20 UNL     1      -5.343   4.642  11.936  1.00  0.00     0.021 C 
HETATM   15  C21 UNL     1      -5.987   4.206  14.358  1.00  0.00     0.022 C 
HETATM   16  C22 UNL     1      -7.473   3.930  14.526  1.00  0.00     0.080 C 
HETATM   17  C23 UNL     1      -8.241   4.261  13.277  1.00  0.00     0.135 C 
HETATM   18  O4  UNL     1      -8.925   3.409  12.710  1.00  0.00    -0.297 OA
HETATM   19  C24 UNL     1      -8.192   5.719  12.817  1.00  0.00     0.018 C 
HETATM   20  C25 UNL     1      -8.462   5.788  11.296  1.00  0.00     0.023 C 
HETATM   21  C26 UNL     1      -9.384   6.420  13.501  1.00  0.00     0.023 C 
HETATM   22  C27 UNL     1      -6.781   6.353  13.141  1.00  0.00     0.014 C 
HETATM   23  C28 UNL     1      -6.786   7.320  14.339  1.00  0.00     0.011 C 
HETATM   24  C29 UNL     1      -5.483   8.112  14.407  1.00  0.00     0.036 C 
ENDROOT
BRANCH   1  25
HETATM   25  C6  UNL     1       0.780   8.335  13.444  1.00  0.00    -0.011 C 
HETATM   26  C7  UNL     1       1.433   9.719  13.348  1.00  0.00     0.010 C 
BRANCH  25  27
HETATM   27  C5  UNL     1       0.685   7.680  12.047  1.00  0.00     0.040 C 
BRANCH  27  28
HETATM   28  C4  UNL     1       1.500   6.391  11.861  1.00  0.00     0.142 C 
BRANCH  28  29
HETATM   29  C3  UNL     1       1.738   6.023  10.421  1.00  0.00     0.018 C 
HETATM   30  C2  UNL     1       2.590   6.577   9.532  1.00  0.00     0.010 C 
HETATM   31  C1  UNL     1       3.474   7.763   9.786  1.00  0.00     0.055 C 
BRANCH  30  32
HETATM   32  C30 UNL     1       2.695   6.036   8.150  1.00  0.00     0.171 C 
HETATM   33  O5  UNL     1       3.253   4.998   7.840  1.00  0.00    -0.646 OA
BRANCH  32  34
HETATM   34  O6  UNL     1       2.112   6.804   7.215  1.00  0.00    -0.773 OA
HETATM   35  H44 UNL     1       2.275   6.309   6.386  1.00  0.00     0.167 HD
ENDBRANCH  32  34
ENDBRANCH  30  32
ENDBRANCH  28  29
BRANCH  28  36
HETATM   36  O1  UNL     1       2.742   6.542  12.541  1.00  0.00    -0.392 OA
HETATM   37  H6  UNL     1       3.262   5.738  12.368  1.00  0.00     0.210 HD
ENDBRANCH  28  36
ENDBRANCH  27  28
ENDBRANCH  25  27
ENDBRANCH   1  25
BRANCH   3  38
HETATM   38  O2  UNL     1      -3.336  10.181  15.574  1.00  0.00    -0.394 OA
HETATM   39  H17 UNL     1      -3.079  11.112  15.455  1.00  0.00     0.210 HD
ENDBRANCH   3  38
TORSDOF 8
ENDMDL
MODEL 5
REMARK minimizedAffinity -8.53354263
REMARK CNNscore 0.397680849
REMARK CNNaffinity 6.97265053
REMARK  8 active torsions:
REMARK  status: ('A' for Active; 'I' for Inactive)
REMARK    1  A    between atoms: C2_2  and  C30_34 
REMARK    2  A    between atoms: C3_3  and  C4_4 
REMARK    3  A    between atoms: C4_4  and  O1_5 
REMARK    4  A    between atoms: C4_4  and  C5_6 
REMARK    5  A    between atoms: C5_6  and  C6_7 
REMARK    6  A    between atoms: C6_7  and  C8_9 
REMARK    7  A    between atoms: C10_11  and  O2_12 
REMARK    8  A    between atoms: C30_34  and  O6_36 
ROOT
HETATM    1  C8  UNL     1      -5.804   5.914  14.692  1.00  0.00     0.001 C 
HETATM    2  C9  UNL     1      -6.070   4.762  13.680  1.00  0.00     0.038 C 
HETATM    3  C10 UNL     1      -4.802   4.629  12.811  1.00  0.00     0.131 C 
HETATM    4  C11 UNL     1      -3.701   5.365  13.620  1.00  0.00     0.014 C 
HETATM    5  C12 UNL     1      -3.173   4.409  14.737  1.00  0.00     0.023 C 
HETATM    6  C13 UNL     1      -2.454   5.864  12.895  1.00  0.00    -0.058 C 
HETATM    7  C14 UNL     1      -1.773   6.952  13.335  1.00  0.00    -0.000 C 
HETATM    8  C15 UNL     1      -2.240   7.599  14.629  1.00  0.00     0.157 C 
HETATM    9  O3  UNL     1      -1.470   8.290  15.294  1.00  0.00    -0.293 OA
HETATM   10  C16 UNL     1      -3.659   7.362  15.141  1.00  0.00     0.094 C 
HETATM   11  C17 UNL     1      -4.526   6.610  14.129  1.00  0.00    -0.019 C 
HETATM   12  C18 UNL     1      -4.910   7.606  12.994  1.00  0.00     0.017 C 
HETATM   13  C19 UNL     1      -0.518   7.521  12.632  1.00  0.00    -0.008 C 
HETATM   14  C20 UNL     1      -0.710   9.050  12.439  1.00  0.00     0.021 C 
HETATM   15  C21 UNL     1       0.714   7.258  13.546  1.00  0.00     0.022 C 
HETATM   16  C22 UNL     1       2.042   7.045  12.835  1.00  0.00     0.080 C 
HETATM   17  C23 UNL     1       2.069   7.734  11.498  1.00  0.00     0.135 C 
HETATM   18  O4  UNL     1       2.932   8.570  11.234  1.00  0.00    -0.297 OA
HETATM   19  C24 UNL     1       1.030   7.269  10.476  1.00  0.00     0.018 C 
HETATM   20  C25 UNL     1       0.764   8.405   9.461  1.00  0.00     0.023 C 
HETATM   21  C26 UNL     1       1.697   6.126   9.682  1.00  0.00     0.023 C 
HETATM   22  C27 UNL     1      -0.317   6.869  11.200  1.00  0.00     0.014 C 
HETATM   23  C28 UNL     1      -0.555   5.351  11.291  1.00  0.00     0.011 C 
HETATM   24  C29 UNL     1      -1.987   5.047  11.722  1.00  0.00     0.036 C 
ENDROOT
BRANCH   1  25
HETATM   25  C6  UNL     1      -7.090   6.690  15.108  1.00  0.00    -0.011 C 
HETATM   26  C7  UNL     1      -7.357   6.836  16.611  1.00  0.00     0.010 C 
BRANCH  25  27
HETATM   27  C5  UNL     1      -8.340   6.140  14.384  1.00  0.00     0.040 C 
BRANCH  27  28
HETATM   28  C4  UNL     1      -9.363   7.195  13.932  1.00  0.00     0.142 C 
BRANCH  28  29
HETATM   29  C3  UNL     1     -10.790   6.723  13.994  1.00  0.00     0.018 C 
HETATM   30  C2  UNL     1     -11.867   7.340  14.528  1.00  0.00     0.010 C 
HETATM   31  C1  UNL     1     -11.855   8.653  15.255  1.00  0.00     0.055 C 
BRANCH  30  32
HETATM   32  C30 UNL     1     -13.212   6.708  14.455  1.00  0.00     0.171 C 
HETATM   33  O5  UNL     1     -14.272   7.307  14.422  1.00  0.00    -0.646 OA
BRANCH  32  34
HETATM   34  O6  UNL     1     -13.185   5.365  14.430  1.00  0.00    -0.773 OA
HETATM   35  H44 UNL     1     -14.133   5.123  14.383  1.00  0.00     0.167 HD
ENDBRANCH  32  34
ENDBRANCH  30  32
ENDBRANCH  28  29
BRANCH  28  36
HETATM   36  O1  UNL     1      -9.194   8.358  14.735  1.00  0.00    -0.392 OA
HETATM   37  H6  UNL     1      -9.883   8.992  14.469  1.00  0.00     0.210 HD
ENDBRANCH  28  36
ENDBRANCH  27  28
ENDBRANCH  25  27
ENDBRANCH   1  25
BRANCH   3  38
HETATM   38  O2  UNL     1      -4.508   3.262  12.566  1.00  0.00    -0.394 OA
HETATM   39  H17 UNL     1      -5.292   2.862  12.150  1.00  0.00     0.210 HD
ENDBRANCH   3  38
TORSDOF 8
ENDMDL
MODEL 6
REMARK minimizedAffinity -7.86941814
REMARK CNNscore 0.37870869
REMARK CNNaffinity 6.24012184
REMARK  8 active torsions:
REMARK  status: ('A' for Active; 'I' for Inactive)
REMARK    1  A    between atoms: C2_2  and  C30_34 
REMARK    2  A    between atoms: C3_3  and  C4_4 
REMARK    3  A    between atoms: C4_4  and  O1_5 
REMARK    4  A    between atoms: C4_4  and  C5_6 
REMARK    5  A    between atoms: C5_6  and  C6_7 
REMARK    6  A    between atoms: C6_7  and  C8_9 
REMARK    7  A    between atoms: C10_11  and  O2_12 
REMARK    8  A    between atoms: C30_34  and  O6_36 
ROOT
HETATM    1  C8  UNL     1      -3.399   9.366  15.047  1.00  0.00     0.001 C 
HETATM    2  C9  UNL     1      -4.374   9.663  16.223  1.00  0.00     0.038 C 
HETATM    3  C10 UNL     1      -3.536  10.304  17.348  1.00  0.00     0.131 C 
HETATM    4  C11 UNL     1      -2.236  10.772  16.642  1.00  0.00     0.014 C 
HETATM    5  C12 UNL     1      -2.515  12.130  15.923  1.00  0.00     0.023 C 
HETATM    6  C13 UNL     1      -0.981  11.009  17.477  1.00  0.00    -0.058 C 
HETATM    7  C14 UNL     1       0.257  10.844  16.947  1.00  0.00    -0.000 C 
HETATM    8  C15 UNL     1       0.351  10.507  15.467  1.00  0.00     0.157 C 
HETATM    9  O3  UNL     1       1.381  10.745  14.838  1.00  0.00    -0.293 OA
HETATM   10  C16 UNL     1      -0.849   9.909  14.736  1.00  0.00     0.094 C 
HETATM   11  C17 UNL     1      -1.988   9.540  15.688  1.00  0.00    -0.019 C 
HETATM   12  C18 UNL     1      -1.576   8.242  16.446  1.00  0.00     0.017 C 
HETATM   13  C19 UNL     1       1.566  11.046  17.746  1.00  0.00    -0.008 C 
HETATM   14  C20 UNL     1       2.476   9.806  17.526  1.00  0.00     0.021 C 
HETATM   15  C21 UNL     1       2.277  12.321  17.205  1.00  0.00     0.022 C 
HETATM   16  C22 UNL     1       3.103  13.106  18.213  1.00  0.00     0.080 C 
HETATM   17  C23 UNL     1       3.605  12.223  19.322  1.00  0.00     0.135 C 
HETATM   18  O4  UNL     1       4.808  12.125  19.559  1.00  0.00    -0.297 OA
HETATM   19  C24 UNL     1       2.537  11.540  20.180  1.00  0.00     0.018 C 
HETATM   20  C25 UNL     1       3.129  10.261  20.816  1.00  0.00     0.023 C 
HETATM   21  C26 UNL     1       2.246  12.508  21.345  1.00  0.00     0.023 C 
HETATM   22  C27 UNL     1       1.277  11.169  19.302  1.00  0.00     0.014 C 
HETATM   23  C28 UNL     1       0.062  12.088  19.524  1.00  0.00     0.011 C 
HETATM   24  C29 UNL     1      -1.192  11.502  18.881  1.00  0.00     0.036 C 
ENDROOT
BRANCH   1  25
HETATM   25  C6  UNL     1      -3.807   8.127  14.194  1.00  0.00    -0.011 C 
HETATM   26  C7  UNL     1      -4.730   8.381  12.996  1.00  0.00     0.010 C 
BRANCH  25  27
HETATM   27  C5  UNL     1      -4.366   6.991  15.081  1.00  0.00     0.040 C 
BRANCH  27  28
HETATM   28  C4  UNL     1      -5.875   6.730  14.953  1.00  0.00     0.142 C 
BRANCH  28  29
HETATM   29  C3  UNL     1      -6.212   5.431  14.273  1.00  0.00     0.018 C 
HETATM   30  C2  UNL     1      -7.302   5.112  13.542  1.00  0.00     0.010 C 
HETATM   31  C1  UNL     1      -8.483   6.004  13.292  1.00  0.00     0.055 C 
BRANCH  30  32
HETATM   32  C30 UNL     1      -7.427   3.765  12.923  1.00  0.00     0.171 C 
HETATM   33  O5  UNL     1      -6.558   3.199  12.284  1.00  0.00    -0.646 OA
BRANCH  32  34
HETATM   34  O6  UNL     1      -8.621   3.182  13.117  1.00  0.00    -0.773 OA
HETATM   35  H44 UNL     1      -8.530   2.325  12.652  1.00  0.00     0.167 HD
ENDBRANCH  32  34
ENDBRANCH  30  32
ENDBRANCH  28  29
BRANCH  28  36
HETATM   36  O1  UNL     1      -6.450   6.767  16.255  1.00  0.00    -0.392 OA
HETATM   37  H6  UNL     1      -7.393   6.549  16.158  1.00  0.00     0.210 HD
ENDBRANCH  28  36
ENDBRANCH  27  28
ENDBRANCH  25  27
ENDBRANCH   1  25
BRANCH   3  38
HETATM   38  O2  UNL     1      -4.257  11.358  17.967  1.00  0.00    -0.394 OA
HETATM   39  H17 UNL     1      -5.099  10.991  18.289  1.00  0.00     0.210 HD
ENDBRANCH   3  38
TORSDOF 8
ENDMDL
MODEL 7
REMARK minimizedAffinity -7.65404367
REMARK CNNscore 0.37767604
REMARK CNNaffinity 6.49988031
REMARK  8 active torsions:
REMARK  status: ('A' for Active; 'I' for Inactive)
REMARK    1  A    between atoms: C2_2  and  C30_34 
REMARK    2  A    between atoms: C3_3  and  C4_4 
REMARK    3  A    between atoms: C4_4  and  O1_5 
REMARK    4  A    between atoms: C4_4  and  C5_6 
REMARK    5  A    between atoms: C5_6  and  C6_7 
REMARK    6  A    between atoms: C6_7  and  C8_9 
REMARK    7  A    between atoms: C10_11  and  O2_12 
REMARK    8  A    between atoms: C30_34  and  O6_36 
ROOT
HETATM    1  C8  UNL     1      -9.319   7.452  14.127  1.00  0.00     0.001 C 
HETATM    2  C9  UNL     1     -10.601   6.582  13.988  1.00  0.00     0.038 C 
HETATM    3  C10 UNL     1     -11.740   7.347  14.693  1.00  0.00     0.131 C 
HETATM    4  C11 UNL     1     -11.213   8.801  14.810  1.00  0.00     0.014 C 
HETATM    5  C12 UNL     1     -11.423   9.524  13.441  1.00  0.00     0.023 C 
HETATM    6  C13 UNL     1     -11.824   9.732  15.853  1.00  0.00    -0.058 C 
HETATM    7  C14 UNL     1     -11.101  10.736  16.410  1.00  0.00    -0.000 C 
HETATM    8  C15 UNL     1      -9.690  10.960  15.888  1.00  0.00     0.157 C 
HETATM    9  O3  UNL     1      -9.142  12.053  16.025  1.00  0.00    -0.293 OA
HETATM   10  C16 UNL     1      -8.954   9.844  15.150  1.00  0.00     0.094 C 
HETATM   11  C17 UNL     1      -9.711   8.515  15.200  1.00  0.00    -0.019 C 
HETATM   12  C18 UNL     1      -9.545   7.922  16.631  1.00  0.00     0.017 C 
HETATM   13  C19 UNL     1     -11.654  11.696  17.488  1.00  0.00    -0.008 C 
HETATM   14  C20 UNL     1     -10.641  11.756  18.665  1.00  0.00     0.021 C 
HETATM   15  C21 UNL     1     -11.804  13.109  16.853  1.00  0.00     0.022 C 
HETATM   16  C22 UNL     1     -12.928  13.975  17.401  1.00  0.00     0.080 C 
HETATM   17  C23 UNL     1     -13.265  13.608  18.820  1.00  0.00     0.135 C 
HETATM   18  O4  UNL     1     -13.210  14.445  19.720  1.00  0.00    -0.297 OA
HETATM   19  C24 UNL     1     -13.760  12.179  19.052  1.00  0.00     0.018 C 
HETATM   20  C25 UNL     1     -13.475  11.767  20.515  1.00  0.00     0.023 C 
HETATM   21  C26 UNL     1     -15.295  12.231  18.908  1.00  0.00     0.023 C 
HETATM   22  C27 UNL     1     -13.039  11.178  18.063  1.00  0.00     0.014 C 
HETATM   23  C28 UNL     1     -13.926  10.694  16.901  1.00  0.00     0.011 C 
HETATM   24  C29 UNL     1     -13.278   9.521  16.171  1.00  0.00     0.036 C 
ENDROOT
BRANCH   1  25
HETATM   25  C6  UNL     1      -8.001   6.622  14.185  1.00  0.00    -0.011 C 
HETATM   26  C7  UNL     1      -6.693   7.404  14.356  1.00  0.00     0.010 C 
BRANCH  25  27
HETATM   27  C5  UNL     1      -7.898   5.644  12.992  1.00  0.00     0.040 C 
BRANCH  27  28
HETATM   28  C4  UNL     1      -8.024   4.153  13.343  1.00  0.00     0.142 C 
BRANCH  28  29
HETATM   29  C3  UNL     1      -7.169   3.253  12.493  1.00  0.00     0.018 C 
HETATM   30  C2  UNL     1      -5.835   3.294  12.287  1.00  0.00     0.010 C 
HETATM   31  C1  UNL     1      -4.894   4.326  12.837  1.00  0.00     0.055 C 
BRANCH  30  32
HETATM   32  C30 UNL     1      -5.173   2.279  11.425  1.00  0.00     0.171 C 
HETATM   33  O5  UNL     1      -5.515   1.114  11.318  1.00  0.00    -0.646 OA
BRANCH  32  34
HETATM   34  O6  UNL     1      -4.118   2.747  10.738  1.00  0.00    -0.773 OA
HETATM   35  H44 UNL     1      -3.811   1.963  10.238  1.00  0.00     0.167 HD
ENDBRANCH  32  34
ENDBRANCH  30  32
ENDBRANCH  28  29
BRANCH  28  36
HETATM   36  O1  UNL     1      -7.698   3.985  14.719  1.00  0.00    -0.392 OA
HETATM   37  H6  UNL     1      -7.733   3.032  14.907  1.00  0.00     0.210 HD
ENDBRANCH  28  36
ENDBRANCH  27  28
ENDBRANCH  25  27
ENDBRANCH   1  25
BRANCH   3  38
HETATM   38  O2  UNL     1     -12.946   7.237  13.952  1.00  0.00    -0.394 OA
HETATM   39  H17 UNL     1     -13.141   6.290  13.844  1.00  0.00     0.210 HD
ENDBRANCH   3  38
TORSDOF 8
ENDMDL
MODEL 8
REMARK minimizedAffinity -9.36989498
REMARK CNNscore 0.376023918
REMARK CNNaffinity 6.73508787
REMARK  8 active torsions:
REMARK  status: ('A' for Active; 'I' for Inactive)
REMARK    1  A    between atoms: C2_2  and  C30_34 
REMARK    2  A    between atoms: C3_3  and  C4_4 
REMARK    3  A    between atoms: C4_4  and  O1_5 
REMARK    4  A    between atoms: C4_4  and  C5_6 
REMARK    5  A    between atoms: C5_6  and  C6_7 
REMARK    6  A    between atoms: C6_7  and  C8_9 
REMARK    7  A    between atoms: C10_11  and  O2_12 
REMARK    8  A    between atoms: C30_34  and  O6_36 
ROOT
HETATM    1  C8  UNL     1      -1.982   7.271  13.453  1.00  0.00     0.001 C 
HETATM    2  C9  UNL     1      -1.647   7.001  14.948  1.00  0.00     0.038 C 
HETATM    3  C10 UNL     1      -0.118   7.146  15.097  1.00  0.00     0.131 C 
HETATM    4  C11 UNL     1       0.321   7.926  13.829  1.00  0.00     0.014 C 
HETATM    5  C12 UNL     1       0.042   9.447  14.054  1.00  0.00     0.023 C 
HETATM    6  C13 UNL     1       1.775   7.847  13.374  1.00  0.00    -0.058 C 
HETATM    7  C14 UNL     1       2.110   7.978  12.066  1.00  0.00    -0.000 C 
HETATM    8  C15 UNL     1       0.996   8.301  11.083  1.00  0.00     0.157 C 
HETATM    9  O3  UNL     1       1.253   8.828  10.001  1.00  0.00    -0.293 OA
HETATM   10  C16 UNL     1      -0.460   8.012  11.445  1.00  0.00     0.094 C 
HETATM   11  C17 UNL     1      -0.590   7.224  12.749  1.00  0.00    -0.019 C 
HETATM   12  C18 UNL     1      -0.183   5.748  12.460  1.00  0.00     0.017 C 
HETATM   13  C19 UNL     1       3.560   7.884  11.538  1.00  0.00    -0.008 C 
HETATM   14  C20 UNL     1       3.588   6.895  10.340  1.00  0.00     0.021 C 
HETATM   15  C21 UNL     1       3.999   9.300  11.061  1.00  0.00     0.022 C 
HETATM   16  C22 UNL     1       5.479   9.624  11.197  1.00  0.00     0.080 C 
HETATM   17  C23 UNL     1       6.323   8.380  11.152  1.00  0.00     0.135 C 
HETATM   18  O4  UNL     1       7.210   8.247  10.311  1.00  0.00    -0.297 OA
HETATM   19  C24 UNL     1       6.073   7.351  12.257  1.00  0.00     0.018 C 
HETATM   20  C25 UNL     1       6.510   5.952  11.764  1.00  0.00     0.023 C 
HETATM   21  C26 UNL     1       7.029   7.723  13.409  1.00  0.00     0.023 C 
HETATM   22  C27 UNL     1       4.543   7.327  12.653  1.00  0.00     0.014 C 
HETATM   23  C28 UNL     1       4.230   8.010  13.997  1.00  0.00     0.011 C 
HETATM   24  C29 UNL     1       2.809   7.692  14.454  1.00  0.00     0.036 C 
ENDROOT
BRANCH   1  25
HETATM   25  C6  UNL     1      -3.229   6.490  12.939  1.00  0.00    -0.011 C 
HETATM   26  C7  UNL     1      -4.603   6.995  13.396  1.00  0.00     0.010 C 
BRANCH  25  27
HETATM   27  C5  UNL     1      -3.092   4.973  13.202  1.00  0.00     0.040 C 
BRANCH  27  28
HETATM   28  C4  UNL     1      -3.452   4.058  12.021  1.00  0.00     0.142 C 
BRANCH  28  29
HETATM   29  C3  UNL     1      -2.297   3.243  11.508  1.00  0.00     0.018 C 
HETATM   30  C2  UNL     1      -2.213   1.907  11.325  1.00  0.00     0.010 C 
HETATM   31  C1  UNL     1      -3.280   0.907  11.666  1.00  0.00     0.055 C 
BRANCH  30  32
HETATM   32  C30 UNL     1      -0.975   1.298  10.770  1.00  0.00     0.171 C 
HETATM   33  O5  UNL     1      -0.924   0.261  10.133  1.00  0.00    -0.646 OA
BRANCH  32  34
HETATM   34  O6  UNL     1       0.143   1.994  11.032  1.00  0.00    -0.773 OA
HETATM   35  H44 UNL     1       0.844   1.460  10.605  1.00  0.00     0.167 HD
ENDBRANCH  32  34
ENDBRANCH  30  32
ENDBRANCH  28  29
BRANCH  28  36
HETATM   36  O1  UNL     1      -4.517   3.204  12.423  1.00  0.00    -0.392 OA
HETATM   37  H6  UNL     1      -4.695   2.600  11.681  1.00  0.00     0.210 HD
ENDBRANCH  28  36
ENDBRANCH  27  28
ENDBRANCH  25  27
ENDBRANCH   1  25
BRANCH   3  38
HETATM   38  O2  UNL     1       0.203   7.806  16.311  1.00  0.00    -0.394 OA
HETATM   39  H17 UNL     1      -0.198   7.299  17.038  1.00  0.00     0.210 HD
ENDBRANCH   3  38
TORSDOF 8
ENDMDL
MODEL 9
REMARK minimizedAffinity -7.89552259
REMARK CNNscore 0.360917509
REMARK CNNaffinity 6.85961771
REMARK  8 active torsions:
REMARK  status: ('A' for Active; 'I' for Inactive)
REMARK    1  A    between atoms: C2_2  and  C30_34 
REMARK    2  A    between atoms: C3_3  and  C4_4 
REMARK    3  A    between atoms: C4_4  and  O1_5 
REMARK    4  A    between atoms: C4_4  and  C5_6 
REMARK    5  A    between atoms: C5_6  and  C6_7 
REMARK    6  A    between atoms: C6_7  and  C8_9 
REMARK    7  A    between atoms: C10_11  and  O2_12 
REMARK    8  A    between atoms: C30_34  and  O6_36 
ROOT
HETATM    1  C8  UNL     1       0.709   6.708  13.323  1.00  0.00     0.001 C 
HETATM    2  C9  UNL     1       0.918   5.354  12.586  1.00  0.00     0.038 C 
HETATM    3  C10 UNL     1      -0.482   4.742  12.371  1.00  0.00     0.131 C 
HETATM    4  C11 UNL     1      -1.458   5.933  12.563  1.00  0.00     0.014 C 
HETATM    5  C12 UNL     1      -1.496   6.770  11.245  1.00  0.00     0.023 C 
HETATM    6  C13 UNL     1      -2.918   5.651  12.904  1.00  0.00    -0.058 C 
HETATM    7  C14 UNL     1      -3.654   6.531  13.627  1.00  0.00    -0.000 C 
HETATM    8  C15 UNL     1      -3.002   7.851  14.005  1.00  0.00     0.157 C 
HETATM    9  O3  UNL     1      -3.693   8.832  14.278  1.00  0.00    -0.293 OA
HETATM   10  C16 UNL     1      -1.481   7.986  14.008  1.00  0.00     0.094 C 
HETATM   11  C17 UNL     1      -0.776   6.645  13.796  1.00  0.00    -0.019 C 
HETATM   12  C18 UNL     1      -0.886   5.831  15.120  1.00  0.00     0.017 C 
HETATM   13  C19 UNL     1      -5.130   6.292  14.024  1.00  0.00    -0.008 C 
HETATM   14  C20 UNL     1      -5.281   6.559  15.548  1.00  0.00     0.021 C 
HETATM   15  C21 UNL     1      -6.018   7.291  13.226  1.00  0.00     0.022 C 
HETATM   16  C22 UNL     1      -7.420   6.812  12.880  1.00  0.00     0.080 C 
HETATM   17  C23 UNL     1      -7.914   5.791  13.867  1.00  0.00     0.135 C 
HETATM   18  O4  UNL     1      -8.955   5.970  14.497  1.00  0.00    -0.297 OA
HETATM   19  C24 UNL     1      -7.102   4.498  13.968  1.00  0.00     0.018 C 
HETATM   20  C25 UNL     1      -7.318   3.862  15.361  1.00  0.00     0.023 C 
HETATM   21  C26 UNL     1      -7.724   3.524  12.946  1.00  0.00     0.023 C 
HETATM   22  C27 UNL     1      -5.565   4.792  13.746  1.00  0.00     0.014 C 
HETATM   23  C28 UNL     1      -5.033   4.353  12.369  1.00  0.00     0.011 C 
HETATM   24  C29 UNL     1      -3.508   4.390  12.336  1.00  0.00     0.036 C 
ENDROOT
BRANCH   1  25
HETATM   25  C6  UNL     1       1.891   7.099  14.261  1.00  0.00    -0.011 C 
HETATM   26  C7  UNL     1       1.528   7.656  15.643  1.00  0.00     0.010 C 
BRANCH  25  27
HETATM   27  C5  UNL     1       2.894   8.033  13.545  1.00  0.00     0.040 C 
BRANCH  27  28
HETATM   28  C4  UNL     1       4.253   8.207  14.240  1.00  0.00     0.142 C 
BRANCH  28  29
HETATM   29  C3  UNL     1       5.417   7.690  13.439  1.00  0.00     0.018 C 
HETATM   30  C2  UNL     1       5.779   7.991  12.173  1.00  0.00     0.010 C 
HETATM   31  C1  UNL     1       5.030   8.897  11.240  1.00  0.00     0.055 C 
BRANCH  30  32
HETATM   32  C30 UNL     1       6.998   7.387  11.573  1.00  0.00     0.171 C 
HETATM   33  O5  UNL     1       7.076   6.926  10.448  1.00  0.00    -0.646 OA
BRANCH  32  34
HETATM   34  O6  UNL     1       8.063   7.374  12.392  1.00  0.00    -0.773 OA
HETATM   35  H44 UNL     1       8.759   6.950  11.848  1.00  0.00     0.167 HD
ENDBRANCH  32  34
ENDBRANCH  30  32
ENDBRANCH  28  29
BRANCH  28  36
HETATM   36  O1  UNL     1       4.434   9.587  14.535  1.00  0.00    -0.392 OA
HETATM   37  H6  UNL     1       5.320   9.683  14.927  1.00  0.00     0.210 HD
ENDBRANCH  28  36
ENDBRANCH  27  28
ENDBRANCH  25  27
ENDBRANCH   1  25
BRANCH   3  38
HETATM   38  O2  UNL     1      -0.569   4.138  11.089  1.00  0.00    -0.394 OA
HETATM   39  H17 UNL     1       0.143   3.477  11.026  1.00  0.00     0.210 HD
ENDBRANCH   3  38
TORSDOF 8
ENDMDL
