MODEL 1
REMARK minimizedAffinity -9.06700802
REMARK CNNscore 0.558742642
REMARK CNNaffinity 7.25927353
REMARK  10 active torsions:
REMARK  status: ('A' for Active; 'I' for Inactive)
REMARK    1  A    between atoms: C15_16  and  C16_17 
REMARK    2  A    between atoms: C16_17  and  O2_18 
REMARK    3  A    between atoms: C29_32  and  C30_33 
REMARK    4  A    between atoms: C30_33  and  O5_35 
REMARK    5  A    between atoms: O5_35  and  C31_36 
REMARK    6  A    between atoms: C32_38  and  C33_39 
REMARK    7  A    between atoms: C33_39  and  O7_40 
REMARK    8  A    between atoms: C34_41  and  O8_42 
REMARK    9  A    between atoms: C35_43  and  O9_44 
REMARK   10  A    between atoms: C36_45  and  O10_46 
ROOT
HETATM    1  C1  UNL     1      -4.171  53.927 -10.660  1.00  0.00     0.043 C 
HETATM    2  C2  UNL     1      -2.875  53.212 -10.942  1.00  0.00    -0.081 C 
HETATM    3  C3  UNL     1      -1.649  53.670 -10.584  1.00  0.00    -0.072 C 
HETATM    4  C4  UNL     1      -1.473  54.999  -9.886  1.00  0.00     0.044 C 
HETATM    5  C5  UNL     1      -0.392  52.891 -11.057  1.00  0.00     0.062 C 
HETATM    6  C6  UNL     1       0.933  53.375 -10.428  1.00  0.00    -0.065 C 
HETATM    7  C7  UNL     1       1.504  54.498 -10.914  1.00  0.00    -0.022 C 
HETATM    8  C8  UNL     1       2.730  55.175 -10.373  1.00  0.00     0.033 C 
HETATM    9  C9  UNL     1       3.172  54.620  -9.001  1.00  0.00     0.007 C 
HETATM   10  C10 UNL     1       4.456  55.328  -8.371  1.00  0.00    -0.035 C 
HETATM   11  C11 UNL     1       5.679  55.295  -9.321  1.00  0.00     0.016 C 
HETATM   12  C12 UNL     1       4.117  56.833  -8.109  1.00  0.00     0.012 C 
HETATM   13  C13 UNL     1       5.089  57.554  -7.167  1.00  0.00     0.034 C 
HETATM   14  C14 UNL     1       5.239  56.803  -5.848  1.00  0.00     0.135 C 
HETATM   15  O1  UNL     1       6.099  57.506  -4.957  1.00  0.00    -0.353 OA
HETATM   16  C15 UNL     1       6.054  56.902  -3.660  1.00  0.00     0.283 C 
HETATM   17  O3  UNL     1       6.501  55.543  -3.699  1.00  0.00    -0.358 OA
HETATM   18  C17 UNL     1       5.724  54.749  -4.602  1.00  0.00     0.183 C 
HETATM   19  C18 UNL     1       5.738  55.351  -6.033  1.00  0.00     0.008 C 
HETATM   20  C19 UNL     1       7.203  55.290  -6.524  1.00  0.00     0.020 C 
HETATM   21  C20 UNL     1       4.722  54.629  -6.981  1.00  0.00     0.007 C 
HETATM   22  C21 UNL     1       4.948  53.119  -7.159  1.00  0.00     0.007 C 
HETATM   23  C22 UNL     1       3.668  52.462  -7.679  1.00  0.00     0.011 C 
HETATM   24  C23 UNL     1       3.134  53.040  -9.024  1.00  0.00    -0.028 C 
HETATM   25  C24 UNL     1       4.056  52.484 -10.152  1.00  0.00     0.016 C 
HETATM   26  C25 UNL     1       1.582  52.573  -9.287  1.00  0.00    -0.012 C 
HETATM   27  C26 UNL     1       0.707  52.777  -8.014  1.00  0.00     0.021 C 
HETATM   28  C27 UNL     1       1.535  51.070  -9.670  1.00  0.00     0.016 C 
HETATM   29  C28 UNL     1       0.134  50.559  -9.982  1.00  0.00     0.022 C 
HETATM   30  C29 UNL     1      -0.564  51.323 -11.133  1.00  0.00     0.059 C 
HETATM   31  C37 UNL     1      -2.063  50.894 -11.095  1.00  0.00     0.025 C 
HETATM   32  C38 UNL     1      -2.997  51.923 -11.709  1.00  0.00     0.035 C 
ENDROOT
BRANCH  30  33
HETATM   33  C30 UNL     1       0.103  50.840 -12.442  1.00  0.00     0.271 C 
HETATM   34  O4  UNL     1       1.030  50.043 -12.508  1.00  0.00    -0.264 OA
BRANCH  33  35
HETATM   35  O5  UNL     1      -0.541  51.315 -13.545  1.00  0.00    -0.286 OA
BRANCH  35  36
HETATM   36  C31 UNL     1      -0.933  50.325 -14.505  1.00  0.00     0.301 C 
HETATM   37  O6  UNL     1       0.207  49.905 -15.264  1.00  0.00    -0.348 OA
HETATM   38  C32 UNL     1       0.696  50.828 -16.238  1.00  0.00     0.179 C 
HETATM   39  C34 UNL     1      -0.408  51.426 -17.130  1.00  0.00     0.180 C 
HETATM   40  C35 UNL     1      -1.760  50.749 -16.877  1.00  0.00     0.183 C 
HETATM   41  C36 UNL     1      -2.104  50.826 -15.388  1.00  0.00     0.205 C 
BRANCH  38  42
HETATM   42  C33 UNL     1       1.602  51.909 -15.620  1.00  0.00     0.198 C 
BRANCH  42  43
HETATM   43  O7  UNL     1       1.396  53.201 -16.175  1.00  0.00    -0.398 OA
HETATM   44  H48 UNL     1       1.077  53.109 -17.091  1.00  0.00     0.209 HD
ENDBRANCH  42  43
ENDBRANCH  38  42
BRANCH  39  45
HETATM   45  O8  UNL     1      -0.017  51.300 -18.509  1.00  0.00    -0.390 OA
HETATM   46  H50 UNL     1      -0.126  50.369 -18.772  1.00  0.00     0.210 HD
ENDBRANCH  39  45
BRANCH  40  47
HETATM   47  O9  UNL     1      -2.770  51.446 -17.623  1.00  0.00    -0.390 OA
HETATM   48  H52 UNL     1      -3.211  50.793 -18.192  1.00  0.00     0.210 HD
ENDBRANCH  40  47
BRANCH  41  49
HETATM   49  O10 UNL     1      -3.283  50.040 -15.131  1.00  0.00    -0.388 OA
HETATM   50  H54 UNL     1      -3.563  50.269 -14.216  1.00  0.00     0.210 HD
ENDBRANCH  41  49
ENDBRANCH  35  36
ENDBRANCH  33  35
ENDBRANCH  30  33
BRANCH  16  51
HETATM   51  C16 UNL     1       6.988  57.676  -2.709  1.00  0.00     0.224 C 
BRANCH  51  52
HETATM   52  O2  UNL     1       6.289  58.148  -1.550  1.00  0.00    -0.396 OA
HETATM   53  H23 UNL     1       5.382  58.343  -1.860  1.00  0.00     0.209 HD
ENDBRANCH  51  52
ENDBRANCH  16  51
TORSDOF 10
ENDMDL
MODEL 2
REMARK minimizedAffinity -8.04168892
REMARK CNNscore 0.506336272
REMARK CNNaffinity 7.2430706
REMARK  10 active torsions:
REMARK  status: ('A' for Active; 'I' for Inactive)
REMARK    1  A    between atoms: C15_16  and  C16_17 
REMARK    2  A    between atoms: C16_17  and  O2_18 
REMARK    3  A    between atoms: C29_32  and  C30_33 
REMARK    4  A    between atoms: C30_33  and  O5_35 
REMARK    5  A    between atoms: O5_35  and  C31_36 
REMARK    6  A    between atoms: C32_38  and  C33_39 
REMARK    7  A    between atoms: C33_39  and  O7_40 
REMARK    8  A    between atoms: C34_41  and  O8_42 
REMARK    9  A    between atoms: C35_43  and  O9_44 
REMARK   10  A    between atoms: C36_45  and  O10_46 
ROOT
HETATM    1  C1  UNL     1       9.284  52.545  -3.938  1.00  0.00     0.043 C 
HETATM    2  C2  UNL     1       8.615  53.831  -4.350  1.00  0.00    -0.081 C 
HETATM    3  C3  UNL     1       7.663  53.931  -5.310  1.00  0.00    -0.072 C 
HETATM    4  C4  UNL     1       7.207  52.727  -6.102  1.00  0.00     0.044 C 
HETATM    5  C5  UNL     1       7.157  55.341  -5.720  1.00  0.00     0.062 C 
HETATM    6  C6  UNL     1       5.937  55.331  -6.667  1.00  0.00    -0.065 C 
HETATM    7  C7  UNL     1       6.139  55.075  -7.977  1.00  0.00    -0.022 C 
HETATM    8  C8  UNL     1       5.076  54.926  -9.026  1.00  0.00     0.033 C 
HETATM    9  C9  UNL     1       3.652  54.829  -8.435  1.00  0.00     0.007 C 
HETATM   10  C10 UNL     1       2.489  54.642  -9.511  1.00  0.00    -0.035 C 
HETATM   11  C11 UNL     1       2.489  55.757 -10.586  1.00  0.00     0.016 C 
HETATM   12  C12 UNL     1       2.713  53.285 -10.256  1.00  0.00     0.012 C 
HETATM   13  C13 UNL     1       1.495  52.774 -11.037  1.00  0.00     0.034 C 
HETATM   14  C14 UNL     1       0.260  52.697 -10.146  1.00  0.00     0.135 C 
HETATM   15  O1  UNL     1      -0.852  52.169 -10.861  1.00  0.00    -0.353 OA
HETATM   16  C15 UNL     1      -1.931  51.904  -9.958  1.00  0.00     0.283 C 
HETATM   17  O3  UNL     1      -2.372  53.099  -9.304  1.00  0.00    -0.358 OA
HETATM   18  C17 UNL     1      -1.314  53.737  -8.581  1.00  0.00     0.183 C 
HETATM   19  C18 UNL     1      -0.112  54.057  -9.511  1.00  0.00     0.008 C 
HETATM   20  C19 UNL     1      -0.622  55.075 -10.557  1.00  0.00     0.020 C 
HETATM   21  C20 UNL     1       1.136  54.549  -8.704  1.00  0.00     0.007 C 
HETATM   22  C21 UNL     1       0.914  55.812  -7.855  1.00  0.00     0.007 C 
HETATM   23  C22 UNL     1       1.996  55.908  -6.779  1.00  0.00     0.011 C 
HETATM   24  C23 UNL     1       3.458  55.930  -7.318  1.00  0.00    -0.028 C 
HETATM   25  C24 UNL     1       3.702  57.356  -7.903  1.00  0.00     0.016 C 
HETATM   26  C25 UNL     1       4.532  55.628  -6.114  1.00  0.00    -0.012 C 
HETATM   27  C26 UNL     1       4.094  54.399  -5.262  1.00  0.00     0.021 C 
HETATM   28  C27 UNL     1       4.636  56.855  -5.171  1.00  0.00     0.016 C 
HETATM   29  C28 UNL     1       5.651  56.683  -4.048  1.00  0.00     0.022 C 
HETATM   30  C29 UNL     1       7.088  56.395  -4.546  1.00  0.00     0.059 C 
HETATM   31  C37 UNL     1       7.900  55.936  -3.296  1.00  0.00     0.025 C 
HETATM   32  C38 UNL     1       9.097  55.070  -3.643  1.00  0.00     0.035 C 
ENDROOT
BRANCH  30  33
HETATM   33  C30 UNL     1       7.638  57.736  -5.086  1.00  0.00     0.271 C 
HETATM   34  O4  UNL     1       6.953  58.663  -5.498  1.00  0.00    -0.264 OA
BRANCH  33  35
HETATM   35  O5  UNL     1       8.990  57.825  -4.941  1.00  0.00    -0.286 OA
BRANCH  35  36
HETATM   36  C31 UNL     1       9.523  59.155  -4.924  1.00  0.00     0.301 C 
HETATM   37  O6  UNL     1      10.910  59.129  -5.280  1.00  0.00    -0.348 OA
HETATM   38  C32 UNL     1      11.809  58.629  -4.288  1.00  0.00     0.179 C 
HETATM   39  C34 UNL     1      11.578  59.227  -2.889  1.00  0.00     0.180 C 
HETATM   40  C35 UNL     1      10.546  60.361  -2.927  1.00  0.00     0.183 C 
HETATM   41  C36 UNL     1       9.253  59.856  -3.569  1.00  0.00     0.205 C 
BRANCH  38  42
HETATM   42  C33 UNL     1      11.865  57.090  -4.268  1.00  0.00     0.198 C 
BRANCH  42  43
HETATM   43  O7  UNL     1      12.813  56.549  -5.177  1.00  0.00    -0.398 OA
HETATM   44  H48 UNL     1      12.926  57.163  -5.925  1.00  0.00     0.209 HD
ENDBRANCH  42  43
ENDBRANCH  38  42
BRANCH  39  45
HETATM   45  O8  UNL     1      12.835  59.692  -2.363  1.00  0.00    -0.390 OA
HETATM   46  H50 UNL     1      13.069  60.518  -2.822  1.00  0.00     0.210 HD
ENDBRANCH  39  45
BRANCH  40  47
HETATM   47  O9  UNL     1      10.266  60.773  -1.580  1.00  0.00    -0.390 OA
HETATM   48  H52 UNL     1      10.444  61.727  -1.528  1.00  0.00     0.210 HD
ENDBRANCH  40  47
BRANCH  41  49
HETATM   49  O10 UNL     1       8.353  60.965  -3.761  1.00  0.00    -0.388 OA
HETATM   50  H54 UNL     1       7.484  60.567  -3.998  1.00  0.00     0.210 HD
ENDBRANCH  41  49
ENDBRANCH  35  36
ENDBRANCH  33  35
ENDBRANCH  30  33
BRANCH  16  51
HETATM   51  C16 UNL     1      -3.124  51.334 -10.749  1.00  0.00     0.224 C 
BRANCH  51  52
HETATM   52  O2  UNL     1      -3.786  52.351 -11.513  1.00  0.00    -0.396 OA
HETATM   53  H23 UNL     1      -3.697  53.169 -10.983  1.00  0.00     0.209 HD
ENDBRANCH  51  52
ENDBRANCH  16  51
TORSDOF 10
ENDMDL
MODEL 3
REMARK minimizedAffinity -8.3796978
REMARK CNNscore 0.29811421
REMARK CNNaffinity 6.37207985
REMARK  10 active torsions:
REMARK  status: ('A' for Active; 'I' for Inactive)
REMARK    1  A    between atoms: C15_16  and  C16_17 
REMARK    2  A    between atoms: C16_17  and  O2_18 
REMARK    3  A    between atoms: C29_32  and  C30_33 
REMARK    4  A    between atoms: C30_33  and  O5_35 
REMARK    5  A    between atoms: O5_35  and  C31_36 
REMARK    6  A    between atoms: C32_38  and  C33_39 
REMARK    7  A    between atoms: C33_39  and  O7_40 
REMARK    8  A    between atoms: C34_41  and  O8_42 
REMARK    9  A    between atoms: C35_43  and  O9_44 
REMARK   10  A    between atoms: C36_45  and  O10_46 
ROOT
HETATM    1  C1  UNL     1      -3.984  49.115 -25.638  1.00  0.00     0.043 C 
HETATM    2  C2  UNL     1      -5.020  48.353 -26.424  1.00  0.00    -0.081 C 
HETATM    3  C3  UNL     1      -6.083  47.712 -25.878  1.00  0.00    -0.072 C 
HETATM    4  C4  UNL     1      -6.302  47.673 -24.383  1.00  0.00     0.044 C 
HETATM    5  C5  UNL     1      -6.997  46.857 -26.798  1.00  0.00     0.062 C 
HETATM    6  C6  UNL     1      -8.285  46.342 -26.120  1.00  0.00    -0.065 C 
HETATM    7  C7  UNL     1      -8.197  45.275 -25.296  1.00  0.00    -0.022 C 
HETATM    8  C8  UNL     1      -9.312  44.696 -24.475  1.00  0.00     0.033 C 
HETATM    9  C9  UNL     1     -10.566  45.596 -24.436  1.00  0.00     0.007 C 
HETATM   10  C10 UNL     1     -11.771  45.033 -23.552  1.00  0.00    -0.035 C 
HETATM   11  C11 UNL     1     -12.210  43.612 -23.982  1.00  0.00     0.016 C 
HETATM   12  C12 UNL     1     -11.293  44.937 -22.065  1.00  0.00     0.012 C 
HETATM   13  C13 UNL     1     -12.423  44.786 -21.038  1.00  0.00     0.034 C 
HETATM   14  C14 UNL     1     -13.464  45.891 -21.195  1.00  0.00     0.135 C 
HETATM   15  O1  UNL     1     -14.480  45.778 -20.205  1.00  0.00    -0.353 OA
HETATM   16  C15 UNL     1     -15.318  46.937 -20.233  1.00  0.00     0.283 C 
HETATM   17  O3  UNL     1     -15.971  47.080 -21.499  1.00  0.00    -0.358 OA
HETATM   18  C17 UNL     1     -15.035  47.164 -22.579  1.00  0.00     0.183 C 
HETATM   19  C18 UNL     1     -14.097  45.927 -22.605  1.00  0.00     0.008 C 
HETATM   20  C19 UNL     1     -14.994  44.698 -22.879  1.00  0.00     0.020 C 
HETATM   21  C20 UNL     1     -12.930  46.101 -23.634  1.00  0.00     0.007 C 
HETATM   22  C21 UNL     1     -13.366  46.328 -25.091  1.00  0.00     0.007 C 
HETATM   23  C22 UNL     1     -12.215  46.951 -25.884  1.00  0.00     0.011 C 
HETATM   24  C23 UNL     1     -10.897  46.119 -25.890  1.00  0.00    -0.028 C 
HETATM   25  C24 UNL     1     -11.122  44.924 -26.867  1.00  0.00     0.016 C 
HETATM   26  C25 UNL     1      -9.631  47.030 -26.402  1.00  0.00    -0.012 C 
HETATM   27  C26 UNL     1      -9.609  48.416 -25.691  1.00  0.00     0.021 C 
HETATM   28  C27 UNL     1      -9.734  47.275 -27.931  1.00  0.00     0.016 C 
HETATM   29  C28 UNL     1      -8.571  48.073 -28.505  1.00  0.00     0.022 C 
HETATM   30  C29 UNL     1      -7.188  47.420 -28.261  1.00  0.00     0.059 C 
HETATM   31  C37 UNL     1      -6.125  48.504 -28.617  1.00  0.00     0.025 C 
HETATM   32  C38 UNL     1      -4.797  48.296 -27.911  1.00  0.00     0.035 C 
ENDROOT
BRANCH  30  33
HETATM   33  C30 UNL     1      -7.092  46.227 -29.240  1.00  0.00     0.271 C 
HETATM   34  O4  UNL     1      -6.747  45.092 -28.936  1.00  0.00    -0.264 OA
BRANCH  33  35
HETATM   35  O5  UNL     1      -7.555  46.550 -30.480  1.00  0.00    -0.286 OA
BRANCH  35  36
HETATM   36  C31 UNL     1      -6.865  47.621 -31.137  1.00  0.00     0.301 C 
HETATM   37  O6  UNL     1      -7.786  48.380 -31.930  1.00  0.00    -0.348 OA
HETATM   38  C32 UNL     1      -8.235  47.768 -33.141  1.00  0.00     0.179 C 
HETATM   39  C34 UNL     1      -7.097  47.166 -33.986  1.00  0.00     0.180 C 
HETATM   40  C35 UNL     1      -5.722  47.526 -33.412  1.00  0.00     0.183 C 
HETATM   41  C36 UNL     1      -5.650  47.100 -31.944  1.00  0.00     0.205 C 
BRANCH  38  42
HETATM   42  C33 UNL     1      -9.382  46.768 -32.904  1.00  0.00     0.198 C 
BRANCH  42  43
HETATM   43  O7  UNL     1     -10.353  47.237 -31.979  1.00  0.00    -0.398 OA
HETATM   44  H48 UNL     1      -9.931  47.854 -31.354  1.00  0.00     0.209 HD
ENDBRANCH  42  43
ENDBRANCH  38  42
BRANCH  39  45
HETATM   45  O8  UNL     1      -7.226  47.628 -35.343  1.00  0.00    -0.390 OA
HETATM   46  H50 UNL     1      -6.938  48.557 -35.377  1.00  0.00     0.210 HD
ENDBRANCH  39  45
BRANCH  40  47
HETATM   47  O9  UNL     1      -4.715  46.818 -34.151  1.00  0.00    -0.390 OA
HETATM   48  H52 UNL     1      -4.092  47.479 -34.497  1.00  0.00     0.210 HD
ENDBRANCH  40  47
BRANCH  41  49
HETATM   49  O10 UNL     1      -4.427  47.595 -31.364  1.00  0.00    -0.388 OA
HETATM   50  H54 UNL     1      -4.343  47.144 -30.493  1.00  0.00     0.210 HD
ENDBRANCH  41  49
ENDBRANCH  35  36
ENDBRANCH  33  35
ENDBRANCH  30  33
BRANCH  16  51
HETATM   51  C16 UNL     1     -16.411  46.799 -19.155  1.00  0.00     0.224 C 
BRANCH  51  52
HETATM   52  O2  UNL     1     -15.874  46.309 -17.919  1.00  0.00    -0.396 OA
HETATM   53  H23 UNL     1     -15.144  45.710 -18.177  1.00  0.00     0.209 HD
ENDBRANCH  51  52
ENDBRANCH  16  51
TORSDOF 10
ENDMDL
MODEL 4
REMARK minimizedAffinity -8.59742928
REMARK CNNscore 0.275898159
REMARK CNNaffinity 6.40576124
REMARK  10 active torsions:
REMARK  status: ('A' for Active; 'I' for Inactive)
REMARK    1  A    between atoms: C15_16  and  C16_17 
REMARK    2  A    between atoms: C16_17  and  O2_18 
REMARK    3  A    between atoms: C29_32  and  C30_33 
REMARK    4  A    between atoms: C30_33  and  O5_35 
REMARK    5  A    between atoms: O5_35  and  C31_36 
REMARK    6  A    between atoms: C32_38  and  C33_39 
REMARK    7  A    between atoms: C33_39  and  O7_40 
REMARK    8  A    between atoms: C34_41  and  O8_42 
REMARK    9  A    between atoms: C35_43  and  O9_44 
REMARK   10  A    between atoms: C36_45  and  O10_46 
ROOT
HETATM    1  C1  UNL     1      -6.048  47.734 -26.977  1.00  0.00     0.043 C 
HETATM    2  C2  UNL     1      -7.157  47.165 -27.825  1.00  0.00    -0.081 C 
HETATM    3  C3  UNL     1      -8.275  46.573 -27.335  1.00  0.00    -0.072 C 
HETATM    4  C4  UNL     1      -8.489  46.391 -25.850  1.00  0.00     0.044 C 
HETATM    5  C5  UNL     1      -9.271  45.916 -28.329  1.00  0.00     0.062 C 
HETATM    6  C6  UNL     1     -10.600  45.455 -27.690  1.00  0.00    -0.065 C 
HETATM    7  C7  UNL     1     -10.611  44.301 -26.989  1.00  0.00    -0.022 C 
HETATM    8  C8  UNL     1     -11.773  43.744 -26.219  1.00  0.00     0.033 C 
HETATM    9  C9  UNL     1     -12.934  44.750 -26.062  1.00  0.00     0.007 C 
HETATM   10  C10 UNL     1     -14.183  44.212 -25.226  1.00  0.00    -0.035 C 
HETATM   11  C11 UNL     1     -14.760  42.895 -25.801  1.00  0.00     0.016 C 
HETATM   12  C12 UNL     1     -13.709  43.908 -23.766  1.00  0.00     0.012 C 
HETATM   13  C13 UNL     1     -14.843  43.754 -22.744  1.00  0.00     0.034 C 
HETATM   14  C14 UNL     1     -15.773  44.964 -22.764  1.00  0.00     0.135 C 
HETATM   15  O1  UNL     1     -16.790  44.841 -21.776  1.00  0.00    -0.353 OA
HETATM   16  C15 UNL     1     -17.513  46.071 -21.665  1.00  0.00     0.283 C 
HETATM   17  O3  UNL     1     -18.155  46.414 -22.897  1.00  0.00    -0.358 OA
HETATM   18  C17 UNL     1     -17.220  46.526 -23.976  1.00  0.00     0.183 C 
HETATM   19  C18 UNL     1     -16.407  45.215 -24.152  1.00  0.00     0.008 C 
HETATM   20  C19 UNL     1     -17.420  44.115 -24.544  1.00  0.00     0.020 C 
HETATM   21  C20 UNL     1     -15.233  45.388 -25.174  1.00  0.00     0.007 C 
HETATM   22  C21 UNL     1     -15.653  45.815 -26.590  1.00  0.00     0.007 C 
HETATM   23  C22 UNL     1     -14.451  46.408 -27.328  1.00  0.00     0.011 C 
HETATM   24  C23 UNL     1     -13.220  45.459 -27.446  1.00  0.00    -0.028 C 
HETATM   25  C24 UNL     1     -13.565  44.406 -28.543  1.00  0.00     0.016 C 
HETATM   26  C25 UNL     1     -11.874  46.296 -27.875  1.00  0.00    -0.012 C 
HETATM   27  C26 UNL     1     -11.714  47.586 -27.017  1.00  0.00     0.021 C 
HETATM   28  C27 UNL     1     -11.960  46.715 -29.366  1.00  0.00     0.016 C 
HETATM   29  C28 UNL     1     -10.728  47.457 -29.868  1.00  0.00     0.022 C 
HETATM   30  C29 UNL     1      -9.414  46.652 -29.718  1.00  0.00     0.059 C 
HETATM   31  C37 UNL     1      -8.253  47.662 -29.971  1.00  0.00     0.025 C 
HETATM   32  C38 UNL     1      -6.947  47.251 -29.313  1.00  0.00     0.035 C 
ENDROOT
BRANCH  30  33
HETATM   33  C30 UNL     1      -9.439  45.570 -30.823  1.00  0.00     0.271 C 
HETATM   34  O4  UNL     1      -9.282  44.370 -30.637  1.00  0.00    -0.264 OA
BRANCH  33  35
HETATM   35  O5  UNL     1      -9.779  46.090 -32.036  1.00  0.00    -0.286 OA
BRANCH  35  36
HETATM   36  C31 UNL     1     -10.043  45.130 -33.067  1.00  0.00     0.301 C 
HETATM   37  O6  UNL     1      -8.834  44.830 -33.774  1.00  0.00    -0.348 OA
HETATM   38  C32 UNL     1      -8.356  45.837 -34.669  1.00  0.00     0.179 C 
HETATM   39  C34 UNL     1      -9.445  46.407 -35.595  1.00  0.00     0.180 C 
HETATM   40  C35 UNL     1     -10.759  45.627 -35.461  1.00  0.00     0.183 C 
HETATM   41  C36 UNL     1     -11.193  45.598 -33.994  1.00  0.00     0.205 C 
BRANCH  38  42
HETATM   42  C33 UNL     1      -7.565  46.941 -33.942  1.00  0.00     0.198 C 
BRANCH  42  43
HETATM   43  O7  UNL     1      -6.800  47.755 -34.819  1.00  0.00    -0.398 OA
HETATM   44  H48 UNL     1      -6.557  47.236 -35.608  1.00  0.00     0.209 HD
ENDBRANCH  42  43
ENDBRANCH  38  42
BRANCH  39  45
HETATM   45  O8  UNL     1      -8.968  46.383 -36.953  1.00  0.00    -0.390 OA
HETATM   46  H50 UNL     1      -8.995  45.463 -37.268  1.00  0.00     0.210 HD
ENDBRANCH  39  45
BRANCH  40  47
HETATM   47  O9  UNL     1     -11.771  46.294 -36.232  1.00  0.00    -0.390 OA
HETATM   48  H52 UNL     1     -12.131  45.644 -36.859  1.00  0.00     0.210 HD
ENDBRANCH  40  47
BRANCH  41  49
HETATM   49  O10 UNL     1     -12.327  44.722 -33.850  1.00  0.00    -0.388 OA
HETATM   50  H54 UNL     1     -12.675  44.881 -32.944  1.00  0.00     0.210 HD
ENDBRANCH  41  49
ENDBRANCH  35  36
ENDBRANCH  33  35
ENDBRANCH  30  33
BRANCH  16  51
HETATM   51  C16 UNL     1     -18.608  45.920 -20.591  1.00  0.00     0.224 C 
BRANCH  51  52
HETATM   52  O2  UNL     1     -19.631  45.004 -21.005  1.00  0.00    -0.396 OA
HETATM   53  H23 UNL     1     -19.691  45.110 -21.976  1.00  0.00     0.209 HD
ENDBRANCH  51  52
ENDBRANCH  16  51
TORSDOF 10
ENDMDL
MODEL 5
REMARK minimizedAffinity -8.75034046
REMARK CNNscore 0.236298695
REMARK CNNaffinity 6.88516188
REMARK  10 active torsions:
REMARK  status: ('A' for Active; 'I' for Inactive)
REMARK    1  A    between atoms: C15_16  and  C16_17 
REMARK    2  A    between atoms: C16_17  and  O2_18 
REMARK    3  A    between atoms: C29_32  and  C30_33 
REMARK    4  A    between atoms: C30_33  and  O5_35 
REMARK    5  A    between atoms: O5_35  and  C31_36 
REMARK    6  A    between atoms: C32_38  and  C33_39 
REMARK    7  A    between atoms: C33_39  and  O7_40 
REMARK    8  A    between atoms: C34_41  and  O8_42 
REMARK    9  A    between atoms: C35_43  and  O9_44 
REMARK   10  A    between atoms: C36_45  and  O10_46 
ROOT
HETATM    1  C1  UNL     1      -4.903  50.579  -9.789  1.00  0.00     0.043 C 
HETATM    2  C2  UNL     1      -3.741  50.656 -10.744  1.00  0.00    -0.081 C 
HETATM    3  C3  UNL     1      -2.651  51.444 -10.570  1.00  0.00    -0.072 C 
HETATM    4  C4  UNL     1      -2.527  52.372  -9.384  1.00  0.00     0.044 C 
HETATM    5  C5  UNL     1      -1.591  51.517 -11.702  1.00  0.00     0.062 C 
HETATM    6  C6  UNL     1      -0.300  52.276 -11.321  1.00  0.00    -0.065 C 
HETATM    7  C7  UNL     1      -0.323  53.626 -11.319  1.00  0.00    -0.022 C 
HETATM    8  C8  UNL     1       0.793  54.530 -10.884  1.00  0.00     0.033 C 
HETATM    9  C9  UNL     1       1.936  53.779 -10.165  1.00  0.00     0.007 C 
HETATM   10  C10 UNL     1       3.135  54.703  -9.659  1.00  0.00    -0.035 C 
HETATM   11  C11 UNL     1       3.756  55.548 -10.800  1.00  0.00     0.016 C 
HETATM   12  C12 UNL     1       2.576  55.706  -8.596  1.00  0.00     0.012 C 
HETATM   13  C13 UNL     1       3.646  56.395  -7.740  1.00  0.00     0.034 C 
HETATM   14  C14 UNL     1       4.566  55.373  -7.078  1.00  0.00     0.135 C 
HETATM   15  O1  UNL     1       5.522  56.015  -6.241  1.00  0.00    -0.353 OA
HETATM   16  C15 UNL     1       6.227  55.037  -5.470  1.00  0.00     0.283 C 
HETATM   17  O3  UNL     1       6.941  54.123  -6.308  1.00  0.00    -0.358 OA
HETATM   18  C17 UNL     1       6.073  53.446  -7.225  1.00  0.00     0.183 C 
HETATM   19  C18 UNL     1       5.281  54.457  -8.098  1.00  0.00     0.008 C 
HETATM   20  C19 UNL     1       6.325  55.221  -8.945  1.00  0.00     0.020 C 
HETATM   21  C20 UNL     1       4.171  53.751  -8.947  1.00  0.00     0.007 C 
HETATM   22  C21 UNL     1       4.673  52.664  -9.912  1.00  0.00     0.007 C 
HETATM   23  C22 UNL     1       3.515  51.745 -10.303  1.00  0.00     0.011 C 
HETATM   24  C23 UNL     1       2.300  52.465 -10.963  1.00  0.00    -0.028 C 
HETATM   25  C24 UNL     1       2.719  52.808 -12.426  1.00  0.00     0.016 C 
HETATM   26  C25 UNL     1       0.977  51.493 -10.973  1.00  0.00    -0.012 C 
HETATM   27  C26 UNL     1       0.755  50.828  -9.582  1.00  0.00     0.021 C 
HETATM   28  C27 UNL     1       1.151  50.365 -12.024  1.00  0.00     0.016 C 
HETATM   29  C28 UNL     1      -0.054  49.440 -12.139  1.00  0.00     0.022 C 
HETATM   30  C29 UNL     1      -1.368  50.173 -12.500  1.00  0.00     0.059 C 
HETATM   31  C37 UNL     1      -2.520  49.149 -12.259  1.00  0.00     0.025 C 
HETATM   32  C38 UNL     1      -3.860  49.808 -11.982  1.00  0.00     0.035 C 
ENDROOT
BRANCH  30  33
HETATM   33  C30 UNL     1      -1.268  50.529 -14.002  1.00  0.00     0.271 C 
HETATM   34  O4  UNL     1      -1.896  51.421 -14.558  1.00  0.00    -0.264 OA
BRANCH  33  35
HETATM   35  O5  UNL     1      -0.298  49.808 -14.631  1.00  0.00    -0.286 OA
BRANCH  35  36
HETATM   36  C31 UNL     1      -0.608  49.390 -15.967  1.00  0.00     0.301 C 
HETATM   37  O6  UNL     1       0.516  49.625 -16.824  1.00  0.00    -0.348 OA
HETATM   38  C32 UNL     1       0.767  50.986 -17.180  1.00  0.00     0.179 C 
HETATM   39  C34 UNL     1      -0.489  51.743 -17.647  1.00  0.00     0.180 C 
HETATM   40  C35 UNL     1      -1.691  50.801 -17.791  1.00  0.00     0.183 C 
HETATM   41  C36 UNL     1      -1.914  50.049 -16.477  1.00  0.00     0.205 C 
BRANCH  38  42
HETATM   42  C33 UNL     1       1.540  51.746 -16.087  1.00  0.00     0.198 C 
BRANCH  42  43
HETATM   43  O7  UNL     1       1.503  53.157 -16.250  1.00  0.00    -0.398 OA
HETATM   44  H48 UNL     1       1.400  53.368 -17.196  1.00  0.00     0.209 HD
ENDBRANCH  42  43
ENDBRANCH  38  42
BRANCH  39  45
HETATM   45  O8  UNL     1      -0.203  52.407 -18.892  1.00  0.00    -0.390 OA
HETATM   46  H50 UNL     1      -0.185  51.736 -19.596  1.00  0.00     0.210 HD
ENDBRANCH  39  45
BRANCH  40  47
HETATM   47  O9  UNL     1      -2.858  51.585 -18.081  1.00  0.00    -0.390 OA
HETATM   48  H52 UNL     1      -3.237  51.244 -18.908  1.00  0.00     0.210 HD
ENDBRANCH  40  47
BRANCH  41  49
HETATM   49  O10 UNL     1      -2.928  49.044 -16.671  1.00  0.00    -0.388 OA
HETATM   50  H54 UNL     1      -3.162  48.723 -15.770  1.00  0.00     0.210 HD
ENDBRANCH  41  49
ENDBRANCH  35  36
ENDBRANCH  33  35
ENDBRANCH  30  33
BRANCH  16  51
HETATM   51  C16 UNL     1       7.256  55.749  -4.570  1.00  0.00     0.224 C 
BRANCH  51  52
HETATM   52  O2  UNL     1       7.927  54.826  -3.702  1.00  0.00    -0.396 OA
HETATM   53  H23 UNL     1       7.264  54.135  -3.500  1.00  0.00     0.209 HD
ENDBRANCH  51  52
ENDBRANCH  16  51
TORSDOF 10
ENDMDL
MODEL 6
REMARK minimizedAffinity -8.07283401
REMARK CNNscore 0.231289923
REMARK CNNaffinity 6.33363962
REMARK  10 active torsions:
REMARK  status: ('A' for Active; 'I' for Inactive)
REMARK    1  A    between atoms: C15_16  and  C16_17 
REMARK    2  A    between atoms: C16_17  and  O2_18 
REMARK    3  A    between atoms: C29_32  and  C30_33 
REMARK    4  A    between atoms: C30_33  and  O5_35 
REMARK    5  A    between atoms: O5_35  and  C31_36 
REMARK    6  A    between atoms: C32_38  and  C33_39 
REMARK    7  A    between atoms: C33_39  and  O7_40 
REMARK    8  A    between atoms: C34_41  and  O8_42 
REMARK    9  A    between atoms: C35_43  and  O9_44 
REMARK   10  A    between atoms: C36_45  and  O10_46 
ROOT
HETATM    1  C1  UNL     1       3.052  52.656 -11.464  1.00  0.00     0.043 C 
HETATM    2  C2  UNL     1       3.010  53.600 -10.290  1.00  0.00    -0.081 C 
HETATM    3  C3  UNL     1       3.883  53.579  -9.252  1.00  0.00    -0.072 C 
HETATM    4  C4  UNL     1       4.983  52.546  -9.165  1.00  0.00     0.044 C 
HETATM    5  C5  UNL     1       3.639  54.527  -8.047  1.00  0.00     0.062 C 
HETATM    6  C6  UNL     1       4.794  54.570  -7.024  1.00  0.00    -0.065 C 
HETATM    7  C7  UNL     1       4.911  53.555  -6.140  1.00  0.00    -0.022 C 
HETATM    8  C8  UNL     1       6.017  53.371  -5.142  1.00  0.00     0.033 C 
HETATM    9  C9  UNL     1       7.206  54.330  -5.373  1.00  0.00     0.007 C 
HETATM   10  C10 UNL     1       8.420  54.154  -4.352  1.00  0.00    -0.035 C 
HETATM   11  C11 UNL     1       7.976  54.283  -2.874  1.00  0.00     0.016 C 
HETATM   12  C12 UNL     1       9.016  52.718  -4.531  1.00  0.00     0.012 C 
HETATM   13  C13 UNL     1      10.406  52.521  -3.913  1.00  0.00     0.034 C 
HETATM   14  C14 UNL     1      11.389  53.573  -4.418  1.00  0.00     0.135 C 
HETATM   15  O1  UNL     1      12.690  53.351  -3.886  1.00  0.00    -0.353 OA
HETATM   16  C15 UNL     1      13.634  54.210  -4.534  1.00  0.00     0.283 C 
HETATM   17  O3  UNL     1      13.318  55.590  -4.324  1.00  0.00    -0.358 OA
HETATM   18  C17 UNL     1      12.004  55.916  -4.792  1.00  0.00     0.183 C 
HETATM   19  C18 UNL     1      10.930  55.019  -4.118  1.00  0.00     0.008 C 
HETATM   20  C19 UNL     1      10.967  55.346  -2.606  1.00  0.00     0.020 C 
HETATM   21  C20 UNL     1       9.520  55.205  -4.772  1.00  0.00     0.007 C 
HETATM   22  C21 UNL     1       8.959  56.636  -4.730  1.00  0.00     0.007 C 
HETATM   23  C22 UNL     1       7.860  56.791  -5.783  1.00  0.00     0.011 C 
HETATM   24  C23 UNL     1       6.671  55.793  -5.643  1.00  0.00    -0.028 C 
HETATM   25  C24 UNL     1       5.803  56.291  -4.446  1.00  0.00     0.016 C 
HETATM   26  C25 UNL     1       5.769  55.760  -7.014  1.00  0.00    -0.012 C 
HETATM   27  C26 UNL     1       6.670  55.639  -8.279  1.00  0.00     0.021 C 
HETATM   28  C27 UNL     1       4.937  57.063  -7.137  1.00  0.00     0.016 C 
HETATM   29  C28 UNL     1       4.028  57.100  -8.359  1.00  0.00     0.022 C 
HETATM   30  C29 UNL     1       3.015  55.930  -8.416  1.00  0.00     0.059 C 
HETATM   31  C37 UNL     1       2.411  55.946  -9.853  1.00  0.00     0.025 C 
HETATM   32  C38 UNL     1       1.879  54.594 -10.295  1.00  0.00     0.035 C 
ENDROOT
BRANCH  30  33
HETATM   33  C30 UNL     1       1.924  56.250  -7.367  1.00  0.00     0.271 C 
HETATM   34  O4  UNL     1       1.503  57.370  -7.108  1.00  0.00    -0.264 OA
BRANCH  33  35
HETATM   35  O5  UNL     1       1.387  55.117  -6.833  1.00  0.00    -0.286 OA
BRANCH  35  36
HETATM   36  C31 UNL     1      -0.021  54.946  -7.041  1.00  0.00     0.301 C 
HETATM   37  O6  UNL     1      -0.748  55.504  -5.940  1.00  0.00    -0.348 OA
HETATM   38  C32 UNL     1      -0.717  54.763  -4.719  1.00  0.00     0.179 C 
HETATM   39  C34 UNL     1      -1.001  53.261  -4.901  1.00  0.00     0.180 C 
HETATM   40  C35 UNL     1      -1.430  52.943  -6.339  1.00  0.00     0.183 C 
HETATM   41  C36 UNL     1      -0.375  53.463  -7.317  1.00  0.00     0.205 C 
BRANCH  38  42
HETATM   42  C33 UNL     1       0.564  55.024  -3.905  1.00  0.00     0.198 C 
BRANCH  42  43
HETATM   43  O7  UNL     1       1.079  56.338  -4.074  1.00  0.00    -0.398 OA
HETATM   44  H48 UNL     1       0.825  56.672  -4.953  1.00  0.00     0.209 HD
ENDBRANCH  42  43
ENDBRANCH  38  42
BRANCH  39  45
HETATM   45  O8  UNL     1      -2.012  52.856  -3.960  1.00  0.00    -0.390 OA
HETATM   46  H50 UNL     1      -2.870  53.192  -4.273  1.00  0.00     0.210 HD
ENDBRANCH  39  45
BRANCH  40  47
HETATM   47  O9  UNL     1      -1.535  51.518  -6.483  1.00  0.00    -0.390 OA
HETATM   48  H52 UNL     1      -2.435  51.324  -6.794  1.00  0.00     0.210 HD
ENDBRANCH  40  47
BRANCH  41  49
HETATM   49  O10 UNL     1      -0.864  53.318  -8.665  1.00  0.00    -0.388 OA
HETATM   50  H54 UNL     1      -0.091  53.488  -9.249  1.00  0.00     0.210 HD
ENDBRANCH  41  49
ENDBRANCH  35  36
ENDBRANCH  33  35
ENDBRANCH  30  33
BRANCH  16  51
HETATM   51  C16 UNL     1      15.036  53.955  -3.947  1.00  0.00     0.224 C 
BRANCH  51  52
HETATM   52  O2  UNL     1      16.068  54.237  -4.902  1.00  0.00    -0.396 OA
HETATM   53  H23 UNL     1      15.682  54.006  -5.771  1.00  0.00     0.209 HD
ENDBRANCH  51  52
ENDBRANCH  16  51
TORSDOF 10
ENDMDL
MODEL 7
REMARK minimizedAffinity -9.61402893
REMARK CNNscore 0.228037834
REMARK CNNaffinity 6.1834836
REMARK  10 active torsions:
REMARK  status: ('A' for Active; 'I' for Inactive)
REMARK    1  A    between atoms: C15_16  and  C16_17 
REMARK    2  A    between atoms: C16_17  and  O2_18 
REMARK    3  A    between atoms: C29_32  and  C30_33 
REMARK    4  A    between atoms: C30_33  and  O5_35 
REMARK    5  A    between atoms: O5_35  and  C31_36 
REMARK    6  A    between atoms: C32_38  and  C33_39 
REMARK    7  A    between atoms: C33_39  and  O7_40 
REMARK    8  A    between atoms: C34_41  and  O8_42 
REMARK    9  A    between atoms: C35_43  and  O9_44 
REMARK   10  A    between atoms: C36_45  and  O10_46 
ROOT
HETATM    1  C1  UNL     1      -6.584  47.721 -24.562  1.00  0.00     0.043 C 
HETATM    2  C2  UNL     1      -7.292  47.269 -25.814  1.00  0.00    -0.081 C 
HETATM    3  C3  UNL     1      -8.448  46.561 -25.833  1.00  0.00    -0.072 C 
HETATM    4  C4  UNL     1      -9.124  46.115 -24.556  1.00  0.00     0.044 C 
HETATM    5  C5  UNL     1      -8.994  46.053 -27.195  1.00  0.00     0.062 C 
HETATM    6  C6  UNL     1     -10.410  45.440 -27.127  1.00  0.00    -0.065 C 
HETATM    7  C7  UNL     1     -10.546  44.181 -26.657  1.00  0.00    -0.022 C 
HETATM    8  C8  UNL     1     -11.840  43.457 -26.424  1.00  0.00     0.033 C 
HETATM    9  C9  UNL     1     -13.076  44.378 -26.523  1.00  0.00     0.007 C 
HETATM   10  C10 UNL     1     -14.475  43.658 -26.257  1.00  0.00    -0.035 C 
HETATM   11  C11 UNL     1     -14.704  42.442 -27.188  1.00  0.00     0.016 C 
HETATM   12  C12 UNL     1     -14.486  43.121 -24.787  1.00  0.00     0.012 C 
HETATM   13  C13 UNL     1     -15.875  42.750 -24.251  1.00  0.00     0.034 C 
HETATM   14  C14 UNL     1     -16.853  43.911 -24.403  1.00  0.00     0.135 C 
HETATM   15  O1  UNL     1     -18.124  43.581 -23.854  1.00  0.00    -0.353 OA
HETATM   16  C15 UNL     1     -18.954  44.746 -23.811  1.00  0.00     0.283 C 
HETATM   17  O3  UNL     1     -19.181  45.275 -25.121  1.00  0.00    -0.358 OA
HETATM   18  C17 UNL     1     -17.956  45.608 -25.785  1.00  0.00     0.183 C 
HETATM   19  C18 UNL     1     -17.012  44.377 -25.869  1.00  0.00     0.008 C 
HETATM   20  C19 UNL     1     -17.732  43.327 -26.746  1.00  0.00     0.020 C 
HETATM   21  C20 UNL     1     -15.588  44.768 -26.389  1.00  0.00     0.007 C 
HETATM   22  C21 UNL     1     -15.553  45.421 -27.781  1.00  0.00     0.007 C 
HETATM   23  C22 UNL     1     -14.235  46.176 -27.964  1.00  0.00     0.011 C 
HETATM   24  C23 UNL     1     -12.952  45.307 -27.796  1.00  0.00    -0.028 C 
HETATM   25  C24 UNL     1     -12.814  44.450 -29.092  1.00  0.00     0.016 C 
HETATM   26  C25 UNL     1     -11.624  46.254 -27.607  1.00  0.00    -0.012 C 
HETATM   27  C26 UNL     1     -11.877  47.380 -26.561  1.00  0.00     0.021 C 
HETATM   28  C27 UNL     1     -11.250  46.924 -28.955  1.00  0.00     0.016 C 
HETATM   29  C28 UNL     1      -9.995  47.785 -28.887  1.00  0.00     0.022 C 
HETATM   30  C29 UNL     1      -8.736  47.014 -28.420  1.00  0.00     0.059 C 
HETATM   31  C37 UNL     1      -7.656  48.093 -28.104  1.00  0.00     0.025 C 
HETATM   32  C38 UNL     1      -6.610  47.621 -27.109  1.00  0.00     0.035 C 
ENDROOT
BRANCH  30  33
HETATM   33  C30 UNL     1      -8.294  46.141 -29.618  1.00  0.00     0.271 C 
HETATM   34  O4  UNL     1      -8.472  44.933 -29.713  1.00  0.00    -0.264 OA
BRANCH  33  35
HETATM   35  O5  UNL     1      -7.778  46.893 -30.630  1.00  0.00    -0.286 OA
BRANCH  35  36
HETATM   36  C31 UNL     1      -6.973  46.181 -31.579  1.00  0.00     0.301 C 
HETATM   37  O6  UNL     1      -5.597  46.224 -31.180  1.00  0.00    -0.348 OA
HETATM   38  C32 UNL     1      -4.923  47.471 -31.363  1.00  0.00     0.179 C 
HETATM   39  C34 UNL     1      -5.145  48.094 -32.753  1.00  0.00     0.180 C 
HETATM   40  C35 UNL     1      -5.899  47.135 -33.683  1.00  0.00     0.183 C 
HETATM   41  C36 UNL     1      -7.207  46.698 -33.021  1.00  0.00     0.205 C 
BRANCH  38  42
HETATM   42  C33 UNL     1      -5.206  48.465 -30.222  1.00  0.00     0.198 C 
BRANCH  42  43
HETATM   43  O7  UNL     1      -4.564  49.720 -30.398  1.00  0.00    -0.398 OA
HETATM   44  H48 UNL     1      -3.753  49.595 -30.923  1.00  0.00     0.209 HD
ENDBRANCH  42  43
ENDBRANCH  38  42
BRANCH  39  45
HETATM   45  O8  UNL     1      -3.871  48.460 -33.314  1.00  0.00    -0.390 OA
HETATM   46  H50 UNL     1      -3.422  47.647 -33.604  1.00  0.00     0.210 HD
ENDBRANCH  39  45
BRANCH  40  47
HETATM   47  O9  UNL     1      -6.205  47.824 -34.905  1.00  0.00    -0.390 OA
HETATM   48  H52 UNL     1      -5.829  47.302 -35.634  1.00  0.00     0.210 HD
ENDBRANCH  40  47
BRANCH  41  49
HETATM   49  O10 UNL     1      -7.823  45.668 -33.818  1.00  0.00    -0.388 OA
HETATM   50  H54 UNL     1      -8.731  45.558 -33.456  1.00  0.00     0.210 HD
ENDBRANCH  41  49
ENDBRANCH  35  36
ENDBRANCH  33  35
ENDBRANCH  30  33
BRANCH  16  51
HETATM   51  C16 UNL     1     -20.323  44.371 -23.213  1.00  0.00     0.224 C 
BRANCH  51  52
HETATM   52  O2  UNL     1     -20.285  44.342 -21.780  1.00  0.00    -0.396 OA
HETATM   53  H23 UNL     1     -19.380  44.044 -21.555  1.00  0.00     0.209 HD
ENDBRANCH  51  52
ENDBRANCH  16  51
TORSDOF 10
ENDMDL
MODEL 8
REMARK minimizedAffinity -9.12513924
REMARK CNNscore 0.215151519
REMARK CNNaffinity 6.15105629
REMARK  10 active torsions:
REMARK  status: ('A' for Active; 'I' for Inactive)
REMARK    1  A    between atoms: C15_16  and  C16_17 
REMARK    2  A    between atoms: C16_17  and  O2_18 
REMARK    3  A    between atoms: C29_32  and  C30_33 
REMARK    4  A    between atoms: C30_33  and  O5_35 
REMARK    5  A    between atoms: O5_35  and  C31_36 
REMARK    6  A    between atoms: C32_38  and  C33_39 
REMARK    7  A    between atoms: C33_39  and  O7_40 
REMARK    8  A    between atoms: C34_41  and  O8_42 
REMARK    9  A    between atoms: C35_43  and  O9_44 
REMARK   10  A    between atoms: C36_45  and  O10_46 
ROOT
HETATM    1  C1  UNL     1      -6.201  48.048 -24.654  1.00  0.00     0.043 C 
HETATM    2  C2  UNL     1      -6.888  47.465 -25.862  1.00  0.00    -0.081 C 
HETATM    3  C3  UNL     1      -8.046  46.759 -25.824  1.00  0.00    -0.072 C 
HETATM    4  C4  UNL     1      -8.745  46.454 -24.519  1.00  0.00     0.044 C 
HETATM    5  C5  UNL     1      -8.569  46.107 -27.133  1.00  0.00     0.062 C 
HETATM    6  C6  UNL     1      -9.988  45.506 -27.024  1.00  0.00    -0.065 C 
HETATM    7  C7  UNL     1     -10.135  44.306 -26.423  1.00  0.00    -0.022 C 
HETATM    8  C8  UNL     1     -11.434  43.611 -26.136  1.00  0.00     0.033 C 
HETATM    9  C9  UNL     1     -12.666  44.517 -26.355  1.00  0.00     0.007 C 
HETATM   10  C10 UNL     1     -14.071  43.831 -26.037  1.00  0.00    -0.035 C 
HETATM   11  C11 UNL     1     -14.287  42.521 -26.836  1.00  0.00     0.016 C 
HETATM   12  C12 UNL     1     -14.109  43.456 -24.519  1.00  0.00     0.012 C 
HETATM   13  C13 UNL     1     -15.508  43.146 -23.970  1.00  0.00     0.034 C 
HETATM   14  C14 UNL     1     -16.481  44.284 -24.264  1.00  0.00     0.135 C 
HETATM   15  O1  UNL     1     -17.762  44.016 -23.704  1.00  0.00    -0.353 OA
HETATM   16  C15 UNL     1     -18.589  45.179 -23.802  1.00  0.00     0.283 C 
HETATM   17  O3  UNL     1     -18.792  45.564 -25.165  1.00  0.00    -0.358 OA
HETATM   18  C17 UNL     1     -17.555  45.822 -25.840  1.00  0.00     0.183 C 
HETATM   19  C18 UNL     1     -16.613  44.589 -25.774  1.00  0.00     0.008 C 
HETATM   20  C19 UNL     1     -17.320  43.451 -26.545  1.00  0.00     0.020 C 
HETATM   21  C20 UNL     1     -15.179  44.921 -26.308  1.00  0.00     0.007 C 
HETATM   22  C21 UNL     1     -15.118  45.419 -27.761  1.00  0.00     0.007 C 
HETATM   23  C22 UNL     1     -13.795  46.149 -28.002  1.00  0.00     0.011 C 
HETATM   24  C23 UNL     1     -12.518  45.303 -27.719  1.00  0.00    -0.028 C 
HETATM   25  C24 UNL     1     -12.360  44.311 -28.912  1.00  0.00     0.016 C 
HETATM   26  C25 UNL     1     -11.191  46.264 -27.610  1.00  0.00    -0.012 C 
HETATM   27  C26 UNL     1     -11.460  47.496 -26.696  1.00  0.00     0.021 C 
HETATM   28  C27 UNL     1     -10.792  46.784 -29.016  1.00  0.00     0.016 C 
HETATM   29  C28 UNL     1      -9.537  47.647 -29.019  1.00  0.00     0.022 C 
HETATM   30  C29 UNL     1      -8.288  46.930 -28.450  1.00  0.00     0.059 C 
HETATM   31  C37 UNL     1      -7.211  48.037 -28.233  1.00  0.00     0.025 C 
HETATM   32  C38 UNL     1      -6.183  47.674 -27.175  1.00  0.00     0.035 C 
ENDROOT
BRANCH  30  33
HETATM   33  C30 UNL     1      -7.827  45.932 -29.539  1.00  0.00     0.271 C 
HETATM   34  O4  UNL     1      -7.377  44.814 -29.324  1.00  0.00    -0.264 OA
BRANCH  33  35
HETATM   35  O5  UNL     1      -8.088  46.394 -30.793  1.00  0.00    -0.286 OA
BRANCH  35  36
HETATM   36  C31 UNL     1      -7.279  47.495 -31.227  1.00  0.00     0.301 C 
HETATM   37  O6  UNL     1      -8.017  48.310 -32.146  1.00  0.00    -0.348 OA
HETATM   38  C32 UNL     1      -8.204  47.776 -33.458  1.00  0.00     0.179 C 
HETATM   39  C34 UNL     1      -6.915  47.214 -34.085  1.00  0.00     0.180 C 
HETATM   40  C35 UNL     1      -5.689  47.523 -33.218  1.00  0.00     0.183 C 
HETATM   41  C36 UNL     1      -5.921  47.009 -31.796  1.00  0.00     0.205 C 
BRANCH  38  42
HETATM   42  C33 UNL     1      -9.374  46.777 -33.524  1.00  0.00     0.198 C 
BRANCH  42  43
HETATM   43  O7  UNL     1     -10.302  46.928 -32.460  1.00  0.00    -0.398 OA
HETATM   44  H48 UNL     1      -9.842  47.292 -31.681  1.00  0.00     0.209 HD
ENDBRANCH  42  43
ENDBRANCH  38  42
BRANCH  39  45
HETATM   45  O8  UNL     1      -6.760  47.757 -35.409  1.00  0.00    -0.390 OA
HETATM   46  H50 UNL     1      -6.473  48.682 -35.325  1.00  0.00     0.210 HD
ENDBRANCH  39  45
BRANCH  40  47
HETATM   47  O9  UNL     1      -4.549  46.849 -33.774  1.00  0.00    -0.390 OA
HETATM   48  H52 UNL     1      -3.870  47.523 -33.943  1.00  0.00     0.210 HD
ENDBRANCH  40  47
BRANCH  41  49
HETATM   49  O10 UNL     1      -4.846  47.455 -30.947  1.00  0.00    -0.388 OA
HETATM   50  H54 UNL     1      -4.943  46.953 -30.106  1.00  0.00     0.210 HD
ENDBRANCH  41  49
ENDBRANCH  35  36
ENDBRANCH  33  35
ENDBRANCH  30  33
BRANCH  16  51
HETATM   51  C16 UNL     1     -19.970  44.872 -23.191  1.00  0.00     0.224 C 
BRANCH  51  52
HETATM   52  O2  UNL     1     -19.891  44.689 -21.771  1.00  0.00    -0.396 OA
HETATM   53  H23 UNL     1     -19.012  44.287 -21.613  1.00  0.00     0.209 HD
ENDBRANCH  51  52
ENDBRANCH  16  51
TORSDOF 10
ENDMDL
MODEL 9
REMARK minimizedAffinity -10.372776
REMARK CNNscore 0.19421719
REMARK CNNaffinity 6.90661669
REMARK  10 active torsions:
REMARK  status: ('A' for Active; 'I' for Inactive)
REMARK    1  A    between atoms: C15_16  and  C16_17 
REMARK    2  A    between atoms: C16_17  and  O2_18 
REMARK    3  A    between atoms: C29_32  and  C30_33 
REMARK    4  A    between atoms: C30_33  and  O5_35 
REMARK    5  A    between atoms: O5_35  and  C31_36 
REMARK    6  A    between atoms: C32_38  and  C33_39 
REMARK    7  A    between atoms: C33_39  and  O7_40 
REMARK    8  A    between atoms: C34_41  and  O8_42 
REMARK    9  A    between atoms: C35_43  and  O9_44 
REMARK   10  A    between atoms: C36_45  and  O10_46 
ROOT
HETATM    1  C1  UNL     1       1.224  52.853 -19.781  1.00  0.00     0.043 C 
HETATM    2  C2  UNL     1       0.306  52.054 -20.671  1.00  0.00    -0.081 C 
HETATM    3  C3  UNL     1      -0.487  51.040 -20.246  1.00  0.00    -0.072 C 
HETATM    4  C4  UNL     1      -0.486  50.584 -18.805  1.00  0.00     0.044 C 
HETATM    5  C5  UNL     1      -1.283  50.220 -21.298  1.00  0.00     0.062 C 
HETATM    6  C6  UNL     1      -2.305  49.230 -20.697  1.00  0.00    -0.065 C 
HETATM    7  C7  UNL     1      -1.852  48.060 -20.197  1.00  0.00    -0.022 C 
HETATM    8  C8  UNL     1      -2.672  47.022 -19.488  1.00  0.00     0.033 C 
HETATM    9  C9  UNL     1      -4.090  47.515 -19.124  1.00  0.00     0.007 C 
HETATM   10  C10 UNL     1      -4.992  46.455 -18.344  1.00  0.00    -0.035 C 
HETATM   11  C11 UNL     1      -5.130  45.115 -19.109  1.00  0.00     0.016 C 
HETATM   12  C12 UNL     1      -4.309  46.134 -16.973  1.00  0.00     0.012 C 
HETATM   13  C13 UNL     1      -5.220  45.442 -15.951  1.00  0.00     0.034 C 
HETATM   14  C14 UNL     1      -6.508  46.232 -15.735  1.00  0.00     0.135 C 
HETATM   15  O1  UNL     1      -7.323  45.615 -14.745  1.00  0.00    -0.353 OA
HETATM   16  C15 UNL     1      -8.413  46.478 -14.405  1.00  0.00     0.283 C 
HETATM   17  O3  UNL     1      -9.246  46.742 -15.538  1.00  0.00    -0.358 OA
HETATM   18  C17 UNL     1      -8.512  47.332 -16.617  1.00  0.00     0.183 C 
HETATM   19  C18 UNL     1      -7.315  46.436 -17.038  1.00  0.00     0.008 C 
HETATM   20  C19 UNL     1      -7.918  45.115 -17.570  1.00  0.00     0.020 C 
HETATM   21  C20 UNL     1      -6.374  47.160 -18.059  1.00  0.00     0.007 C 
HETATM   22  C21 UNL     1      -7.045  47.606 -19.368  1.00  0.00     0.007 C 
HETATM   23  C22 UNL     1      -6.197  48.687 -20.041  1.00  0.00     0.011 C 
HETATM   24  C23 UNL     1      -4.730  48.266 -20.359  1.00  0.00    -0.028 C 
HETATM   25  C24 UNL     1      -4.790  47.327 -21.604  1.00  0.00     0.016 C 
HETATM   26  C25 UNL     1      -3.803  49.579 -20.693  1.00  0.00    -0.012 C 
HETATM   27  C26 UNL     1      -4.020  50.706 -19.639  1.00  0.00     0.021 C 
HETATM   28  C27 UNL     1      -4.167  50.149 -22.089  1.00  0.00     0.016 C 
HETATM   29  C28 UNL     1      -3.319  51.343 -22.506  1.00  0.00     0.022 C 
HETATM   30  C29 UNL     1      -1.800  51.047 -22.540  1.00  0.00     0.059 C 
HETATM   31  C37 UNL     1      -1.088  52.429 -22.663  1.00  0.00     0.025 C 
HETATM   32  C38 UNL     1       0.334  52.420 -22.130  1.00  0.00     0.035 C 
ENDROOT
BRANCH  30  33
HETATM   33  C30 UNL     1      -1.552  50.196 -23.807  1.00  0.00     0.271 C 
HETATM   34  O4  UNL     1      -2.037  49.092 -24.021  1.00  0.00    -0.264 OA
BRANCH  33  35
HETATM   35  O5  UNL     1      -0.815  50.869 -24.734  1.00  0.00    -0.286 OA
BRANCH  35  36
HETATM   36  C31 UNL     1      -1.254  50.730 -26.092  1.00  0.00     0.301 C 
HETATM   37  O6  UNL     1      -0.136  50.430 -26.937  1.00  0.00    -0.348 OA
HETATM   38  C32 UNL     1       0.759  51.509 -27.211  1.00  0.00     0.179 C 
HETATM   39  C34 UNL     1       0.047  52.809 -27.628  1.00  0.00     0.180 C 
HETATM   40  C35 UNL     1      -1.457  52.587 -27.824  1.00  0.00     0.183 C 
HETATM   41  C36 UNL     1      -2.055  51.971 -26.557  1.00  0.00     0.205 C 
BRANCH  38  42
HETATM   42  C33 UNL     1       1.775  51.733 -26.076  1.00  0.00     0.198 C 
BRANCH  42  43
HETATM   43  O7  UNL     1       2.996  51.031 -26.268  1.00  0.00    -0.398 OA
HETATM   44  H48 UNL     1       2.826  50.231 -26.799  1.00  0.00     0.209 HD
ENDBRANCH  42  43
ENDBRANCH  38  42
BRANCH  39  45
HETATM   45  O8  UNL     1       0.655  53.313 -28.831  1.00  0.00    -0.390 OA
HETATM   46  H50 UNL     1       0.361  52.758 -29.575  1.00  0.00     0.210 HD
ENDBRANCH  39  45
BRANCH  40  47
HETATM   47  O9  UNL     1      -2.083  53.857 -28.063  1.00  0.00    -0.390 OA
HETATM   48  H52 UNL     1      -2.558  53.790 -28.908  1.00  0.00     0.210 HD
ENDBRANCH  40  47
BRANCH  41  49
HETATM   49  O10 UNL     1      -3.426  51.605 -26.808  1.00  0.00    -0.388 OA
HETATM   50  H54 UNL     1      -3.811  51.392 -25.928  1.00  0.00     0.210 HD
ENDBRANCH  41  49
ENDBRANCH  35  36
ENDBRANCH  33  35
ENDBRANCH  30  33
BRANCH  16  51
HETATM   51  C16 UNL     1      -9.283  45.796 -13.332  1.00  0.00     0.224 C 
BRANCH  51  52
HETATM   52  O2  UNL     1     -10.671  45.806 -13.692  1.00  0.00    -0.396 OA
HETATM   53  H23 UNL     1     -10.800  46.637 -14.192  1.00  0.00     0.209 HD
ENDBRANCH  51  52
ENDBRANCH  16  51
TORSDOF 10
ENDMDL
