MODEL 1
REMARK minimizedAffinity -8.12516499
REMARK CNNscore 0.426989317
REMARK CNNaffinity 6.33395815
REMARK  9 active torsions:
REMARK  status: ('A' for Active; 'I' for Inactive)
REMARK    1  A    between atoms: C2_2  and  C3_3 
REMARK    2  A    between atoms: C2_2  and  C9_12 
REMARK    3  A    between atoms: C3_3  and  C4_4 
REMARK    4  A    between atoms: C4_4  and  C5_5 
REMARK    5  A    between atoms: C5_5  and  O1_6 
REMARK    6  A    between atoms: C5_5  and  C6_7 
REMARK    7  A    between atoms: C6_7  and  O2_9 
REMARK    8  A    between atoms: C6_7  and  C8_10 
REMARK    9  A    between atoms: C8_10  and  O3_11 
ROOT
HETATM    1  C9  UNL     1       7.063  10.285  15.325  1.00  0.00    -0.002 C 
HETATM    2  C10 UNL     1       8.277   9.876  14.446  1.00  0.00     0.007 C 
HETATM    3  C11 UNL     1       7.708   9.263  13.151  1.00  0.00     0.015 C 
HETATM    4  C12 UNL     1       6.230   9.700  13.115  1.00  0.00    -0.005 C 
HETATM    5  C13 UNL     1       6.203  11.156  12.553  1.00  0.00     0.021 C 
HETATM    6  C14 UNL     1       5.213   8.951  12.264  1.00  0.00    -0.000 C 
HETATM    7  C15 UNL     1       3.901   8.906  12.620  1.00  0.00    -0.060 C 
HETATM    8  C16 UNL     1       3.422   9.549  13.926  1.00  0.00     0.036 C 
HETATM    9  C17 UNL     1       4.482  10.182  14.851  1.00  0.00     0.015 C 
HETATM   10  C18 UNL     1       5.865   9.554  14.647  1.00  0.00    -0.028 C 
HETATM   11  C19 UNL     1       5.801   8.071  15.118  1.00  0.00     0.016 C 
HETATM   12  C20 UNL     1       2.827   8.169  11.774  1.00  0.00    -0.014 C 
HETATM   13  C21 UNL     1       2.740   6.742  12.364  1.00  0.00     0.020 C 
HETATM   14  C22 UNL     1       1.440   8.855  11.877  1.00  0.00     0.021 C 
HETATM   15  C23 UNL     1       0.395   8.260  10.946  1.00  0.00     0.080 C 
HETATM   16  C24 UNL     1       0.863   8.354   9.516  1.00  0.00     0.135 C 
HETATM   17  O4  UNL     1       0.124   8.835   8.658  1.00  0.00    -0.297 OA
HETATM   18  C25 UNL     1       2.242   7.764   9.185  1.00  0.00     0.018 C 
HETATM   19  C26 UNL     1       2.672   8.316   7.801  1.00  0.00     0.023 C 
HETATM   20  C27 UNL     1       2.094   6.243   9.033  1.00  0.00     0.023 C 
HETATM   21  C28 UNL     1       3.275   8.230  10.271  1.00  0.00     0.020 C 
HETATM   22  C29 UNL     1       4.662   7.602  10.115  1.00  0.00     0.090 C 
HETATM   23  C30 UNL     1       5.675   8.297  10.994  1.00  0.00     0.157 C 
HETATM   24  O5  UNL     1       6.861   8.296  10.670  1.00  0.00    -0.293 OA
ENDROOT
BRANCH   1  25
HETATM   25  C2  UNL     1       7.348  10.224  16.858  1.00  0.00    -0.014 C 
HETATM   26  C1  UNL     1       6.730  11.331  17.717  1.00  0.00     0.010 C 
BRANCH  25  27
HETATM   27  C3  UNL     1       8.860  10.067  17.145  1.00  0.00     0.007 C 
BRANCH  27  28
HETATM   28  C4  UNL     1       9.354  10.771  18.423  1.00  0.00     0.035 C 
BRANCH  28  29
HETATM   29  C5  UNL     1      10.701  11.491  18.268  1.00  0.00     0.154 C 
BRANCH  29  30
HETATM   30  O1  UNL     1      11.562  10.688  17.446  1.00  0.00    -0.392 OA
HETATM   31  H10 UNL     1      12.444  11.108  17.533  1.00  0.00     0.210 HD
ENDBRANCH  29  30
BRANCH  29  32
HETATM   32  C6  UNL     1      11.434  11.793  19.602  1.00  0.00     0.101 C 
HETATM   33  C7  UNL     1      10.485  12.253  20.717  1.00  0.00     0.051 C 
BRANCH  32  34
HETATM   34  O2  UNL     1      12.002  10.537  20.048  1.00  0.00    -0.385 OA
HETATM   35  H14 UNL     1      12.757  10.784  20.624  1.00  0.00     0.210 HD
ENDBRANCH  32  34
BRANCH  32  36
HETATM   36  C8  UNL     1      12.593  12.790  19.404  1.00  0.00     0.204 C 
BRANCH  36  37
HETATM   37  O3  UNL     1      13.828  12.179  19.792  1.00  0.00    -0.398 OA
HETATM   38  H17 UNL     1      13.916  12.282  20.756  1.00  0.00     0.209 HD
ENDBRANCH  36  37
ENDBRANCH  32  36
ENDBRANCH  29  32
ENDBRANCH  28  29
ENDBRANCH  27  28
ENDBRANCH  25  27
ENDBRANCH   1  25
TORSDOF 9
ENDMDL
MODEL 2
REMARK minimizedAffinity -6.71332073
REMARK CNNscore 0.353151083
REMARK CNNaffinity 5.81070948
REMARK  9 active torsions:
REMARK  status: ('A' for Active; 'I' for Inactive)
REMARK    1  A    between atoms: C2_2  and  C3_3 
REMARK    2  A    between atoms: C2_2  and  C9_12 
REMARK    3  A    between atoms: C3_3  and  C4_4 
REMARK    4  A    between atoms: C4_4  and  C5_5 
REMARK    5  A    between atoms: C5_5  and  O1_6 
REMARK    6  A    between atoms: C5_5  and  C6_7 
REMARK    7  A    between atoms: C6_7  and  O2_9 
REMARK    8  A    between atoms: C6_7  and  C8_10 
REMARK    9  A    between atoms: C8_10  and  O3_11 
ROOT
HETATM    1  C9  UNL     1     -17.334   3.603  14.285  1.00  0.00    -0.002 C 
HETATM    2  C10 UNL     1     -17.170   3.563  15.830  1.00  0.00     0.007 C 
HETATM    3  C11 UNL     1     -16.688   2.145  16.195  1.00  0.00     0.015 C 
HETATM    4  C12 UNL     1     -16.188   1.537  14.870  1.00  0.00    -0.005 C 
HETATM    5  C13 UNL     1     -14.741   2.077  14.643  1.00  0.00     0.021 C 
HETATM    6  C14 UNL     1     -16.056   0.030  14.701  1.00  0.00    -0.000 C 
HETATM    7  C15 UNL     1     -16.190  -0.551  13.478  1.00  0.00    -0.060 C 
HETATM    8  C16 UNL     1     -16.547   0.290  12.247  1.00  0.00     0.036 C 
HETATM    9  C17 UNL     1     -16.819   1.794  12.453  1.00  0.00     0.015 C 
HETATM   10  C18 UNL     1     -17.287   2.099  13.880  1.00  0.00    -0.028 C 
HETATM   11  C19 UNL     1     -18.683   1.440  14.085  1.00  0.00     0.016 C 
HETATM   12  C20 UNL     1     -16.048  -2.082  13.256  1.00  0.00    -0.014 C 
HETATM   13  C21 UNL     1     -17.480  -2.653  13.366  1.00  0.00     0.020 C 
HETATM   14  C22 UNL     1     -15.468  -2.411  11.855  1.00  0.00     0.021 C 
HETATM   15  C23 UNL     1     -15.167  -3.888  11.652  1.00  0.00     0.080 C 
HETATM   16  C24 UNL     1     -14.185  -4.363  12.692  1.00  0.00     0.135 C 
HETATM   17  O4  UNL     1     -13.177  -4.981  12.350  1.00  0.00    -0.297 OA
HETATM   18  C25 UNL     1     -14.540  -4.109  14.166  1.00  0.00     0.018 C 
HETATM   19  C26 UNL     1     -13.250  -4.308  15.003  1.00  0.00     0.023 C 
HETATM   20  C27 UNL     1     -15.536  -5.188  14.616  1.00  0.00     0.023 C 
HETATM   21  C28 UNL     1     -15.038  -2.630  14.326  1.00  0.00     0.020 C 
HETATM   22  C29 UNL     1     -15.540  -2.296  15.733  1.00  0.00     0.090 C 
HETATM   23  C30 UNL     1     -15.730  -0.806  15.903  1.00  0.00     0.157 C 
HETATM   24  O5  UNL     1     -15.638  -0.308  17.023  1.00  0.00    -0.293 OA
ENDROOT
BRANCH   1  25
HETATM   25  C2  UNL     1     -18.441   4.588  13.796  1.00  0.00    -0.014 C 
HETATM   26  C1  UNL     1     -19.249   4.158  12.568  1.00  0.00     0.010 C 
BRANCH  25  27
HETATM   27  C3  UNL     1     -17.886   6.023  13.631  1.00  0.00     0.007 C 
BRANCH  27  28
HETATM   28  C4  UNL     1     -16.764   6.167  12.585  1.00  0.00     0.035 C 
BRANCH  28  29
HETATM   29  C5  UNL     1     -16.194   7.588  12.463  1.00  0.00     0.154 C 
BRANCH  29  30
HETATM   30  O1  UNL     1     -15.940   7.867  11.077  1.00  0.00    -0.392 OA
HETATM   31  H10 UNL     1     -15.422   8.699  11.087  1.00  0.00     0.210 HD
ENDBRANCH  29  30
BRANCH  29  32
HETATM   32  C6  UNL     1     -14.887   7.833  13.262  1.00  0.00     0.101 C 
HETATM   33  C7  UNL     1     -14.205   6.534  13.712  1.00  0.00     0.051 C 
BRANCH  32  34
HETATM   34  O2  UNL     1     -13.965   8.478  12.349  1.00  0.00    -0.385 OA
HETATM   35  H14 UNL     1     -13.339   8.974  12.920  1.00  0.00     0.210 HD
ENDBRANCH  32  34
BRANCH  32  36
HETATM   36  C8  UNL     1     -15.116   8.788  14.451  1.00  0.00     0.204 C 
BRANCH  36  37
HETATM   37  O3  UNL     1     -14.388   8.323  15.593  1.00  0.00    -0.398 OA
HETATM   38  H17 UNL     1     -14.936   7.652  16.037  1.00  0.00     0.209 HD
ENDBRANCH  36  37
ENDBRANCH  32  36
ENDBRANCH  29  32
ENDBRANCH  28  29
ENDBRANCH  27  28
ENDBRANCH  25  27
ENDBRANCH   1  25
TORSDOF 9
ENDMDL
MODEL 3
REMARK minimizedAffinity -7.30373335
REMARK CNNscore 0.350915641
REMARK CNNaffinity 6.60725641
REMARK  9 active torsions:
REMARK  status: ('A' for Active; 'I' for Inactive)
REMARK    1  A    between atoms: C2_2  and  C3_3 
REMARK    2  A    between atoms: C2_2  and  C9_12 
REMARK    3  A    between atoms: C3_3  and  C4_4 
REMARK    4  A    between atoms: C4_4  and  C5_5 
REMARK    5  A    between atoms: C5_5  and  O1_6 
REMARK    6  A    between atoms: C5_5  and  C6_7 
REMARK    7  A    between atoms: C6_7  and  O2_9 
REMARK    8  A    between atoms: C6_7  and  C8_10 
REMARK    9  A    between atoms: C8_10  and  O3_11 
ROOT
HETATM    1  C9  UNL     1      -9.829  -7.731  -4.194  1.00  0.00    -0.002 C 
HETATM    2  C10 UNL     1     -11.110  -7.667  -3.318  1.00  0.00     0.007 C 
HETATM    3  C11 UNL     1     -10.747  -8.263  -1.944  1.00  0.00     0.015 C 
HETATM    4  C12 UNL     1      -9.206  -8.271  -1.904  1.00  0.00    -0.005 C 
HETATM    5  C13 UNL     1      -8.756  -6.830  -1.507  1.00  0.00     0.021 C 
HETATM    6  C14 UNL     1      -8.451  -9.177  -0.940  1.00  0.00    -0.000 C 
HETATM    7  C15 UNL     1      -7.209  -9.640  -1.243  1.00  0.00    -0.060 C 
HETATM    8  C16 UNL     1      -6.561  -9.319  -2.595  1.00  0.00     0.036 C 
HETATM    9  C17 UNL     1      -7.390  -8.520  -3.621  1.00  0.00     0.015 C 
HETATM   10  C18 UNL     1      -8.897  -8.693  -3.398  1.00  0.00    -0.028 C 
HETATM   11  C19 UNL     1      -9.266 -10.175  -3.699  1.00  0.00     0.016 C 
HETATM   12  C20 UNL     1      -6.397 -10.553  -0.284  1.00  0.00    -0.014 C 
HETATM   13  C21 UNL     1      -6.728 -12.002  -0.709  1.00  0.00     0.020 C 
HETATM   14  C22 UNL     1      -4.870 -10.314  -0.414  1.00  0.00     0.021 C 
HETATM   15  C23 UNL     1      -4.045 -11.073   0.614  1.00  0.00     0.080 C 
HETATM   16  C24 UNL     1      -4.467 -10.681   2.007  1.00  0.00     0.135 C 
HETATM   17  O4  UNL     1      -3.621 -10.338   2.832  1.00  0.00    -0.297 OA
HETATM   18  C25 UNL     1      -5.959 -10.806   2.354  1.00  0.00     0.018 C 
HETATM   19  C26 UNL     1      -6.211  -9.996   3.652  1.00  0.00     0.023 C 
HETATM   20  C27 UNL     1      -6.259 -12.276   2.678  1.00  0.00     0.023 C 
HETATM   21  C28 UNL     1      -6.809 -10.190   1.187  1.00  0.00     0.020 C 
HETATM   22  C29 UNL     1      -8.319 -10.369   1.362  1.00  0.00     0.090 C 
HETATM   23  C30 UNL     1      -9.086  -9.518   0.376  1.00  0.00     0.157 C 
HETATM   24  O5  UNL     1     -10.221  -9.139   0.657  1.00  0.00    -0.293 OA
ENDROOT
BRANCH   1  25
HETATM   25  C2  UNL     1     -10.117  -7.885  -5.720  1.00  0.00    -0.014 C 
HETATM   26  C1  UNL     1      -9.573  -9.147  -6.398  1.00  0.00     0.010 C 
BRANCH  25  27
HETATM   27  C3  UNL     1      -9.720  -6.610  -6.501  1.00  0.00     0.007 C 
BRANCH  27  28
HETATM   28  C4  UNL     1     -10.452  -5.328  -6.062  1.00  0.00     0.035 C 
BRANCH  28  29
HETATM   29  C5  UNL     1      -9.520  -4.184  -5.636  1.00  0.00     0.154 C 
BRANCH  29  30
HETATM   30  O1  UNL     1      -8.764  -4.606  -4.491  1.00  0.00    -0.392 OA
HETATM   31  H10 UNL     1      -8.332  -3.787  -4.168  1.00  0.00     0.210 HD
ENDBRANCH  29  30
BRANCH  29  32
HETATM   32  C6  UNL     1     -10.241  -2.854  -5.288  1.00  0.00     0.101 C 
HETATM   33  C7  UNL     1     -11.449  -2.572  -6.191  1.00  0.00     0.051 C 
BRANCH  32  34
HETATM   34  O2  UNL     1     -10.768  -3.014  -3.947  1.00  0.00    -0.385 OA
HETATM   35  H14 UNL     1     -10.854  -2.104  -3.592  1.00  0.00     0.210 HD
ENDBRANCH  32  34
BRANCH  32  36
HETATM   36  C8  UNL     1      -9.263  -1.662  -5.269  1.00  0.00     0.204 C 
BRANCH  36  37
HETATM   37  O3  UNL     1      -8.193  -1.928  -4.356  1.00  0.00    -0.398 OA
HETATM   38  H17 UNL     1      -8.499  -1.680  -3.466  1.00  0.00     0.209 HD
ENDBRANCH  36  37
ENDBRANCH  32  36
ENDBRANCH  29  32
ENDBRANCH  28  29
ENDBRANCH  27  28
ENDBRANCH  25  27
ENDBRANCH   1  25
TORSDOF 9
ENDMDL
MODEL 4
REMARK minimizedAffinity -7.05340719
REMARK CNNscore 0.346115917
REMARK CNNaffinity 7.03364182
REMARK  9 active torsions:
REMARK  status: ('A' for Active; 'I' for Inactive)
REMARK    1  A    between atoms: C2_2  and  C3_3 
REMARK    2  A    between atoms: C2_2  and  C9_12 
REMARK    3  A    between atoms: C3_3  and  C4_4 
REMARK    4  A    between atoms: C4_4  and  C5_5 
REMARK    5  A    between atoms: C5_5  and  O1_6 
REMARK    6  A    between atoms: C5_5  and  C6_7 
REMARK    7  A    between atoms: C6_7  and  O2_9 
REMARK    8  A    between atoms: C6_7  and  C8_10 
REMARK    9  A    between atoms: C8_10  and  O3_11 
ROOT
HETATM    1  C9  UNL     1      -7.743   5.423  13.920  1.00  0.00    -0.002 C 
HETATM    2  C10 UNL     1      -6.639   6.453  14.286  1.00  0.00     0.007 C 
HETATM    3  C11 UNL     1      -7.350   7.789  14.580  1.00  0.00     0.015 C 
HETATM    4  C12 UNL     1      -8.831   7.418  14.790  1.00  0.00    -0.005 C 
HETATM    5  C13 UNL     1      -8.967   6.910  16.260  1.00  0.00     0.021 C 
HETATM    6  C14 UNL     1      -9.928   8.466  14.654  1.00  0.00    -0.000 C 
HETATM    7  C15 UNL     1     -11.183   8.118  14.262  1.00  0.00    -0.060 C 
HETATM    8  C16 UNL     1     -11.511   6.671  13.878  1.00  0.00     0.036 C 
HETATM    9  C17 UNL     1     -10.359   5.644  13.883  1.00  0.00     0.015 C 
HETATM   10  C18 UNL     1      -8.997   6.313  13.669  1.00  0.00    -0.028 C 
HETATM   11  C19 UNL     1      -8.963   6.900  12.228  1.00  0.00     0.016 C 
HETATM   12  C20 UNL     1     -12.336   9.151  14.125  1.00  0.00    -0.014 C 
HETATM   13  C21 UNL     1     -12.311   9.609  12.649  1.00  0.00     0.020 C 
HETATM   14  C22 UNL     1     -13.716   8.521  14.447  1.00  0.00     0.021 C 
HETATM   15  C23 UNL     1     -14.854   9.529  14.476  1.00  0.00     0.080 C 
HETATM   16  C24 UNL     1     -14.572  10.596  15.503  1.00  0.00     0.135 C 
HETATM   17  O4  UNL     1     -15.426  10.883  16.342  1.00  0.00    -0.297 OA
HETATM   18  C25 UNL     1     -13.231  11.339  15.399  1.00  0.00     0.018 C 
HETATM   19  C26 UNL     1     -12.993  12.074  16.743  1.00  0.00     0.023 C 
HETATM   20  C27 UNL     1     -13.358  12.419  14.315  1.00  0.00     0.023 C 
HETATM   21  C28 UNL     1     -12.083  10.294  15.171  1.00  0.00     0.020 C 
HETATM   22  C29 UNL     1     -10.711  10.927  14.927  1.00  0.00     0.090 C 
HETATM   23  C30 UNL     1      -9.612   9.891  15.004  1.00  0.00     0.157 C 
HETATM   24  O5  UNL     1      -8.477  10.234  15.327  1.00  0.00    -0.293 OA
ENDROOT
BRANCH   1  25
HETATM   25  C2  UNL     1      -7.266   4.316  12.929  1.00  0.00    -0.014 C 
HETATM   26  C1  UNL     1      -7.401   2.866  13.402  1.00  0.00     0.010 C 
BRANCH  25  27
HETATM   27  C3  UNL     1      -5.840   4.606  12.403  1.00  0.00     0.007 C 
BRANCH  27  28
HETATM   28  C4  UNL     1      -5.023   3.356  12.025  1.00  0.00     0.035 C 
BRANCH  28  29
HETATM   29  C5  UNL     1      -3.977   3.595  10.926  1.00  0.00     0.154 C 
BRANCH  29  30
HETATM   30  O1  UNL     1      -4.568   3.294   9.652  1.00  0.00    -0.392 OA
HETATM   31  H10 UNL     1      -3.813   3.293   9.027  1.00  0.00     0.210 HD
ENDBRANCH  29  30
BRANCH  29  32
HETATM   32  C6  UNL     1      -2.677   2.761  11.075  1.00  0.00     0.101 C 
HETATM   33  C7  UNL     1      -2.923   1.362  11.653  1.00  0.00     0.051 C 
BRANCH  32  34
HETATM   34  O2  UNL     1      -2.165   2.560   9.734  1.00  0.00    -0.385 OA
HETATM   35  H14 UNL     1      -1.203   2.407   9.845  1.00  0.00     0.210 HD
ENDBRANCH  32  34
BRANCH  32  36
HETATM   36  C8  UNL     1      -1.602   3.520  11.879  1.00  0.00     0.204 C 
BRANCH  36  37
HETATM   37  O3  UNL     1      -0.692   4.166  10.983  1.00  0.00    -0.398 OA
HETATM   38  H17 UNL     1      -0.021   3.509  10.722  1.00  0.00     0.209 HD
ENDBRANCH  36  37
ENDBRANCH  32  36
ENDBRANCH  29  32
ENDBRANCH  28  29
ENDBRANCH  27  28
ENDBRANCH  25  27
ENDBRANCH   1  25
TORSDOF 9
ENDMDL
MODEL 5
REMARK minimizedAffinity -7.89668989
REMARK CNNscore 0.264908135
REMARK CNNaffinity 6.70298338
REMARK  9 active torsions:
REMARK  status: ('A' for Active; 'I' for Inactive)
REMARK    1  A    between atoms: C2_2  and  C3_3 
REMARK    2  A    between atoms: C2_2  and  C9_12 
REMARK    3  A    between atoms: C3_3  and  C4_4 
REMARK    4  A    between atoms: C4_4  and  C5_5 
REMARK    5  A    between atoms: C5_5  and  O1_6 
REMARK    6  A    between atoms: C5_5  and  C6_7 
REMARK    7  A    between atoms: C6_7  and  O2_9 
REMARK    8  A    between atoms: C6_7  and  C8_10 
REMARK    9  A    between atoms: C8_10  and  O3_11 
ROOT
HETATM    1  C9  UNL     1      -0.391   9.253  14.183  1.00  0.00    -0.002 C 
HETATM    2  C10 UNL     1       0.206   8.135  13.285  1.00  0.00     0.007 C 
HETATM    3  C11 UNL     1      -0.931   7.136  12.993  1.00  0.00     0.015 C 
HETATM    4  C12 UNL     1      -2.227   7.885  13.358  1.00  0.00    -0.005 C 
HETATM    5  C13 UNL     1      -2.582   8.795  12.140  1.00  0.00     0.021 C 
HETATM    6  C14 UNL     1      -3.516   7.126  13.645  1.00  0.00    -0.000 C 
HETATM    7  C15 UNL     1      -4.455   7.636  14.487  1.00  0.00    -0.060 C 
HETATM    8  C16 UNL     1      -4.210   8.957  15.226  1.00  0.00     0.036 C 
HETATM    9  C17 UNL     1      -2.843   9.646  15.038  1.00  0.00     0.015 C 
HETATM   10  C18 UNL     1      -1.746   8.646  14.659  1.00  0.00    -0.028 C 
HETATM   11  C19 UNL     1      -1.516   7.694  15.869  1.00  0.00     0.016 C 
HETATM   12  C20 UNL     1      -5.789   6.904  14.797  1.00  0.00    -0.014 C 
HETATM   13  C21 UNL     1      -5.519   6.065  16.068  1.00  0.00     0.020 C 
HETATM   14  C22 UNL     1      -6.944   7.902  15.075  1.00  0.00     0.021 C 
HETATM   15  C23 UNL     1      -8.302   7.235  15.230  1.00  0.00     0.080 C 
HETATM   16  C24 UNL     1      -8.641   6.457  13.985  1.00  0.00     0.135 C 
HETATM   17  O4  UNL     1      -9.730   6.619  13.436  1.00  0.00    -0.297 OA
HETATM   18  C25 UNL     1      -7.614   5.422  13.498  1.00  0.00     0.018 C 
HETATM   19  C26 UNL     1      -7.975   5.050  12.037  1.00  0.00     0.023 C 
HETATM   20  C27 UNL     1      -7.776   4.147  14.337  1.00  0.00     0.023 C 
HETATM   21  C28 UNL     1      -6.183   6.067  13.529  1.00  0.00     0.020 C 
HETATM   22  C29 UNL     1      -5.058   5.089  13.182  1.00  0.00     0.090 C 
HETATM   23  C30 UNL     1      -3.756   5.820  12.947  1.00  0.00     0.157 C 
HETATM   24  O5  UNL     1      -2.907   5.324  12.208  1.00  0.00    -0.293 OA
ENDROOT
BRANCH   1  25
HETATM   25  C2  UNL     1       0.645   9.901  15.153  1.00  0.00    -0.014 C 
HETATM   26  C1  UNL     1       0.381  11.351  15.571  1.00  0.00     0.010 C 
BRANCH  25  27
HETATM   27  C3  UNL     1       2.092   9.718  14.637  1.00  0.00     0.007 C 
BRANCH  27  28
HETATM   28  C4  UNL     1       2.768   8.401  15.061  1.00  0.00     0.035 C 
BRANCH  28  29
HETATM   29  C5  UNL     1       4.275   8.523  15.330  1.00  0.00     0.154 C 
BRANCH  29  30
HETATM   30  O1  UNL     1       4.527   9.770  15.994  1.00  0.00    -0.392 OA
HETATM   31  H10 UNL     1       5.503   9.865  15.975  1.00  0.00     0.210 HD
ENDBRANCH  29  30
BRANCH  29  32
HETATM   32  C6  UNL     1       5.169   8.449  14.064  1.00  0.00     0.101 C 
HETATM   33  C7  UNL     1       4.473   7.770  12.876  1.00  0.00     0.051 C 
BRANCH  32  34
HETATM   34  O2  UNL     1       5.416   9.818  13.658  1.00  0.00    -0.385 OA
HETATM   35  H14 UNL     1       6.253   9.790  13.149  1.00  0.00     0.210 HD
ENDBRANCH  32  34
BRANCH  32  36
HETATM   36  C8  UNL     1       6.532   7.795  14.364  1.00  0.00     0.204 C 
BRANCH  36  37
HETATM   37  O3  UNL     1       6.391   6.371  14.389  1.00  0.00    -0.398 OA
HETATM   38  H17 UNL     1       6.086   6.122  15.279  1.00  0.00     0.209 HD
ENDBRANCH  36  37
ENDBRANCH  32  36
ENDBRANCH  29  32
ENDBRANCH  28  29
ENDBRANCH  27  28
ENDBRANCH  25  27
ENDBRANCH   1  25
TORSDOF 9
ENDMDL
MODEL 6
REMARK minimizedAffinity -8.36977196
REMARK CNNscore 0.254056364
REMARK CNNaffinity 6.36820459
REMARK  9 active torsions:
REMARK  status: ('A' for Active; 'I' for Inactive)
REMARK    1  A    between atoms: C2_2  and  C3_3 
REMARK    2  A    between atoms: C2_2  and  C9_12 
REMARK    3  A    between atoms: C3_3  and  C4_4 
REMARK    4  A    between atoms: C4_4  and  C5_5 
REMARK    5  A    between atoms: C5_5  and  O1_6 
REMARK    6  A    between atoms: C5_5  and  C6_7 
REMARK    7  A    between atoms: C6_7  and  O2_9 
REMARK    8  A    between atoms: C6_7  and  C8_10 
REMARK    9  A    between atoms: C8_10  and  O3_11 
ROOT
HETATM    1  C9  UNL     1       2.980   7.240  11.191  1.00  0.00    -0.002 C 
HETATM    2  C10 UNL     1       2.806   5.753  10.777  1.00  0.00     0.007 C 
HETATM    3  C11 UNL     1       1.426   5.300  11.294  1.00  0.00     0.015 C 
HETATM    4  C12 UNL     1       0.669   6.603  11.614  1.00  0.00    -0.005 C 
HETATM    5  C13 UNL     1       0.097   7.137  10.263  1.00  0.00     0.021 C 
HETATM    6  C14 UNL     1      -0.529   6.603  12.554  1.00  0.00    -0.000 C 
HETATM    7  C15 UNL     1      -0.841   7.703  13.290  1.00  0.00    -0.060 C 
HETATM    8  C16 UNL     1       0.048   8.952  13.247  1.00  0.00     0.036 C 
HETATM    9  C17 UNL     1       1.336   8.892  12.402  1.00  0.00     0.015 C 
HETATM   10  C18 UNL     1       1.847   7.456  12.239  1.00  0.00    -0.028 C 
HETATM   11  C19 UNL     1       2.297   6.938  13.636  1.00  0.00     0.016 C 
HETATM   12  C20 UNL     1      -2.062   7.753  14.249  1.00  0.00    -0.014 C 
HETATM   13  C21 UNL     1      -1.520   7.332  15.636  1.00  0.00     0.020 C 
HETATM   14  C22 UNL     1      -2.665   9.179  14.343  1.00  0.00     0.021 C 
HETATM   15  C23 UNL     1      -3.954   9.244  15.148  1.00  0.00     0.080 C 
HETATM   16  C24 UNL     1      -4.989   8.332  14.540  1.00  0.00     0.135 C 
HETATM   17  O4  UNL     1      -6.117   8.760  14.297  1.00  0.00    -0.297 OA
HETATM   18  C25 UNL     1      -4.595   6.864  14.320  1.00  0.00     0.018 C 
HETATM   19  C26 UNL     1      -5.629   6.237  13.350  1.00  0.00     0.023 C 
HETATM   20  C27 UNL     1      -4.729   6.121  15.657  1.00  0.00     0.023 C 
HETATM   21  C28 UNL     1      -3.170   6.808  13.664  1.00  0.00     0.020 C 
HETATM   22  C29 UNL     1      -2.616   5.389  13.510  1.00  0.00     0.090 C 
HETATM   23  C30 UNL     1      -1.392   5.377  12.623  1.00  0.00     0.157 C 
HETATM   24  O5  UNL     1      -1.110   4.360  11.993  1.00  0.00    -0.293 OA
ENDROOT
BRANCH   1  25
HETATM   25  C2  UNL     1       4.464   7.656  11.435  1.00  0.00    -0.014 C 
HETATM   26  C1  UNL     1       5.535   6.627  11.062  1.00  0.00     0.010 C 
BRANCH  25  27
HETATM   27  C3  UNL     1       4.671   8.188  12.873  1.00  0.00     0.007 C 
BRANCH  27  28
HETATM   28  C4  UNL     1       6.136   8.478  13.251  1.00  0.00     0.035 C 
BRANCH  28  29
HETATM   29  C5  UNL     1       6.686   7.589  14.375  1.00  0.00     0.154 C 
BRANCH  29  30
HETATM   30  O1  UNL     1       5.583   6.975  15.061  1.00  0.00    -0.392 OA
HETATM   31  H10 UNL     1       5.986   6.574  15.860  1.00  0.00     0.210 HD
ENDBRANCH  29  30
BRANCH  29  32
HETATM   32  C6  UNL     1       7.565   8.329  15.418  1.00  0.00     0.101 C 
HETATM   33  C7  UNL     1       7.520   9.855  15.266  1.00  0.00     0.051 C 
BRANCH  32  34
HETATM   34  O2  UNL     1       6.993   8.035  16.716  1.00  0.00    -0.385 OA
HETATM   35  H14 UNL     1       7.728   8.147  17.355  1.00  0.00     0.210 HD
ENDBRANCH  32  34
BRANCH  32  36
HETATM   36  C8  UNL     1       9.016   7.807  15.415  1.00  0.00     0.204 C 
BRANCH  36  37
HETATM   37  O3  UNL     1       9.927   8.909  15.476  1.00  0.00    -0.398 OA
HETATM   38  H17 UNL     1      10.052   9.236  14.567  1.00  0.00     0.209 HD
ENDBRANCH  36  37
ENDBRANCH  32  36
ENDBRANCH  29  32
ENDBRANCH  28  29
ENDBRANCH  27  28
ENDBRANCH  25  27
ENDBRANCH   1  25
TORSDOF 9
ENDMDL
MODEL 7
REMARK minimizedAffinity -6.69940186
REMARK CNNscore 0.247493386
REMARK CNNaffinity 5.82204866
REMARK  9 active torsions:
REMARK  status: ('A' for Active; 'I' for Inactive)
REMARK    1  A    between atoms: C2_2  and  C3_3 
REMARK    2  A    between atoms: C2_2  and  C9_12 
REMARK    3  A    between atoms: C3_3  and  C4_4 
REMARK    4  A    between atoms: C4_4  and  C5_5 
REMARK    5  A    between atoms: C5_5  and  O1_6 
REMARK    6  A    between atoms: C5_5  and  C6_7 
REMARK    7  A    between atoms: C6_7  and  O2_9 
REMARK    8  A    between atoms: C6_7  and  C8_10 
REMARK    9  A    between atoms: C8_10  and  O3_11 
ROOT
HETATM    1  C9  UNL     1      -3.132  10.191  15.416  1.00  0.00    -0.002 C 
HETATM    2  C10 UNL     1      -4.067  11.375  15.787  1.00  0.00     0.007 C 
HETATM    3  C11 UNL     1      -3.301  12.255  16.795  1.00  0.00     0.015 C 
HETATM    4  C12 UNL     1      -1.828  11.818  16.672  1.00  0.00    -0.005 C 
HETATM    5  C13 UNL     1      -1.240  12.558  15.430  1.00  0.00     0.021 C 
HETATM    6  C14 UNL     1      -0.831  12.105  17.786  1.00  0.00    -0.000 C 
HETATM    7  C15 UNL     1       0.240  11.291  17.993  1.00  0.00    -0.060 C 
HETATM    8  C16 UNL     1       0.433  10.022  17.155  1.00  0.00     0.036 C 
HETATM    9  C17 UNL     1      -0.658   9.665  16.125  1.00  0.00     0.015 C 
HETATM   10  C18 UNL     1      -2.020  10.256  16.506  1.00  0.00    -0.028 C 
HETATM   11  C19 UNL     1      -2.503   9.561  17.813  1.00  0.00     0.016 C 
HETATM   12  C20 UNL     1       1.290  11.554  19.107  1.00  0.00    -0.014 C 
HETATM   13  C21 UNL     1       0.805  10.750  20.335  1.00  0.00     0.020 C 
HETATM   14  C22 UNL     1       2.703  11.063  18.695  1.00  0.00     0.021 C 
HETATM   15  C23 UNL     1       3.792  11.438  19.689  1.00  0.00     0.080 C 
HETATM   16  C24 UNL     1       3.843  12.935  19.858  1.00  0.00     0.135 C 
HETATM   17  O4  UNL     1       4.916  13.529  19.752  1.00  0.00    -0.297 OA
HETATM   18  C25 UNL     1       2.536  13.648  20.236  1.00  0.00     0.018 C 
HETATM   19  C26 UNL     1       2.729  15.163  19.967  1.00  0.00     0.023 C 
HETATM   20  C27 UNL     1       2.316  13.487  21.747  1.00  0.00     0.023 C 
HETATM   21  C28 UNL     1       1.375  13.106  19.330  1.00  0.00     0.020 C 
HETATM   22  C29 UNL     1      -0.005  13.654  19.699  1.00  0.00     0.090 C 
HETATM   23  C30 UNL     1      -1.023  13.331  18.630  1.00  0.00     0.157 C 
HETATM   24  O5  UNL     1      -2.000  14.062  18.483  1.00  0.00    -0.293 OA
ENDROOT
BRANCH   1  25
HETATM   25  C2  UNL     1      -3.893   8.881  15.046  1.00  0.00    -0.014 C 
HETATM   26  C1  UNL     1      -3.781   8.408  13.593  1.00  0.00     0.010 C 
BRANCH  25  27
HETATM   27  C3  UNL     1      -5.369   8.936  15.507  1.00  0.00     0.007 C 
BRANCH  27  28
HETATM   28  C4  UNL     1      -6.366   8.217  14.578  1.00  0.00     0.035 C 
BRANCH  28  29
HETATM   29  C5  UNL     1      -7.323   7.258  15.300  1.00  0.00     0.154 C 
BRANCH  29  30
HETATM   30  O1  UNL     1      -6.787   6.960  16.598  1.00  0.00    -0.392 OA
HETATM   31  H10 UNL     1      -7.340   6.220  16.927  1.00  0.00     0.210 HD
ENDBRANCH  29  30
BRANCH  29  32
HETATM   32  C6  UNL     1      -7.585   5.921  14.556  1.00  0.00     0.101 C 
HETATM   33  C7  UNL     1      -6.323   5.338  13.906  1.00  0.00     0.051 C 
BRANCH  32  34
HETATM   34  O2  UNL     1      -7.996   4.967  15.566  1.00  0.00    -0.385 OA
HETATM   35  H14 UNL     1      -8.523   4.293  15.086  1.00  0.00     0.210 HD
ENDBRANCH  32  34
BRANCH  32  36
HETATM   36  C8  UNL     1      -8.734   6.051  13.536  1.00  0.00     0.204 C 
BRANCH  36  37
HETATM   37  O3  UNL     1      -8.367   5.409  12.310  1.00  0.00    -0.398 OA
HETATM   38  H17 UNL     1      -7.845   6.046  11.790  1.00  0.00     0.209 HD
ENDBRANCH  36  37
ENDBRANCH  32  36
ENDBRANCH  29  32
ENDBRANCH  28  29
ENDBRANCH  27  28
ENDBRANCH  25  27
ENDBRANCH   1  25
TORSDOF 9
ENDMDL
MODEL 8
REMARK minimizedAffinity -7.10572672
REMARK CNNscore 0.239032492
REMARK CNNaffinity 5.64942408
REMARK  9 active torsions:
REMARK  status: ('A' for Active; 'I' for Inactive)
REMARK    1  A    between atoms: C2_2  and  C3_3 
REMARK    2  A    between atoms: C2_2  and  C9_12 
REMARK    3  A    between atoms: C3_3  and  C4_4 
REMARK    4  A    between atoms: C4_4  and  C5_5 
REMARK    5  A    between atoms: C5_5  and  O1_6 
REMARK    6  A    between atoms: C5_5  and  C6_7 
REMARK    7  A    between atoms: C6_7  and  O2_9 
REMARK    8  A    between atoms: C6_7  and  C8_10 
REMARK    9  A    between atoms: C8_10  and  O3_11 
ROOT
HETATM    1  C9  UNL     1      -4.226 -10.357   5.887  1.00  0.00    -0.002 C 
HETATM    2  C10 UNL     1      -3.038 -11.298   6.232  1.00  0.00     0.007 C 
HETATM    3  C11 UNL     1      -2.701 -12.086   4.951  1.00  0.00     0.015 C 
HETATM    4  C12 UNL     1      -3.391 -11.313   3.810  1.00  0.00    -0.005 C 
HETATM    5  C13 UNL     1      -2.454 -10.121   3.440  1.00  0.00     0.021 C 
HETATM    6  C14 UNL     1      -3.687 -11.985   2.476  1.00  0.00    -0.000 C 
HETATM    7  C15 UNL     1      -4.739 -11.587   1.711  1.00  0.00    -0.060 C 
HETATM    8  C16 UNL     1      -5.699 -10.498   2.204  1.00  0.00     0.036 C 
HETATM    9  C17 UNL     1      -5.474  -9.924   3.618  1.00  0.00     0.015 C 
HETATM   10  C18 UNL     1      -4.745 -10.917   4.528  1.00  0.00    -0.028 C 
HETATM   11  C19 UNL     1      -5.683 -12.136   4.769  1.00  0.00     0.016 C 
HETATM   12  C20 UNL     1      -5.069 -12.232   0.337  1.00  0.00    -0.014 C 
HETATM   13  C21 UNL     1      -6.084 -13.359   0.638  1.00  0.00     0.020 C 
HETATM   14  C22 UNL     1      -5.707 -11.212  -0.642  1.00  0.00     0.021 C 
HETATM   15  C23 UNL     1      -5.904 -11.758  -2.048  1.00  0.00     0.080 C 
HETATM   16  C24 UNL     1      -4.582 -12.198  -2.622  1.00  0.00     0.135 C 
HETATM   17  O4  UNL     1      -4.235 -11.808  -3.736  1.00  0.00    -0.297 OA
HETATM   18  C25 UNL     1      -3.751 -13.193  -1.797  1.00  0.00     0.018 C 
HETATM   19  C26 UNL     1      -2.307 -13.187  -2.365  1.00  0.00     0.023 C 
HETATM   20  C27 UNL     1      -4.315 -14.602  -2.026  1.00  0.00     0.023 C 
HETATM   21  C28 UNL     1      -3.719 -12.718  -0.301  1.00  0.00     0.020 C 
HETATM   22  C29 UNL     1      -3.022 -13.700   0.644  1.00  0.00     0.090 C 
HETATM   23  C30 UNL     1      -2.768 -13.069   1.993  1.00  0.00     0.157 C 
HETATM   24  O5  UNL     1      -1.832 -13.468   2.683  1.00  0.00    -0.293 OA
ENDROOT
BRANCH   1  25
HETATM   25  C2  UNL     1      -5.158 -10.052   7.100  1.00  0.00    -0.014 C 
HETATM   26  C1  UNL     1      -6.152  -8.899   6.929  1.00  0.00     0.010 C 
BRANCH  25  27
HETATM   27  C3  UNL     1      -4.349  -9.907   8.411  1.00  0.00     0.007 C 
BRANCH  27  28
HETATM   28  C4  UNL     1      -5.083 -10.383   9.680  1.00  0.00     0.035 C 
BRANCH  28  29
HETATM   29  C5  UNL     1      -5.144  -9.337  10.803  1.00  0.00     0.154 C 
BRANCH  29  30
HETATM   30  O1  UNL     1      -4.197  -9.695  11.821  1.00  0.00    -0.392 OA
HETATM   31  H10 UNL     1      -4.410  -9.102  12.572  1.00  0.00     0.210 HD
ENDBRANCH  29  30
BRANCH  29  32
HETATM   32  C6  UNL     1      -6.540  -9.175  11.462  1.00  0.00     0.101 C 
HETATM   33  C7  UNL     1      -7.618 -10.051  10.811  1.00  0.00     0.051 C 
BRANCH  32  34
HETATM   34  O2  UNL     1      -6.404  -9.648  12.825  1.00  0.00    -0.385 OA
HETATM   35  H14 UNL     1      -7.113  -9.195  13.328  1.00  0.00     0.210 HD
ENDBRANCH  32  34
BRANCH  32  36
HETATM   36  C8  UNL     1      -6.976  -7.697  11.519  1.00  0.00     0.204 C 
BRANCH  36  37
HETATM   37  O3  UNL     1      -6.315  -7.038  12.605  1.00  0.00    -0.398 OA
HETATM   38  H17 UNL     1      -6.832  -7.213  13.412  1.00  0.00     0.209 HD
ENDBRANCH  36  37
ENDBRANCH  32  36
ENDBRANCH  29  32
ENDBRANCH  28  29
ENDBRANCH  27  28
ENDBRANCH  25  27
ENDBRANCH   1  25
TORSDOF 9
ENDMDL
MODEL 9
REMARK minimizedAffinity -7.31812477
REMARK CNNscore 0.237190455
REMARK CNNaffinity 6.83827209
REMARK  9 active torsions:
REMARK  status: ('A' for Active; 'I' for Inactive)
REMARK    1  A    between atoms: C2_2  and  C3_3 
REMARK    2  A    between atoms: C2_2  and  C9_12 
REMARK    3  A    between atoms: C3_3  and  C4_4 
REMARK    4  A    between atoms: C4_4  and  C5_5 
REMARK    5  A    between atoms: C5_5  and  O1_6 
REMARK    6  A    between atoms: C5_5  and  C6_7 
REMARK    7  A    between atoms: C6_7  and  O2_9 
REMARK    8  A    between atoms: C6_7  and  C8_10 
REMARK    9  A    between atoms: C8_10  and  O3_11 
ROOT
HETATM    1  C9  UNL     1      -5.427   6.278  14.226  1.00  0.00    -0.002 C 
HETATM    2  C10 UNL     1      -4.978   7.686  14.705  1.00  0.00     0.007 C 
HETATM    3  C11 UNL     1      -6.259   8.506  14.956  1.00  0.00     0.015 C 
HETATM    4  C12 UNL     1      -7.394   7.465  15.029  1.00  0.00    -0.005 C 
HETATM    5  C13 UNL     1      -7.372   6.872  16.473  1.00  0.00     0.021 C 
HETATM    6  C14 UNL     1      -8.845   7.872  14.814  1.00  0.00    -0.000 C 
HETATM    7  C15 UNL     1      -9.751   6.992  14.308  1.00  0.00    -0.060 C 
HETATM    8  C16 UNL     1      -9.319   5.587  13.873  1.00  0.00     0.036 C 
HETATM    9  C17 UNL     1      -7.821   5.232  13.963  1.00  0.00     0.015 C 
HETATM   10  C18 UNL     1      -6.933   6.478  13.881  1.00  0.00    -0.028 C 
HETATM   11  C19 UNL     1      -7.083   7.091  12.457  1.00  0.00     0.016 C 
HETATM   12  C20 UNL     1     -11.244   7.359  14.086  1.00  0.00    -0.014 C 
HETATM   13  C21 UNL     1     -11.339   7.856  12.625  1.00  0.00     0.020 C 
HETATM   14  C22 UNL     1     -12.174   6.132  14.275  1.00  0.00     0.021 C 
HETATM   15  C23 UNL     1     -13.655   6.476  14.221  1.00  0.00     0.080 C 
HETATM   16  C24 UNL     1     -13.989   7.490  15.285  1.00  0.00     0.135 C 
HETATM   17  O4  UNL     1     -14.932   7.290  16.050  1.00  0.00    -0.297 OA
HETATM   18  C25 UNL     1     -13.163   8.785  15.311  1.00  0.00     0.018 C 
HETATM   19  C26 UNL     1     -13.399   9.469  16.682  1.00  0.00     0.023 C 
HETATM   20  C27 UNL     1     -13.715   9.733  14.237  1.00  0.00     0.023 C 
HETATM   21  C28 UNL     1     -11.642   8.425  15.168  1.00  0.00     0.020 C 
HETATM   22  C29 UNL     1     -10.726   9.646  15.056  1.00  0.00     0.090 C 
HETATM   23  C30 UNL     1      -9.275   9.254  15.213  1.00  0.00     0.157 C 
HETATM   24  O5  UNL     1      -8.467  10.076  15.640  1.00  0.00    -0.293 OA
ENDROOT
BRANCH   1  25
HETATM   25  C2  UNL     1      -4.411   5.588  13.264  1.00  0.00    -0.014 C 
HETATM   26  C1  UNL     1      -4.589   4.083  13.042  1.00  0.00     0.010 C 
BRANCH  25  27
HETATM   27  C3  UNL     1      -2.951   5.932  13.643  1.00  0.00     0.007 C 
BRANCH  27  28
HETATM   28  C4  UNL     1      -1.934   5.793  12.494  1.00  0.00     0.035 C 
BRANCH  28  29
HETATM   29  C5  UNL     1      -0.692   6.684  12.639  1.00  0.00     0.154 C 
BRANCH  29  30
HETATM   30  O1  UNL     1      -0.607   7.549  11.496  1.00  0.00    -0.392 OA
HETATM   31  H10 UNL     1       0.283   7.954  11.561  1.00  0.00     0.210 HD
ENDBRANCH  29  30
BRANCH  29  32
HETATM   32  C6  UNL     1       0.648   5.914  12.775  1.00  0.00     0.101 C 
HETATM   33  C7  UNL     1       1.877   6.832  12.721  1.00  0.00     0.051 C 
BRANCH  32  34
HETATM   34  O2  UNL     1       0.645   5.320  14.096  1.00  0.00    -0.385 OA
HETATM   35  H14 UNL     1       1.250   4.550  14.036  1.00  0.00     0.210 HD
ENDBRANCH  32  34
BRANCH  32  36
HETATM   36  C8  UNL     1       0.757   4.771  11.746  1.00  0.00     0.204 C 
BRANCH  36  37
HETATM   37  O3  UNL     1       1.008   5.312  10.445  1.00  0.00    -0.398 OA
HETATM   38  H17 UNL     1       0.148   5.564  10.061  1.00  0.00     0.209 HD
ENDBRANCH  36  37
ENDBRANCH  32  36
ENDBRANCH  29  32
ENDBRANCH  28  29
ENDBRANCH  27  28
ENDBRANCH  25  27
ENDBRANCH   1  25
TORSDOF 9
ENDMDL
