MODEL 1
REMARK minimizedAffinity -9.88514709
REMARK CNNscore 0.430883378
REMARK CNNaffinity 6.29801178
REMARK  11 active torsions:
REMARK  status: ('A' for Active; 'I' for Inactive)
REMARK    1  A    between atoms: C3_3  and  O1_4 
REMARK    2  A    between atoms: N1_14  and  O2_16 
REMARK    3  A    between atoms: O2_16  and  C13_17 
REMARK    4  A    between atoms: C13_17  and  C14_18 
REMARK       I    between atoms: C14_18  and  N2_20 
REMARK    5  A    between atoms: N2_20  and  C15_21 
REMARK    6  A    between atoms: C15_21  and  C16_22 
REMARK    7  A    between atoms: C15_21  and  C17_25 
REMARK    8  A    between atoms: C16_22  and  O5_24 
REMARK    9  A    between atoms: C17_25  and  O6_26 
REMARK   10  A    between atoms: C17_25  and  C18_27 
REMARK   11  A    between atoms: C22_31  and  N3_32 
ROOT
HETATM    1  C1  UNL     1       0.319  55.587 -25.346  1.00  0.00     0.015 C 
HETATM    2  C2  UNL     1       0.224  54.437 -25.685  1.00  0.00    -0.078 C 
HETATM    3  C3  UNL     1       0.117  53.029 -26.095  1.00  0.00     0.128 C 
HETATM    4  C4  UNL     1      -0.734  52.868 -27.367  1.00  0.00     0.052 C 
HETATM    5  C5  UNL     1      -1.371  51.472 -27.278  1.00  0.00     0.010 C 
HETATM    6  C6  UNL     1      -0.955  50.880 -25.919  1.00  0.00     0.002 C 
HETATM    7  C7  UNL     1      -1.982  49.928 -25.267  1.00  0.00    -0.004 C 
HETATM    8  C8  UNL     1      -2.297  48.691 -26.135  1.00  0.00     0.010 C 
HETATM    9  C9  UNL     1      -3.764  48.583 -26.542  1.00  0.00     0.035 C 
HETATM   10  C10 UNL     1      -4.722  48.717 -25.382  1.00  0.00    -0.069 C 
HETATM   11  C11 UNL     1      -5.903  48.076 -25.406  1.00  0.00     0.030 C 
HETATM   12  C12 UNL     1      -6.908  48.279 -24.333  1.00  0.00     0.032 C 
HETATM   13  N1  UNL     1      -7.867  47.404 -24.219  1.00  0.00    -0.271 N 
ATOM     14  H1  UNL     1      -7.977  46.589 -24.821  1.00  0.00     0.194 HD
HETATM   15  C24 UNL     1      -6.762  49.479 -23.412  1.00  0.00     0.060 C 
HETATM   16  C25 UNL     1      -5.612  50.409 -23.799  1.00  0.00     0.020 C 
HETATM   17  C26 UNL     1      -4.329  49.659 -24.239  1.00  0.00    -0.016 C 
HETATM   18  C27 UNL     1      -3.785  48.828 -23.051  1.00  0.00     0.020 C 
HETATM   19  C28 UNL     1      -3.255  50.667 -24.778  1.00  0.00     0.002 C 
HETATM   20  C29 UNL     1      -2.839  51.774 -23.795  1.00  0.00     0.007 C 
HETATM   21  C30 UNL     1      -1.874  52.765 -24.456  1.00  0.00     0.014 C 
HETATM   22  C31 UNL     1      -0.593  52.113 -25.047  1.00  0.00     0.003 C 
HETATM   23  C32 UNL     1       0.354  51.715 -23.899  1.00  0.00     0.020 C 
ENDROOT
BRANCH   3  24
HETATM   24  O1  UNL     1       1.440  52.562 -26.372  1.00  0.00    -0.377 OA
HETATM   25  H2  UNL     1       1.377  51.757 -26.908  1.00  0.00     0.211 HD
ENDBRANCH   3  24
BRANCH  13  26
HETATM   26  O2  UNL     1      -8.728  47.730 -23.161  1.00  0.00    -0.271 OA
BRANCH  26  27
HETATM   27  C13 UNL     1      -9.537  46.595 -22.863  1.00  0.00     0.303 C 
BRANCH  27  28
HETATM   28  C14 UNL     1     -10.697  46.605 -23.838  1.00  0.00     0.244 C 
HETATM   29  O3  UNL     1     -10.870  47.491 -24.672  1.00  0.00    -0.271 OA
HETATM   30  N2  UNL     1     -11.535  45.517 -23.746  1.00  0.00    -0.342 N 
HETATM   31  H16 UNL     1     -11.422  44.837 -22.997  1.00  0.00     0.163 HD
BRANCH  30  32
HETATM   32  C15 UNL     1     -12.771  45.420 -24.543  1.00  0.00     0.216 C 
BRANCH  32  33
HETATM   33  C16 UNL     1     -12.418  45.008 -25.978  1.00  0.00     0.166 C 
HETATM   34  O4  UNL     1     -11.702  45.609 -26.766  1.00  0.00    -0.648 OA
BRANCH  33  35
HETATM   35  O5  UNL     1     -13.024  43.859 -26.373  1.00  0.00    -0.775 OA
HETATM   36  H18 UNL     1     -12.657  43.708 -27.273  1.00  0.00     0.167 HD
ENDBRANCH  33  35
ENDBRANCH  32  33
BRANCH  32  37
HETATM   37  C17 UNL     1     -13.559  46.751 -24.512  1.00  0.00     0.184 C 
BRANCH  37  38
HETATM   38  O6  UNL     1     -13.573  47.354 -25.815  1.00  0.00    -0.388 OA
HETATM   39  H20 UNL     1     -12.662  47.656 -25.979  1.00  0.00     0.210 HD
ENDBRANCH  37  38
BRANCH  37  40
HETATM   40  C18 UNL     1     -14.964  46.625 -23.955  1.00  0.00    -0.025 A 
HETATM   41  C19 UNL     1     -15.143  46.454 -22.571  1.00  0.00     0.010 A 
HETATM   42  C20 UNL     1     -16.422  46.317 -22.021  1.00  0.00     0.003 A 
HETATM   43  C21 UNL     1     -17.545  46.354 -22.847  1.00  0.00     0.036 A 
HETATM   44  C22 UNL     1     -17.378  46.529 -24.226  1.00  0.00     0.103 A 
HETATM   45  C23 UNL     1     -16.098  46.666 -24.782  1.00  0.00     0.045 A 
BRANCH  44  46
HETATM   46  N3  UNL     1     -18.560  46.569 -25.097  1.00  0.00    -0.116 N 
HETATM   47  O7  UNL     1     -18.627  45.748 -26.025  1.00  0.00    -0.532 OA
HETATM   48  O8  UNL     1     -19.422  47.429 -24.862  1.00  0.00    -0.532 OA
ENDBRANCH  44  46
ENDBRANCH  37  40
ENDBRANCH  32  37
ENDBRANCH  30  32
ENDBRANCH  27  28
ENDBRANCH  26  27
ENDBRANCH  13  26
TORSDOF 11
ENDMDL
MODEL 2
REMARK minimizedAffinity -8.72701645
REMARK CNNscore 0.250149429
REMARK CNNaffinity 6.01462173
REMARK  11 active torsions:
REMARK  status: ('A' for Active; 'I' for Inactive)
REMARK    1  A    between atoms: C3_3  and  O1_4 
REMARK    2  A    between atoms: N1_14  and  O2_16 
REMARK    3  A    between atoms: O2_16  and  C13_17 
REMARK    4  A    between atoms: C13_17  and  C14_18 
REMARK       I    between atoms: C14_18  and  N2_20 
REMARK    5  A    between atoms: N2_20  and  C15_21 
REMARK    6  A    between atoms: C15_21  and  C16_22 
REMARK    7  A    between atoms: C15_21  and  C17_25 
REMARK    8  A    between atoms: C16_22  and  O5_24 
REMARK    9  A    between atoms: C17_25  and  O6_26 
REMARK   10  A    between atoms: C17_25  and  C18_27 
REMARK   11  A    between atoms: C22_31  and  N3_32 
ROOT
HETATM    1  C1  UNL     1      -1.964  52.972 -27.514  1.00  0.00     0.015 C 
HETATM    2  C2  UNL     1      -1.760  52.052 -26.767  1.00  0.00    -0.078 C 
HETATM    3  C3  UNL     1      -1.503  50.930 -25.852  1.00  0.00     0.128 C 
HETATM    4  C4  UNL     1      -2.198  49.640 -26.319  1.00  0.00     0.052 C 
HETATM    5  C5  UNL     1      -2.493  48.830 -25.047  1.00  0.00     0.010 C 
HETATM    6  C6  UNL     1      -2.048  49.698 -23.855  1.00  0.00     0.002 C 
HETATM    7  C7  UNL     1      -2.866  49.516 -22.558  1.00  0.00    -0.004 C 
HETATM    8  C8  UNL     1      -2.817  48.073 -22.011  1.00  0.00     0.010 C 
HETATM    9  C9  UNL     1      -4.184  47.399 -21.931  1.00  0.00     0.035 C 
HETATM   10  C10 UNL     1      -5.228  48.235 -21.228  1.00  0.00    -0.069 C 
HETATM   11  C11 UNL     1      -6.220  47.638 -20.544  1.00  0.00     0.030 C 
HETATM   12  C12 UNL     1      -7.319  48.432 -19.940  1.00  0.00     0.032 C 
HETATM   13  N1  UNL     1      -8.050  47.864 -19.023  1.00  0.00    -0.271 N 
ATOM     14  H1  UNL     1      -7.921  46.908 -18.694  1.00  0.00     0.194 HD
HETATM   15  C24 UNL     1      -7.526  49.864 -20.402  1.00  0.00     0.060 C 
HETATM   16  C25 UNL     1      -6.603  50.276 -21.548  1.00  0.00     0.020 C 
HETATM   17  C26 UNL     1      -5.151  49.756 -21.393  1.00  0.00    -0.016 C 
HETATM   18  C27 UNL     1      -4.514  50.380 -20.127  1.00  0.00     0.020 C 
HETATM   19  C28 UNL     1      -4.309  50.071 -22.678  1.00  0.00     0.002 C 
HETATM   20  C29 UNL     1      -4.238  51.556 -23.071  1.00  0.00     0.007 C 
HETATM   21  C30 UNL     1      -3.488  51.741 -24.395  1.00  0.00     0.014 C 
HETATM   22  C31 UNL     1      -2.050  51.151 -24.405  1.00  0.00     0.003 C 
HETATM   23  C32 UNL     1      -1.122  52.055 -23.572  1.00  0.00     0.020 C 
ENDROOT
BRANCH   3  24
HETATM   24  O1  UNL     1      -0.091  50.705 -25.837  1.00  0.00    -0.377 OA
HETATM   25  H2  UNL     1       0.077  49.818 -25.485  1.00  0.00     0.211 HD
ENDBRANCH   3  24
BRANCH  13  26
HETATM   26  O2  UNL     1      -9.038  48.739 -18.548  1.00  0.00    -0.271 OA
BRANCH  26  27
HETATM   27  C13 UNL     1     -10.001  47.988 -17.814  1.00  0.00     0.303 C 
BRANCH  27  28
HETATM   28  C14 UNL     1     -11.096  47.594 -18.787  1.00  0.00     0.244 C 
HETATM   29  O3  UNL     1     -10.873  47.213 -19.934  1.00  0.00    -0.271 OA
HETATM   30  N2  UNL     1     -12.371  47.662 -18.275  1.00  0.00    -0.342 N 
HETATM   31  H16 UNL     1     -12.539  48.057 -17.352  1.00  0.00     0.163 HD
BRANCH  30  32
HETATM   32  C15 UNL     1     -13.557  47.420 -19.115  1.00  0.00     0.216 C 
BRANCH  32  33
HETATM   33  C16 UNL     1     -13.669  48.532 -20.168  1.00  0.00     0.166 C 
HETATM   34  O4  UNL     1     -13.939  49.708 -19.976  1.00  0.00    -0.648 OA
BRANCH  33  35
HETATM   35  O5  UNL     1     -13.469  48.093 -21.438  1.00  0.00    -0.775 OA
HETATM   36  H18 UNL     1     -13.517  48.918 -21.971  1.00  0.00     0.167 HD
ENDBRANCH  33  35
ENDBRANCH  32  33
BRANCH  32  37
HETATM   37  C17 UNL     1     -14.839  47.323 -18.255  1.00  0.00     0.184 C 
BRANCH  37  38
HETATM   38  O6  UNL     1     -14.955  48.470 -17.399  1.00  0.00    -0.388 OA
HETATM   39  H20 UNL     1     -14.250  48.379 -16.733  1.00  0.00     0.210 HD
ENDBRANCH  37  38
BRANCH  37  40
HETATM   40  C18 UNL     1     -16.108  47.112 -19.058  1.00  0.00    -0.025 A 
HETATM   41  C19 UNL     1     -17.242  47.894 -18.771  1.00  0.00     0.010 A 
HETATM   42  C20 UNL     1     -18.436  47.718 -19.477  1.00  0.00     0.003 A 
HETATM   43  C21 UNL     1     -18.516  46.760 -20.487  1.00  0.00     0.036 A 
HETATM   44  C22 UNL     1     -17.392  45.980 -20.785  1.00  0.00     0.103 A 
HETATM   45  C23 UNL     1     -16.193  46.151 -20.078  1.00  0.00     0.045 A 
BRANCH  44  46
HETATM   46  N3  UNL     1     -17.474  44.970 -21.848  1.00  0.00    -0.116 N 
HETATM   47  O7  UNL     1     -18.044  45.283 -22.905  1.00  0.00    -0.532 OA
HETATM   48  O8  UNL     1     -16.977  43.856 -21.626  1.00  0.00    -0.532 OA
ENDBRANCH  44  46
ENDBRANCH  37  40
ENDBRANCH  32  37
ENDBRANCH  30  32
ENDBRANCH  27  28
ENDBRANCH  26  27
ENDBRANCH  13  26
TORSDOF 11
ENDMDL
MODEL 3
REMARK minimizedAffinity -8.49077988
REMARK CNNscore 0.239270687
REMARK CNNaffinity 6.04717875
REMARK  11 active torsions:
REMARK  status: ('A' for Active; 'I' for Inactive)
REMARK    1  A    between atoms: C3_3  and  O1_4 
REMARK    2  A    between atoms: N1_14  and  O2_16 
REMARK    3  A    between atoms: O2_16  and  C13_17 
REMARK    4  A    between atoms: C13_17  and  C14_18 
REMARK       I    between atoms: C14_18  and  N2_20 
REMARK    5  A    between atoms: N2_20  and  C15_21 
REMARK    6  A    between atoms: C15_21  and  C16_22 
REMARK    7  A    between atoms: C15_21  and  C17_25 
REMARK    8  A    between atoms: C16_22  and  O5_24 
REMARK    9  A    between atoms: C17_25  and  O6_26 
REMARK   10  A    between atoms: C17_25  and  C18_27 
REMARK   11  A    between atoms: C22_31  and  N3_32 
ROOT
HETATM    1  C1  UNL     1       0.569  52.023 -20.912  1.00  0.00     0.015 C 
HETATM    2  C2  UNL     1      -0.097  51.094 -20.540  1.00  0.00    -0.078 C 
HETATM    3  C3  UNL     1      -0.912  49.961 -20.076  1.00  0.00     0.128 C 
HETATM    4  C4  UNL     1      -0.694  48.709 -20.942  1.00  0.00     0.052 C 
HETATM    5  C5  UNL     1      -2.009  47.916 -20.882  1.00  0.00     0.010 C 
HETATM    6  C6  UNL     1      -2.999  48.760 -20.058  1.00  0.00     0.002 C 
HETATM    7  C7  UNL     1      -4.484  48.621 -20.458  1.00  0.00    -0.004 C 
HETATM    8  C8  UNL     1      -5.015  47.178 -20.319  1.00  0.00     0.010 C 
HETATM    9  C9  UNL     1      -5.510  46.575 -21.631  1.00  0.00     0.035 C 
HETATM   10  C10 UNL     1      -6.480  47.465 -22.373  1.00  0.00    -0.069 C 
HETATM   11  C11 UNL     1      -7.439  46.921 -23.143  1.00  0.00     0.030 C 
HETATM   12  C12 UNL     1      -8.332  47.771 -23.969  1.00  0.00     0.032 C 
HETATM   13  N1  UNL     1      -9.435  47.243 -24.419  1.00  0.00    -0.271 N 
ATOM     14  H1  UNL     1      -9.725  46.281 -24.245  1.00  0.00     0.194 HD
HETATM   15  C24 UNL     1      -7.930  49.212 -24.234  1.00  0.00     0.060 C 
HETATM   16  C25 UNL     1      -6.554  49.575 -23.678  1.00  0.00     0.020 C 
HETATM   17  C26 UNL     1      -6.276  48.980 -22.274  1.00  0.00    -0.016 C 
HETATM   18  C27 UNL     1      -7.283  49.570 -21.257  1.00  0.00     0.020 C 
HETATM   19  C28 UNL     1      -4.792  49.251 -21.841  1.00  0.00     0.002 C 
HETATM   20  C29 UNL     1      -4.373  50.730 -21.817  1.00  0.00     0.007 C 
HETATM   21  C30 UNL     1      -2.882  50.875 -21.491  1.00  0.00     0.014 C 
HETATM   22  C31 UNL     1      -2.452  50.211 -20.153  1.00  0.00     0.003 C 
HETATM   23  C32 UNL     1      -2.954  51.066 -18.974  1.00  0.00     0.020 C 
ENDROOT
BRANCH   3  24
HETATM   24  O1  UNL     1      -0.507  49.663 -18.738  1.00  0.00    -0.377 OA
HETATM   25  H2  UNL     1      -0.806  48.768 -18.517  1.00  0.00     0.211 HD
ENDBRANCH   3  24
BRANCH  13  26
HETATM   26  O2  UNL     1     -10.170  48.168 -25.175  1.00  0.00    -0.271 OA
BRANCH  26  27
HETATM   27  C13 UNL     1     -10.848  47.472 -26.217  1.00  0.00     0.303 C 
BRANCH  27  28
HETATM   28  C14 UNL     1     -12.125  46.912 -25.622  1.00  0.00     0.244 C 
HETATM   29  O3  UNL     1     -12.617  47.322 -24.574  1.00  0.00    -0.271 OA
HETATM   30  N2  UNL     1     -12.720  45.921 -26.369  1.00  0.00    -0.342 N 
HETATM   31  H16 UNL     1     -12.256  45.540 -27.190  1.00  0.00     0.163 HD
BRANCH  30  32
HETATM   32  C15 UNL     1     -13.907  45.193 -25.885  1.00  0.00     0.216 C 
BRANCH  32  33
HETATM   33  C16 UNL     1     -13.911  43.778 -26.479  1.00  0.00     0.166 C 
HETATM   34  O4  UNL     1     -14.751  42.906 -26.310  1.00  0.00    -0.648 OA
BRANCH  33  35
HETATM   35  O5  UNL     1     -12.819  43.511 -27.242  1.00  0.00    -0.775 OA
HETATM   36  H18 UNL     1     -13.000  42.607 -27.585  1.00  0.00     0.167 HD
ENDBRANCH  33  35
ENDBRANCH  32  33
BRANCH  32  37
HETATM   37  C17 UNL     1     -15.208  45.956 -26.227  1.00  0.00     0.184 C 
BRANCH  37  38
HETATM   38  O6  UNL     1     -15.837  45.379 -27.382  1.00  0.00    -0.388 OA
HETATM   39  H20 UNL     1     -15.262  45.599 -28.137  1.00  0.00     0.210 HD
ENDBRANCH  37  38
BRANCH  37  40
HETATM   40  C18 UNL     1     -16.184  46.063 -25.072  1.00  0.00    -0.025 A 
HETATM   41  C19 UNL     1     -15.696  46.327 -23.780  1.00  0.00     0.010 A 
HETATM   42  C20 UNL     1     -16.563  46.416 -22.686  1.00  0.00     0.003 A 
HETATM   43  C21 UNL     1     -17.935  46.247 -22.866  1.00  0.00     0.036 A 
HETATM   44  C22 UNL     1     -18.433  45.989 -24.149  1.00  0.00     0.103 A 
HETATM   45  C23 UNL     1     -17.567  45.898 -25.249  1.00  0.00     0.045 A 
BRANCH  44  46
HETATM   46  N3  UNL     1     -19.878  45.812 -24.341  1.00  0.00    -0.116 N 
HETATM   47  O7  UNL     1     -20.449  44.932 -23.679  1.00  0.00    -0.532 OA
HETATM   48  O8  UNL     1     -20.445  46.545 -25.165  1.00  0.00    -0.532 OA
ENDBRANCH  44  46
ENDBRANCH  37  40
ENDBRANCH  32  37
ENDBRANCH  30  32
ENDBRANCH  27  28
ENDBRANCH  26  27
ENDBRANCH  13  26
TORSDOF 11
ENDMDL
MODEL 4
REMARK minimizedAffinity -9.54752541
REMARK CNNscore 0.225626558
REMARK CNNaffinity 6.33054924
REMARK  11 active torsions:
REMARK  status: ('A' for Active; 'I' for Inactive)
REMARK    1  A    between atoms: C3_3  and  O1_4 
REMARK    2  A    between atoms: N1_14  and  O2_16 
REMARK    3  A    between atoms: O2_16  and  C13_17 
REMARK    4  A    between atoms: C13_17  and  C14_18 
REMARK       I    between atoms: C14_18  and  N2_20 
REMARK    5  A    between atoms: N2_20  and  C15_21 
REMARK    6  A    between atoms: C15_21  and  C16_22 
REMARK    7  A    between atoms: C15_21  and  C17_25 
REMARK    8  A    between atoms: C16_22  and  O5_24 
REMARK    9  A    between atoms: C17_25  and  O6_26 
REMARK   10  A    between atoms: C17_25  and  C18_27 
REMARK   11  A    between atoms: C22_31  and  N3_32 
ROOT
HETATM    1  C1  UNL     1      -1.627  49.987 -26.651  1.00  0.00     0.015 C 
HETATM    2  C2  UNL     1      -1.303  50.863 -25.894  1.00  0.00    -0.078 C 
HETATM    3  C3  UNL     1      -0.915  51.940 -24.972  1.00  0.00     0.128 C 
HETATM    4  C4  UNL     1       0.598  51.933 -24.689  1.00  0.00     0.052 C 
HETATM    5  C5  UNL     1       0.770  52.516 -23.278  1.00  0.00     0.010 C 
HETATM    6  C6  UNL     1      -0.646  52.770 -22.727  1.00  0.00     0.002 C 
HETATM    7  C7  UNL     1      -0.801  52.614 -21.198  1.00  0.00    -0.004 C 
HETATM    8  C8  UNL     1       0.094  53.585 -20.398  1.00  0.00     0.010 C 
HETATM    9  C9  UNL     1       1.099  52.885 -19.487  1.00  0.00     0.035 C 
HETATM   10  C10 UNL     1       0.478  51.829 -18.603  1.00  0.00    -0.069 C 
HETATM   11  C11 UNL     1       1.004  51.569 -17.393  1.00  0.00     0.030 C 
HETATM   12  C12 UNL     1       0.483  50.463 -16.553  1.00  0.00     0.032 C 
HETATM   13  N1  UNL     1       0.783  50.464 -15.285  1.00  0.00    -0.271 N 
ATOM     14  H1  UNL     1       1.356  51.174 -14.830  1.00  0.00     0.194 HD
HETATM   15  C24 UNL     1      -0.385  49.398 -17.202  1.00  0.00     0.060 C 
HETATM   16  C25 UNL     1      -0.523  49.561 -18.715  1.00  0.00     0.020 C 
HETATM   17  C26 UNL     1      -0.703  51.033 -19.166  1.00  0.00    -0.016 C 
HETATM   18  C27 UNL     1      -2.025  51.591 -18.586  1.00  0.00     0.020 C 
HETATM   19  C28 UNL     1      -0.669  51.141 -20.731  1.00  0.00     0.002 C 
HETATM   20  C29 UNL     1      -1.713  50.290 -21.473  1.00  0.00     0.007 C 
HETATM   21  C30 UNL     1      -1.522  50.383 -22.991  1.00  0.00     0.014 C 
HETATM   22  C31 UNL     1      -1.564  51.830 -23.555  1.00  0.00     0.003 C 
HETATM   23  C32 UNL     1      -3.018  52.338 -23.549  1.00  0.00     0.020 C 
ENDROOT
BRANCH   3  24
HETATM   24  O1  UNL     1      -1.253  53.181 -25.596  1.00  0.00    -0.377 OA
HETATM   25  H2  UNL     1      -0.760  53.892 -25.159  1.00  0.00     0.211 HD
ENDBRANCH   3  24
BRANCH  13  26
HETATM   26  O2  UNL     1       0.215  49.363 -14.628  1.00  0.00    -0.271 OA
BRANCH  26  27
HETATM   27  C13 UNL     1      -0.217  49.775 -13.334  1.00  0.00     0.303 C 
BRANCH  27  28
HETATM   28  C14 UNL     1       0.881  50.643 -12.751  1.00  0.00     0.244 C 
HETATM   29  O3  UNL     1       0.885  51.870 -12.832  1.00  0.00    -0.271 OA
HETATM   30  N2  UNL     1       1.868  49.953 -12.087  1.00  0.00    -0.342 N 
HETATM   31  H16 UNL     1       1.890  48.936 -12.101  1.00  0.00     0.163 HD
BRANCH  30  32
HETATM   32  C15 UNL     1       3.065  50.631 -11.556  1.00  0.00     0.216 C 
BRANCH  32  33
HETATM   33  C16 UNL     1       4.187  49.602 -11.362  1.00  0.00     0.166 C 
HETATM   34  O4  UNL     1       4.166  48.607 -10.652  1.00  0.00    -0.648 OA
BRANCH  33  35
HETATM   35  O5  UNL     1       5.316  49.899 -12.056  1.00  0.00    -0.775 OA
HETATM   36  H18 UNL     1       5.902  49.131 -11.873  1.00  0.00     0.167 HD
ENDBRANCH  33  35
ENDBRANCH  32  33
BRANCH  32  37
HETATM   37  C17 UNL     1       2.745  51.375 -10.238  1.00  0.00     0.184 C 
BRANCH  37  38
HETATM   38  O6  UNL     1       3.162  50.594  -9.108  1.00  0.00    -0.388 OA
HETATM   39  H20 UNL     1       2.554  49.834  -9.070  1.00  0.00     0.210 HD
ENDBRANCH  37  38
BRANCH  37  40
HETATM   40  C18 UNL     1       3.313  52.780 -10.168  1.00  0.00    -0.025 A 
HETATM   41  C19 UNL     1       2.549  53.856 -10.654  1.00  0.00     0.010 A 
HETATM   42  C20 UNL     1       3.044  55.164 -10.622  1.00  0.00     0.003 A 
HETATM   43  C21 UNL     1       4.312  55.418 -10.099  1.00  0.00     0.036 A 
HETATM   44  C22 UNL     1       5.079  54.355  -9.608  1.00  0.00     0.103 A 
HETATM   45  C23 UNL     1       4.587  53.042  -9.639  1.00  0.00     0.045 A 
BRANCH  44  46
HETATM   46  N3  UNL     1       6.414  54.621  -9.056  1.00  0.00    -0.116 N 
HETATM   47  O7  UNL     1       6.576  55.663  -8.404  1.00  0.00    -0.532 OA
HETATM   48  O8  UNL     1       7.307  53.792  -9.283  1.00  0.00    -0.532 OA
ENDBRANCH  44  46
ENDBRANCH  37  40
ENDBRANCH  32  37
ENDBRANCH  30  32
ENDBRANCH  27  28
ENDBRANCH  26  27
ENDBRANCH  13  26
TORSDOF 11
ENDMDL
MODEL 5
REMARK minimizedAffinity -8.70021343
REMARK CNNscore 0.21402584
REMARK CNNaffinity 6.37734222
REMARK  11 active torsions:
REMARK  status: ('A' for Active; 'I' for Inactive)
REMARK    1  A    between atoms: C3_3  and  O1_4 
REMARK    2  A    between atoms: N1_14  and  O2_16 
REMARK    3  A    between atoms: O2_16  and  C13_17 
REMARK    4  A    between atoms: C13_17  and  C14_18 
REMARK       I    between atoms: C14_18  and  N2_20 
REMARK    5  A    between atoms: N2_20  and  C15_21 
REMARK    6  A    between atoms: C15_21  and  C16_22 
REMARK    7  A    between atoms: C15_21  and  C17_25 
REMARK    8  A    between atoms: C16_22  and  O5_24 
REMARK    9  A    between atoms: C17_25  and  O6_26 
REMARK   10  A    between atoms: C17_25  and  C18_27 
REMARK   11  A    between atoms: C22_31  and  N3_32 
ROOT
HETATM    1  C1  UNL     1       1.968  51.445 -26.766  1.00  0.00     0.015 C 
HETATM    2  C2  UNL     1       1.122  51.978 -26.098  1.00  0.00    -0.078 C 
HETATM    3  C3  UNL     1       0.085  52.636 -25.288  1.00  0.00     0.128 C 
HETATM    4  C4  UNL     1       0.397  52.552 -23.784  1.00  0.00     0.052 C 
HETATM    5  C5  UNL     1      -0.962  52.563 -23.066  1.00  0.00     0.010 C 
HETATM    6  C6  UNL     1      -2.043  52.563 -24.163  1.00  0.00     0.002 C 
HETATM    7  C7  UNL     1      -3.358  51.840 -23.799  1.00  0.00    -0.004 C 
HETATM    8  C8  UNL     1      -4.067  52.454 -22.573  1.00  0.00     0.010 C 
HETATM    9  C9  UNL     1      -4.232  51.483 -21.407  1.00  0.00     0.035 C 
HETATM   10  C10 UNL     1      -4.841  50.160 -21.808  1.00  0.00    -0.069 C 
HETATM   11  C11 UNL     1      -5.596  49.473 -20.932  1.00  0.00     0.030 C 
HETATM   12  C12 UNL     1      -6.113  48.122 -21.261  1.00  0.00     0.032 C 
HETATM   13  N1  UNL     1      -7.094  47.651 -20.544  1.00  0.00    -0.271 N 
ATOM     14  H1  UNL     1      -7.530  48.148 -19.768  1.00  0.00     0.194 HD
HETATM   15  C24 UNL     1      -5.491  47.363 -22.421  1.00  0.00     0.060 C 
HETATM   16  C25 UNL     1      -4.299  48.082 -23.052  1.00  0.00     0.020 C 
HETATM   17  C26 UNL     1      -4.503  49.611 -23.198  1.00  0.00    -0.016 C 
HETATM   18  C27 UNL     1      -5.685  49.884 -24.161  1.00  0.00     0.020 C 
HETATM   19  C28 UNL     1      -3.184  50.302 -23.693  1.00  0.00     0.002 C 
HETATM   20  C29 UNL     1      -2.624  49.773 -25.023  1.00  0.00     0.007 C 
HETATM   21  C30 UNL     1      -1.282  50.435 -25.358  1.00  0.00     0.014 C 
HETATM   22  C31 UNL     1      -1.330  51.987 -25.417  1.00  0.00     0.003 C 
HETATM   23  C32 UNL     1      -2.047  52.426 -26.707  1.00  0.00     0.020 C 
ENDROOT
BRANCH   3  24
HETATM   24  O1  UNL     1       0.055  54.013 -25.669  1.00  0.00    -0.377 OA
HETATM   25  H2  UNL     1      -0.395  54.516 -24.973  1.00  0.00     0.211 HD
ENDBRANCH   3  24
BRANCH  13  26
HETATM   26  O2  UNL     1      -7.472  46.372 -20.979  1.00  0.00    -0.271 OA
BRANCH  26  27
HETATM   27  C13 UNL     1      -8.491  46.507 -21.966  1.00  0.00     0.303 C 
BRANCH  27  28
HETATM   28  C14 UNL     1      -9.818  46.557 -21.235  1.00  0.00     0.244 C 
HETATM   29  O3  UNL     1      -9.948  47.026 -20.106  1.00  0.00    -0.271 OA
HETATM   30  N2  UNL     1     -10.887  46.067 -21.950  1.00  0.00    -0.342 N 
HETATM   31  H16 UNL     1     -10.745  45.610 -22.848  1.00  0.00     0.163 HD
BRANCH  30  32
HETATM   32  C15 UNL     1     -12.227  45.941 -21.350  1.00  0.00     0.216 C 
BRANCH  32  33
HETATM   33  C16 UNL     1     -13.035  44.893 -22.129  1.00  0.00     0.166 C 
HETATM   34  O4  UNL     1     -14.017  44.277 -21.741  1.00  0.00    -0.648 OA
BRANCH  33  35
HETATM   35  O5  UNL     1     -12.537  44.640 -23.367  1.00  0.00    -0.775 OA
HETATM   36  H18 UNL     1     -13.186  44.006 -23.745  1.00  0.00     0.167 HD
ENDBRANCH  33  35
ENDBRANCH  32  33
BRANCH  32  37
HETATM   37  C17 UNL     1     -12.953  47.307 -21.317  1.00  0.00     0.184 C 
BRANCH  37  38
HETATM   38  O6  UNL     1     -13.938  47.375 -22.358  1.00  0.00    -0.388 OA
HETATM   39  H20 UNL     1     -13.440  47.426 -23.194  1.00  0.00     0.210 HD
ENDBRANCH  37  38
BRANCH  37  40
HETATM   40  C18 UNL     1     -13.560  47.651 -19.970  1.00  0.00    -0.025 A 
HETATM   41  C19 UNL     1     -14.556  48.642 -19.897  1.00  0.00     0.010 A 
HETATM   42  C20 UNL     1     -15.128  48.999 -18.672  1.00  0.00     0.003 A 
HETATM   43  C21 UNL     1     -14.718  48.368 -17.498  1.00  0.00     0.036 A 
HETATM   44  C22 UNL     1     -13.732  47.376 -17.560  1.00  0.00     0.103 A 
HETATM   45  C23 UNL     1     -13.154  47.015 -18.786  1.00  0.00     0.045 A 
BRANCH  44  46
HETATM   46  N3  UNL     1     -13.299  46.710 -16.325  1.00  0.00    -0.116 N 
HETATM   47  O7  UNL     1     -12.081  46.555 -16.144  1.00  0.00    -0.532 OA
HETATM   48  O8  UNL     1     -14.177  46.330 -15.536  1.00  0.00    -0.532 OA
ENDBRANCH  44  46
ENDBRANCH  37  40
ENDBRANCH  32  37
ENDBRANCH  30  32
ENDBRANCH  27  28
ENDBRANCH  26  27
ENDBRANCH  13  26
TORSDOF 11
ENDMDL
MODEL 6
REMARK minimizedAffinity -8.77558708
REMARK CNNscore 0.199215606
REMARK CNNaffinity 5.99166441
REMARK  11 active torsions:
REMARK  status: ('A' for Active; 'I' for Inactive)
REMARK    1  A    between atoms: C3_3  and  O1_4 
REMARK    2  A    between atoms: N1_14  and  O2_16 
REMARK    3  A    between atoms: O2_16  and  C13_17 
REMARK    4  A    between atoms: C13_17  and  C14_18 
REMARK       I    between atoms: C14_18  and  N2_20 
REMARK    5  A    between atoms: N2_20  and  C15_21 
REMARK    6  A    between atoms: C15_21  and  C16_22 
REMARK    7  A    between atoms: C15_21  and  C17_25 
REMARK    8  A    between atoms: C16_22  and  O5_24 
REMARK    9  A    between atoms: C17_25  and  O6_26 
REMARK   10  A    between atoms: C17_25  and  C18_27 
REMARK   11  A    between atoms: C22_31  and  N3_32 
ROOT
HETATM    1  C1  UNL     1      -0.004  54.971 -27.134  1.00  0.00     0.015 C 
HETATM    2  C2  UNL     1      -0.406  53.849 -27.290  1.00  0.00    -0.078 C 
HETATM    3  C3  UNL     1      -0.890  52.474 -27.483  1.00  0.00     0.128 C 
HETATM    4  C4  UNL     1      -2.363  52.443 -27.924  1.00  0.00     0.052 C 
HETATM    5  C5  UNL     1      -2.937  51.118 -27.396  1.00  0.00     0.010 C 
HETATM    6  C6  UNL     1      -1.818  50.442 -26.583  1.00  0.00     0.002 C 
HETATM    7  C7  UNL     1      -2.290  49.581 -25.391  1.00  0.00    -0.004 C 
HETATM    8  C8  UNL     1      -3.206  48.413 -25.814  1.00  0.00     0.010 C 
HETATM    9  C9  UNL     1      -4.601  48.469 -25.198  1.00  0.00     0.035 C 
HETATM   10  C10 UNL     1      -4.590  48.665 -23.700  1.00  0.00    -0.069 C 
HETATM   11  C11 UNL     1      -5.578  48.150 -22.947  1.00  0.00     0.030 C 
HETATM   12  C12 UNL     1      -5.651  48.421 -21.490  1.00  0.00     0.032 C 
HETATM   13  N1  UNL     1      -6.403  47.647 -20.761  1.00  0.00    -0.271 N 
ATOM     14  H1  UNL     1      -6.950  46.867 -21.124  1.00  0.00     0.194 HD
HETATM   15  C24 UNL     1      -4.836  49.569 -20.918  1.00  0.00     0.060 C 
HETATM   16  C25 UNL     1      -4.103  50.387 -21.980  1.00  0.00     0.020 C 
HETATM   17  C26 UNL     1      -3.471  49.523 -23.101  1.00  0.00    -0.016 C 
HETATM   18  C27 UNL     1      -2.386  48.603 -22.492  1.00  0.00     0.020 C 
HETATM   19  C28 UNL     1      -2.885  50.432 -24.239  1.00  0.00     0.002 C 
HETATM   20  C29 UNL     1      -1.833  51.457 -23.785  1.00  0.00     0.007 C 
HETATM   21  C30 UNL     1      -1.409  52.364 -24.946  1.00  0.00     0.014 C 
HETATM   22  C31 UNL     1      -0.864  51.602 -26.186  1.00  0.00     0.003 C 
HETATM   23  C32 UNL     1       0.549  51.072 -25.879  1.00  0.00     0.020 C 
ENDROOT
BRANCH   3  24
HETATM   24  O1  UNL     1      -0.095  51.882 -28.514  1.00  0.00    -0.377 OA
HETATM   25  H2  UNL     1      -0.563  51.105 -28.857  1.00  0.00     0.211 HD
ENDBRANCH   3  24
BRANCH  13  26
HETATM   26  O2  UNL     1      -6.364  48.025 -19.411  1.00  0.00    -0.271 OA
BRANCH  26  27
HETATM   27  C13 UNL     1      -7.126  47.092 -18.651  1.00  0.00     0.303 C 
BRANCH  27  28
HETATM   28  C14 UNL     1      -8.570  47.552 -18.696  1.00  0.00     0.244 C 
HETATM   29  O3  UNL     1      -8.902  48.704 -18.968  1.00  0.00    -0.271 OA
HETATM   30  N2  UNL     1      -9.496  46.566 -18.443  1.00  0.00    -0.342 N 
HETATM   31  H16 UNL     1      -9.199  45.641 -18.141  1.00  0.00     0.163 HD
BRANCH  30  32
HETATM   32  C15 UNL     1     -10.936  46.864 -18.340  1.00  0.00     0.216 C 
BRANCH  32  33
HETATM   33  C16 UNL     1     -11.305  47.084 -16.867  1.00  0.00     0.166 C 
HETATM   34  O4  UNL     1     -10.665  46.740 -15.884  1.00  0.00    -0.648 OA
BRANCH  33  35
HETATM   35  O5  UNL     1     -12.500  47.706 -16.698  1.00  0.00    -0.775 OA
HETATM   36  H18 UNL     1     -12.560  47.820 -15.723  1.00  0.00     0.167 HD
ENDBRANCH  33  35
ENDBRANCH  32  33
BRANCH  32  37
HETATM   37  C17 UNL     1     -11.784  45.736 -18.975  1.00  0.00     0.184 C 
BRANCH  37  38
HETATM   38  O6  UNL     1     -12.169  44.778 -17.977  1.00  0.00    -0.388 OA
HETATM   39  H20 UNL     1     -11.353  44.309 -17.728  1.00  0.00     0.210 HD
ENDBRANCH  37  38
BRANCH  37  40
HETATM   40  C18 UNL     1     -12.991  46.231 -19.748  1.00  0.00    -0.025 A 
HETATM   41  C19 UNL     1     -12.821  46.697 -21.064  1.00  0.00     0.010 A 
HETATM   42  C20 UNL     1     -13.906  47.178 -21.804  1.00  0.00     0.003 A 
HETATM   43  C21 UNL     1     -15.182  47.195 -21.243  1.00  0.00     0.036 A 
HETATM   44  C22 UNL     1     -15.364  46.728 -19.935  1.00  0.00     0.103 A 
HETATM   45  C23 UNL     1     -14.279  46.247 -19.189  1.00  0.00     0.045 A 
BRANCH  44  46
HETATM   46  N3  UNL     1     -16.707  46.745 -19.342  1.00  0.00    -0.116 N 
HETATM   47  O7  UNL     1     -17.125  47.817 -18.879  1.00  0.00    -0.532 OA
HETATM   48  O8  UNL     1     -17.345  45.681 -19.328  1.00  0.00    -0.532 OA
ENDBRANCH  44  46
ENDBRANCH  37  40
ENDBRANCH  32  37
ENDBRANCH  30  32
ENDBRANCH  27  28
ENDBRANCH  26  27
ENDBRANCH  13  26
TORSDOF 11
ENDMDL
MODEL 7
REMARK minimizedAffinity -10.2846909
REMARK CNNscore 0.191360638
REMARK CNNaffinity 6.1770668
REMARK  11 active torsions:
REMARK  status: ('A' for Active; 'I' for Inactive)
REMARK    1  A    between atoms: C3_3  and  O1_4 
REMARK    2  A    between atoms: N1_14  and  O2_16 
REMARK    3  A    between atoms: O2_16  and  C13_17 
REMARK    4  A    between atoms: C13_17  and  C14_18 
REMARK       I    between atoms: C14_18  and  N2_20 
REMARK    5  A    between atoms: N2_20  and  C15_21 
REMARK    6  A    between atoms: C15_21  and  C16_22 
REMARK    7  A    between atoms: C15_21  and  C17_25 
REMARK    8  A    between atoms: C16_22  and  O5_24 
REMARK    9  A    between atoms: C17_25  and  O6_26 
REMARK   10  A    between atoms: C17_25  and  C18_27 
REMARK   11  A    between atoms: C22_31  and  N3_32 
ROOT
HETATM    1  C1  UNL     1       2.140  51.471 -27.696  1.00  0.00     0.015 C 
HETATM    2  C2  UNL     1       1.391  52.022 -26.934  1.00  0.00    -0.078 C 
HETATM    3  C3  UNL     1       0.473  52.703 -26.008  1.00  0.00     0.128 C 
HETATM    4  C4  UNL     1       0.921  52.553 -24.545  1.00  0.00     0.052 C 
HETATM    5  C5  UNL     1      -0.361  52.607 -23.699  1.00  0.00     0.010 C 
HETATM    6  C6  UNL     1      -1.539  52.698 -24.685  1.00  0.00     0.002 C 
HETATM    7  C7  UNL     1      -2.850  52.029 -24.217  1.00  0.00    -0.004 C 
HETATM    8  C8  UNL     1      -3.406  52.636 -22.910  1.00  0.00     0.010 C 
HETATM    9  C9  UNL     1      -3.511  51.636 -21.763  1.00  0.00     0.035 C 
HETATM   10  C10 UNL     1      -4.225  50.359 -22.141  1.00  0.00    -0.069 C 
HETATM   11  C11 UNL     1      -4.928  49.681 -21.216  1.00  0.00     0.030 C 
HETATM   12  C12 UNL     1      -5.544  48.369 -21.533  1.00  0.00     0.032 C 
HETATM   13  N1  UNL     1      -6.476  47.924 -20.738  1.00  0.00    -0.271 N 
ATOM     14  H1  UNL     1      -6.809  48.415 -19.909  1.00  0.00     0.194 HD
HETATM   15  C24 UNL     1      -5.077  47.621 -22.770  1.00  0.00     0.060 C 
HETATM   16  C25 UNL     1      -3.914  48.300 -23.492  1.00  0.00     0.020 C 
HETATM   17  C26 UNL     1      -4.050  49.842 -23.572  1.00  0.00    -0.016 C 
HETATM   18  C27 UNL     1      -5.301  50.205 -24.408  1.00  0.00     0.020 C 
HETATM   19  C28 UNL     1      -2.749  50.483 -24.173  1.00  0.00     0.002 C 
HETATM   20  C29 UNL     1      -2.347  49.972 -25.566  1.00  0.00     0.007 C 
HETATM   21  C30 UNL     1      -1.010  50.576 -26.010  1.00  0.00     0.014 C 
HETATM   22  C31 UNL     1      -0.981  52.130 -26.019  1.00  0.00     0.003 C 
HETATM   23  C32 UNL     1      -1.794  52.649 -27.220  1.00  0.00     0.020 C 
ENDROOT
BRANCH   3  24
HETATM   24  O1  UNL     1       0.479  54.093 -26.344  1.00  0.00    -0.377 OA
HETATM   25  H2  UNL     1       0.124  54.593 -25.594  1.00  0.00     0.211 HD
ENDBRANCH   3  24
BRANCH  13  26
HETATM   26  O2  UNL     1      -6.961  46.681 -21.171  1.00  0.00    -0.271 OA
BRANCH  26  27
HETATM   27  C13 UNL     1      -8.286  46.854 -21.666  1.00  0.00     0.303 C 
BRANCH  27  28
HETATM   28  C14 UNL     1      -8.213  46.769 -23.178  1.00  0.00     0.244 C 
HETATM   29  O3  UNL     1      -7.787  45.785 -23.778  1.00  0.00    -0.271 OA
HETATM   30  N2  UNL     1      -8.697  47.874 -23.839  1.00  0.00    -0.342 N 
HETATM   31  H16 UNL     1      -8.969  48.709 -23.325  1.00  0.00     0.163 HD
BRANCH  30  32
HETATM   32  C15 UNL     1      -8.601  48.004 -25.305  1.00  0.00     0.216 C 
BRANCH  32  33
HETATM   33  C16 UNL     1      -9.779  48.843 -25.818  1.00  0.00     0.166 C 
HETATM   34  O4  UNL     1     -10.960  48.527 -25.837  1.00  0.00    -0.648 OA
BRANCH  33  35
HETATM   35  O5  UNL     1      -9.404  50.045 -26.326  1.00  0.00    -0.775 OA
HETATM   36  H18 UNL     1     -10.260  50.471 -26.553  1.00  0.00     0.167 HD
ENDBRANCH  33  35
ENDBRANCH  32  33
BRANCH  32  37
HETATM   37  C17 UNL     1      -8.554  46.616 -25.985  1.00  0.00     0.184 C 
BRANCH  37  38
HETATM   38  O6  UNL     1      -9.880  46.085 -26.131  1.00  0.00    -0.388 OA
HETATM   39  H20 UNL     1     -10.180  45.865 -25.231  1.00  0.00     0.210 HD
ENDBRANCH  37  38
BRANCH  37  40
HETATM   40  C18 UNL     1      -7.813  46.600 -27.308  1.00  0.00    -0.025 A 
HETATM   41  C19 UNL     1      -8.167  45.652 -28.285  1.00  0.00     0.010 A 
HETATM   42  C20 UNL     1      -7.497  45.595 -29.511  1.00  0.00     0.003 A 
HETATM   43  C21 UNL     1      -6.463  46.489 -29.784  1.00  0.00     0.036 A 
HETATM   44  C22 UNL     1      -6.105  47.441 -28.821  1.00  0.00     0.103 A 
HETATM   45  C23 UNL     1      -6.773  47.501 -27.589  1.00  0.00     0.045 A 
BRANCH  44  46
HETATM   46  N3  UNL     1      -5.015  48.384 -29.107  1.00  0.00    -0.116 N 
HETATM   47  O7  UNL     1      -4.388  48.856 -28.146  1.00  0.00    -0.532 OA
HETATM   48  O8  UNL     1      -4.791  48.663 -30.293  1.00  0.00    -0.532 OA
ENDBRANCH  44  46
ENDBRANCH  37  40
ENDBRANCH  32  37
ENDBRANCH  30  32
ENDBRANCH  27  28
ENDBRANCH  26  27
ENDBRANCH  13  26
TORSDOF 11
ENDMDL
MODEL 8
REMARK minimizedAffinity -10.0511045
REMARK CNNscore 0.18558614
REMARK CNNaffinity 7.01687479
REMARK  11 active torsions:
REMARK  status: ('A' for Active; 'I' for Inactive)
REMARK    1  A    between atoms: C3_3  and  O1_4 
REMARK    2  A    between atoms: N1_14  and  O2_16 
REMARK    3  A    between atoms: O2_16  and  C13_17 
REMARK    4  A    between atoms: C13_17  and  C14_18 
REMARK       I    between atoms: C14_18  and  N2_20 
REMARK    5  A    between atoms: N2_20  and  C15_21 
REMARK    6  A    between atoms: C15_21  and  C16_22 
REMARK    7  A    between atoms: C15_21  and  C17_25 
REMARK    8  A    between atoms: C16_22  and  O5_24 
REMARK    9  A    between atoms: C17_25  and  O6_26 
REMARK   10  A    between atoms: C17_25  and  C18_27 
REMARK   11  A    between atoms: C22_31  and  N3_32 
ROOT
HETATM    1  C1  UNL     1       0.914  51.709 -28.559  1.00  0.00     0.015 C 
HETATM    2  C2  UNL     1       0.004  52.100 -27.878  1.00  0.00    -0.078 C 
HETATM    3  C3  UNL     1      -1.114  52.581 -27.052  1.00  0.00     0.128 C 
HETATM    4  C4  UNL     1      -0.626  53.175 -25.720  1.00  0.00     0.052 C 
HETATM    5  C5  UNL     1      -1.764  52.951 -24.712  1.00  0.00     0.010 C 
HETATM    6  C6  UNL     1      -2.857  52.154 -25.447  1.00  0.00     0.002 C 
HETATM    7  C7  UNL     1      -3.680  51.188 -24.567  1.00  0.00    -0.004 C 
HETATM    8  C8  UNL     1      -4.439  51.904 -23.429  1.00  0.00     0.010 C 
HETATM    9  C9  UNL     1      -4.034  51.441 -22.032  1.00  0.00     0.035 C 
HETATM   10  C10 UNL     1      -4.054  49.939 -21.867  1.00  0.00    -0.069 C 
HETATM   11  C11 UNL     1      -4.333  49.397 -20.668  1.00  0.00     0.030 C 
HETATM   12  C12 UNL     1      -4.250  47.931 -20.452  1.00  0.00     0.032 C 
HETATM   13  N1  UNL     1      -4.842  47.433 -19.404  1.00  0.00    -0.271 N 
ATOM     14  H1  UNL     1      -5.357  47.983 -18.718  1.00  0.00     0.194 HD
HETATM   15  C24 UNL     1      -3.499  47.084 -21.466  1.00  0.00     0.060 C 
HETATM   16  C25 UNL     1      -2.815  47.903 -22.560  1.00  0.00     0.020 C 
HETATM   17  C26 UNL     1      -3.674  49.083 -23.080  1.00  0.00    -0.016 C 
HETATM   18  C27 UNL     1      -4.960  48.531 -23.744  1.00  0.00     0.020 C 
HETATM   19  C28 UNL     1      -2.849  49.975 -24.073  1.00  0.00     0.002 C 
HETATM   20  C29 UNL     1      -2.272  49.239 -25.293  1.00  0.00     0.007 C 
HETATM   21  C30 UNL     1      -1.395  50.172 -26.136  1.00  0.00     0.014 C 
HETATM   22  C31 UNL     1      -2.115  51.461 -26.623  1.00  0.00     0.003 C 
HETATM   23  C32 UNL     1      -3.095  51.102 -27.756  1.00  0.00     0.020 C 
ENDROOT
BRANCH   3  24
HETATM   24  O1  UNL     1      -1.780  53.609 -27.791  1.00  0.00    -0.377 OA
HETATM   25  H2  UNL     1      -2.319  54.129 -27.177  1.00  0.00     0.211 HD
ENDBRANCH   3  24
BRANCH  13  26
HETATM   26  O2  UNL     1      -4.679  46.042 -19.342  1.00  0.00    -0.271 OA
BRANCH  26  27
HETATM   27  C13 UNL     1      -3.413  45.755 -18.753  1.00  0.00     0.303 C 
BRANCH  27  28
HETATM   28  C14 UNL     1      -3.274  46.648 -17.536  1.00  0.00     0.244 C 
HETATM   29  O3  UNL     1      -3.976  46.535 -16.534  1.00  0.00    -0.271 OA
HETATM   30  N2  UNL     1      -2.268  47.583 -17.621  1.00  0.00    -0.342 N 
HETATM   31  H16 UNL     1      -1.753  47.714 -18.489  1.00  0.00     0.163 HD
BRANCH  30  32
HETATM   32  C15 UNL     1      -2.066  48.601 -16.574  1.00  0.00     0.216 C 
BRANCH  32  33
HETATM   33  C16 UNL     1      -3.232  49.599 -16.605  1.00  0.00     0.166 C 
HETATM   34  O4  UNL     1      -4.016  49.794 -17.522  1.00  0.00    -0.648 OA
BRANCH  33  35
HETATM   35  O5  UNL     1      -3.333  50.344 -15.474  1.00  0.00    -0.775 OA
HETATM   36  H18 UNL     1      -4.143  50.879 -15.628  1.00  0.00     0.167 HD
ENDBRANCH  33  35
ENDBRANCH  32  33
BRANCH  32  37
HETATM   37  C17 UNL     1      -0.704  49.314 -16.747  1.00  0.00     0.184 C 
BRANCH  37  38
HETATM   38  O6  UNL     1       0.373  48.414 -16.444  1.00  0.00    -0.388 OA
HETATM   39  H20 UNL     1       0.336  48.267 -15.482  1.00  0.00     0.210 HD
ENDBRANCH  37  38
BRANCH  37  40
HETATM   40  C18 UNL     1      -0.510  49.956 -18.107  1.00  0.00    -0.025 A 
HETATM   41  C19 UNL     1      -0.714  49.187 -19.267  1.00  0.00     0.010 A 
HETATM   42  C20 UNL     1      -0.529  49.738 -20.539  1.00  0.00     0.003 A 
HETATM   43  C21 UNL     1      -0.142  51.071 -20.674  1.00  0.00     0.036 A 
HETATM   44  C22 UNL     1       0.058  51.847 -19.526  1.00  0.00     0.103 A 
HETATM   45  C23 UNL     1      -0.125  51.299 -18.248  1.00  0.00     0.045 A 
BRANCH  44  46
HETATM   46  N3  UNL     1       0.465  53.252 -19.665  1.00  0.00    -0.116 N 
HETATM   47  O7  UNL     1       1.535  53.492 -20.247  1.00  0.00    -0.532 OA
HETATM   48  O8  UNL     1      -0.279  54.119 -19.184  1.00  0.00    -0.532 OA
ENDBRANCH  44  46
ENDBRANCH  37  40
ENDBRANCH  32  37
ENDBRANCH  30  32
ENDBRANCH  27  28
ENDBRANCH  26  27
ENDBRANCH  13  26
TORSDOF 11
ENDMDL
MODEL 9
REMARK minimizedAffinity -8.67268944
REMARK CNNscore 0.180664331
REMARK CNNaffinity 5.06087923
REMARK  11 active torsions:
REMARK  status: ('A' for Active; 'I' for Inactive)
REMARK    1  A    between atoms: C3_3  and  O1_4 
REMARK    2  A    between atoms: N1_14  and  O2_16 
REMARK    3  A    between atoms: O2_16  and  C13_17 
REMARK    4  A    between atoms: C13_17  and  C14_18 
REMARK       I    between atoms: C14_18  and  N2_20 
REMARK    5  A    between atoms: N2_20  and  C15_21 
REMARK    6  A    between atoms: C15_21  and  C16_22 
REMARK    7  A    between atoms: C15_21  and  C17_25 
REMARK    8  A    between atoms: C16_22  and  O5_24 
REMARK    9  A    between atoms: C17_25  and  O6_26 
REMARK   10  A    between atoms: C17_25  and  C18_27 
REMARK   11  A    between atoms: C22_31  and  N3_32 
ROOT
HETATM    1  C1  UNL     1     -18.047  43.203 -17.516  1.00  0.00     0.015 C 
HETATM    2  C2  UNL     1     -18.578  43.775 -18.430  1.00  0.00    -0.078 C 
HETATM    3  C3  UNL     1     -19.231  44.481 -19.543  1.00  0.00     0.128 C 
HETATM    4  C4  UNL     1     -19.875  43.504 -20.540  1.00  0.00     0.052 C 
HETATM    5  C5  UNL     1     -19.845  44.208 -21.906  1.00  0.00     0.010 C 
HETATM    6  C6  UNL     1     -19.106  45.543 -21.700  1.00  0.00     0.002 C 
HETATM    7  C7  UNL     1     -18.297  46.048 -22.916  1.00  0.00    -0.004 C 
HETATM    8  C8  UNL     1     -19.172  46.291 -24.164  1.00  0.00     0.010 C 
HETATM    9  C9  UNL     1     -18.780  45.436 -25.366  1.00  0.00     0.035 C 
HETATM   10  C10 UNL     1     -17.305  45.492 -25.690  1.00  0.00    -0.069 C 
HETATM   11  C11 UNL     1     -16.889  45.348 -26.960  1.00  0.00     0.030 C 
HETATM   12  C12 UNL     1     -15.443  45.287 -27.290  1.00  0.00     0.032 C 
HETATM   13  N1  UNL     1     -15.089  45.487 -28.528  1.00  0.00    -0.271 N 
ATOM     14  H1  UNL     1     -15.740  45.680 -29.288  1.00  0.00     0.194 HD
HETATM   15  C24 UNL     1     -14.449  45.015 -26.173  1.00  0.00     0.060 C 
HETATM   16  C25 UNL     1     -15.108  44.725 -24.826  1.00  0.00     0.020 C 
HETATM   17  C26 UNL     1     -16.325  45.637 -24.521  1.00  0.00    -0.016 C 
HETATM   18  C27 UNL     1     -15.854  47.108 -24.424  1.00  0.00     0.020 C 
HETATM   19  C28 UNL     1     -17.050  45.175 -23.209  1.00  0.00     0.002 C 
HETATM   20  C29 UNL     1     -16.168  45.132 -21.950  1.00  0.00     0.007 C 
HETATM   21  C30 UNL     1     -16.941  44.564 -20.754  1.00  0.00     0.014 C 
HETATM   22  C31 UNL     1     -18.253  45.327 -20.420  1.00  0.00     0.003 C 
HETATM   23  C32 UNL     1     -17.906  46.673 -19.757  1.00  0.00     0.020 C 
ENDROOT
BRANCH   3  24
HETATM   24  O1  UNL     1     -20.259  45.302 -18.984  1.00  0.00    -0.377 OA
HETATM   25  H2  UNL     1     -20.877  45.546 -19.689  1.00  0.00     0.211 HD
ENDBRANCH   3  24
BRANCH  13  26
HETATM   26  O2  UNL     1     -13.697  45.403 -28.678  1.00  0.00    -0.271 OA
BRANCH  26  27
HETATM   27  C13 UNL     1     -13.155  46.720 -28.668  1.00  0.00     0.303 C 
BRANCH  27  28
HETATM   28  C14 UNL     1     -11.764  46.635 -29.265  1.00  0.00     0.244 C 
HETATM   29  O3  UNL     1     -10.752  46.452 -28.592  1.00  0.00    -0.271 OA
HETATM   30  N2  UNL     1     -11.718  46.744 -30.635  1.00  0.00    -0.342 N 
HETATM   31  H16 UNL     1     -12.555  46.976 -31.166  1.00  0.00     0.163 HD
BRANCH  30  32
HETATM   32  C15 UNL     1     -10.440  46.792 -31.367  1.00  0.00     0.216 C 
BRANCH  32  33
HETATM   33  C16 UNL     1      -9.582  45.583 -30.970  1.00  0.00     0.166 C 
HETATM   34  O4  UNL     1      -9.074  45.361 -29.881  1.00  0.00    -0.648 OA
BRANCH  33  35
HETATM   35  O5  UNL     1      -9.370  44.714 -31.992  1.00  0.00    -0.775 OA
HETATM   36  H18 UNL     1      -8.864  43.985 -31.567  1.00  0.00     0.167 HD
ENDBRANCH  33  35
ENDBRANCH  32  33
BRANCH  32  37
HETATM   37  C17 UNL     1      -9.698  48.124 -31.106  1.00  0.00     0.184 C 
BRANCH  37  38
HETATM   38  O6  UNL     1     -10.190  48.744 -29.909  1.00  0.00    -0.388 OA
HETATM   39  H20 UNL     1     -11.093  49.046 -30.115  1.00  0.00     0.210 HD
ENDBRANCH  37  38
BRANCH  37  40
HETATM   40  C18 UNL     1      -8.188  47.994 -31.071  1.00  0.00    -0.025 A 
HETATM   41  C19 UNL     1      -7.490  47.734 -32.264  1.00  0.00     0.010 A 
HETATM   42  C20 UNL     1      -6.100  47.590 -32.270  1.00  0.00     0.003 A 
HETATM   43  C21 UNL     1      -5.380  47.710 -31.081  1.00  0.00     0.036 A 
HETATM   44  C22 UNL     1      -6.063  47.974 -29.888  1.00  0.00     0.103 A 
HETATM   45  C23 UNL     1      -7.458  48.117 -29.877  1.00  0.00     0.045 A 
BRANCH  44  46
HETATM   46  N3  UNL     1      -5.307  48.101 -28.635  1.00  0.00    -0.116 N 
HETATM   47  O7  UNL     1      -4.135  48.502 -28.702  1.00  0.00    -0.532 OA
HETATM   48  O8  UNL     1      -5.880  47.789 -27.581  1.00  0.00    -0.532 OA
ENDBRANCH  44  46
ENDBRANCH  37  40
ENDBRANCH  32  37
ENDBRANCH  30  32
ENDBRANCH  27  28
ENDBRANCH  26  27
ENDBRANCH  13  26
TORSDOF 11
ENDMDL
