MODEL 1
REMARK minimizedAffinity -6.73359632
REMARK CNNscore 0.229532436
REMARK CNNaffinity 5.27989101
REMARK  10 active torsions:
REMARK  status: ('A' for Active; 'I' for Inactive)
REMARK    1  A    between atoms: O1_2  and  C2_3 
REMARK    2  A    between atoms: C11_15  and  O3_16 
REMARK    3  A    between atoms: O3_16  and  C12_17 
REMARK    4  A    between atoms: C12_17  and  C13_19 
REMARK    5  A    between atoms: C13_19  and  C14_20 
REMARK    6  A    between atoms: C14_20  and  C16_22 
REMARK    7  A    between atoms: C16_22  and  O5_23 
REMARK    8  A    between atoms: C24_32  and  O7_33 
REMARK    9  A    between atoms: C25_36  and  O8_37 
REMARK   10  A    between atoms: C26_39  and  O10_40 
ROOT
HETATM    1  C2  UNL     1     -10.864  38.732 -31.222  1.00  0.00     0.092 A 
HETATM    2  C3  UNL     1     -10.513  39.816 -32.033  1.00  0.00     0.046 A 
HETATM    3  C4  UNL     1     -10.689  41.134 -31.590  1.00  0.00    -0.049 A 
HETATM    4  C5  UNL     1     -11.222  41.356 -30.309  1.00  0.00     0.039 A 
HETATM    5  C6  UNL     1     -11.549  40.292 -29.451  1.00  0.00     0.061 A 
HETATM    6  C7  UNL     1     -11.389  38.972 -29.934  1.00  0.00     0.094 A 
HETATM    7 CL1  UNL     1     -11.963  37.601 -29.018  1.00  0.00    -0.079 Cl
HETATM    8  N1  UNL     1     -11.989  40.595 -28.112  1.00  0.00    -0.321 N 
HETATM    9  C8  UNL     1     -11.321  39.890 -27.019  1.00  0.00     0.159 C 
HETATM   10  C9  UNL     1     -12.945  41.602 -27.880  1.00  0.00     0.226 C 
HETATM   11  O2  UNL     1     -13.497  42.230 -28.784  1.00  0.00    -0.273 OA
HETATM   12  C10 UNL     1     -13.366  41.799 -26.425  1.00  0.00     0.139 C 
HETATM   13  C11 UNL     1     -14.103  43.117 -26.145  1.00  0.00     0.177 C 
HETATM   14  C17 UNL     1     -13.266  44.366 -26.447  1.00  0.00     0.111 A 
HETATM   15  C18 UNL     1     -13.768  45.305 -27.502  1.00  0.00     0.051 C 
HETATM   16  O6  UNL     1     -11.837  44.147 -26.502  1.00  0.00    -0.366 OA
HETATM   17  C19 UNL     1     -12.298  44.816 -25.337  1.00  0.00     0.165 A 
HETATM   18  C20 UNL     1     -11.767  46.198 -25.053  1.00  0.00     0.043 C 
HETATM   19  C21 UNL     1     -12.810  46.927 -24.181  1.00  0.00     0.015 C 
HETATM   20  C22 UNL     1     -11.304  47.126 -26.199  1.00  0.00     0.143 C 
HETATM   21  C23 UNL     1     -10.273  46.533 -27.152  1.00  0.00     0.097 C 
HETATM   22  C24 UNL     1      -9.813  47.639 -28.107  1.00  0.00     0.166 C 
HETATM   23  N2  UNL     1      -9.213  48.730 -27.337  1.00  0.00    -0.316 N 
ATOM     24  H2  UNL     1      -8.424  49.273 -27.687  1.00  0.00     0.166 HD
HETATM   25  C25 UNL     1      -9.743  48.956 -26.200  1.00  0.00     0.260 C 
HETATM   26  O9  UNL     1     -10.719  48.294 -25.563  1.00  0.00    -0.311 OA
HETATM   27  C26 UNL     1      -8.725  47.115 -29.132  1.00  0.00     0.199 C 
HETATM   28  C28 UNL     1      -9.165  45.875 -29.885  1.00  0.00     0.010 C 
HETATM   29  C29 UNL     1      -9.567  45.820 -31.165  1.00  0.00    -0.001 C 
HETATM   30  C30 UNL     1     -10.129  44.638 -31.774  1.00  0.00     0.002 C 
HETATM   31  C31 UNL     1      -9.574  43.415 -31.884  1.00  0.00    -0.080 C 
HETATM   32  C32 UNL     1      -8.175  43.060 -31.456  1.00  0.00     0.043 C 
HETATM   33  C33 UNL     1     -10.367  42.288 -32.520  1.00  0.00     0.072 C 
ENDROOT
BRANCH  13  34
HETATM   34  O3  UNL     1     -15.371  43.183 -26.826  1.00  0.00    -0.312 OA
BRANCH  34  35
HETATM   35  C12 UNL     1     -16.424  43.669 -26.121  1.00  0.00     0.259 C 
HETATM   36  O4  UNL     1     -16.502  43.693 -24.900  1.00  0.00    -0.265 OA
BRANCH  35  37
HETATM   37  C13 UNL     1     -17.495  44.170 -27.058  1.00  0.00     0.117 C 
BRANCH  37  38
HETATM   38  C14 UNL     1     -18.278  43.014 -27.702  1.00  0.00     0.014 C 
HETATM   39  C15 UNL     1     -19.788  43.234 -27.578  1.00  0.00     0.012 C 
BRANCH  38  40
HETATM   40  C16 UNL     1     -17.896  42.860 -29.178  1.00  0.00     0.168 C 
BRANCH  40  41
HETATM   41  O5  UNL     1     -17.985  44.106 -29.853  1.00  0.00    -0.400 OA
HETATM   42  H20 UNL     1     -17.354  44.716 -29.432  1.00  0.00     0.209 HD
ENDBRANCH  40  41
ENDBRANCH  38  40
ENDBRANCH  37  38
ENDBRANCH  35  37
ENDBRANCH  34  35
ENDBRANCH  13  34
BRANCH   1  43
HETATM   43  O1  UNL     1     -10.731  37.419 -31.603  1.00  0.00    -0.354 OA
HETATM   44  C1  UNL     1     -11.491  36.965 -32.714  1.00  0.00     0.210 C 
ENDBRANCH   1  43
BRANCH  22  45
HETATM   45  O7  UNL     1     -10.940  48.087 -28.867  1.00  0.00    -0.368 OA
HETATM   46  H32 UNL     1     -10.535  48.585 -29.605  1.00  0.00     0.212 HD
ENDBRANCH  22  45
BRANCH  25  47
HETATM   47  O8  UNL     1      -9.284  49.966 -25.455  1.00  0.00    -0.327 OA
HETATM   48  H33 UNL     1      -8.600  50.411 -25.978  1.00  0.00     0.221 HD
ENDBRANCH  25  47
BRANCH  27  49
HETATM   49  O10 UNL     1      -8.490  48.172 -30.092  1.00  0.00    -0.382 OA
HETATM   50  C27 UNL     1      -9.480  48.204 -31.110  1.00  0.00     0.202 C 
ENDBRANCH  27  49
TORSDOF 10
ENDMDL
MODEL 2
REMARK minimizedAffinity -6.60592747
REMARK CNNscore 0.218017921
REMARK CNNaffinity 5.52402735
REMARK  10 active torsions:
REMARK  status: ('A' for Active; 'I' for Inactive)
REMARK    1  A    between atoms: O1_2  and  C2_3 
REMARK    2  A    between atoms: C11_15  and  O3_16 
REMARK    3  A    between atoms: O3_16  and  C12_17 
REMARK    4  A    between atoms: C12_17  and  C13_19 
REMARK    5  A    between atoms: C13_19  and  C14_20 
REMARK    6  A    between atoms: C14_20  and  C16_22 
REMARK    7  A    between atoms: C16_22  and  O5_23 
REMARK    8  A    between atoms: C24_32  and  O7_33 
REMARK    9  A    between atoms: C25_36  and  O8_37 
REMARK   10  A    between atoms: C26_39  and  O10_40 
ROOT
HETATM    1  C2  UNL     1       6.472  56.533  -6.189  1.00  0.00     0.092 A 
HETATM    2  C3  UNL     1       5.531  57.037  -7.093  1.00  0.00     0.046 A 
HETATM    3  C4  UNL     1       4.836  56.182  -7.959  1.00  0.00    -0.049 A 
HETATM    4  C5  UNL     1       5.093  54.802  -7.907  1.00  0.00     0.039 A 
HETATM    5  C6  UNL     1       6.002  54.255  -6.984  1.00  0.00     0.061 A 
HETATM    6  C7  UNL     1       6.711  55.142  -6.141  1.00  0.00     0.094 A 
HETATM    7 CL1  UNL     1       8.004  54.571  -5.116  1.00  0.00    -0.079 Cl
HETATM    8  N1  UNL     1       6.136  52.822  -6.913  1.00  0.00    -0.321 N 
HETATM    9  C8  UNL     1       6.041  52.212  -5.588  1.00  0.00     0.159 C 
HETATM   10  C9  UNL     1       6.245  52.051  -8.086  1.00  0.00     0.226 C 
HETATM   11  O2  UNL     1       6.296  52.542  -9.215  1.00  0.00    -0.273 OA
HETATM   12  C10 UNL     1       6.429  50.548  -7.882  1.00  0.00     0.139 C 
HETATM   13  C11 UNL     1       6.173  49.696  -9.135  1.00  0.00     0.177 C 
HETATM   14  C17 UNL     1       4.743  49.813  -9.675  1.00  0.00     0.111 A 
HETATM   15  C18 UNL     1       4.561  50.360 -11.059  1.00  0.00     0.051 C 
HETATM   16  O6  UNL     1       3.767  50.304  -8.727  1.00  0.00    -0.366 OA
HETATM   17  C19 UNL     1       3.690  48.913  -9.001  1.00  0.00     0.165 A 
HETATM   18  C20 UNL     1       2.407  48.370  -9.575  1.00  0.00     0.043 C 
HETATM   19  C21 UNL     1       2.750  47.076 -10.341  1.00  0.00     0.015 C 
HETATM   20  C22 UNL     1       1.481  49.258 -10.438  1.00  0.00     0.143 C 
HETATM   21  C23 UNL     1       1.063  50.582  -9.810  1.00  0.00     0.097 C 
HETATM   22  C24 UNL     1       0.026  51.240 -10.724  1.00  0.00     0.166 C 
HETATM   23  N2  UNL     1      -1.137  50.360 -10.856  1.00  0.00    -0.316 N 
ATOM     24  H2  UNL     1      -2.087  50.722 -10.937  1.00  0.00     0.166 HD
HETATM   25  C25 UNL     1      -0.882  49.111 -10.862  1.00  0.00     0.260 C 
HETATM   26  O9  UNL     1       0.284  48.474 -10.687  1.00  0.00    -0.311 OA
HETATM   27  C26 UNL     1      -0.478  52.624 -10.142  1.00  0.00     0.199 C 
HETATM   28  C28 UNL     1       0.652  53.576  -9.806  1.00  0.00     0.010 C 
HETATM   29  C29 UNL     1       1.019  54.658 -10.510  1.00  0.00    -0.001 C 
HETATM   30  C30 UNL     1       2.206  55.429 -10.227  1.00  0.00     0.002 C 
HETATM   31  C31 UNL     1       2.542  56.049  -9.078  1.00  0.00    -0.080 C 
HETATM   32  C32 UNL     1       1.668  56.132  -7.856  1.00  0.00     0.043 C 
HETATM   33  C33 UNL     1       3.875  56.766  -8.977  1.00  0.00     0.072 C 
ENDROOT
BRANCH  13  34
HETATM   34  O3  UNL     1       7.130  49.967 -10.178  1.00  0.00    -0.312 OA
BRANCH  34  35
HETATM   35  C12 UNL     1       8.137  49.071 -10.336  1.00  0.00     0.259 C 
HETATM   36  O4  UNL     1       8.510  48.614 -11.409  1.00  0.00    -0.265 OA
BRANCH  35  37
HETATM   37  C13 UNL     1       8.729  48.707  -8.997  1.00  0.00     0.117 C 
BRANCH  37  38
HETATM   38  C14 UNL     1       9.151  47.230  -8.940  1.00  0.00     0.014 C 
HETATM   39  C15 UNL     1       8.063  46.322  -9.519  1.00  0.00     0.012 C 
BRANCH  38  40
HETATM   40  C16 UNL     1      10.465  47.014  -9.698  1.00  0.00     0.168 C 
BRANCH  40  41
HETATM   41  O5  UNL     1      11.180  48.235  -9.821  1.00  0.00    -0.400 OA
HETATM   42  H20 UNL     1      11.389  48.547  -8.922  1.00  0.00     0.209 HD
ENDBRANCH  40  41
ENDBRANCH  38  40
ENDBRANCH  37  38
ENDBRANCH  35  37
ENDBRANCH  34  35
ENDBRANCH  13  34
BRANCH   1  43
HETATM   43  O1  UNL     1       7.196  57.316  -5.324  1.00  0.00    -0.354 OA
HETATM   44  C1  UNL     1       6.570  58.473  -4.787  1.00  0.00     0.210 C 
ENDBRANCH   1  43
BRANCH  22  45
HETATM   45  O7  UNL     1       0.634  51.503 -11.993  1.00  0.00    -0.368 OA
HETATM   46  H32 UNL     1       0.017  52.133 -12.416  1.00  0.00     0.212 HD
ENDBRANCH  22  45
BRANCH  25  47
HETATM   47  O8  UNL     1      -1.884  48.241 -11.025  1.00  0.00    -0.327 OA
HETATM   48  H33 UNL     1      -2.688  48.764 -11.166  1.00  0.00     0.221 HD
ENDBRANCH  25  47
BRANCH  27  49
HETATM   49  O10 UNL     1      -1.310  53.241 -11.152  1.00  0.00    -0.382 OA
HETATM   50  C27 UNL     1      -2.549  53.694 -10.626  1.00  0.00     0.202 C 
ENDBRANCH  27  49
TORSDOF 10
ENDMDL
MODEL 3
REMARK minimizedAffinity -6.55194044
REMARK CNNscore 0.209572613
REMARK CNNaffinity 5.72429705
REMARK  10 active torsions:
REMARK  status: ('A' for Active; 'I' for Inactive)
REMARK    1  A    between atoms: O1_2  and  C2_3 
REMARK    2  A    between atoms: C11_15  and  O3_16 
REMARK    3  A    between atoms: O3_16  and  C12_17 
REMARK    4  A    between atoms: C12_17  and  C13_19 
REMARK    5  A    between atoms: C13_19  and  C14_20 
REMARK    6  A    between atoms: C14_20  and  C16_22 
REMARK    7  A    between atoms: C16_22  and  O5_23 
REMARK    8  A    between atoms: C24_32  and  O7_33 
REMARK    9  A    between atoms: C25_36  and  O8_37 
REMARK   10  A    between atoms: C26_39  and  O10_40 
ROOT
HETATM    1  C2  UNL     1       7.317  55.850  -5.428  1.00  0.00     0.092 A 
HETATM    2  C3  UNL     1       7.436  54.518  -5.840  1.00  0.00     0.046 A 
HETATM    3  C4  UNL     1       6.364  53.856  -6.453  1.00  0.00    -0.049 A 
HETATM    4  C5  UNL     1       5.160  54.551  -6.655  1.00  0.00     0.039 A 
HETATM    5  C6  UNL     1       5.016  55.901  -6.291  1.00  0.00     0.061 A 
HETATM    6  C7  UNL     1       6.103  56.537  -5.648  1.00  0.00     0.094 A 
HETATM    7 CL1  UNL     1       5.940  58.141  -4.977  1.00  0.00    -0.079 Cl
HETATM    8  N1  UNL     1       3.790  56.580  -6.626  1.00  0.00    -0.321 N 
HETATM    9  C8  UNL     1       3.910  57.866  -7.311  1.00  0.00     0.159 C 
HETATM   10  C9  UNL     1       2.543  55.969  -6.393  1.00  0.00     0.226 C 
HETATM   11  O2  UNL     1       2.420  54.872  -5.846  1.00  0.00    -0.273 OA
HETATM   12  C10 UNL     1       1.314  56.806  -6.747  1.00  0.00     0.139 C 
HETATM   13  C11 UNL     1       0.004  56.010  -6.842  1.00  0.00     0.177 C 
HETATM   14  C17 UNL     1       0.022  54.925  -7.926  1.00  0.00     0.111 A 
HETATM   15  C18 UNL     1      -0.146  53.500  -7.491  1.00  0.00     0.051 C 
HETATM   16  O6  UNL     1       1.026  55.100  -8.952  1.00  0.00    -0.366 OA
HETATM   17  C19 UNL     1      -0.303  55.392  -9.357  1.00  0.00     0.165 A 
HETATM   18  C20 UNL     1      -0.891  54.601 -10.496  1.00  0.00     0.043 C 
HETATM   19  C21 UNL     1      -2.425  54.628 -10.339  1.00  0.00     0.015 C 
HETATM   20  C22 UNL     1      -0.421  53.158 -10.791  1.00  0.00     0.143 C 
HETATM   21  C23 UNL     1       1.082  52.976 -10.964  1.00  0.00     0.097 C 
HETATM   22  C24 UNL     1       1.342  51.535 -11.412  1.00  0.00     0.166 C 
HETATM   23  N2  UNL     1       0.659  51.290 -12.685  1.00  0.00    -0.316 N 
ATOM     24  H2  UNL     1       1.052  50.684 -13.405  1.00  0.00     0.166 HD
HETATM   25  C25 UNL     1      -0.460  51.883 -12.831  1.00  0.00     0.260 C 
HETATM   26  O9  UNL     1      -1.073  52.765 -12.028  1.00  0.00    -0.311 OA
HETATM   27  C26 UNL     1       2.885  51.256 -11.630  1.00  0.00     0.199 C 
HETATM   28  C28 UNL     1       3.733  51.627 -10.429  1.00  0.00     0.010 C 
HETATM   29  C29 UNL     1       4.288  50.776  -9.552  1.00  0.00    -0.001 C 
HETATM   30  C30 UNL     1       4.945  51.199  -8.338  1.00  0.00     0.002 C 
HETATM   31  C31 UNL     1       5.994  52.035  -8.208  1.00  0.00    -0.080 C 
HETATM   32  C32 UNL     1       6.763  52.639  -9.352  1.00  0.00     0.043 C 
HETATM   33  C33 UNL     1       6.499  52.391  -6.822  1.00  0.00     0.072 C 
ENDROOT
BRANCH  13  34
HETATM   34  O3  UNL     1      -0.382  55.448  -5.572  1.00  0.00    -0.312 OA
BRANCH  34  35
HETATM   35  C12 UNL     1      -0.818  56.315  -4.624  1.00  0.00     0.259 C 
HETATM   36  O4  UNL     1      -0.961  57.520  -4.784  1.00  0.00    -0.265 OA
BRANCH  35  37
HETATM   37  C13 UNL     1      -1.095  55.583  -3.334  1.00  0.00     0.117 C 
BRANCH  37  38
HETATM   38  C14 UNL     1      -2.584  55.636  -2.955  1.00  0.00     0.014 C 
HETATM   39  C15 UNL     1      -3.328  54.398  -3.462  1.00  0.00     0.012 C 
BRANCH  38  40
HETATM   40  C16 UNL     1      -2.751  55.756  -1.436  1.00  0.00     0.168 C 
BRANCH  40  41
HETATM   41  O5  UNL     1      -2.079  56.908  -0.947  1.00  0.00    -0.400 OA
HETATM   42  H20 UNL     1      -2.485  57.688  -1.365  1.00  0.00     0.209 HD
ENDBRANCH  40  41
ENDBRANCH  38  40
ENDBRANCH  37  38
ENDBRANCH  35  37
ENDBRANCH  34  35
ENDBRANCH  13  34
BRANCH   1  43
HETATM   43  O1  UNL     1       8.323  56.551  -4.809  1.00  0.00    -0.354 OA
HETATM   44  C1  UNL     1       9.649  56.381  -5.291  1.00  0.00     0.210 C 
ENDBRANCH   1  43
BRANCH  22  45
HETATM   45  O7  UNL     1       0.883  50.646 -10.388  1.00  0.00    -0.368 OA
HETATM   46  H32 UNL     1       1.303  49.794 -10.621  1.00  0.00     0.212 HD
ENDBRANCH  22  45
BRANCH  25  47
HETATM   47  O8  UNL     1      -1.168  51.675 -13.945  1.00  0.00    -0.327 OA
HETATM   48  H33 UNL     1      -0.682  51.018 -14.467  1.00  0.00     0.221 HD
ENDBRANCH  25  47
BRANCH  27  49
HETATM   49  O10 UNL     1       3.038  49.838 -11.876  1.00  0.00    -0.382 OA
HETATM   50  C27 UNL     1       3.780  49.573 -13.058  1.00  0.00     0.202 C 
ENDBRANCH  27  49
TORSDOF 10
ENDMDL
MODEL 4
REMARK minimizedAffinity -6.56287479
REMARK CNNscore 0.172047153
REMARK CNNaffinity 5.28518629
REMARK  10 active torsions:
REMARK  status: ('A' for Active; 'I' for Inactive)
REMARK    1  A    between atoms: O1_2  and  C2_3 
REMARK    2  A    between atoms: C11_15  and  O3_16 
REMARK    3  A    between atoms: O3_16  and  C12_17 
REMARK    4  A    between atoms: C12_17  and  C13_19 
REMARK    5  A    between atoms: C13_19  and  C14_20 
REMARK    6  A    between atoms: C14_20  and  C16_22 
REMARK    7  A    between atoms: C16_22  and  O5_23 
REMARK    8  A    between atoms: C24_32  and  O7_33 
REMARK    9  A    between atoms: C25_36  and  O8_37 
REMARK   10  A    between atoms: C26_39  and  O10_40 
ROOT
HETATM    1  C2  UNL     1     -19.579  41.229 -26.124  1.00  0.00     0.092 A 
HETATM    2  C3  UNL     1     -19.051  41.963 -27.191  1.00  0.00     0.046 A 
HETATM    3  C4  UNL     1     -18.081  42.950 -26.975  1.00  0.00    -0.049 A 
HETATM    4  C5  UNL     1     -17.636  43.194 -25.665  1.00  0.00     0.039 A 
HETATM    5  C6  UNL     1     -18.114  42.449 -24.573  1.00  0.00     0.061 A 
HETATM    6  C7  UNL     1     -19.113  41.478 -24.814  1.00  0.00     0.094 A 
HETATM    7 CL1  UNL     1     -19.910  40.657 -23.495  1.00  0.00    -0.079 Cl
HETATM    8  N1  UNL     1     -17.534  42.679 -23.273  1.00  0.00    -0.321 N 
HETATM    9  C8  UNL     1     -17.081  41.502 -22.531  1.00  0.00     0.159 C 
HETATM   10  C9  UNL     1     -17.324  43.988 -22.801  1.00  0.00     0.226 C 
HETATM   11  O2  UNL     1     -17.670  44.994 -23.423  1.00  0.00    -0.273 OA
HETATM   12  C10 UNL     1     -16.747  44.104 -21.391  1.00  0.00     0.139 C 
HETATM   13  C11 UNL     1     -16.184  45.490 -21.043  1.00  0.00     0.177 C 
HETATM   14  C17 UNL     1     -15.021  45.924 -21.943  1.00  0.00     0.111 A 
HETATM   15  C18 UNL     1     -15.204  47.157 -22.777  1.00  0.00     0.051 C 
HETATM   16  O6  UNL     1     -14.352  44.849 -22.641  1.00  0.00    -0.366 OA
HETATM   17  C19 UNL     1     -13.628  45.397 -21.550  1.00  0.00     0.165 A 
HETATM   18  C20 UNL     1     -12.277  46.006 -21.824  1.00  0.00     0.043 C 
HETATM   19  C21 UNL     1     -11.996  47.036 -20.711  1.00  0.00     0.015 C 
HETATM   20  C22 UNL     1     -11.946  46.623 -23.202  1.00  0.00     0.143 C 
HETATM   21  C23 UNL     1     -12.184  45.717 -24.405  1.00  0.00     0.097 C 
HETATM   22  C24 UNL     1     -11.648  46.426 -25.652  1.00  0.00     0.166 C 
HETATM   23  N2  UNL     1     -10.214  46.677 -25.491  1.00  0.00    -0.316 N 
ATOM     24  H2  UNL     1      -9.563  46.635 -26.275  1.00  0.00     0.166 HD
HETATM   25  C25 UNL     1      -9.834  46.951 -24.306  1.00  0.00     0.260 C 
HETATM   26  O9  UNL     1     -10.535  46.967 -23.164  1.00  0.00    -0.311 OA
HETATM   27  C26 UNL     1     -11.842  45.549 -26.956  1.00  0.00     0.199 C 
HETATM   28  C28 UNL     1     -13.271  45.082 -27.153  1.00  0.00     0.010 C 
HETATM   29  C29 UNL     1     -14.154  45.568 -28.039  1.00  0.00    -0.001 C 
HETATM   30  C30 UNL     1     -15.547  45.192 -28.064  1.00  0.00     0.002 C 
HETATM   31  C31 UNL     1     -16.075  43.959 -28.197  1.00  0.00    -0.080 C 
HETATM   32  C32 UNL     1     -15.282  42.704 -28.443  1.00  0.00     0.043 C 
HETATM   33  C33 UNL     1     -17.581  43.780 -28.142  1.00  0.00     0.072 C 
ENDROOT
BRANCH  13  34
HETATM   34  O3  UNL     1     -17.210  46.502 -21.021  1.00  0.00    -0.312 OA
BRANCH  34  35
HETATM   35  C12 UNL     1     -17.732  46.822 -19.811  1.00  0.00     0.259 C 
HETATM   36  O4  UNL     1     -17.125  47.384 -18.909  1.00  0.00    -0.265 OA
BRANCH  35  37
HETATM   37  C13 UNL     1     -19.172  46.379 -19.728  1.00  0.00     0.117 C 
BRANCH  37  38
HETATM   38  C14 UNL     1     -19.346  45.170 -18.794  1.00  0.00     0.014 C 
HETATM   39  C15 UNL     1     -20.470  45.410 -17.783  1.00  0.00     0.012 C 
BRANCH  38  40
HETATM   40  C16 UNL     1     -19.636  43.901 -19.602  1.00  0.00     0.168 C 
BRANCH  40  41
HETATM   41  O5  UNL     1     -20.268  44.223 -20.832  1.00  0.00    -0.400 OA
HETATM   42  H20 UNL     1     -19.655  44.781 -21.343  1.00  0.00     0.209 HD
ENDBRANCH  40  41
ENDBRANCH  38  40
ENDBRANCH  37  38
ENDBRANCH  35  37
ENDBRANCH  34  35
ENDBRANCH  13  34
BRANCH   1  43
HETATM   43  O1  UNL     1     -20.541  40.259 -26.266  1.00  0.00    -0.354 OA
HETATM   44  C1  UNL     1     -21.815  40.650 -26.759  1.00  0.00     0.210 C 
ENDBRANCH   1  43
BRANCH  22  45
HETATM   45  O7  UNL     1     -12.378  47.643 -25.838  1.00  0.00    -0.368 OA
HETATM   46  H32 UNL     1     -12.167  47.897 -26.759  1.00  0.00     0.212 HD
ENDBRANCH  22  45
BRANCH  25  47
HETATM   47  O8  UNL     1      -8.548  47.238 -24.083  1.00  0.00    -0.327 OA
HETATM   48  H33 UNL     1      -8.105  47.229 -24.946  1.00  0.00     0.221 HD
ENDBRANCH  25  47
BRANCH  27  49
HETATM   49  O10 UNL     1     -11.471  46.370 -28.089  1.00  0.00    -0.382 OA
HETATM   50  C27 UNL     1     -10.553  45.713 -28.952  1.00  0.00     0.202 C 
ENDBRANCH  27  49
TORSDOF 10
ENDMDL
MODEL 5
REMARK minimizedAffinity -6.51963568
REMARK CNNscore 0.157739103
REMARK CNNaffinity 5.93716002
REMARK  10 active torsions:
REMARK  status: ('A' for Active; 'I' for Inactive)
REMARK    1  A    between atoms: O1_2  and  C2_3 
REMARK    2  A    between atoms: C11_15  and  O3_16 
REMARK    3  A    between atoms: O3_16  and  C12_17 
REMARK    4  A    between atoms: C12_17  and  C13_19 
REMARK    5  A    between atoms: C13_19  and  C14_20 
REMARK    6  A    between atoms: C14_20  and  C16_22 
REMARK    7  A    between atoms: C16_22  and  O5_23 
REMARK    8  A    between atoms: C24_32  and  O7_33 
REMARK    9  A    between atoms: C25_36  and  O8_37 
REMARK   10  A    between atoms: C26_39  and  O10_40 
ROOT
HETATM    1  C2  UNL     1      -3.867  48.525  -8.188  1.00  0.00     0.092 A 
HETATM    2  C3  UNL     1      -2.860  48.247  -7.258  1.00  0.00     0.046 A 
HETATM    3  C4  UNL     1      -1.643  48.942  -7.285  1.00  0.00    -0.049 A 
HETATM    4  C5  UNL     1      -1.446  49.932  -8.262  1.00  0.00     0.039 A 
HETATM    5  C6  UNL     1      -2.450  50.266  -9.188  1.00  0.00     0.061 A 
HETATM    6  C7  UNL     1      -3.657  49.530  -9.157  1.00  0.00     0.094 A 
HETATM    7 CL1  UNL     1      -4.870  49.735 -10.396  1.00  0.00    -0.079 Cl
HETATM    8  N1  UNL     1      -2.218  51.365 -10.091  1.00  0.00    -0.321 N 
HETATM    9  C8  UNL     1      -3.263  52.384 -10.178  1.00  0.00     0.159 C 
HETATM   10  C9  UNL     1      -0.991  51.491 -10.771  1.00  0.00     0.226 C 
HETATM   11  O2  UNL     1      -0.085  50.660 -10.687  1.00  0.00    -0.273 OA
HETATM   12  C10 UNL     1      -0.881  52.670 -11.736  1.00  0.00     0.139 C 
HETATM   13  C11 UNL     1       0.552  53.008 -12.173  1.00  0.00     0.177 C 
HETATM   14  C17 UNL     1       1.470  53.409 -11.011  1.00  0.00     0.111 A 
HETATM   15  C18 UNL     1       2.670  52.552 -10.741  1.00  0.00     0.051 C 
HETATM   16  O6  UNL     1       0.787  53.841  -9.812  1.00  0.00    -0.366 OA
HETATM   17  C19 UNL     1       1.392  54.881 -10.565  1.00  0.00     0.165 A 
HETATM   18  C20 UNL     1       2.450  55.721  -9.898  1.00  0.00     0.043 C 
HETATM   19  C21 UNL     1       3.353  56.300 -11.007  1.00  0.00     0.015 C 
HETATM   20  C22 UNL     1       3.324  55.147  -8.760  1.00  0.00     0.143 C 
HETATM   21  C23 UNL     1       2.564  54.530  -7.591  1.00  0.00     0.097 C 
HETATM   22  C24 UNL     1       3.575  54.173  -6.497  1.00  0.00     0.166 C 
HETATM   23  N2  UNL     1       4.268  55.386  -6.059  1.00  0.00    -0.316 N 
ATOM     24  H2  UNL     1       4.554  55.529  -5.091  1.00  0.00     0.166 HD
HETATM   25  C25 UNL     1       4.489  56.252  -6.969  1.00  0.00     0.260 C 
HETATM   26  O9  UNL     1       4.113  56.257  -8.255  1.00  0.00    -0.311 OA
HETATM   27  C26 UNL     1       2.870  53.534  -5.232  1.00  0.00     0.199 C 
HETATM   28  C28 UNL     1       1.981  52.355  -5.576  1.00  0.00     0.010 C 
HETATM   29  C29 UNL     1       2.259  51.059  -5.363  1.00  0.00    -0.001 C 
HETATM   30  C30 UNL     1       1.444  49.977  -5.863  1.00  0.00     0.002 C 
HETATM   31  C31 UNL     1       0.136  49.746  -5.636  1.00  0.00    -0.080 C 
HETATM   32  C32 UNL     1      -0.734  50.554  -4.711  1.00  0.00     0.043 C 
HETATM   33  C33 UNL     1      -0.544  48.568  -6.309  1.00  0.00     0.072 C 
ENDROOT
BRANCH  13  34
HETATM   34  O3  UNL     1       1.148  51.945 -12.943  1.00  0.00    -0.312 OA
BRANCH  34  35
HETATM   35  C12 UNL     1       0.644  51.728 -14.184  1.00  0.00     0.259 C 
HETATM   36  O4  UNL     1      -0.543  51.769 -14.479  1.00  0.00    -0.265 OA
BRANCH  35  37
HETATM   37  C13 UNL     1       1.758  51.421 -15.154  1.00  0.00     0.117 C 
BRANCH  37  38
HETATM   38  C14 UNL     1       1.940  52.542 -16.191  1.00  0.00     0.014 C 
HETATM   39  C15 UNL     1       3.420  52.774 -16.501  1.00  0.00     0.012 C 
BRANCH  38  40
HETATM   40  C16 UNL     1       1.185  52.210 -17.482  1.00  0.00     0.168 C 
BRANCH  40  41
HETATM   41  O5  UNL     1       1.259  53.291 -18.400  1.00  0.00    -0.400 OA
HETATM   42  H20 UNL     1       2.198  53.430 -18.618  1.00  0.00     0.209 HD
ENDBRANCH  40  41
ENDBRANCH  38  40
ENDBRANCH  37  38
ENDBRANCH  35  37
ENDBRANCH  34  35
ENDBRANCH  13  34
BRANCH   1  43
HETATM   43  O1  UNL     1      -5.074  47.871  -8.224  1.00  0.00    -0.354 OA
HETATM   44  C1  UNL     1      -5.128  46.604  -8.864  1.00  0.00     0.210 C 
ENDBRANCH   1  43
BRANCH  22  45
HETATM   45  O7  UNL     1       4.489  53.202  -7.018  1.00  0.00    -0.368 OA
HETATM   46  H32 UNL     1       4.922  52.845  -6.217  1.00  0.00     0.212 HD
ENDBRANCH  22  45
BRANCH  25  47
HETATM   47  O8  UNL     1       5.158  57.366  -6.660  1.00  0.00    -0.327 OA
HETATM   48  H33 UNL     1       5.416  57.289  -5.728  1.00  0.00     0.221 HD
ENDBRANCH  25  47
BRANCH  27  49
HETATM   49  O10 UNL     1       3.914  53.074  -4.341  1.00  0.00    -0.382 OA
HETATM   50  C27 UNL     1       3.726  53.532  -3.010  1.00  0.00     0.202 C 
ENDBRANCH  27  49
TORSDOF 10
ENDMDL
MODEL 6
REMARK minimizedAffinity -6.36171722
REMARK CNNscore 0.1464421
REMARK CNNaffinity 5.17375898
REMARK  10 active torsions:
REMARK  status: ('A' for Active; 'I' for Inactive)
REMARK    1  A    between atoms: O1_2  and  C2_3 
REMARK    2  A    between atoms: C11_15  and  O3_16 
REMARK    3  A    between atoms: O3_16  and  C12_17 
REMARK    4  A    between atoms: C12_17  and  C13_19 
REMARK    5  A    between atoms: C13_19  and  C14_20 
REMARK    6  A    between atoms: C14_20  and  C16_22 
REMARK    7  A    between atoms: C16_22  and  O5_23 
REMARK    8  A    between atoms: C24_32  and  O7_33 
REMARK    9  A    between atoms: C25_36  and  O8_37 
REMARK   10  A    between atoms: C26_39  and  O10_40 
ROOT
HETATM    1  C2  UNL     1       8.416  58.333  -4.547  1.00  0.00     0.092 A 
HETATM    2  C3  UNL     1       7.515  59.275  -4.040  1.00  0.00     0.046 A 
HETATM    3  C4  UNL     1       6.132  59.091  -4.170  1.00  0.00    -0.049 A 
HETATM    4  C5  UNL     1       5.656  57.938  -4.815  1.00  0.00     0.039 A 
HETATM    5  C6  UNL     1       6.529  56.950  -5.301  1.00  0.00     0.061 A 
HETATM    6  C7  UNL     1       7.921  57.174  -5.184  1.00  0.00     0.094 A 
HETATM    7 CL1  UNL     1       9.073  56.104  -5.943  1.00  0.00    -0.079 Cl
HETATM    8  N1  UNL     1       5.968  55.743  -5.855  1.00  0.00    -0.321 N 
HETATM    9  C8  UNL     1       6.495  54.475  -5.354  1.00  0.00     0.159 C 
HETATM   10  C9  UNL     1       4.888  55.801  -6.758  1.00  0.00     0.226 C 
HETATM   11  O2  UNL     1       4.408  56.858  -7.169  1.00  0.00    -0.273 OA
HETATM   12  C10 UNL     1       4.411  54.460  -7.312  1.00  0.00     0.139 C 
HETATM   13  C11 UNL     1       3.028  54.500  -7.981  1.00  0.00     0.177 C 
HETATM   14  C17 UNL     1       1.899  54.919  -7.032  1.00  0.00     0.111 A 
HETATM   15  C18 UNL     1       1.142  56.172  -7.357  1.00  0.00     0.051 C 
HETATM   16  O6  UNL     1       2.194  54.771  -5.625  1.00  0.00    -0.366 OA
HETATM   17  C19 UNL     1       1.303  53.802  -6.155  1.00  0.00     0.165 A 
HETATM   18  C20 UNL     1      -0.079  53.704  -5.563  1.00  0.00     0.043 C 
HETATM   19  C21 UNL     1      -1.004  53.097  -6.637  1.00  0.00     0.015 C 
HETATM   20  C22 UNL     1      -0.760  54.934  -4.921  1.00  0.00     0.143 C 
HETATM   21  C23 UNL     1       0.046  55.645  -3.840  1.00  0.00     0.097 C 
HETATM   22  C24 UNL     1      -0.844  56.720  -3.208  1.00  0.00     0.166 C 
HETATM   23  N2  UNL     1      -2.025  56.088  -2.617  1.00  0.00    -0.316 N 
ATOM     24  H2  UNL     1      -2.456  56.436  -1.760  1.00  0.00     0.166 HD
HETATM   25  C25 UNL     1      -2.479  55.076  -3.245  1.00  0.00     0.260 C 
HETATM   26  O9  UNL     1      -1.993  54.449  -4.324  1.00  0.00    -0.311 OA
HETATM   27  C26 UNL     1      -0.090  57.507  -2.060  1.00  0.00     0.199 C 
HETATM   28  C28 UNL     1       1.243  58.078  -2.504  1.00  0.00     0.010 C 
HETATM   29  C29 UNL     1       1.508  59.365  -2.775  1.00  0.00    -0.001 C 
HETATM   30  C30 UNL     1       2.752  59.819  -3.352  1.00  0.00     0.002 C 
HETATM   31  C31 UNL     1       4.001  59.650  -2.875  1.00  0.00    -0.080 C 
HETATM   32  C32 UNL     1       4.341  59.010  -1.555  1.00  0.00     0.043 C 
HETATM   33  C33 UNL     1       5.183  60.165  -3.674  1.00  0.00     0.072 C 
ENDROOT
BRANCH  13  34
HETATM   34  O3  UNL     1       3.025  55.323  -9.165  1.00  0.00    -0.312 OA
BRANCH  34  35
HETATM   35  C12 UNL     1       2.843  54.691 -10.352  1.00  0.00     0.259 C 
HETATM   36  O4  UNL     1       3.632  53.904 -10.858  1.00  0.00    -0.265 OA
BRANCH  35  37
HETATM   37  C13 UNL     1       1.529  55.102 -10.968  1.00  0.00     0.117 C 
BRANCH  37  38
HETATM   38  C14 UNL     1       0.408  54.100 -10.648  1.00  0.00     0.014 C 
HETATM   39  C15 UNL     1      -0.856  54.818 -10.170  1.00  0.00     0.012 C 
BRANCH  38  40
HETATM   40  C16 UNL     1       0.085  53.242 -11.876  1.00  0.00     0.168 C 
BRANCH  40  41
HETATM   41  O5  UNL     1       1.259  52.983 -12.631  1.00  0.00    -0.400 OA
HETATM   42  H20 UNL     1       1.874  52.489 -12.061  1.00  0.00     0.209 HD
ENDBRANCH  40  41
ENDBRANCH  38  40
ENDBRANCH  37  38
ENDBRANCH  35  37
ENDBRANCH  34  35
ENDBRANCH  13  34
BRANCH   1  43
HETATM   43  O1  UNL     1       9.781  58.460  -4.467  1.00  0.00    -0.354 OA
HETATM   44  C1  UNL     1      10.403  59.479  -5.237  1.00  0.00     0.210 C 
ENDBRANCH   1  43
BRANCH  22  45
HETATM   45  O7  UNL     1      -1.203  57.669  -4.218  1.00  0.00    -0.368 OA
HETATM   46  H32 UNL     1      -1.538  58.432  -3.705  1.00  0.00     0.212 HD
ENDBRANCH  22  45
BRANCH  25  47
HETATM   47  O8  UNL     1      -3.583  54.472  -2.796  1.00  0.00    -0.327 OA
HETATM   48  H33 UNL     1      -3.892  54.983  -2.032  1.00  0.00     0.221 HD
ENDBRANCH  25  47
BRANCH  27  49
HETATM   49  O10 UNL     1      -0.943  58.603  -1.654  1.00  0.00    -0.382 OA
HETATM   50  C27 UNL     1      -1.393  58.468  -0.314  1.00  0.00     0.202 C 
ENDBRANCH  27  49
TORSDOF 10
ENDMDL
MODEL 7
REMARK minimizedAffinity -6.95225906
REMARK CNNscore 0.134917617
REMARK CNNaffinity 5.39015388
REMARK  10 active torsions:
REMARK  status: ('A' for Active; 'I' for Inactive)
REMARK    1  A    between atoms: O1_2  and  C2_3 
REMARK    2  A    between atoms: C11_15  and  O3_16 
REMARK    3  A    between atoms: O3_16  and  C12_17 
REMARK    4  A    between atoms: C12_17  and  C13_19 
REMARK    5  A    between atoms: C13_19  and  C14_20 
REMARK    6  A    between atoms: C14_20  and  C16_22 
REMARK    7  A    between atoms: C16_22  and  O5_23 
REMARK    8  A    between atoms: C24_32  and  O7_33 
REMARK    9  A    between atoms: C25_36  and  O8_37 
REMARK   10  A    between atoms: C26_39  and  O10_40 
ROOT
HETATM    1  C2  UNL     1      -6.753  47.422 -27.450  1.00  0.00     0.092 A 
HETATM    2  C3  UNL     1      -7.963  46.721 -27.499  1.00  0.00     0.046 A 
HETATM    3  C4  UNL     1      -8.648  46.387 -26.324  1.00  0.00    -0.049 A 
HETATM    4  C5  UNL     1      -8.106  46.770 -25.086  1.00  0.00     0.039 A 
HETATM    5  C6  UNL     1      -6.914  47.510 -24.999  1.00  0.00     0.061 A 
HETATM    6  C7  UNL     1      -6.227  47.810 -26.199  1.00  0.00     0.094 A 
HETATM    7 CL1  UNL     1      -4.641  48.539 -26.170  1.00  0.00    -0.079 Cl
HETATM    8  N1  UNL     1      -6.474  47.962 -23.703  1.00  0.00    -0.321 N 
HETATM    9  C8  UNL     1      -6.129  49.377 -23.576  1.00  0.00     0.159 C 
HETATM   10  C9  UNL     1      -6.484  47.091 -22.597  1.00  0.00     0.226 C 
HETATM   11  O2  UNL     1      -6.802  45.904 -22.675  1.00  0.00    -0.273 OA
HETATM   12  C10 UNL     1      -5.952  47.671 -21.288  1.00  0.00     0.139 C 
HETATM   13  C11 UNL     1      -6.311  46.857 -20.035  1.00  0.00     0.177 C 
HETATM   14  C17 UNL     1      -7.820  46.743 -19.789  1.00  0.00     0.111 A 
HETATM   15  C18 UNL     1      -8.429  45.374 -19.804  1.00  0.00     0.051 C 
HETATM   16  O6  UNL     1      -8.627  47.742 -20.454  1.00  0.00    -0.366 OA
HETATM   17  C19 UNL     1      -8.477  47.928 -19.055  1.00  0.00     0.165 A 
HETATM   18  C20 UNL     1      -9.718  47.936 -18.200  1.00  0.00     0.043 C 
HETATM   19  C21 UNL     1      -9.303  47.525 -16.773  1.00  0.00     0.015 C 
HETATM   20  C22 UNL     1     -10.983  47.154 -18.622  1.00  0.00     0.143 C 
HETATM   21  C23 UNL     1     -11.507  47.454 -20.022  1.00  0.00     0.097 C 
HETATM   22  C24 UNL     1     -12.842  46.725 -20.200  1.00  0.00     0.166 C 
HETATM   23  N2  UNL     1     -13.795  47.202 -19.195  1.00  0.00    -0.316 N 
ATOM     24  H2  UNL     1     -14.791  47.295 -19.392  1.00  0.00     0.166 HD
HETATM   25  C25 UNL     1     -13.296  47.494 -18.059  1.00  0.00     0.260 C 
HETATM   26  O9  UNL     1     -12.016  47.506 -17.664  1.00  0.00    -0.311 OA
HETATM   27  C26 UNL     1     -13.471  46.990 -21.628  1.00  0.00     0.199 C 
HETATM   28  C28 UNL     1     -12.515  46.687 -22.766  1.00  0.00     0.010 C 
HETATM   29  C29 UNL     1     -12.555  45.618 -23.577  1.00  0.00    -0.001 C 
HETATM   30  C30 UNL     1     -11.521  45.305 -24.534  1.00  0.00     0.002 C 
HETATM   31  C31 UNL     1     -11.061  46.069 -25.544  1.00  0.00    -0.080 C 
HETATM   32  C32 UNL     1     -11.624  47.409 -25.935  1.00  0.00     0.043 C 
HETATM   33  C33 UNL     1      -9.920  45.563 -26.406  1.00  0.00     0.072 C 
ENDROOT
BRANCH  13  34
HETATM   34  O3  UNL     1      -5.701  45.551 -20.045  1.00  0.00    -0.312 OA
BRANCH  34  35
HETATM   35  C12 UNL     1      -4.569  45.396 -19.313  1.00  0.00     0.259 C 
HETATM   36  O4  UNL     1      -3.967  46.299 -18.748  1.00  0.00    -0.265 OA
BRANCH  35  37
HETATM   37  C13 UNL     1      -4.149  43.947 -19.300  1.00  0.00     0.117 C 
BRANCH  37  38
HETATM   38  C14 UNL     1      -3.658  43.505 -17.912  1.00  0.00     0.014 C 
HETATM   39  C15 UNL     1      -4.834  43.175 -16.989  1.00  0.00     0.012 C 
BRANCH  38  40
HETATM   40  C16 UNL     1      -2.732  42.290 -18.028  1.00  0.00     0.168 C 
BRANCH  40  41
HETATM   41  O5  UNL     1      -2.863  41.679 -19.303  1.00  0.00    -0.400 OA
HETATM   42  H20 UNL     1      -2.599  42.335 -19.973  1.00  0.00     0.209 HD
ENDBRANCH  40  41
ENDBRANCH  38  40
ENDBRANCH  37  38
ENDBRANCH  35  37
ENDBRANCH  34  35
ENDBRANCH  13  34
BRANCH   1  43
HETATM   43  O1  UNL     1      -6.025  47.768 -28.563  1.00  0.00    -0.354 OA
HETATM   44  C1  UNL     1      -6.733  48.074 -29.755  1.00  0.00     0.210 C 
ENDBRANCH   1  43
BRANCH  22  45
HETATM   45  O7  UNL     1     -12.614  45.316 -20.083  1.00  0.00    -0.368 OA
HETATM   46  H32 UNL     1     -13.430  44.923 -20.452  1.00  0.00     0.212 HD
ENDBRANCH  22  45
BRANCH  25  47
HETATM   47  O8  UNL     1     -14.106  47.892 -17.074  1.00  0.00    -0.327 OA
HETATM   48  H33 UNL     1     -15.011  47.841 -17.417  1.00  0.00     0.221 HD
ENDBRANCH  25  47
BRANCH  27  49
HETATM   49  O10 UNL     1     -14.625  46.126 -21.760  1.00  0.00    -0.382 OA
HETATM   50  C27 UNL     1     -15.729  46.791 -22.358  1.00  0.00     0.202 C 
ENDBRANCH  27  49
TORSDOF 10
ENDMDL
MODEL 8
REMARK minimizedAffinity -8.14580345
REMARK CNNscore 0.133382842
REMARK CNNaffinity 4.5714922
REMARK  10 active torsions:
REMARK  status: ('A' for Active; 'I' for Inactive)
REMARK    1  A    between atoms: O1_2  and  C2_3 
REMARK    2  A    between atoms: C11_15  and  O3_16 
REMARK    3  A    between atoms: O3_16  and  C12_17 
REMARK    4  A    between atoms: C12_17  and  C13_19 
REMARK    5  A    between atoms: C13_19  and  C14_20 
REMARK    6  A    between atoms: C14_20  and  C16_22 
REMARK    7  A    between atoms: C16_22  and  O5_23 
REMARK    8  A    between atoms: C24_32  and  O7_33 
REMARK    9  A    between atoms: C25_36  and  O8_37 
REMARK   10  A    between atoms: C26_39  and  O10_40 
ROOT
HETATM    1  C2  UNL     1     -13.063  47.000 -17.798  1.00  0.00     0.092 A 
HETATM    2  C3  UNL     1     -14.442  47.225 -17.851  1.00  0.00     0.046 A 
HETATM    3  C4  UNL     1     -15.157  47.035 -19.041  1.00  0.00    -0.049 A 
HETATM    4  C5  UNL     1     -14.468  46.609 -20.189  1.00  0.00     0.039 A 
HETATM    5  C6  UNL     1     -13.090  46.334 -20.163  1.00  0.00     0.061 A 
HETATM    6  C7  UNL     1     -12.387  46.561 -18.957  1.00  0.00     0.094 A 
HETATM    7 CL1  UNL     1     -10.646  46.447 -18.893  1.00  0.00    -0.079 Cl
HETATM    8  N1  UNL     1     -12.470  45.798 -21.349  1.00  0.00    -0.321 N 
HETATM    9  C8  UNL     1     -11.645  44.602 -21.183  1.00  0.00     0.159 C 
HETATM   10  C9  UNL     1     -12.743  46.349 -22.615  1.00  0.00     0.226 C 
HETATM   11  O2  UNL     1     -13.460  47.336 -22.781  1.00  0.00    -0.273 OA
HETATM   12  C10 UNL     1     -11.991  45.725 -23.790  1.00  0.00     0.139 C 
HETATM   13  C11 UNL     1     -12.565  46.070 -25.173  1.00  0.00     0.177 C 
HETATM   14  C17 UNL     1     -14.008  45.591 -25.375  1.00  0.00     0.111 A 
HETATM   15  C18 UNL     1     -15.059  46.629 -25.630  1.00  0.00     0.051 C 
HETATM   16  O6  UNL     1     -14.438  44.542 -24.478  1.00  0.00    -0.366 OA
HETATM   17  C19 UNL     1     -14.179  44.124 -25.809  1.00  0.00     0.165 A 
HETATM   18  C20 UNL     1     -15.304  43.496 -26.591  1.00  0.00     0.043 C 
HETATM   19  C21 UNL     1     -15.006  43.709 -28.089  1.00  0.00     0.015 C 
HETATM   20  C22 UNL     1     -16.778  43.856 -26.295  1.00  0.00     0.143 C 
HETATM   21  C23 UNL     1     -17.217  43.701 -24.843  1.00  0.00     0.097 C 
HETATM   22  C24 UNL     1     -18.728  43.935 -24.772  1.00  0.00     0.166 C 
HETATM   23  N2  UNL     1     -19.414  42.949 -25.610  1.00  0.00    -0.316 N 
ATOM     24  H2  UNL     1     -20.321  42.558 -25.357  1.00  0.00     0.166 HD
HETATM   25  C25 UNL     1     -18.802  42.614 -26.677  1.00  0.00     0.260 C 
HETATM   26  O9  UNL     1     -17.584  42.966 -27.112  1.00  0.00    -0.311 OA
HETATM   27  C26 UNL     1     -19.278  43.781 -23.295  1.00  0.00     0.199 C 
HETATM   28  C28 UNL     1     -18.534  44.638 -22.290  1.00  0.00     0.010 C 
HETATM   29  C29 UNL     1     -18.977  45.773 -21.726  1.00  0.00    -0.001 C 
HETATM   30  C30 UNL     1     -18.156  46.628 -20.903  1.00  0.00     0.002 C 
HETATM   31  C31 UNL     1     -17.496  46.310 -19.772  1.00  0.00    -0.080 C 
HETATM   32  C32 UNL     1     -17.567  44.976 -19.078  1.00  0.00     0.043 C 
HETATM   33  C33 UNL     1     -16.638  47.357 -19.087  1.00  0.00     0.072 C 
ENDROOT
BRANCH  13  34
HETATM   34  O3  UNL     1     -12.454  47.476 -25.469  1.00  0.00    -0.312 OA
BRANCH  34  35
HETATM   35  C12 UNL     1     -11.961  47.810 -26.688  1.00  0.00     0.259 C 
HETATM   36  O4  UNL     1     -12.434  48.662 -27.429  1.00  0.00    -0.265 OA
BRANCH  35  37
HETATM   37  C13 UNL     1     -10.746  46.974 -27.008  1.00  0.00     0.117 C 
BRANCH  37  38
HETATM   38  C14 UNL     1      -9.442  47.767 -26.826  1.00  0.00     0.014 C 
HETATM   39  C15 UNL     1      -9.063  48.510 -28.110  1.00  0.00     0.012 C 
BRANCH  38  40
HETATM   40  C16 UNL     1      -9.573  48.764 -25.670  1.00  0.00     0.168 C 
BRANCH  40  41
HETATM   41  O5  UNL     1      -9.540  50.100 -26.151  1.00  0.00    -0.400 OA
HETATM   42  H20 UNL     1     -10.300  50.217 -26.749  1.00  0.00     0.209 HD
ENDBRANCH  40  41
ENDBRANCH  38  40
ENDBRANCH  37  38
ENDBRANCH  35  37
ENDBRANCH  34  35
ENDBRANCH  13  34
BRANCH   1  43
HETATM   43  O1  UNL     1     -12.303  47.180 -16.668  1.00  0.00    -0.354 OA
HETATM   44  C1  UNL     1     -12.038  46.046 -15.854  1.00  0.00     0.210 C 
ENDBRANCH   1  43
BRANCH  22  45
HETATM   45  O7  UNL     1     -19.006  45.274 -25.198  1.00  0.00    -0.368 OA
HETATM   46  H32 UNL     1     -19.921  45.426 -24.889  1.00  0.00     0.212 HD
ENDBRANCH  22  45
BRANCH  25  47
HETATM   47  O8  UNL     1     -19.382  41.754 -27.519  1.00  0.00    -0.327 OA
HETATM   48  H33 UNL     1     -20.260  41.557 -27.158  1.00  0.00     0.221 HD
ENDBRANCH  25  47
BRANCH  27  49
HETATM   49  O10 UNL     1     -20.666  44.192 -23.305  1.00  0.00    -0.382 OA
HETATM   50  C27 UNL     1     -21.518  43.223 -22.711  1.00  0.00     0.202 C 
ENDBRANCH  27  49
TORSDOF 10
ENDMDL
MODEL 9
REMARK minimizedAffinity -6.93189335
REMARK CNNscore 0.12853308
REMARK CNNaffinity 5.46141005
REMARK  10 active torsions:
REMARK  status: ('A' for Active; 'I' for Inactive)
REMARK    1  A    between atoms: O1_2  and  C2_3 
REMARK    2  A    between atoms: C11_15  and  O3_16 
REMARK    3  A    between atoms: O3_16  and  C12_17 
REMARK    4  A    between atoms: C12_17  and  C13_19 
REMARK    5  A    between atoms: C13_19  and  C14_20 
REMARK    6  A    between atoms: C14_20  and  C16_22 
REMARK    7  A    between atoms: C16_22  and  O5_23 
REMARK    8  A    between atoms: C24_32  and  O7_33 
REMARK    9  A    between atoms: C25_36  and  O8_37 
REMARK   10  A    between atoms: C26_39  and  O10_40 
ROOT
HETATM    1  C2  UNL     1     -17.233  45.257 -20.704  1.00  0.00     0.092 A 
HETATM    2  C3  UNL     1     -15.917  45.091 -20.261  1.00  0.00     0.046 A 
HETATM    3  C4  UNL     1     -14.849  45.083 -21.168  1.00  0.00    -0.049 A 
HETATM    4  C5  UNL     1     -15.115  45.249 -22.537  1.00  0.00     0.039 A 
HETATM    5  C6  UNL     1     -16.421  45.458 -23.015  1.00  0.00     0.061 A 
HETATM    6  C7  UNL     1     -17.484  45.433 -22.082  1.00  0.00     0.094 A 
HETATM    7 CL1  UNL     1     -19.148  45.475 -22.611  1.00  0.00    -0.079 Cl
HETATM    8  N1  UNL     1     -16.608  45.728 -24.418  1.00  0.00    -0.321 N 
HETATM    9  C8  UNL     1     -17.419  46.894 -24.766  1.00  0.00     0.159 C 
HETATM   10  C9  UNL     1     -15.945  44.959 -25.393  1.00  0.00     0.226 C 
HETATM   11  O2  UNL     1     -15.231  43.992 -25.120  1.00  0.00    -0.273 OA
HETATM   12  C10 UNL     1     -16.259  45.310 -26.846  1.00  0.00     0.139 C 
HETATM   13  C11 UNL     1     -15.270  44.734 -27.871  1.00  0.00     0.177 C 
HETATM   14  C17 UNL     1     -13.832  45.233 -27.684  1.00  0.00     0.111 A 
HETATM   15  C18 UNL     1     -12.774  44.216 -27.375  1.00  0.00     0.051 C 
HETATM   16  O6  UNL     1     -13.701  46.453 -26.920  1.00  0.00    -0.366 OA
HETATM   17  C19 UNL     1     -13.501  46.597 -28.318  1.00  0.00     0.165 A 
HETATM   18  C20 UNL     1     -12.171  47.116 -28.799  1.00  0.00     0.043 C 
HETATM   19  C21 UNL     1     -11.965  46.607 -30.240  1.00  0.00     0.015 C 
HETATM   20  C22 UNL     1     -10.882  46.889 -27.976  1.00  0.00     0.143 C 
HETATM   21  C23 UNL     1     -10.940  47.339 -26.521  1.00  0.00     0.097 C 
HETATM   22  C24 UNL     1      -9.540  47.195 -25.918  1.00  0.00     0.166 C 
HETATM   23  N2  UNL     1      -8.599  48.033 -26.664  1.00  0.00    -0.316 N 
ATOM     24  H2  UNL     1      -7.818  48.509 -26.212  1.00  0.00     0.166 HD
HETATM   25  C25 UNL     1      -8.822  48.130 -27.915  1.00  0.00     0.260 C 
HETATM   26  O9  UNL     1      -9.836  47.643 -28.644  1.00  0.00    -0.311 OA
HETATM   27  C26 UNL     1      -9.502  47.654 -24.403  1.00  0.00     0.199 C 
HETATM   28  C28 UNL     1     -10.550  46.971 -23.547  1.00  0.00     0.010 C 
HETATM   29  C29 UNL     1     -10.337  45.987 -22.659  1.00  0.00    -0.001 C 
HETATM   30  C30 UNL     1     -11.398  45.268 -21.996  1.00  0.00     0.002 C 
HETATM   31  C31 UNL     1     -12.386  45.764 -21.226  1.00  0.00    -0.080 C 
HETATM   32  C32 UNL     1     -12.522  47.208 -20.823  1.00  0.00     0.043 C 
HETATM   33  C33 UNL     1     -13.440  44.828 -20.665  1.00  0.00     0.072 C 
ENDROOT
BRANCH  13  34
HETATM   34  O3  UNL     1     -15.304  43.294 -27.906  1.00  0.00    -0.312 OA
BRANCH  34  35
HETATM   35  C12 UNL     1     -16.515  42.712 -28.094  1.00  0.00     0.259 C 
HETATM   36  O4  UNL     1     -16.973  41.804 -27.413  1.00  0.00    -0.265 OA
BRANCH  35  37
HETATM   37  C13 UNL     1     -17.221  43.340 -29.270  1.00  0.00     0.117 C 
BRANCH  37  38
HETATM   38  C14 UNL     1     -18.664  42.831 -29.411  1.00  0.00     0.014 C 
HETATM   39  C15 UNL     1     -19.609  43.581 -28.470  1.00  0.00     0.012 C 
BRANCH  38  40
HETATM   40  C16 UNL     1     -19.149  42.975 -30.858  1.00  0.00     0.168 C 
BRANCH  40  41
HETATM   41  O5  UNL     1     -19.193  44.343 -31.239  1.00  0.00    -0.400 OA
HETATM   42  H20 UNL     1     -18.287  44.695 -31.179  1.00  0.00     0.209 HD
ENDBRANCH  40  41
ENDBRANCH  38  40
ENDBRANCH  37  38
ENDBRANCH  35  37
ENDBRANCH  34  35
ENDBRANCH  13  34
BRANCH   1  43
HETATM   43  O1  UNL     1     -18.325  45.260 -19.870  1.00  0.00    -0.354 OA
HETATM   44  C1  UNL     1     -18.665  46.477 -19.221  1.00  0.00     0.210 C 
ENDBRANCH   1  43
BRANCH  22  45
HETATM   45  O7  UNL     1      -9.163  45.814 -25.960  1.00  0.00    -0.368 OA
HETATM   46  H32 UNL     1      -8.403  45.767 -25.346  1.00  0.00     0.212 HD
ENDBRANCH  22  45
BRANCH  25  47
HETATM   47  O8  UNL     1      -7.982  48.839 -28.675  1.00  0.00    -0.327 OA
HETATM   48  H33 UNL     1      -7.267  49.143 -28.094  1.00  0.00     0.221 HD
ENDBRANCH  25  47
BRANCH  27  49
HETATM   49  O10 UNL     1      -8.195  47.315 -23.881  1.00  0.00    -0.382 OA
HETATM   50  C27 UNL     1      -7.913  45.928 -23.997  1.00  0.00     0.202 C 
ENDBRANCH  27  49
TORSDOF 10
ENDMDL
