MODEL 1
REMARK minimizedAffinity -9.72594833
REMARK CNNscore 0.746612728
REMARK CNNaffinity 6.99106216
REMARK  12 active torsions:
REMARK  status: ('A' for Active; 'I' for Inactive)
REMARK    1  A    between atoms: C2_2  and  C3_3 
REMARK    2  A    between atoms: C2_2  and  C26_31 
REMARK    3  A    between atoms: C3_3  and  C4_4 
REMARK    4  A    between atoms: C4_4  and  C5_5 
REMARK    5  A    between atoms: C5_5  and  C7_7 
REMARK    6  A    between atoms: C8_8  and  O1_9 
REMARK    7  A    between atoms: C9_10  and  O2_11 
REMARK    8  A    between atoms: C20_22  and  O3_23 
REMARK    9  A    between atoms: C23_26  and  O4_27 
REMARK   10  A    between atoms: C25_29  and  O5_30 
REMARK   11  A    between atoms: C26_31  and  C28_33 
REMARK   12  A    between atoms: C28_33  and  O6_34 
ROOT
HETATM    1  C7  UNL     1      -2.239   7.585  12.851  1.00  0.00     0.029 C 
HETATM    2  C8  UNL     1      -2.250   6.084  12.387  1.00  0.00     0.152 C 
HETATM    3  C9  UNL     1      -3.623   5.496  12.803  1.00  0.00     0.155 C 
HETATM    4  C10 UNL     1      -4.406   6.704  13.304  1.00  0.00     0.060 C 
HETATM    5  C11 UNL     1      -3.326   7.610  13.983  1.00  0.00    -0.029 C 
HETATM    6  C12 UNL     1      -2.727   7.096  15.315  1.00  0.00     0.016 C 
HETATM    7  C13 UNL     1      -4.009   8.971  14.238  1.00  0.00     0.011 C 
HETATM    8  C14 UNL     1      -5.304   8.836  15.065  1.00  0.00     0.009 C 
HETATM    9  C15 UNL     1      -6.326   7.862  14.430  1.00  0.00     0.029 C 
HETATM   10  C16 UNL     1      -7.714   7.781  15.178  1.00  0.00    -0.031 C 
HETATM   11  C17 UNL     1      -7.562   7.275  16.633  1.00  0.00     0.016 C 
HETATM   12  C18 UNL     1      -8.381   9.190  15.229  1.00  0.00     0.012 C 
HETATM   13  C19 UNL     1      -9.832   9.173  15.717  1.00  0.00     0.032 C 
HETATM   14  C20 UNL     1     -10.700   8.178  14.956  1.00  0.00     0.118 C 
HETATM   15  C21 UNL     1     -10.073   6.785  14.893  1.00  0.00     0.039 C 
HETATM   16  C22 UNL     1      -8.646   6.856  14.329  1.00  0.00     0.025 C 
HETATM   17  C23 UNL     1      -8.036   5.464  14.087  1.00  0.00     0.126 C 
HETATM   18  C24 UNL     1      -6.679   5.571  13.382  1.00  0.00     0.071 C 
HETATM   19  C25 UNL     1      -5.682   6.466  14.137  1.00  0.00     0.071 C 
ENDROOT
BRANCH   1  20
HETATM   20  C5  UNL     1      -0.815   8.154  13.124  1.00  0.00    -0.011 C 
HETATM   21  C6  UNL     1      -0.812   9.277  14.168  1.00  0.00     0.010 C 
BRANCH  20  22
HETATM   22  C4  UNL     1      -0.192   8.696  11.806  1.00  0.00     0.009 C 
BRANCH  22  23
HETATM   23  C3  UNL     1       0.505   7.600  10.978  1.00  0.00     0.034 C 
BRANCH  23  24
HETATM   24  C2  UNL     1       0.866   7.945   9.536  1.00  0.00    -0.083 C 
HETATM   25  C1  UNL     1      -0.033   8.401   8.643  1.00  0.00     0.015 C 
BRANCH  24  26
HETATM   26  C26 UNL     1       2.354   7.750   9.202  1.00  0.00     0.033 C 
HETATM   27  C27 UNL     1       2.816   8.411   7.893  1.00  0.00     0.017 C 
BRANCH  26  28
HETATM   28  C28 UNL     1       2.772   6.261   9.221  1.00  0.00     0.172 C 
BRANCH  28  29
HETATM   29  O6  UNL     1       2.700   5.645   7.939  1.00  0.00    -0.400 OA
HETATM   30  H48 UNL     1       3.172   6.210   7.306  1.00  0.00     0.209 HD
ENDBRANCH  28  29
ENDBRANCH  26  28
ENDBRANCH  24  26
ENDBRANCH  23  24
ENDBRANCH  22  23
ENDBRANCH  20  22
ENDBRANCH   1  20
BRANCH   2  31
HETATM   31  O1  UNL     1      -1.226   5.285  12.982  1.00  0.00    -0.393 OA
HETATM   32  H13 UNL     1      -0.385   5.494  12.538  1.00  0.00     0.210 HD
ENDBRANCH   2  31
BRANCH   3  33
HETATM   33  O2  UNL     1      -3.494   4.507  13.824  1.00  0.00    -0.392 OA
HETATM   34  H15 UNL     1      -2.535   4.281  13.821  1.00  0.00     0.210 HD
ENDBRANCH   3  33
BRANCH  19  35
HETATM   35  O5  UNL     1      -5.349   5.795  15.343  1.00  0.00    -0.389 OA
HETATM   36  H41 UNL     1      -4.745   5.058  15.097  1.00  0.00     0.210 HD
ENDBRANCH  19  35
BRANCH  17  37
HETATM   37  O4  UNL     1      -8.908   4.691  13.256  1.00  0.00    -0.395 OA
HETATM   38  H38 UNL     1      -8.990   5.142  12.398  1.00  0.00     0.210 HD
ENDBRANCH  17  37
BRANCH  14  39
HETATM   39  O3  UNL     1     -11.973   8.109  15.588  1.00  0.00    -0.396 OA
HETATM   40  H33 UNL     1     -12.493   7.427  15.129  1.00  0.00     0.210 HD
ENDBRANCH  14  39
TORSDOF 12
ENDMDL
MODEL 2
REMARK minimizedAffinity -7.23446751
REMARK CNNscore 0.699995637
REMARK CNNaffinity 6.45428896
REMARK  12 active torsions:
REMARK  status: ('A' for Active; 'I' for Inactive)
REMARK    1  A    between atoms: C2_2  and  C3_3 
REMARK    2  A    between atoms: C2_2  and  C26_31 
REMARK    3  A    between atoms: C3_3  and  C4_4 
REMARK    4  A    between atoms: C4_4  and  C5_5 
REMARK    5  A    between atoms: C5_5  and  C7_7 
REMARK    6  A    between atoms: C8_8  and  O1_9 
REMARK    7  A    between atoms: C9_10  and  O2_11 
REMARK    8  A    between atoms: C20_22  and  O3_23 
REMARK    9  A    between atoms: C23_26  and  O4_27 
REMARK   10  A    between atoms: C25_29  and  O5_30 
REMARK   11  A    between atoms: C26_31  and  C28_33 
REMARK   12  A    between atoms: C28_33  and  O6_34 
ROOT
HETATM    1  C7  UNL     1      -9.814   8.007  14.394  1.00  0.00     0.029 C 
HETATM    2  C8  UNL     1     -11.157   7.364  13.889  1.00  0.00     0.152 C 
HETATM    3  C9  UNL     1     -12.214   8.498  13.863  1.00  0.00     0.155 C 
HETATM    4  C10 UNL     1     -11.412   9.759  14.159  1.00  0.00     0.060 C 
HETATM    5  C11 UNL     1     -10.304   9.286  15.160  1.00  0.00    -0.029 C 
HETATM    6  C12 UNL     1     -10.773   8.913  16.587  1.00  0.00     0.016 C 
HETATM    7  C13 UNL     1      -9.292  10.447  15.256  1.00  0.00     0.011 C 
HETATM    8  C14 UNL     1      -9.957  11.779  15.662  1.00  0.00     0.009 C 
HETATM    9  C15 UNL     1     -11.114  12.187  14.719  1.00  0.00     0.029 C 
HETATM   10  C16 UNL     1     -11.749  13.599  15.026  1.00  0.00    -0.031 C 
HETATM   11  C17 UNL     1     -12.373  13.663  16.441  1.00  0.00     0.016 C 
HETATM   12  C18 UNL     1     -10.658  14.711  14.934  1.00  0.00     0.012 C 
HETATM   13  C19 UNL     1     -11.217  16.135  14.976  1.00  0.00     0.032 C 
HETATM   14  C20 UNL     1     -12.327  16.365  13.957  1.00  0.00     0.118 C 
HETATM   15  C21 UNL     1     -13.414  15.293  14.026  1.00  0.00     0.039 C 
HETATM   16  C22 UNL     1     -12.802  13.889  13.907  1.00  0.00     0.025 C 
HETATM   17  C23 UNL     1     -13.870  12.786  13.799  1.00  0.00     0.126 C 
HETATM   18  C24 UNL     1     -13.227  11.421  13.526  1.00  0.00     0.071 C 
HETATM   19  C25 UNL     1     -12.168  11.039  14.573  1.00  0.00     0.071 C 
ENDROOT
BRANCH   1  20
HETATM   20  C5  UNL     1      -8.854   7.000  15.093  1.00  0.00    -0.011 C 
HETATM   21  C6  UNL     1      -7.606   7.674  15.677  1.00  0.00     0.010 C 
BRANCH  20  22
HETATM   22  C4  UNL     1      -8.403   5.901  14.087  1.00  0.00     0.009 C 
BRANCH  22  23
HETATM   23  C3  UNL     1      -7.166   5.120  14.569  1.00  0.00     0.034 C 
BRANCH  23  24
HETATM   24  C2  UNL     1      -6.093   4.813  13.528  1.00  0.00    -0.083 C 
HETATM   25  C1  UNL     1      -5.110   5.676  13.210  1.00  0.00     0.015 C 
BRANCH  24  26
HETATM   26  C26 UNL     1      -6.221   3.418  12.893  1.00  0.00     0.033 C 
HETATM   27  C27 UNL     1      -5.401   3.213  11.609  1.00  0.00     0.017 C 
BRANCH  26  28
HETATM   28  C28 UNL     1      -7.694   3.013  12.653  1.00  0.00     0.172 C 
BRANCH  28  29
HETATM   29  O6  UNL     1      -7.897   1.603  12.684  1.00  0.00    -0.400 OA
HETATM   30  H48 UNL     1      -7.487   1.258  13.494  1.00  0.00     0.209 HD
ENDBRANCH  28  29
ENDBRANCH  26  28
ENDBRANCH  24  26
ENDBRANCH  23  24
ENDBRANCH  22  23
ENDBRANCH  20  22
ENDBRANCH   1  20
BRANCH   2  31
HETATM   31  O1  UNL     1     -11.650   6.317  14.725  1.00  0.00    -0.393 OA
HETATM   32  H13 UNL     1     -11.117   5.520  14.555  1.00  0.00     0.210 HD
ENDBRANCH   2  31
BRANCH   3  33
HETATM   33  O2  UNL     1     -13.238   8.298  14.838  1.00  0.00    -0.392 OA
HETATM   34  H15 UNL     1     -13.133   7.356  15.106  1.00  0.00     0.210 HD
ENDBRANCH   3  33
BRANCH  19  35
HETATM   35  O5  UNL     1     -12.853  10.816  15.797  1.00  0.00    -0.389 OA
HETATM   36  H41 UNL     1     -13.309   9.948  15.710  1.00  0.00     0.210 HD
ENDBRANCH  19  35
BRANCH  17  37
HETATM   37  O4  UNL     1     -14.763  13.079  12.720  1.00  0.00    -0.395 OA
HETATM   38  H38 UNL     1     -14.250  13.089  11.895  1.00  0.00     0.210 HD
ENDBRANCH  17  37
BRANCH  14  39
HETATM   39  O3  UNL     1     -12.896  17.649  14.186  1.00  0.00    -0.396 OA
HETATM   40  H33 UNL     1     -13.641  17.756  13.569  1.00  0.00     0.210 HD
ENDBRANCH  14  39
TORSDOF 12
ENDMDL
MODEL 3
REMARK minimizedAffinity -7.28727818
REMARK CNNscore 0.684278965
REMARK CNNaffinity 6.71546602
REMARK  12 active torsions:
REMARK  status: ('A' for Active; 'I' for Inactive)
REMARK    1  A    between atoms: C2_2  and  C3_3 
REMARK    2  A    between atoms: C2_2  and  C26_31 
REMARK    3  A    between atoms: C3_3  and  C4_4 
REMARK    4  A    between atoms: C4_4  and  C5_5 
REMARK    5  A    between atoms: C5_5  and  C7_7 
REMARK    6  A    between atoms: C8_8  and  O1_9 
REMARK    7  A    between atoms: C9_10  and  O2_11 
REMARK    8  A    between atoms: C20_22  and  O3_23 
REMARK    9  A    between atoms: C23_26  and  O4_27 
REMARK   10  A    between atoms: C25_29  and  O5_30 
REMARK   11  A    between atoms: C26_31  and  C28_33 
REMARK   12  A    between atoms: C28_33  and  O6_34 
ROOT
HETATM    1  C7  UNL     1      -2.479   7.108  14.509  1.00  0.00     0.029 C 
HETATM    2  C8  UNL     1      -1.869   5.670  14.340  1.00  0.00     0.152 C 
HETATM    3  C9  UNL     1      -0.328   5.839  14.304  1.00  0.00     0.155 C 
HETATM    4  C10 UNL     1      -0.109   7.308  14.641  1.00  0.00     0.060 C 
HETATM    5  C11 UNL     1      -1.329   8.041  13.989  1.00  0.00    -0.029 C 
HETATM    6  C12 UNL     1      -1.350   8.111  12.443  1.00  0.00     0.016 C 
HETATM    7  C13 UNL     1      -1.315   9.478  14.552  1.00  0.00     0.011 C 
HETATM    8  C14 UNL     1       0.030  10.194  14.310  1.00  0.00     0.009 C 
HETATM    9  C15 UNL     1       1.239   9.411  14.877  1.00  0.00     0.029 C 
HETATM   10  C16 UNL     1       2.625  10.159  14.758  1.00  0.00    -0.031 C 
HETATM   11  C17 UNL     1       3.010  10.439  13.285  1.00  0.00     0.016 C 
HETATM   12  C18 UNL     1       2.563  11.528  15.503  1.00  0.00     0.012 C 
HETATM   13  C19 UNL     1       3.922  12.217  15.652  1.00  0.00     0.032 C 
HETATM   14  C20 UNL     1       4.984  11.305  16.257  1.00  0.00     0.118 C 
HETATM   15  C21 UNL     1       5.071   9.957  15.543  1.00  0.00     0.039 C 
HETATM   16  C22 UNL     1       3.692   9.280  15.487  1.00  0.00     0.025 C 
HETATM   17  C23 UNL     1       3.759   7.847  14.931  1.00  0.00     0.126 C 
HETATM   18  C24 UNL     1       2.397   7.151  15.035  1.00  0.00     0.071 C 
HETATM   19  C25 UNL     1       1.269   7.938  14.349  1.00  0.00     0.071 C 
ENDROOT
BRANCH   1  20
HETATM   20  C5  UNL     1      -3.921   7.256  13.938  1.00  0.00    -0.011 C 
HETATM   21  C6  UNL     1      -4.428   8.703  13.966  1.00  0.00     0.010 C 
BRANCH  20  22
HETATM   22  C4  UNL     1      -4.910   6.365  14.742  1.00  0.00     0.009 C 
BRANCH  22  23
HETATM   23  C3  UNL     1      -5.719   5.409  13.845  1.00  0.00     0.034 C 
BRANCH  23  24
HETATM   24  C2  UNL     1      -7.037   4.882  14.405  1.00  0.00    -0.083 C 
HETATM   25  C1  UNL     1      -7.453   5.131  15.661  1.00  0.00     0.015 C 
BRANCH  24  26
HETATM   26  C26 UNL     1      -7.860   4.063  13.397  1.00  0.00     0.033 C 
HETATM   27  C27 UNL     1      -7.091   2.927  12.703  1.00  0.00     0.017 C 
BRANCH  26  28
HETATM   28  C28 UNL     1      -8.557   4.954  12.343  1.00  0.00     0.172 C 
BRANCH  28  29
HETATM   29  O6  UNL     1      -9.001   6.200  12.871  1.00  0.00    -0.400 OA
HETATM   30  H48 UNL     1      -8.259   6.606  13.347  1.00  0.00     0.209 HD
ENDBRANCH  28  29
ENDBRANCH  26  28
ENDBRANCH  24  26
ENDBRANCH  23  24
ENDBRANCH  22  23
ENDBRANCH  20  22
ENDBRANCH   1  20
BRANCH   2  31
HETATM   31  O1  UNL     1      -2.271   5.006  13.141  1.00  0.00    -0.393 OA
HETATM   32  H13 UNL     1      -3.182   4.686  13.265  1.00  0.00     0.210 HD
ENDBRANCH   2  31
BRANCH   3  33
HETATM   33  O2  UNL     1       0.215   5.517  13.024  1.00  0.00    -0.392 OA
HETATM   34  H15 UNL     1      -0.511   5.033  12.568  1.00  0.00     0.210 HD
ENDBRANCH   3  33
BRANCH  19  35
HETATM   35  O5  UNL     1       1.525   7.902  12.952  1.00  0.00    -0.389 OA
HETATM   36  H41 UNL     1       1.294   6.996  12.647  1.00  0.00     0.210 HD
ENDBRANCH  19  35
BRANCH  17  37
HETATM   37  O4  UNL     1       4.707   7.080  15.680  1.00  0.00    -0.395 OA
HETATM   38  H38 UNL     1       4.403   7.036  16.602  1.00  0.00     0.210 HD
ENDBRANCH  17  37
BRANCH  14  39
HETATM   39  O3  UNL     1       6.241  11.969  16.196  1.00  0.00    -0.396 OA
HETATM   40  H33 UNL     1       6.916  11.352  16.528  1.00  0.00     0.210 HD
ENDBRANCH  14  39
TORSDOF 12
ENDMDL
MODEL 4
REMARK minimizedAffinity -8.50446987
REMARK CNNscore 0.661702871
REMARK CNNaffinity 6.8814168
REMARK  12 active torsions:
REMARK  status: ('A' for Active; 'I' for Inactive)
REMARK    1  A    between atoms: C2_2  and  C3_3 
REMARK    2  A    between atoms: C2_2  and  C26_31 
REMARK    3  A    between atoms: C3_3  and  C4_4 
REMARK    4  A    between atoms: C4_4  and  C5_5 
REMARK    5  A    between atoms: C5_5  and  C7_7 
REMARK    6  A    between atoms: C8_8  and  O1_9 
REMARK    7  A    between atoms: C9_10  and  O2_11 
REMARK    8  A    between atoms: C20_22  and  O3_23 
REMARK    9  A    between atoms: C23_26  and  O4_27 
REMARK   10  A    between atoms: C25_29  and  O5_30 
REMARK   11  A    between atoms: C26_31  and  C28_33 
REMARK   12  A    between atoms: C28_33  and  O6_34 
ROOT
HETATM    1  C7  UNL     1       0.445   6.997  14.720  1.00  0.00     0.029 C 
HETATM    2  C8  UNL     1       0.091   7.887  15.966  1.00  0.00     0.152 C 
HETATM    3  C9  UNL     1      -1.453   7.863  16.108  1.00  0.00     0.155 C 
HETATM    4  C10 UNL     1      -1.904   6.830  15.084  1.00  0.00     0.060 C 
HETATM    5  C11 UNL     1      -0.893   6.993  13.900  1.00  0.00    -0.029 C 
HETATM    6  C12 UNL     1      -1.014   8.287  13.060  1.00  0.00     0.016 C 
HETATM    7  C13 UNL     1      -1.118   5.778  12.975  1.00  0.00     0.011 C 
HETATM    8  C14 UNL     1      -2.585   5.648  12.516  1.00  0.00     0.009 C 
HETATM    9  C15 UNL     1      -3.583   5.584  13.697  1.00  0.00     0.029 C 
HETATM   10  C16 UNL     1      -5.085   5.334  13.280  1.00  0.00    -0.031 C 
HETATM   11  C17 UNL     1      -5.636   6.467  12.379  1.00  0.00     0.016 C 
HETATM   12  C18 UNL     1      -5.208   3.994  12.490  1.00  0.00     0.012 C 
HETATM   13  C19 UNL     1      -6.652   3.543  12.252  1.00  0.00     0.032 C 
HETATM   14  C20 UNL     1      -7.479   3.509  13.532  1.00  0.00     0.118 C 
HETATM   15  C21 UNL     1      -7.382   4.811  14.326  1.00  0.00     0.039 C 
HETATM   16  C22 UNL     1      -5.913   5.175  14.597  1.00  0.00     0.025 C 
HETATM   17  C23 UNL     1      -5.768   6.385  15.537  1.00  0.00     0.126 C 
HETATM   18  C24 UNL     1      -4.299   6.622  15.907  1.00  0.00     0.071 C 
HETATM   19  C25 UNL     1      -3.391   6.788  14.677  1.00  0.00     0.071 C 
ENDROOT
BRANCH   1  20
HETATM   20  C5  UNL     1       1.784   7.384  14.025  1.00  0.00    -0.011 C 
HETATM   21  C6  UNL     1       2.831   7.923  15.007  1.00  0.00     0.010 C 
BRANCH  20  22
HETATM   22  C4  UNL     1       1.529   8.458  12.929  1.00  0.00     0.009 C 
BRANCH  22  23
HETATM   23  C3  UNL     1       2.394   8.247  11.672  1.00  0.00     0.034 C 
BRANCH  23  24
HETATM   24  C2  UNL     1       1.778   7.438  10.535  1.00  0.00    -0.083 C 
HETATM   25  C1  UNL     1       1.563   6.111  10.610  1.00  0.00     0.015 C 
BRANCH  24  26
HETATM   26  C26 UNL     1       1.403   8.278   9.303  1.00  0.00     0.033 C 
HETATM   27  C27 UNL     1      -0.097   8.300   8.965  1.00  0.00     0.017 C 
BRANCH  26  28
HETATM   28  C28 UNL     1       2.224   7.889   8.051  1.00  0.00     0.172 C 
BRANCH  28  29
HETATM   29  O6  UNL     1       3.060   8.942   7.582  1.00  0.00    -0.400 OA
HETATM   30  H48 UNL     1       3.570   9.280   8.336  1.00  0.00     0.209 HD
ENDBRANCH  28  29
ENDBRANCH  26  28
ENDBRANCH  24  26
ENDBRANCH  23  24
ENDBRANCH  22  23
ENDBRANCH  20  22
ENDBRANCH   1  20
BRANCH   2  31
HETATM   31  O1  UNL     1       0.504   9.248  15.843  1.00  0.00    -0.393 OA
HETATM   32  H13 UNL     1       1.465   9.286  15.995  1.00  0.00     0.210 HD
ENDBRANCH   2  31
BRANCH   3  33
HETATM   33  O2  UNL     1      -2.034   9.140  15.843  1.00  0.00    -0.392 OA
HETATM   34  H15 UNL     1      -1.273   9.763  15.878  1.00  0.00     0.210 HD
ENDBRANCH   3  33
BRANCH  19  35
HETATM   35  O5  UNL     1      -3.752   8.014  14.056  1.00  0.00    -0.389 OA
HETATM   36  H41 UNL     1      -3.388   8.733  14.621  1.00  0.00     0.210 HD
ENDBRANCH  19  35
BRANCH  17  37
HETATM   37  O4  UNL     1      -6.498   6.150  16.745  1.00  0.00    -0.395 OA
HETATM   38  H38 UNL     1      -6.115   5.373  17.185  1.00  0.00     0.210 HD
ENDBRANCH  17  37
BRANCH  14  39
HETATM   39  O3  UNL     1      -8.836   3.249  13.190  1.00  0.00    -0.396 OA
HETATM   40  H33 UNL     1      -9.359   3.291  14.008  1.00  0.00     0.210 HD
ENDBRANCH  14  39
TORSDOF 12
ENDMDL
MODEL 5
REMARK minimizedAffinity -9.28449821
REMARK CNNscore 0.648583531
REMARK CNNaffinity 6.86928034
REMARK  12 active torsions:
REMARK  status: ('A' for Active; 'I' for Inactive)
REMARK    1  A    between atoms: C2_2  and  C3_3 
REMARK    2  A    between atoms: C2_2  and  C26_31 
REMARK    3  A    between atoms: C3_3  and  C4_4 
REMARK    4  A    between atoms: C4_4  and  C5_5 
REMARK    5  A    between atoms: C5_5  and  C7_7 
REMARK    6  A    between atoms: C8_8  and  O1_9 
REMARK    7  A    between atoms: C9_10  and  O2_11 
REMARK    8  A    between atoms: C20_22  and  O3_23 
REMARK    9  A    between atoms: C23_26  and  O4_27 
REMARK   10  A    between atoms: C25_29  and  O5_30 
REMARK   11  A    between atoms: C26_31  and  C28_33 
REMARK   12  A    between atoms: C28_33  and  O6_34 
ROOT
HETATM    1  C7  UNL     1      -2.295   7.977  13.788  1.00  0.00     0.029 C 
HETATM    2  C8  UNL     1      -2.057   7.688  15.315  1.00  0.00     0.152 C 
HETATM    3  C9  UNL     1      -0.524   7.563  15.513  1.00  0.00     0.155 C 
HETATM    4  C10 UNL     1       0.058   7.968  14.164  1.00  0.00     0.060 C 
HETATM    5  C11 UNL     1      -0.981   7.438  13.120  1.00  0.00    -0.029 C 
HETATM    6  C12 UNL     1      -1.059   5.903  12.939  1.00  0.00     0.016 C 
HETATM    7  C13 UNL     1      -0.595   8.079  11.770  1.00  0.00     0.011 C 
HETATM    8  C14 UNL     1       0.869   7.793  11.378  1.00  0.00     0.009 C 
HETATM    9  C15 UNL     1       1.881   8.236  12.462  1.00  0.00     0.029 C 
HETATM   10  C16 UNL     1       3.398   8.071  12.056  1.00  0.00    -0.031 C 
HETATM   11  C17 UNL     1       3.768   6.595  11.772  1.00  0.00     0.016 C 
HETATM   12  C18 UNL     1       3.703   8.895  10.767  1.00  0.00     0.012 C 
HETATM   13  C19 UNL     1       5.193   8.996  10.432  1.00  0.00     0.032 C 
HETATM   14  C20 UNL     1       6.033   9.479  11.608  1.00  0.00     0.118 C 
HETATM   15  C21 UNL     1       5.759   8.686  12.886  1.00  0.00     0.039 C 
HETATM   16  C22 UNL     1       4.257   8.680  13.212  1.00  0.00     0.025 C 
HETATM   17  C23 UNL     1       3.951   8.041  14.577  1.00  0.00     0.126 C 
HETATM   18  C24 UNL     1       2.468   8.192  14.937  1.00  0.00     0.071 C 
HETATM   19  C25 UNL     1       1.530   7.625  13.859  1.00  0.00     0.071 C 
ENDROOT
BRANCH   1  20
HETATM   20  C5  UNL     1      -3.685   7.508  13.264  1.00  0.00    -0.011 C 
HETATM   21  C6  UNL     1      -4.817   8.473  13.635  1.00  0.00     0.010 C 
BRANCH  20  22
HETATM   22  C4  UNL     1      -4.024   6.099  13.830  1.00  0.00     0.009 C 
BRANCH  22  23
HETATM   23  C3  UNL     1      -5.478   5.675  13.548  1.00  0.00     0.034 C 
BRANCH  23  24
HETATM   24  C2  UNL     1      -5.682   4.400  12.735  1.00  0.00    -0.083 C 
HETATM   25  C1  UNL     1      -4.667   3.609  12.342  1.00  0.00     0.015 C 
BRANCH  24  26
HETATM   26  C26 UNL     1      -7.156   4.087  12.426  1.00  0.00     0.033 C 
HETATM   27  C27 UNL     1      -8.095   5.304  12.446  1.00  0.00     0.017 C 
BRANCH  26  28
HETATM   28  C28 UNL     1      -7.722   2.965  13.328  1.00  0.00     0.172 C 
BRANCH  28  29
HETATM   29  O6  UNL     1      -7.883   1.727  12.642  1.00  0.00    -0.400 OA
HETATM   30  H48 UNL     1      -7.051   1.526  12.185  1.00  0.00     0.209 HD
ENDBRANCH  28  29
ENDBRANCH  26  28
ENDBRANCH  24  26
ENDBRANCH  23  24
ENDBRANCH  22  23
ENDBRANCH  20  22
ENDBRANCH   1  20
BRANCH   2  31
HETATM   31  O1  UNL     1      -2.664   6.482  15.779  1.00  0.00    -0.393 OA
HETATM   32  H13 UNL     1      -3.618   6.645  15.882  1.00  0.00     0.210 HD
ENDBRANCH   2  31
BRANCH   3  33
HETATM   33  O2  UNL     1      -0.136   6.235  15.864  1.00  0.00    -0.392 OA
HETATM   34  H15 UNL     1      -0.979   5.800  16.129  1.00  0.00     0.210 HD
ENDBRANCH   3  33
BRANCH  19  35
HETATM   35  O5  UNL     1       1.703   6.215  13.856  1.00  0.00    -0.389 OA
HETATM   36  H41 UNL     1       1.246   5.875  14.659  1.00  0.00     0.210 HD
ENDBRANCH  19  35
BRANCH  17  37
HETATM   37  O4  UNL     1       4.722   8.683  15.597  1.00  0.00    -0.395 OA
HETATM   38  H38 UNL     1       4.462   9.619  15.632  1.00  0.00     0.210 HD
ENDBRANCH  17  37
BRANCH  14  39
HETATM   39  O3  UNL     1       7.409   9.375  11.259  1.00  0.00    -0.396 OA
HETATM   40  H33 UNL     1       7.931   9.628  12.039  1.00  0.00     0.210 HD
ENDBRANCH  14  39
TORSDOF 12
ENDMDL
MODEL 6
REMARK minimizedAffinity -7.68152046
REMARK CNNscore 0.642954528
REMARK CNNaffinity 6.18656397
REMARK  12 active torsions:
REMARK  status: ('A' for Active; 'I' for Inactive)
REMARK    1  A    between atoms: C2_2  and  C3_3 
REMARK    2  A    between atoms: C2_2  and  C26_31 
REMARK    3  A    between atoms: C3_3  and  C4_4 
REMARK    4  A    between atoms: C4_4  and  C5_5 
REMARK    5  A    between atoms: C5_5  and  C7_7 
REMARK    6  A    between atoms: C8_8  and  O1_9 
REMARK    7  A    between atoms: C9_10  and  O2_11 
REMARK    8  A    between atoms: C20_22  and  O3_23 
REMARK    9  A    between atoms: C23_26  and  O4_27 
REMARK   10  A    between atoms: C25_29  and  O5_30 
REMARK   11  A    between atoms: C26_31  and  C28_33 
REMARK   12  A    between atoms: C28_33  and  O6_34 
ROOT
HETATM    1  C7  UNL     1      -1.875   6.797  14.617  1.00  0.00     0.029 C 
HETATM    2  C8  UNL     1      -0.420   6.594  15.174  1.00  0.00     0.152 C 
HETATM    3  C9  UNL     1      -0.066   7.871  15.978  1.00  0.00     0.155 C 
HETATM    4  C10 UNL     1      -1.370   8.658  16.016  1.00  0.00     0.060 C 
HETATM    5  C11 UNL     1      -2.043   8.358  14.635  1.00  0.00    -0.029 C 
HETATM    6  C12 UNL     1      -1.376   8.985  13.388  1.00  0.00     0.016 C 
HETATM    7  C13 UNL     1      -3.491   8.882  14.742  1.00  0.00     0.011 C 
HETATM    8  C14 UNL     1      -3.551  10.371  15.142  1.00  0.00     0.009 C 
HETATM    9  C15 UNL     1      -2.800  10.671  16.461  1.00  0.00     0.029 C 
HETATM   10  C16 UNL     1      -2.933  12.159  16.973  1.00  0.00    -0.031 C 
HETATM   11  C17 UNL     1      -2.348  13.177  15.963  1.00  0.00     0.016 C 
HETATM   12  C18 UNL     1      -4.434  12.519  17.197  1.00  0.00     0.012 C 
HETATM   13  C19 UNL     1      -4.653  13.851  17.919  1.00  0.00     0.032 C 
HETATM   14  C20 UNL     1      -3.859  13.958  19.216  1.00  0.00     0.118 C 
HETATM   15  C21 UNL     1      -2.381  13.615  19.026  1.00  0.00     0.039 C 
HETATM   16  C22 UNL     1      -2.223  12.238  18.364  1.00  0.00     0.025 C 
HETATM   17  C23 UNL     1      -0.757  11.774  18.307  1.00  0.00     0.126 C 
HETATM   18  C24 UNL     1      -0.653  10.336  17.784  1.00  0.00     0.071 C 
HETATM   19  C25 UNL     1      -1.326  10.148  16.415  1.00  0.00     0.071 C 
ENDROOT
BRANCH   1  20
HETATM   20  C5  UNL     1      -2.172   5.996  13.315  1.00  0.00    -0.011 C 
HETATM   21  C6  UNL     1      -1.329   6.464  12.122  1.00  0.00     0.010 C 
BRANCH  20  22
HETATM   22  C4  UNL     1      -3.678   6.119  12.940  1.00  0.00     0.009 C 
BRANCH  22  23
HETATM   23  C3  UNL     1      -4.509   4.906  13.397  1.00  0.00     0.034 C 
BRANCH  23  24
HETATM   24  C2  UNL     1      -5.062   3.994  12.305  1.00  0.00    -0.083 C 
HETATM   25  C1  UNL     1      -4.306   3.504  11.305  1.00  0.00     0.015 C 
BRANCH  24  26
HETATM   26  C26 UNL     1      -6.556   3.667  12.463  1.00  0.00     0.033 C 
HETATM   27  C27 UNL     1      -7.182   4.122  13.791  1.00  0.00     0.017 C 
BRANCH  26  28
HETATM   28  C28 UNL     1      -6.861   2.171  12.218  1.00  0.00     0.172 C 
BRANCH  28  29
HETATM   29  O6  UNL     1      -8.175   1.796  12.619  1.00  0.00    -0.400 OA
HETATM   30  H48 UNL     1      -8.801   2.427  12.227  1.00  0.00     0.209 HD
ENDBRANCH  28  29
ENDBRANCH  26  28
ENDBRANCH  24  26
ENDBRANCH  23  24
ENDBRANCH  22  23
ENDBRANCH  20  22
ENDBRANCH   1  20
BRANCH   2  31
HETATM   31  O1  UNL     1       0.571   6.419  14.161  1.00  0.00    -0.393 OA
HETATM   32  H13 UNL     1       0.494   5.510  13.819  1.00  0.00     0.210 HD
ENDBRANCH   2  31
BRANCH   3  33
HETATM   33  O2  UNL     1       0.973   8.626  15.355  1.00  0.00    -0.392 OA
HETATM   34  H15 UNL     1       1.363   8.002  14.700  1.00  0.00     0.210 HD
ENDBRANCH   3  33
BRANCH  19  35
HETATM   35  O5  UNL     1      -0.557  10.875  15.468  1.00  0.00    -0.389 OA
HETATM   36  H41 UNL     1       0.264  10.354  15.314  1.00  0.00     0.210 HD
ENDBRANCH  19  35
BRANCH  17  37
HETATM   37  O4  UNL     1      -0.186  11.812  19.618  1.00  0.00    -0.395 OA
HETATM   38  H38 UNL     1      -0.680  11.194  20.183  1.00  0.00     0.210 HD
ENDBRANCH  17  37
BRANCH  14  39
HETATM   39  O3  UNL     1      -3.989  15.282  19.721  1.00  0.00    -0.396 OA
HETATM   40  H33 UNL     1      -3.429  15.352  20.513  1.00  0.00     0.210 HD
ENDBRANCH  14  39
TORSDOF 12
ENDMDL
MODEL 7
REMARK minimizedAffinity -7.68339252
REMARK CNNscore 0.627663791
REMARK CNNaffinity 6.59202147
REMARK  12 active torsions:
REMARK  status: ('A' for Active; 'I' for Inactive)
REMARK    1  A    between atoms: C2_2  and  C3_3 
REMARK    2  A    between atoms: C2_2  and  C26_31 
REMARK    3  A    between atoms: C3_3  and  C4_4 
REMARK    4  A    between atoms: C4_4  and  C5_5 
REMARK    5  A    between atoms: C5_5  and  C7_7 
REMARK    6  A    between atoms: C8_8  and  O1_9 
REMARK    7  A    between atoms: C9_10  and  O2_11 
REMARK    8  A    between atoms: C20_22  and  O3_23 
REMARK    9  A    between atoms: C23_26  and  O4_27 
REMARK   10  A    between atoms: C25_29  and  O5_30 
REMARK   11  A    between atoms: C26_31  and  C28_33 
REMARK   12  A    between atoms: C28_33  and  O6_34 
ROOT
HETATM    1  C7  UNL     1     -12.713 -11.810  25.436  1.00  0.00     0.029 C 
HETATM    2  C8  UNL     1     -13.733 -11.258  24.376  1.00  0.00     0.152 C 
HETATM    3  C9  UNL     1     -14.355  -9.973  24.979  1.00  0.00     0.155 C 
HETATM    4  C10 UNL     1     -13.547  -9.731  26.248  1.00  0.00     0.060 C 
HETATM    5  C11 UNL     1     -13.218 -11.167  26.776  1.00  0.00    -0.029 C 
HETATM    6  C12 UNL     1     -14.401 -11.982  27.351  1.00  0.00     0.016 C 
HETATM    7  C13 UNL     1     -12.156 -10.983  27.882  1.00  0.00     0.011 C 
HETATM    8  C14 UNL     1     -12.619 -10.014  28.989  1.00  0.00     0.009 C 
HETATM    9  C15 UNL     1     -13.033  -8.627  28.442  1.00  0.00     0.029 C 
HETATM   10  C16 UNL     1     -13.402  -7.563  29.549  1.00  0.00    -0.031 C 
HETATM   11  C17 UNL     1     -14.613  -8.010  30.405  1.00  0.00     0.016 C 
HETATM   12  C18 UNL     1     -12.193  -7.345  30.510  1.00  0.00     0.012 C 
HETATM   13  C19 UNL     1     -12.365  -6.162  31.466  1.00  0.00     0.032 C 
HETATM   14  C20 UNL     1     -12.740  -4.871  30.748  1.00  0.00     0.118 C 
HETATM   15  C21 UNL     1     -13.927  -5.053  29.802  1.00  0.00     0.039 C 
HETATM   16  C22 UNL     1     -13.667  -6.206  28.819  1.00  0.00     0.025 C 
HETATM   17  C23 UNL     1     -14.756  -6.318  27.738  1.00  0.00     0.126 C 
HETATM   18  C24 UNL     1     -14.387  -7.374  26.690  1.00  0.00     0.071 C 
HETATM   19  C25 UNL     1     -14.101  -8.753  27.305  1.00  0.00     0.071 C 
ENDROOT
BRANCH   1  20
HETATM   20  C5  UNL     1     -12.477 -13.347  25.349  1.00  0.00    -0.011 C 
HETATM   21  C6  UNL     1     -12.330 -14.007  26.725  1.00  0.00     0.010 C 
BRANCH  20  22
HETATM   22  C4  UNL     1     -11.200 -13.648  24.513  1.00  0.00     0.009 C 
BRANCH  22  23
HETATM   23  C3  UNL     1      -9.976 -12.836  24.977  1.00  0.00     0.034 C 
BRANCH  23  24
HETATM   24  C2  UNL     1      -8.852 -12.638  23.964  1.00  0.00    -0.083 C 
HETATM   25  C1  UNL     1      -7.832 -13.505  23.820  1.00  0.00     0.015 C 
BRANCH  24  26
HETATM   26  C26 UNL     1      -9.002 -11.371  23.105  1.00  0.00     0.033 C 
HETATM   27  C27 UNL     1      -9.933 -11.518  21.891  1.00  0.00     0.017 C 
BRANCH  26  28
HETATM   28  C28 UNL     1      -7.638 -10.794  22.662  1.00  0.00     0.172 C 
BRANCH  28  29
HETATM   29  O6  UNL     1      -7.424 -10.885  21.257  1.00  0.00    -0.400 OA
HETATM   30  H48 UNL     1      -8.205 -10.520  20.809  1.00  0.00     0.209 HD
ENDBRANCH  28  29
ENDBRANCH  26  28
ENDBRANCH  24  26
ENDBRANCH  23  24
ENDBRANCH  22  23
ENDBRANCH  20  22
ENDBRANCH   1  20
BRANCH   2  31
HETATM   31  O1  UNL     1     -14.795 -12.162  24.067  1.00  0.00    -0.393 OA
HETATM   32  H13 UNL     1     -14.442 -12.852  23.478  1.00  0.00     0.210 HD
ENDBRANCH   2  31
BRANCH   3  33
HETATM   33  O2  UNL     1     -15.742 -10.137  25.275  1.00  0.00    -0.392 OA
HETATM   34  H15 UNL     1     -15.998 -10.953  24.786  1.00  0.00     0.210 HD
ENDBRANCH   3  33
BRANCH  19  35
HETATM   35  O5  UNL     1     -15.332  -9.246  27.815  1.00  0.00    -0.389 OA
HETATM   36  H41 UNL     1     -15.865  -9.527  27.037  1.00  0.00     0.210 HD
ENDBRANCH  19  35
BRANCH  17  37
HETATM   37  O4  UNL     1     -14.907  -5.062  27.070  1.00  0.00    -0.395 OA
HETATM   38  H38 UNL     1     -14.065  -4.847  26.634  1.00  0.00     0.210 HD
ENDBRANCH  17  37
BRANCH  14  39
HETATM   39  O3  UNL     1     -13.045  -3.880  31.723  1.00  0.00    -0.396 OA
HETATM   40  H33 UNL     1     -13.341  -3.084  31.251  1.00  0.00     0.210 HD
ENDBRANCH  14  39
TORSDOF 12
ENDMDL
MODEL 8
REMARK minimizedAffinity -8.06555176
REMARK CNNscore 0.620512605
REMARK CNNaffinity 6.4975276
REMARK  12 active torsions:
REMARK  status: ('A' for Active; 'I' for Inactive)
REMARK    1  A    between atoms: C2_2  and  C3_3 
REMARK    2  A    between atoms: C2_2  and  C26_31 
REMARK    3  A    between atoms: C3_3  and  C4_4 
REMARK    4  A    between atoms: C4_4  and  C5_5 
REMARK    5  A    between atoms: C5_5  and  C7_7 
REMARK    6  A    between atoms: C8_8  and  O1_9 
REMARK    7  A    between atoms: C9_10  and  O2_11 
REMARK    8  A    between atoms: C20_22  and  O3_23 
REMARK    9  A    between atoms: C23_26  and  O4_27 
REMARK   10  A    between atoms: C25_29  and  O5_30 
REMARK   11  A    between atoms: C26_31  and  C28_33 
REMARK   12  A    between atoms: C28_33  and  O6_34 
ROOT
HETATM    1  C7  UNL     1      -2.474   6.120  14.158  1.00  0.00     0.029 C 
HETATM    2  C8  UNL     1      -1.046   5.574  13.796  1.00  0.00     0.152 C 
HETATM    3  C9  UNL     1      -0.021   6.576  14.386  1.00  0.00     0.155 C 
HETATM    4  C10 UNL     1      -0.871   7.533  15.212  1.00  0.00     0.060 C 
HETATM    5  C11 UNL     1      -2.212   7.647  14.411  1.00  0.00    -0.029 C 
HETATM    6  C12 UNL     1      -2.155   8.414  13.068  1.00  0.00     0.016 C 
HETATM    7  C13 UNL     1      -3.210   8.359  15.349  1.00  0.00     0.011 C 
HETATM    8  C14 UNL     1      -2.680   9.718  15.853  1.00  0.00     0.009 C 
HETATM    9  C15 UNL     1      -1.307   9.605  16.559  1.00  0.00     0.029 C 
HETATM   10  C16 UNL     1      -0.779  10.949  17.195  1.00  0.00    -0.031 C 
HETATM   11  C17 UNL     1      -0.569  12.054  16.130  1.00  0.00     0.016 C 
HETATM   12  C18 UNL     1      -1.801  11.486  18.244  1.00  0.00     0.012 C 
HETATM   13  C19 UNL     1      -1.273  12.650  19.087  1.00  0.00     0.032 C 
HETATM   14  C20 UNL     1       0.075  12.349  19.733  1.00  0.00     0.118 C 
HETATM   15  C21 UNL     1       1.100  11.824  18.726  1.00  0.00     0.039 C 
HETATM   16  C22 UNL     1       0.542  10.614  17.962  1.00  0.00     0.025 C 
HETATM   17  C23 UNL     1       1.596   9.947  17.061  1.00  0.00     0.126 C 
HETATM   18  C24 UNL     1       1.051   8.657  16.436  1.00  0.00     0.071 C 
HETATM   19  C25 UNL     1      -0.256   8.876  15.657  1.00  0.00     0.071 C 
ENDROOT
BRANCH   1  20
HETATM   20  C5  UNL     1      -3.592   5.675  13.168  1.00  0.00    -0.011 C 
HETATM   21  C6  UNL     1      -4.826   6.584  13.215  1.00  0.00     0.010 C 
BRANCH  20  22
HETATM   22  C4  UNL     1      -4.034   4.216  13.479  1.00  0.00     0.009 C 
BRANCH  22  23
HETATM   23  C3  UNL     1      -3.550   3.206  12.423  1.00  0.00     0.034 C 
BRANCH  23  24
HETATM   24  C2  UNL     1      -4.160   3.315  11.029  1.00  0.00    -0.083 C 
HETATM   25  C1  UNL     1      -3.464   3.729   9.953  1.00  0.00     0.015 C 
BRANCH  24  26
HETATM   26  C26 UNL     1      -5.635   2.887  10.958  1.00  0.00     0.033 C 
HETATM   27  C27 UNL     1      -6.585   3.680  11.871  1.00  0.00     0.017 C 
BRANCH  26  28
HETATM   28  C28 UNL     1      -5.821   1.369  11.189  1.00  0.00     0.172 C 
BRANCH  28  29
HETATM   29  O6  UNL     1      -6.915   1.065  12.048  1.00  0.00    -0.400 OA
HETATM   30  H48 UNL     1      -7.695   1.544  11.723  1.00  0.00     0.209 HD
ENDBRANCH  28  29
ENDBRANCH  26  28
ENDBRANCH  24  26
ENDBRANCH  23  24
ENDBRANCH  22  23
ENDBRANCH  20  22
ENDBRANCH   1  20
BRANCH   2  31
HETATM   31  O1  UNL     1      -0.803   5.465  12.393  1.00  0.00    -0.393 OA
HETATM   32  H13 UNL     1      -1.270   4.675  12.067  1.00  0.00     0.210 HD
ENDBRANCH   2  31
BRANCH   3  33
HETATM   33  O2  UNL     1       0.695   7.272  13.366  1.00  0.00    -0.392 OA
HETATM   34  H15 UNL     1       0.520   6.750  12.549  1.00  0.00     0.210 HD
ENDBRANCH   3  33
BRANCH  19  35
HETATM   35  O5  UNL     1       0.065   9.658  14.515  1.00  0.00    -0.389 OA
HETATM   36  H41 UNL     1       0.527   9.059  13.885  1.00  0.00     0.210 HD
ENDBRANCH  19  35
BRANCH  17  37
HETATM   37  O4  UNL     1       2.751   9.611  17.835  1.00  0.00    -0.395 OA
HETATM   38  H38 UNL     1       2.485   8.973  18.518  1.00  0.00     0.210 HD
ENDBRANCH  17  37
BRANCH  14  39
HETATM   39  O3  UNL     1       0.561  13.536  20.346  1.00  0.00    -0.396 OA
HETATM   40  H33 UNL     1       1.447  13.345  20.699  1.00  0.00     0.210 HD
ENDBRANCH  14  39
TORSDOF 12
ENDMDL
MODEL 9
REMARK minimizedAffinity -7.82715797
REMARK CNNscore 0.615792871
REMARK CNNaffinity 6.39760542
REMARK  12 active torsions:
REMARK  status: ('A' for Active; 'I' for Inactive)
REMARK    1  A    between atoms: C2_2  and  C3_3 
REMARK    2  A    between atoms: C2_2  and  C26_31 
REMARK    3  A    between atoms: C3_3  and  C4_4 
REMARK    4  A    between atoms: C4_4  and  C5_5 
REMARK    5  A    between atoms: C5_5  and  C7_7 
REMARK    6  A    between atoms: C8_8  and  O1_9 
REMARK    7  A    between atoms: C9_10  and  O2_11 
REMARK    8  A    between atoms: C20_22  and  O3_23 
REMARK    9  A    between atoms: C23_26  and  O4_27 
REMARK   10  A    between atoms: C25_29  and  O5_30 
REMARK   11  A    between atoms: C26_31  and  C28_33 
REMARK   12  A    between atoms: C28_33  and  O6_34 
ROOT
HETATM    1  C7  UNL     1      -1.398   6.324  13.846  1.00  0.00     0.029 C 
HETATM    2  C8  UNL     1      -0.236   6.897  12.957  1.00  0.00     0.152 C 
HETATM    3  C9  UNL     1      -0.116   8.405  13.296  1.00  0.00     0.155 C 
HETATM    4  C10 UNL     1      -1.057   8.595  14.479  1.00  0.00     0.060 C 
HETATM    5  C11 UNL     1      -2.235   7.604  14.198  1.00  0.00    -0.029 C 
HETATM    6  C12 UNL     1      -3.182   7.966  13.028  1.00  0.00     0.016 C 
HETATM    7  C13 UNL     1      -3.058   7.538  15.502  1.00  0.00     0.011 C 
HETATM    8  C14 UNL     1      -3.527   8.930  15.975  1.00  0.00     0.009 C 
HETATM    9  C15 UNL     1      -2.360   9.929  16.158  1.00  0.00     0.029 C 
HETATM   10  C16 UNL     1      -2.778  11.331  16.752  1.00  0.00    -0.031 C 
HETATM   11  C17 UNL     1      -3.778  12.078  15.836  1.00  0.00     0.016 C 
HETATM   12  C18 UNL     1      -3.455  11.144  18.145  1.00  0.00     0.012 C 
HETATM   13  C19 UNL     1      -3.676  12.452  18.909  1.00  0.00     0.032 C 
HETATM   14  C20 UNL     1      -2.410  13.295  19.018  1.00  0.00     0.118 C 
HETATM   15  C21 UNL     1      -1.726  13.499  17.666  1.00  0.00     0.039 C 
HETATM   16  C22 UNL     1      -1.465  12.149  16.979  1.00  0.00     0.025 C 
HETATM   17  C23 UNL     1      -0.627  12.292  15.697  1.00  0.00     0.126 C 
HETATM   18  C24 UNL     1      -0.255  10.918  15.125  1.00  0.00     0.071 C 
HETATM   19  C25 UNL     1      -1.481  10.027  14.866  1.00  0.00     0.071 C 
ENDROOT
BRANCH   1  20
HETATM   20  C5  UNL     1      -2.102   5.074  13.239  1.00  0.00    -0.011 C 
HETATM   21  C6  UNL     1      -1.231   4.337  12.216  1.00  0.00     0.010 C 
BRANCH  20  22
HETATM   22  C4  UNL     1      -3.435   5.490  12.553  1.00  0.00     0.009 C 
BRANCH  22  23
HETATM   23  C3  UNL     1      -4.676   4.892  13.242  1.00  0.00     0.034 C 
BRANCH  23  24
HETATM   24  C2  UNL     1      -5.408   3.776  12.504  1.00  0.00    -0.083 C 
HETATM   25  C1  UNL     1      -6.660   3.387  12.813  1.00  0.00     0.015 C 
BRANCH  24  26
HETATM   26  C26 UNL     1      -4.597   3.150  11.356  1.00  0.00     0.033 C 
HETATM   27  C27 UNL     1      -5.263   3.230   9.973  1.00  0.00     0.017 C 
BRANCH  26  28
HETATM   28  C28 UNL     1      -4.176   1.692  11.659  1.00  0.00     0.172 C 
BRANCH  28  29
HETATM   29  O6  UNL     1      -2.855   1.391  11.219  1.00  0.00    -0.400 OA
HETATM   30  H48 UNL     1      -2.262   2.083  11.553  1.00  0.00     0.209 HD
ENDBRANCH  28  29
ENDBRANCH  26  28
ENDBRANCH  24  26
ENDBRANCH  23  24
ENDBRANCH  22  23
ENDBRANCH  20  22
ENDBRANCH   1  20
BRANCH   2  31
HETATM   31  O1  UNL     1      -0.465   6.775  11.552  1.00  0.00    -0.393 OA
HETATM   32  H13 UNL     1      -0.303   5.849  11.300  1.00  0.00     0.210 HD
ENDBRANCH   2  31
BRANCH   3  33
HETATM   33  O2  UNL     1      -0.495   9.233  12.197  1.00  0.00    -0.392 OA
HETATM   34  H15 UNL     1      -0.500   8.621  11.425  1.00  0.00     0.210 HD
ENDBRANCH   3  33
BRANCH  19  35
HETATM   35  O5  UNL     1      -2.208  10.617  13.798  1.00  0.00    -0.389 OA
HETATM   36  H41 UNL     1      -1.699  10.431  12.976  1.00  0.00     0.210 HD
ENDBRANCH  19  35
BRANCH  17  37
HETATM   37  O4  UNL     1       0.585  12.995  15.985  1.00  0.00    -0.395 OA
HETATM   38  H38 UNL     1       1.095  12.472  16.627  1.00  0.00     0.210 HD
ENDBRANCH  17  37
BRANCH  14  39
HETATM   39  O3  UNL     1      -2.750  14.555  19.586  1.00  0.00    -0.396 OA
HETATM   40  H33 UNL     1      -1.946  15.101  19.592  1.00  0.00     0.210 HD
ENDBRANCH  14  39
TORSDOF 12
ENDMDL
