MODEL 1
REMARK minimizedAffinity -9.01371002
REMARK  7 active torsions:
REMARK  status: ('A' for Active; 'I' for Inactive)
REMARK    1  A    between atoms: C4_4  and  C5_5 
REMARK    2  A    between atoms: C5_5  and  C6_6 
REMARK    3  A    between atoms: C6_6  and  C7_7 
REMARK    4  A    between atoms: C7_7  and  C9_9 
REMARK    5  A    between atoms: C27_27  and  O1_28 
REMARK    6  A    between atoms: C28_29  and  O2_30 
REMARK    7  A    between atoms: C29_31  and  O3_32 
ROOT
HETATM    1  C9  UNL     1      -5.340   5.065  14.049  1.00  0.00    -0.002 C 
HETATM    2  C10 UNL     1      -5.010   4.493  12.637  1.00  0.00     0.007 C 
HETATM    3  C11 UNL     1      -3.741   5.197  12.132  1.00  0.00     0.015 C 
HETATM    4  C12 UNL     1      -3.129   5.844  13.383  1.00  0.00    -0.013 C 
HETATM    5  C13 UNL     1      -2.330   4.729  14.127  1.00  0.00     0.021 C 
HETATM    6  C14 UNL     1      -2.137   6.993  13.216  1.00  0.00    -0.068 C 
HETATM    7  C15 UNL     1      -1.997   7.920  14.199  1.00  0.00    -0.065 C 
HETATM    8  C16 UNL     1      -2.916   7.903  15.431  1.00  0.00     0.036 C 
HETATM    9  C17 UNL     1      -4.007   6.811  15.508  1.00  0.00     0.015 C 
HETATM   10  C18 UNL     1      -4.436   6.338  14.115  1.00  0.00    -0.029 C 
HETATM   11  C19 UNL     1      -5.146   7.514  13.377  1.00  0.00     0.016 C 
HETATM   12  C20 UNL     1      -0.940   9.059  14.136  1.00  0.00     0.012 C 
HETATM   13  C21 UNL     1      -1.709  10.384  13.882  1.00  0.00     0.023 C 
HETATM   14  C22 UNL     1       0.092   8.872  12.938  1.00  0.00     0.007 C 
HETATM   15  C23 UNL     1      -0.618   8.315  11.698  1.00  0.00     0.010 C 
HETATM   16  C24 UNL     1      -1.305   6.987  11.961  1.00  0.00     0.036 C 
HETATM   17  C25 UNL     1       1.422   8.140  13.340  1.00  0.00     0.018 C 
HETATM   18  C26 UNL     1       2.179   7.495  12.174  1.00  0.00     0.013 C 
HETATM   19  C27 UNL     1       1.214   7.175  14.514  1.00  0.00     0.153 C 
HETATM   20  C28 UNL     1       0.737   7.920  15.777  1.00  0.00     0.177 C 
HETATM   21  C29 UNL     1      -0.076   9.195  15.438  1.00  0.00     0.162 C 
ENDROOT
BRANCH   1  22
HETATM   22  C7  UNL     1      -6.881   5.173  14.281  1.00  0.00    -0.014 C 
HETATM   23  C8  UNL     1      -7.593   3.967  13.642  1.00  0.00     0.010 C 
BRANCH  22  24
HETATM   24  C6  UNL     1      -7.246   5.280  15.779  1.00  0.00     0.008 C 
BRANCH  24  25
HETATM   25  C5  UNL     1      -7.727   6.667  16.224  1.00  0.00     0.028 C 
BRANCH  25  26
HETATM   26  C4  UNL     1      -9.113   6.947  15.705  1.00  0.00    -0.025 C 
HETATM   27  C2  UNL     1      -9.636   8.133  15.333  1.00  0.00    -0.091 C 
HETATM   28  C1  UNL     1      -8.904   9.446  15.335  1.00  0.00     0.042 C 
HETATM   29  C3  UNL     1     -11.059   8.222  14.847  1.00  0.00     0.042 C 
ENDBRANCH  25  26
ENDBRANCH  24  25
ENDBRANCH  22  24
ENDBRANCH   1  22
BRANCH  21  30
HETATM   30  O3  UNL     1      -0.774   9.675  16.589  1.00  0.00    -0.392 OA
HETATM   31  H48 UNL     1      -1.155  10.543  16.384  1.00  0.00     0.210 HD
ENDBRANCH  21  30
BRANCH  20  32
HETATM   32  O2  UNL     1       0.032   6.995  16.613  1.00  0.00    -0.390 OA
HETATM   33  H46 UNL     1       0.576   6.189  16.654  1.00  0.00     0.210 HD
ENDBRANCH  20  32
BRANCH  19  34
HETATM   34  O1  UNL     1       2.416   6.463  14.837  1.00  0.00    -0.393 OA
HETATM   35  H44 UNL     1       3.120   7.116  15.001  1.00  0.00     0.210 HD
ENDBRANCH  19  34
TORSDOF 7
ENDMDL
MODEL 2
REMARK minimizedAffinity -8.71997261
REMARK  7 active torsions:
REMARK  status: ('A' for Active; 'I' for Inactive)
REMARK    1  A    between atoms: C4_4  and  C5_5 
REMARK    2  A    between atoms: C5_5  and  C6_6 
REMARK    3  A    between atoms: C6_6  and  C7_7 
REMARK    4  A    between atoms: C7_7  and  C9_9 
REMARK    5  A    between atoms: C27_27  and  O1_28 
REMARK    6  A    between atoms: C28_29  and  O2_30 
REMARK    7  A    between atoms: C29_31  and  O3_32 
ROOT
HETATM    1  C9  UNL     1      -5.004   5.354  14.069  1.00  0.00    -0.002 C 
HETATM    2  C10 UNL     1      -4.656   4.822  12.646  1.00  0.00     0.007 C 
HETATM    3  C11 UNL     1      -3.374   5.532  12.182  1.00  0.00     0.015 C 
HETATM    4  C12 UNL     1      -2.778   6.137  13.462  1.00  0.00    -0.013 C 
HETATM    5  C13 UNL     1      -1.997   4.995  14.185  1.00  0.00     0.021 C 
HETATM    6  C14 UNL     1      -1.776   7.284  13.345  1.00  0.00    -0.068 C 
HETATM    7  C15 UNL     1      -1.645   8.180  14.358  1.00  0.00    -0.065 C 
HETATM    8  C16 UNL     1      -2.584   8.132  15.574  1.00  0.00     0.036 C 
HETATM    9  C17 UNL     1      -3.683   7.046  15.602  1.00  0.00     0.015 C 
HETATM   10  C18 UNL     1      -4.093   6.618  14.188  1.00  0.00    -0.029 C 
HETATM   11  C19 UNL     1      -4.784   7.821  13.474  1.00  0.00     0.016 C 
HETATM   12  C20 UNL     1      -0.580   9.313  14.346  1.00  0.00     0.012 C 
HETATM   13  C21 UNL     1      -1.336  10.650  14.120  1.00  0.00     0.023 C 
HETATM   14  C22 UNL     1       0.470   9.155  13.158  1.00  0.00     0.007 C 
HETATM   15  C23 UNL     1      -0.224   8.640  11.891  1.00  0.00     0.010 C 
HETATM   16  C24 UNL     1      -0.924   7.310  12.104  1.00  0.00     0.036 C 
HETATM   17  C25 UNL     1       1.788   8.402  13.559  1.00  0.00     0.018 C 
HETATM   18  C26 UNL     1       2.560   7.787  12.386  1.00  0.00     0.013 C 
HETATM   19  C27 UNL     1       1.555   7.403  14.700  1.00  0.00     0.153 C 
HETATM   20  C28 UNL     1       1.064   8.114  15.978  1.00  0.00     0.177 C 
HETATM   21  C29 UNL     1       0.264   9.404  15.664  1.00  0.00     0.162 C 
ENDROOT
BRANCH   1  22
HETATM   22  C7  UNL     1      -6.548   5.466  14.280  1.00  0.00    -0.014 C 
HETATM   23  C8  UNL     1      -7.192   6.171  13.072  1.00  0.00     0.010 C 
BRANCH  22  24
HETATM   24  C6  UNL     1      -7.212   4.090  14.515  1.00  0.00     0.008 C 
BRANCH  24  25
HETATM   25  C5  UNL     1      -7.951   3.520  13.296  1.00  0.00     0.028 C 
BRANCH  25  26
HETATM   26  C4  UNL     1      -7.271   2.276  12.789  1.00  0.00    -0.025 C 
HETATM   27  C2  UNL     1      -6.511   2.137  11.684  1.00  0.00    -0.091 C 
HETATM   28  C1  UNL     1      -6.158   3.240  10.726  1.00  0.00     0.042 C 
HETATM   29  C3  UNL     1      -5.919   0.799  11.327  1.00  0.00     0.042 C 
ENDBRANCH  25  26
ENDBRANCH  24  25
ENDBRANCH  22  24
ENDBRANCH   1  22
BRANCH  21  30
HETATM   30  O3  UNL     1      -0.449   9.854  16.818  1.00  0.00    -0.392 OA
HETATM   31  H48 UNL     1      -0.821  10.730  16.634  1.00  0.00     0.210 HD
ENDBRANCH  21  30
BRANCH  20  32
HETATM   32  O2  UNL     1       0.339   7.169  16.774  1.00  0.00    -0.390 OA
HETATM   33  H46 UNL     1       0.877   6.358  16.799  1.00  0.00     0.210 HD
ENDBRANCH  20  32
BRANCH  19  34
HETATM   34  O1  UNL     1       2.748   6.674  15.021  1.00  0.00    -0.393 OA
HETATM   35  H44 UNL     1       3.453   7.317  15.215  1.00  0.00     0.210 HD
ENDBRANCH  19  34
TORSDOF 7
ENDMDL
MODEL 3
REMARK minimizedAffinity -8.65676022
REMARK  7 active torsions:
REMARK  status: ('A' for Active; 'I' for Inactive)
REMARK    1  A    between atoms: C4_4  and  C5_5 
REMARK    2  A    between atoms: C5_5  and  C6_6 
REMARK    3  A    between atoms: C6_6  and  C7_7 
REMARK    4  A    between atoms: C7_7  and  C9_9 
REMARK    5  A    between atoms: C27_27  and  O1_28 
REMARK    6  A    between atoms: C28_29  and  O2_30 
REMARK    7  A    between atoms: C29_31  and  O3_32 
ROOT
HETATM    1  C9  UNL     1      -5.447   5.408  13.190  1.00  0.00    -0.002 C 
HETATM    2  C10 UNL     1      -6.468   5.983  14.218  1.00  0.00     0.007 C 
HETATM    3  C11 UNL     1      -5.726   7.007  15.091  1.00  0.00     0.015 C 
HETATM    4  C12 UNL     1      -4.434   7.315  14.320  1.00  0.00    -0.013 C 
HETATM    5  C13 UNL     1      -4.797   8.368  13.225  1.00  0.00     0.021 C 
HETATM    6  C14 UNL     1      -3.249   7.920  15.068  1.00  0.00    -0.068 C 
HETATM    7  C15 UNL     1      -1.983   7.711  14.620  1.00  0.00    -0.065 C 
HETATM    8  C16 UNL     1      -1.713   6.766  13.439  1.00  0.00     0.036 C 
HETATM    9  C17 UNL     1      -2.921   6.055  12.787  1.00  0.00     0.015 C 
HETATM   10  C18 UNL     1      -4.077   5.878  13.778  1.00  0.00    -0.029 C 
HETATM   11  C19 UNL     1      -3.634   4.891  14.903  1.00  0.00     0.016 C 
HETATM   12  C20 UNL     1      -0.739   8.375  15.277  1.00  0.00     0.012 C 
HETATM   13  C21 UNL     1       0.031   7.258  16.032  1.00  0.00     0.023 C 
HETATM   14  C22 UNL     1      -1.130   9.487  16.348  1.00  0.00     0.007 C 
HETATM   15  C23 UNL     1      -2.371   9.058  17.141  1.00  0.00     0.010 C 
HETATM   16  C24 UNL     1      -3.572   8.791  16.252  1.00  0.00     0.036 C 
HETATM   17  C25 UNL     1      -1.168  10.948  15.774  1.00  0.00     0.018 C 
HETATM   18  C26 UNL     1      -2.012  11.937  16.587  1.00  0.00     0.013 C 
HETATM   19  C27 UNL     1      -1.511  10.971  14.279  1.00  0.00     0.153 C 
HETATM   20  C28 UNL     1      -0.455  10.213  13.449  1.00  0.00     0.177 C 
HETATM   21  C29 UNL     1       0.221   9.074  14.253  1.00  0.00     0.162 C 
ENDROOT
BRANCH   1  22
HETATM   22  C7  UNL     1      -5.710   3.896  12.901  1.00  0.00    -0.014 C 
HETATM   23  C8  UNL     1      -7.217   3.597  13.003  1.00  0.00     0.010 C 
BRANCH  22  24
HETATM   24  C6  UNL     1      -5.167   3.455  11.522  1.00  0.00     0.008 C 
BRANCH  24  25
HETATM   25  C5  UNL     1      -4.067   2.387  11.578  1.00  0.00     0.028 C 
BRANCH  25  26
HETATM   26  C4  UNL     1      -2.715   3.018  11.782  1.00  0.00    -0.025 C 
HETATM   27  C2  UNL     1      -1.507   2.515  11.457  1.00  0.00    -0.091 C 
HETATM   28  C1  UNL     1      -1.268   1.193  10.781  1.00  0.00     0.042 C 
HETATM   29  C3  UNL     1      -0.251   3.291  11.752  1.00  0.00     0.042 C 
ENDBRANCH  25  26
ENDBRANCH  24  25
ENDBRANCH  22  24
ENDBRANCH   1  22
BRANCH  21  30
HETATM   30  O3  UNL     1       0.938   8.193  13.385  1.00  0.00    -0.392 OA
HETATM   31  H48 UNL     1       1.462   7.581  13.924  1.00  0.00     0.210 HD
ENDBRANCH  21  30
BRANCH  20  32
HETATM   32  O2  UNL     1      -1.065   9.771  12.231  1.00  0.00    -0.390 OA
HETATM   33  H46 UNL     1      -1.562  10.531  11.879  1.00  0.00     0.210 HD
ENDBRANCH  20  32
BRANCH  19  34
HETATM   34  O1  UNL     1      -1.605  12.310  13.775  1.00  0.00    -0.393 OA
HETATM   35  H44 UNL     1      -0.773  12.771  13.981  1.00  0.00     0.210 HD
ENDBRANCH  19  34
TORSDOF 7
ENDMDL
MODEL 4
REMARK minimizedAffinity -8.53625298
REMARK  7 active torsions:
REMARK  status: ('A' for Active; 'I' for Inactive)
REMARK    1  A    between atoms: C4_4  and  C5_5 
REMARK    2  A    between atoms: C5_5  and  C6_6 
REMARK    3  A    between atoms: C6_6  and  C7_7 
REMARK    4  A    between atoms: C7_7  and  C9_9 
REMARK    5  A    between atoms: C27_27  and  O1_28 
REMARK    6  A    between atoms: C28_29  and  O2_30 
REMARK    7  A    between atoms: C29_31  and  O3_32 
ROOT
HETATM    1  C9  UNL     1      -0.031   6.395  12.750  1.00  0.00    -0.002 C 
HETATM    2  C10 UNL     1       1.282   6.179  13.561  1.00  0.00     0.007 C 
HETATM    3  C11 UNL     1       1.343   7.261  14.650  1.00  0.00     0.015 C 
HETATM    4  C12 UNL     1      -0.087   7.819  14.726  1.00  0.00    -0.013 C 
HETATM    5  C13 UNL     1      -0.911   6.836  15.615  1.00  0.00     0.021 C 
HETATM    6  C14 UNL     1      -0.315   9.195  15.347  1.00  0.00    -0.068 C 
HETATM    7  C15 UNL     1      -1.384   9.944  14.969  1.00  0.00    -0.065 C 
HETATM    8  C16 UNL     1      -2.304   9.480  13.829  1.00  0.00     0.036 C 
HETATM    9  C17 UNL     1      -1.967   8.147  13.121  1.00  0.00     0.015 C 
HETATM   10  C18 UNL     1      -0.470   7.826  13.197  1.00  0.00    -0.029 C 
HETATM   11  C19 UNL     1       0.318   8.890  12.371  1.00  0.00     0.016 C 
HETATM   12  C20 UNL     1      -1.729  11.309  15.629  1.00  0.00     0.012 C 
HETATM   13  C21 UNL     1      -1.402  12.415  14.589  1.00  0.00     0.023 C 
HETATM   14  C22 UNL     1      -0.853  11.603  16.926  1.00  0.00     0.007 C 
HETATM   15  C23 UNL     1       0.583  11.104  16.730  1.00  0.00     0.010 C 
HETATM   16  C24 UNL     1       0.652   9.619  16.420  1.00  0.00     0.036 C 
HETATM   17  C25 UNL     1      -1.536  11.179  18.274  1.00  0.00     0.018 C 
HETATM   18  C26 UNL     1      -0.571  10.961  19.444  1.00  0.00     0.013 C 
HETATM   19  C27 UNL     1      -2.506  10.006  18.084  1.00  0.00     0.153 C 
HETATM   20  C28 UNL     1      -3.653  10.375  17.122  1.00  0.00     0.177 C 
HETATM   21  C29 UNL     1      -3.227  11.437  16.076  1.00  0.00     0.162 C 
ENDROOT
BRANCH   1  22
HETATM   22  C7  UNL     1       0.166   6.062  11.236  1.00  0.00    -0.014 C 
HETATM   23  C8  UNL     1      -0.119   7.312  10.383  1.00  0.00     0.010 C 
BRANCH  22  24
HETATM   24  C6  UNL     1       1.580   5.516  10.932  1.00  0.00     0.008 C 
BRANCH  24  25
HETATM   25  C5  UNL     1       2.470   6.463  10.117  1.00  0.00     0.028 C 
BRANCH  25  26
HETATM   26  C4  UNL     1       2.159   6.363   8.647  1.00  0.00    -0.025 C 
HETATM   27  C2  UNL     1       2.325   7.305   7.698  1.00  0.00    -0.091 C 
HETATM   28  C1  UNL     1       2.899   8.677   7.923  1.00  0.00     0.042 C 
HETATM   29  C3  UNL     1       1.941   7.026   6.268  1.00  0.00     0.042 C 
ENDBRANCH  25  26
ENDBRANCH  24  25
ENDBRANCH  22  24
ENDBRANCH   1  22
BRANCH  21  30
HETATM   30  O3  UNL     1      -4.179  11.516  15.013  1.00  0.00    -0.392 OA
HETATM   31  H48 UNL     1      -3.962  12.279  14.455  1.00  0.00     0.210 HD
ENDBRANCH  21  30
BRANCH  20  32
HETATM   32  O2  UNL     1      -4.165   9.171  16.539  1.00  0.00    -0.390 OA
HETATM   33  H46 UNL     1      -4.277   8.537  17.270  1.00  0.00     0.210 HD
ENDBRANCH  20  32
BRANCH  19  34
HETATM   34  O1  UNL     1      -3.081   9.583  19.328  1.00  0.00    -0.393 OA
HETATM   35  H44 UNL     1      -3.496  10.356  19.748  1.00  0.00     0.210 HD
ENDBRANCH  19  34
TORSDOF 7
ENDMDL
MODEL 5
REMARK minimizedAffinity -8.48432255
REMARK  7 active torsions:
REMARK  status: ('A' for Active; 'I' for Inactive)
REMARK    1  A    between atoms: C4_4  and  C5_5 
REMARK    2  A    between atoms: C5_5  and  C6_6 
REMARK    3  A    between atoms: C6_6  and  C7_7 
REMARK    4  A    between atoms: C7_7  and  C9_9 
REMARK    5  A    between atoms: C27_27  and  O1_28 
REMARK    6  A    between atoms: C28_29  and  O2_30 
REMARK    7  A    between atoms: C29_31  and  O3_32 
ROOT
HETATM    1  C9  UNL     1      -2.514   4.933  12.621  1.00  0.00    -0.002 C 
HETATM    2  C10 UNL     1      -1.779   4.752  11.259  1.00  0.00     0.007 C 
HETATM    3  C11 UNL     1      -0.581   5.714  11.241  1.00  0.00     0.015 C 
HETATM    4  C12 UNL     1      -0.393   6.128  12.709  1.00  0.00    -0.013 C 
HETATM    5  C13 UNL     1       0.413   4.986  13.404  1.00  0.00     0.021 C 
HETATM    6  C14 UNL     1       0.383   7.404  13.026  1.00  0.00    -0.068 C 
HETATM    7  C15 UNL     1       0.129   8.089  14.171  1.00  0.00    -0.065 C 
HETATM    8  C16 UNL     1      -1.022   7.668  15.099  1.00  0.00     0.036 C 
HETATM    9  C17 UNL     1      -1.883   6.454  14.682  1.00  0.00     0.015 C 
HETATM   10  C18 UNL     1      -1.897   6.263  13.161  1.00  0.00    -0.029 C 
HETATM   11  C19 UNL     1      -2.629   7.475  12.505  1.00  0.00     0.016 C 
HETATM   12  C20 UNL     1       0.946   9.341  14.602  1.00  0.00     0.012 C 
HETATM   13  C21 UNL     1       0.023  10.575  14.419  1.00  0.00     0.023 C 
HETATM   14  C22 UNL     1       2.235   9.573  13.696  1.00  0.00     0.007 C 
HETATM   15  C23 UNL     1       1.933   9.230  12.233  1.00  0.00     0.010 C 
HETATM   16  C24 UNL     1       1.460   7.799  12.050  1.00  0.00     0.036 C 
HETATM   17  C25 UNL     1       3.553   8.949  14.278  1.00  0.00     0.018 C 
HETATM   18  C26 UNL     1       4.656   8.696  13.245  1.00  0.00     0.013 C 
HETATM   19  C27 UNL     1       3.270   7.719  15.151  1.00  0.00     0.153 C 
HETATM   20  C28 UNL     1       2.396   8.083  16.368  1.00  0.00     0.177 C 
HETATM   21  C29 UNL     1       1.458   9.284  16.083  1.00  0.00     0.162 C 
ENDROOT
BRANCH   1  22
HETATM   22  C7  UNL     1      -4.061   4.782  12.466  1.00  0.00    -0.014 C 
HETATM   23  C8  UNL     1      -4.381   3.608  11.521  1.00  0.00     0.010 C 
BRANCH  22  24
HETATM   24  C6  UNL     1      -4.774   4.586  13.824  1.00  0.00     0.008 C 
BRANCH  24  25
HETATM   25  C5  UNL     1      -5.639   5.773  14.270  1.00  0.00     0.028 C 
BRANCH  25  26
HETATM   26  C4  UNL     1      -6.729   6.049  13.269  1.00  0.00    -0.025 C 
HETATM   27  C2  UNL     1      -7.713   5.221  12.863  1.00  0.00    -0.091 C 
HETATM   28  C1  UNL     1      -7.938   3.824  13.369  1.00  0.00     0.042 C 
HETATM   29  C3  UNL     1      -8.715   5.672  11.833  1.00  0.00     0.042 C 
ENDBRANCH  25  26
ENDBRANCH  24  25
ENDBRANCH  22  24
ENDBRANCH   1  22
BRANCH  21  30
HETATM   30  O3  UNL     1       0.446   9.389  17.086  1.00  0.00    -0.392 OA
HETATM   31  H48 UNL     1      -0.032  10.223  16.962  1.00  0.00     0.210 HD
ENDBRANCH  21  30
BRANCH  20  32
HETATM   32  O2  UNL     1       1.704   6.906  16.801  1.00  0.00    -0.390 OA
HETATM   33  H46 UNL     1       2.364   6.190  16.825  1.00  0.00     0.210 HD
ENDBRANCH  20  32
BRANCH  19  34
HETATM   34  O1  UNL     1       4.480   7.116  15.629  1.00  0.00    -0.393 OA
HETATM   35  H44 UNL     1       4.998   7.800  16.091  1.00  0.00     0.210 HD
ENDBRANCH  19  34
TORSDOF 7
ENDMDL
MODEL 6
REMARK minimizedAffinity -8.39521599
REMARK  7 active torsions:
REMARK  status: ('A' for Active; 'I' for Inactive)
REMARK    1  A    between atoms: C4_4  and  C5_5 
REMARK    2  A    between atoms: C5_5  and  C6_6 
REMARK    3  A    between atoms: C6_6  and  C7_7 
REMARK    4  A    between atoms: C7_7  and  C9_9 
REMARK    5  A    between atoms: C27_27  and  O1_28 
REMARK    6  A    between atoms: C28_29  and  O2_30 
REMARK    7  A    between atoms: C29_31  and  O3_32 
ROOT
HETATM    1  C9  UNL     1      -0.602   6.128  12.775  1.00  0.00    -0.002 C 
HETATM    2  C10 UNL     1       0.761   5.896  13.494  1.00  0.00     0.007 C 
HETATM    3  C11 UNL     1       0.938   7.013  14.535  1.00  0.00     0.015 C 
HETATM    4  C12 UNL     1      -0.464   7.621  14.696  1.00  0.00    -0.013 C 
HETATM    5  C13 UNL     1      -1.249   6.697  15.680  1.00  0.00     0.021 C 
HETATM    6  C14 UNL     1      -0.602   9.024  15.281  1.00  0.00    -0.068 C 
HETATM    7  C15 UNL     1      -1.673   9.795  14.956  1.00  0.00    -0.065 C 
HETATM    8  C16 UNL     1      -2.690   9.323  13.905  1.00  0.00     0.036 C 
HETATM    9  C17 UNL     1      -2.449   7.956  13.224  1.00  0.00     0.015 C 
HETATM   10  C18 UNL     1      -0.962   7.588  13.200  1.00  0.00    -0.029 C 
HETATM   11  C19 UNL     1      -0.205   8.595  12.279  1.00  0.00     0.016 C 
HETATM   12  C20 UNL     1      -1.925  11.194  15.588  1.00  0.00     0.012 C 
HETATM   13  C21 UNL     1      -1.642  12.251  14.487  1.00  0.00     0.023 C 
HETATM   14  C22 UNL     1      -0.944  11.503  16.804  1.00  0.00     0.007 C 
HETATM   15  C23 UNL     1       0.457  10.949  16.521  1.00  0.00     0.010 C 
HETATM   16  C24 UNL     1       0.457   9.453  16.262  1.00  0.00     0.036 C 
HETATM   17  C25 UNL     1      -1.536  11.149  18.215  1.00  0.00     0.018 C 
HETATM   18  C26 UNL     1      -0.492  10.939  19.317  1.00  0.00     0.013 C 
HETATM   19  C27 UNL     1      -2.553  10.003  18.141  1.00  0.00     0.153 C 
HETATM   20  C28 UNL     1      -3.758  10.377  17.254  1.00  0.00     0.177 C 
HETATM   21  C29 UNL     1      -3.380  11.387  16.140  1.00  0.00     0.162 C 
ENDROOT
BRANCH   1  22
HETATM   22  C7  UNL     1      -0.530   5.736  11.265  1.00  0.00    -0.014 C 
HETATM   23  C8  UNL     1       0.927   5.433  10.870  1.00  0.00     0.010 C 
BRANCH  22  24
HETATM   24  C6  UNL     1      -1.439   4.533  10.923  1.00  0.00     0.008 C 
BRANCH  24  25
HETATM   25  C5  UNL     1      -2.558   4.268  11.940  1.00  0.00     0.028 C 
BRANCH  25  26
HETATM   26  C4  UNL     1      -3.565   3.293  11.389  1.00  0.00    -0.025 C 
HETATM   27  C2  UNL     1      -4.852   3.132  11.758  1.00  0.00    -0.091 C 
HETATM   28  C1  UNL     1      -5.564   3.939  12.807  1.00  0.00     0.042 C 
HETATM   29  C3  UNL     1      -5.712   2.087  11.097  1.00  0.00     0.042 C 
ENDBRANCH  25  26
ENDBRANCH  24  25
ENDBRANCH  22  24
ENDBRANCH   1  22
BRANCH  21  30
HETATM   30  O3  UNL     1      -4.406  11.461  15.149  1.00  0.00    -0.392 OA
HETATM   31  H48 UNL     1      -4.209  12.196  14.549  1.00  0.00     0.210 HD
ENDBRANCH  21  30
BRANCH  20  32
HETATM   32  O2  UNL     1      -4.349   9.171  16.757  1.00  0.00    -0.390 OA
HETATM   33  H46 UNL     1      -4.426   8.567  17.516  1.00  0.00     0.210 HD
ENDBRANCH  20  32
BRANCH  19  34
HETATM   34  O1  UNL     1      -3.045   9.643  19.439  1.00  0.00    -0.393 OA
HETATM   35  H44 UNL     1      -3.404  10.444  19.861  1.00  0.00     0.210 HD
ENDBRANCH  19  34
TORSDOF 7
ENDMDL
MODEL 7
REMARK minimizedAffinity -8.37001705
REMARK  7 active torsions:
REMARK  status: ('A' for Active; 'I' for Inactive)
REMARK    1  A    between atoms: C4_4  and  C5_5 
REMARK    2  A    between atoms: C5_5  and  C6_6 
REMARK    3  A    between atoms: C6_6  and  C7_7 
REMARK    4  A    between atoms: C7_7  and  C9_9 
REMARK    5  A    between atoms: C27_27  and  O1_28 
REMARK    6  A    between atoms: C28_29  and  O2_30 
REMARK    7  A    between atoms: C29_31  and  O3_32 
ROOT
HETATM    1  C9  UNL     1      -2.789   6.483  13.070  1.00  0.00    -0.002 C 
HETATM    2  C10 UNL     1      -3.929   6.149  14.078  1.00  0.00     0.007 C 
HETATM    3  C11 UNL     1      -3.822   7.138  15.250  1.00  0.00     0.015 C 
HETATM    4  C12 UNL     1      -2.914   8.263  14.729  1.00  0.00    -0.013 C 
HETATM    5  C13 UNL     1      -3.812   9.217  13.881  1.00  0.00     0.021 C 
HETATM    6  C14 UNL     1      -2.211   9.174  15.733  1.00  0.00    -0.068 C 
HETATM    7  C15 UNL     1      -1.042   9.780  15.400  1.00  0.00    -0.065 C 
HETATM    8  C16 UNL     1      -0.344   9.462  14.067  1.00  0.00     0.036 C 
HETATM    9  C17 UNL     1      -1.007   8.427  13.130  1.00  0.00     0.015 C 
HETATM   10  C18 UNL     1      -1.863   7.422  13.908  1.00  0.00    -0.029 C 
HETATM   11  C19 UNL     1      -0.931   6.555  14.811  1.00  0.00     0.016 C 
HETATM   12  C20 UNL     1      -0.323  10.793  16.336  1.00  0.00     0.012 C 
HETATM   13  C21 UNL     1       0.944  10.087  16.888  1.00  0.00     0.023 C 
HETATM   14  C22 UNL     1      -1.216  11.212  17.586  1.00  0.00     0.007 C 
HETATM   15  C23 UNL     1      -2.015  10.011  18.104  1.00  0.00     0.010 C 
HETATM   16  C24 UNL     1      -2.915   9.402  17.044  1.00  0.00     0.036 C 
HETATM   17  C25 UNL     1      -2.042  12.531  17.375  1.00  0.00     0.018 C 
HETATM   18  C26 UNL     1      -3.259  12.683  18.294  1.00  0.00     0.013 C 
HETATM   19  C27 UNL     1      -2.386  12.764  15.898  1.00  0.00     0.153 C 
HETATM   20  C28 UNL     1      -1.113  12.916  15.041  1.00  0.00     0.177 C 
HETATM   21  C29 UNL     1       0.089  12.130  15.626  1.00  0.00     0.162 C 
ENDROOT
BRANCH   1  22
HETATM   22  C7  UNL     1      -2.215   5.193  12.402  1.00  0.00    -0.014 C 
HETATM   23  C8  UNL     1      -0.787   4.928  12.914  1.00  0.00     0.010 C 
BRANCH  22  24
HETATM   24  C6  UNL     1      -3.109   3.955  12.645  1.00  0.00     0.008 C 
BRANCH  24  25
HETATM   25  C5  UNL     1      -4.171   3.711  11.564  1.00  0.00     0.028 C 
BRANCH  25  26
HETATM   26  C4  UNL     1      -5.522   3.467  12.183  1.00  0.00    -0.025 C 
HETATM   27  C2  UNL     1      -6.320   2.391  12.035  1.00  0.00    -0.091 C 
HETATM   28  C1  UNL     1      -5.995   1.171  11.217  1.00  0.00     0.042 C 
HETATM   29  C3  UNL     1      -7.656   2.328  12.728  1.00  0.00     0.042 C 
ENDBRANCH  25  26
ENDBRANCH  24  25
ENDBRANCH  22  24
ENDBRANCH   1  22
BRANCH  21  30
HETATM   30  O3  UNL     1       1.139  12.014  14.663  1.00  0.00    -0.392 OA
HETATM   31  H48 UNL     1       1.923  11.647  15.099  1.00  0.00     0.210 HD
ENDBRANCH  21  30
BRANCH  20  32
HETATM   32  O2  UNL     1      -1.428  12.559  13.690  1.00  0.00    -0.390 OA
HETATM   33  H46 UNL     1      -2.263  13.011  13.473  1.00  0.00     0.210 HD
ENDBRANCH  20  32
BRANCH  19  34
HETATM   34  O1  UNL     1      -3.192  13.937  15.718  1.00  0.00    -0.393 OA
HETATM   35  H44 UNL     1      -2.727  14.690  16.124  1.00  0.00     0.210 HD
ENDBRANCH  19  34
TORSDOF 7
ENDMDL
MODEL 8
REMARK minimizedAffinity -8.13583755
REMARK  7 active torsions:
REMARK  status: ('A' for Active; 'I' for Inactive)
REMARK    1  A    between atoms: C4_4  and  C5_5 
REMARK    2  A    between atoms: C5_5  and  C6_6 
REMARK    3  A    between atoms: C6_6  and  C7_7 
REMARK    4  A    between atoms: C7_7  and  C9_9 
REMARK    5  A    between atoms: C27_27  and  O1_28 
REMARK    6  A    between atoms: C28_29  and  O2_30 
REMARK    7  A    between atoms: C29_31  and  O3_32 
ROOT
HETATM    1  C9  UNL     1      -4.248   5.971  13.223  1.00  0.00    -0.002 C 
HETATM    2  C10 UNL     1      -5.578   6.735  12.945  1.00  0.00     0.007 C 
HETATM    3  C11 UNL     1      -5.491   8.098  13.650  1.00  0.00     0.015 C 
HETATM    4  C12 UNL     1      -3.999   8.277  13.970  1.00  0.00    -0.013 C 
HETATM    5  C13 UNL     1      -3.314   8.799  12.668  1.00  0.00     0.021 C 
HETATM    6  C14 UNL     1      -3.586   9.268  15.055  1.00  0.00    -0.068 C 
HETATM    7  C15 UNL     1      -2.426   9.086  15.738  1.00  0.00    -0.065 C 
HETATM    8  C16 UNL     1      -1.578   7.822  15.523  1.00  0.00     0.036 C 
HETATM    9  C17 UNL     1      -2.093   6.765  14.519  1.00  0.00     0.015 C 
HETATM   10  C18 UNL     1      -3.619   6.804  14.386  1.00  0.00    -0.029 C 
HETATM   11  C19 UNL     1      -4.257   6.365  15.740  1.00  0.00     0.016 C 
HETATM   12  C20 UNL     1      -1.898  10.106  16.787  1.00  0.00     0.012 C 
HETATM   13  C21 UNL     1      -2.074   9.456  18.186  1.00  0.00     0.023 C 
HETATM   14  C22 UNL     1      -2.726  11.467  16.789  1.00  0.00     0.007 C 
HETATM   15  C23 UNL     1      -4.217  11.191  16.561  1.00  0.00     0.010 C 
HETATM   16  C24 UNL     1      -4.486  10.457  15.259  1.00  0.00     0.036 C 
HETATM   17  C25 UNL     1      -2.105  12.599  15.896  1.00  0.00     0.018 C 
HETATM   18  C26 UNL     1      -3.091  13.691  15.463  1.00  0.00     0.013 C 
HETATM   19  C27 UNL     1      -1.303  12.029  14.719  1.00  0.00     0.153 C 
HETATM   20  C28 UNL     1      -0.118  11.173  15.209  1.00  0.00     0.177 C 
HETATM   21  C29 UNL     1      -0.397  10.508  16.581  1.00  0.00     0.162 C 
ENDROOT
BRANCH   1  22
HETATM   22  C7  UNL     1      -4.490   4.436  13.388  1.00  0.00    -0.014 C 
HETATM   23  C8  UNL     1      -5.935   4.087  12.986  1.00  0.00     0.010 C 
BRANCH  22  24
HETATM   24  C6  UNL     1      -3.487   3.590  12.570  1.00  0.00     0.008 C 
BRANCH  24  25
HETATM   25  C5  UNL     1      -4.082   2.323  11.940  1.00  0.00     0.028 C 
BRANCH  25  26
HETATM   26  C4  UNL     1      -2.995   1.416  11.427  1.00  0.00    -0.025 C 
HETATM   27  C2  UNL     1      -1.712   1.729  11.159  1.00  0.00    -0.091 C 
HETATM   28  C1  UNL     1      -1.086   3.083  11.353  1.00  0.00     0.042 C 
HETATM   29  C3  UNL     1      -0.763   0.683  10.634  1.00  0.00     0.042 C 
ENDBRANCH  25  26
ENDBRANCH  24  25
ENDBRANCH  22  24
ENDBRANCH   1  22
BRANCH  21  30
HETATM   30  O3  UNL     1       0.556   9.479  16.851  1.00  0.00    -0.392 OA
HETATM   31  H48 UNL     1       0.444   9.182  17.768  1.00  0.00     0.210 HD
ENDBRANCH  21  30
BRANCH  20  32
HETATM   32  O2  UNL     1       0.226  10.239  14.178  1.00  0.00    -0.390 OA
HETATM   33  H46 UNL     1       0.252  10.743  13.346  1.00  0.00     0.210 HD
ENDBRANCH  20  32
BRANCH  19  34
HETATM   34  O1  UNL     1      -0.790  13.067  13.872  1.00  0.00    -0.393 OA
HETATM   35  H44 UNL     1      -0.273  13.680  14.424  1.00  0.00     0.210 HD
ENDBRANCH  19  34
TORSDOF 7
ENDMDL
MODEL 9
REMARK minimizedAffinity -8.11734104
REMARK  7 active torsions:
REMARK  status: ('A' for Active; 'I' for Inactive)
REMARK    1  A    between atoms: C4_4  and  C5_5 
REMARK    2  A    between atoms: C5_5  and  C6_6 
REMARK    3  A    between atoms: C6_6  and  C7_7 
REMARK    4  A    between atoms: C7_7  and  C9_9 
REMARK    5  A    between atoms: C27_27  and  O1_28 
REMARK    6  A    between atoms: C28_29  and  O2_30 
REMARK    7  A    between atoms: C29_31  and  O3_32 
ROOT
HETATM    1  C9  UNL     1       3.306   7.889  10.206  1.00  0.00    -0.002 C 
HETATM    2  C10 UNL     1       2.812   6.606   9.472  1.00  0.00     0.007 C 
HETATM    3  C11 UNL     1       1.583   6.077  10.230  1.00  0.00     0.015 C 
HETATM    4  C12 UNL     1       1.139   7.249  11.118  1.00  0.00    -0.013 C 
HETATM    5  C13 UNL     1       0.293   8.205  10.219  1.00  0.00     0.021 C 
HETATM    6  C14 UNL     1       0.256   6.968  12.331  1.00  0.00    -0.068 C 
HETATM    7  C15 UNL     1       0.286   7.803  13.403  1.00  0.00    -0.065 C 
HETATM    8  C16 UNL     1       1.291   8.963  13.467  1.00  0.00     0.036 C 
HETATM    9  C17 UNL     1       2.271   9.140  12.285  1.00  0.00     0.015 C 
HETATM   10  C18 UNL     1       2.541   7.813  11.567  1.00  0.00    -0.029 C 
HETATM   11  C19 UNL     1       3.305   6.859  12.536  1.00  0.00     0.016 C 
HETATM   12  C20 UNL     1      -0.655   7.630  14.630  1.00  0.00     0.012 C 
HETATM   13  C21 UNL     1       0.220   7.126  15.809  1.00  0.00     0.023 C 
HETATM   14  C22 UNL     1      -1.791   6.541  14.383  1.00  0.00     0.007 C 
HETATM   15  C23 UNL     1      -1.239   5.361  13.575  1.00  0.00     0.010 C 
HETATM   16  C24 UNL     1      -0.668   5.783  12.233  1.00  0.00     0.036 C 
HETATM   17  C25 UNL     1      -3.151   7.134  13.869  1.00  0.00     0.018 C 
HETATM   18  C26 UNL     1      -4.058   6.131  13.147  1.00  0.00     0.013 C 
HETATM   19  C27 UNL     1      -2.949   8.428  13.070  1.00  0.00     0.153 C 
HETATM   20  C28 UNL     1      -2.304   9.528  13.937  1.00  0.00     0.177 C 
HETATM   21  C29 UNL     1      -1.396   8.946  15.050  1.00  0.00     0.162 C 
ENDROOT
BRANCH   1  22
HETATM   22  C7  UNL     1       4.864   8.005  10.177  1.00  0.00    -0.014 C 
HETATM   23  C8  UNL     1       5.291   9.427  10.586  1.00  0.00     0.010 C 
BRANCH  22  24
HETATM   24  C6  UNL     1       5.550   6.958  11.084  1.00  0.00     0.008 C 
BRANCH  24  25
HETATM   25  C5  UNL     1       6.888   7.410  11.684  1.00  0.00     0.028 C 
BRANCH  25  26
HETATM   26  C4  UNL     1       6.740   7.730  13.148  1.00  0.00    -0.025 C 
HETATM   27  C2  UNL     1       7.716   7.936  14.055  1.00  0.00    -0.091 C 
HETATM   28  C1  UNL     1       9.192   7.914  13.766  1.00  0.00     0.042 C 
HETATM   29  C3  UNL     1       7.375   8.234  15.492  1.00  0.00     0.042 C 
ENDBRANCH  25  26
ENDBRANCH  24  25
ENDBRANCH  22  24
ENDBRANCH   1  22
BRANCH  21  30
HETATM   30  O3  UNL     1      -0.567   9.963  15.615  1.00  0.00    -0.392 OA
HETATM   31  H48 UNL     1      -0.119   9.603  16.396  1.00  0.00     0.210 HD
ENDBRANCH  21  30
BRANCH  20  32
HETATM   32  O2  UNL     1      -1.630  10.451  13.073  1.00  0.00    -0.390 OA
HETATM   33  H46 UNL     1      -2.247  10.651  12.347  1.00  0.00     0.210 HD
ENDBRANCH  20  32
BRANCH  19  34
HETATM   34  O1  UNL     1      -4.187   8.931  12.551  1.00  0.00    -0.393 OA
HETATM   35  H44 UNL     1      -4.808   9.035  13.294  1.00  0.00     0.210 HD
ENDBRANCH  19  34
TORSDOF 7
ENDMDL
