MODEL 1
REMARK minimizedAffinity -9.68337917
REMARK  6 active torsions:
REMARK  status: ('A' for Active; 'I' for Inactive)
REMARK    1  A    between atoms: O1_2  and  C2_3 
REMARK    2  A    between atoms: C9_12  and  C10_13 
REMARK    3  A    between atoms: C13_16  and  O4_17 
REMARK    4  A    between atoms: O4_17  and  C14_18 
REMARK    5  A    between atoms: C14_18  and  C15_19 
REMARK       I    between atoms: C15_19  and  N1_21 
REMARK    6  A    between atoms: N1_21  and  C16_22 
ROOT
HETATM    1  C10 UNL     1      -5.121  48.186 -27.549  1.00  0.00    -0.020 A 
HETATM    2  C11 UNL     1      -3.740  48.426 -27.529  1.00  0.00     0.015 A 
HETATM    3  C12 UNL     1      -3.051  48.557 -26.316  1.00  0.00     0.037 A 
HETATM    4  C13 UNL     1      -3.735  48.452 -25.106  1.00  0.00     0.069 A 
HETATM    5  C23 UNL     1      -5.111  48.215 -25.121  1.00  0.00     0.037 A 
HETATM    6  C24 UNL     1      -5.800  48.084 -26.330  1.00  0.00     0.015 A 
ENDROOT
BRANCH   4   7
HETATM    7  O4  UNL     1      -3.188  48.562 -23.859  1.00  0.00    -0.342 OA
BRANCH   7   8
HETATM    8  C14 UNL     1      -3.297  49.832 -23.216  1.00  0.00     0.278 C 
BRANCH   8   9
HETATM    9  C15 UNL     1      -2.432  50.870 -23.929  1.00  0.00     0.242 C 
HETATM   10  O5  UNL     1      -2.919  51.805 -24.559  1.00  0.00    -0.271 OA
HETATM   11  N1  UNL     1      -1.074  50.685 -23.767  1.00  0.00    -0.354 N 
HETATM   12  H11 UNL     1      -0.799  49.776 -23.404  1.00  0.00     0.162 HD
BRANCH  11  13
HETATM   13  C16 UNL     1      -0.090  51.499 -24.467  1.00  0.00     0.089 C 
HETATM   14  C17 UNL     1      -0.436  52.990 -24.372  1.00  0.00     0.051 C 
HETATM   15  C18 UNL     1      -0.048  53.751 -25.633  1.00  0.00     0.171 C 
HETATM   16  O6  UNL     1       1.173  53.247 -26.161  1.00  0.00    -0.381 OA
HETATM   17  C19 UNL     1       1.089  51.904 -26.668  1.00  0.00     0.055 C 
HETATM   18  C20 UNL     1       2.485  51.297 -26.478  1.00  0.00     0.045 C 
HETATM   19  C21 UNL     1       0.774  51.965 -28.167  1.00  0.00     0.045 C 
HETATM   20  C22 UNL     1       0.028  51.064 -25.927  1.00  0.00     0.062 C 
ENDBRANCH  11  13
ENDBRANCH   8   9
ENDBRANCH   7   8
ENDBRANCH   4   7
BRANCH   1  21
HETATM   21  C9  UNL     1      -5.848  48.040 -28.827  1.00  0.00     0.051 A 
HETATM   22  C8  UNL     1      -7.337  47.931 -28.846  1.00  0.00     0.299 A 
HETATM   23  O2  UNL     1      -7.938  47.787 -30.091  1.00  0.00    -0.271 OA
HETATM   24  O3  UNL     1      -8.008  47.965 -27.819  1.00  0.00    -0.259 OA
HETATM   25  C7  UNL     1      -7.197  47.734 -31.291  1.00  0.00     0.123 A 
HETATM   26  C2  UNL     1      -7.898  47.587 -32.496  1.00  0.00     0.102 A 
HETATM   27  C6  UNL     1      -5.809  47.829 -31.252  1.00  0.00     0.002 A 
HETATM   28  C3  UNL     1      -7.168  47.534 -33.685  1.00  0.00     0.040 A 
HETATM   29  C4  UNL     1      -5.772  47.626 -33.660  1.00  0.00     0.004 A 
HETATM   30  C5  UNL     1      -5.093  47.773 -32.448  1.00  0.00     0.014 A 
HETATM   31  C25 UNL     1      -5.143  47.981 -29.968  1.00  0.00     0.032 A 
BRANCH  26  32
HETATM   32  O1  UNL     1      -9.261  47.506 -32.399  1.00  0.00    -0.353 OA
HETATM   33  C1  UNL     1      -9.848  46.216 -32.501  1.00  0.00     0.210 C 
ENDBRANCH  26  32
ENDBRANCH   1  21
TORSDOF 6
ENDMDL
MODEL 2
REMARK minimizedAffinity -9.5685873
REMARK  6 active torsions:
REMARK  status: ('A' for Active; 'I' for Inactive)
REMARK    1  A    between atoms: O1_2  and  C2_3 
REMARK    2  A    between atoms: C9_12  and  C10_13 
REMARK    3  A    between atoms: C13_16  and  O4_17 
REMARK    4  A    between atoms: O4_17  and  C14_18 
REMARK    5  A    between atoms: C14_18  and  C15_19 
REMARK       I    between atoms: C15_19  and  N1_21 
REMARK    6  A    between atoms: N1_21  and  C16_22 
ROOT
HETATM    1  C10 UNL     1      -3.914  49.397 -25.218  1.00  0.00    -0.020 A 
HETATM    2  C11 UNL     1      -3.250  48.554 -24.315  1.00  0.00     0.015 A 
HETATM    3  C12 UNL     1      -2.827  49.029 -23.066  1.00  0.00     0.037 A 
HETATM    4  C13 UNL     1      -3.062  50.354 -22.704  1.00  0.00     0.069 A 
HETATM    5  C23 UNL     1      -3.721  51.197 -23.601  1.00  0.00     0.037 A 
HETATM    6  C24 UNL     1      -4.143  50.726 -24.847  1.00  0.00     0.015 A 
ENDROOT
BRANCH   4   7
HETATM    7  O4  UNL     1      -2.701  50.943 -21.525  1.00  0.00    -0.342 OA
BRANCH   7   8
HETATM    8  C14 UNL     1      -1.362  50.732 -21.082  1.00  0.00     0.278 C 
BRANCH   8   9
HETATM    9  C15 UNL     1      -0.378  51.503 -21.962  1.00  0.00     0.242 C 
HETATM   10  O5  UNL     1       0.444  52.285 -21.492  1.00  0.00    -0.271 OA
HETATM   11  N1  UNL     1      -0.471  51.211 -23.307  1.00  0.00    -0.354 N 
HETATM   12  H11 UNL     1      -1.311  50.712 -23.587  1.00  0.00     0.162 HD
BRANCH  11  13
HETATM   13  C16 UNL     1       0.298  51.930 -24.313  1.00  0.00     0.089 C 
HETATM   14  C17 UNL     1      -0.195  53.375 -24.459  1.00  0.00     0.051 C 
HETATM   15  C18 UNL     1      -0.089  53.876 -25.894  1.00  0.00     0.171 C 
HETATM   16  O6  UNL     1       1.087  53.366 -26.512  1.00  0.00    -0.381 OA
HETATM   17  C19 UNL     1       1.079  51.944 -26.719  1.00  0.00     0.055 C 
HETATM   18  C20 UNL     1       2.547  51.503 -26.653  1.00  0.00     0.045 C 
HETATM   19  C21 UNL     1       0.536  51.656 -28.124  1.00  0.00     0.045 C 
HETATM   20  C22 UNL     1       0.243  51.202 -25.655  1.00  0.00     0.062 C 
ENDBRANCH  11  13
ENDBRANCH   8   9
ENDBRANCH   7   8
ENDBRANCH   4   7
BRANCH   1  21
HETATM   21  C9  UNL     1      -4.367  48.896 -26.532  1.00  0.00     0.051 A 
HETATM   22  C8  UNL     1      -3.665  49.305 -27.784  1.00  0.00     0.299 A 
HETATM   23  O2  UNL     1      -4.165  48.794 -28.977  1.00  0.00    -0.271 OA
HETATM   24  O3  UNL     1      -2.694  50.055 -27.775  1.00  0.00    -0.259 OA
HETATM   25  C7  UNL     1      -5.284  47.936 -29.027  1.00  0.00     0.123 A 
HETATM   26  C2  UNL     1      -5.710  47.475 -30.280  1.00  0.00     0.102 A 
HETATM   27  C6  UNL     1      -5.931  47.574 -27.849  1.00  0.00     0.002 A 
HETATM   28  C3  UNL     1      -6.818  46.628 -30.333  1.00  0.00     0.040 A 
HETATM   29  C4  UNL     1      -7.479  46.256 -29.156  1.00  0.00     0.004 A 
HETATM   30  C5  UNL     1      -7.038  46.727 -27.917  1.00  0.00     0.014 A 
HETATM   31  C25 UNL     1      -5.438  48.088 -26.580  1.00  0.00     0.032 A 
BRANCH  26  32
HETATM   32  O1  UNL     1      -4.989  47.905 -31.361  1.00  0.00    -0.353 OA
HETATM   33  C1  UNL     1      -5.505  47.609 -32.651  1.00  0.00     0.210 C 
ENDBRANCH  26  32
ENDBRANCH   1  21
TORSDOF 6
ENDMDL
MODEL 3
REMARK minimizedAffinity -9.48914909
REMARK  6 active torsions:
REMARK  status: ('A' for Active; 'I' for Inactive)
REMARK    1  A    between atoms: O1_2  and  C2_3 
REMARK    2  A    between atoms: C9_12  and  C10_13 
REMARK    3  A    between atoms: C13_16  and  O4_17 
REMARK    4  A    between atoms: O4_17  and  C14_18 
REMARK    5  A    between atoms: C14_18  and  C15_19 
REMARK       I    between atoms: C15_19  and  N1_21 
REMARK    6  A    between atoms: N1_21  and  C16_22 
ROOT
HETATM    1  C10 UNL     1      -4.958  48.054 -27.602  1.00  0.00    -0.020 A 
HETATM    2  C11 UNL     1      -5.786  48.090 -26.471  1.00  0.00     0.015 A 
HETATM    3  C12 UNL     1      -5.254  48.346 -25.199  1.00  0.00     0.037 A 
HETATM    4  C13 UNL     1      -3.887  48.568 -25.043  1.00  0.00     0.069 A 
HETATM    5  C23 UNL     1      -3.059  48.532 -26.166  1.00  0.00     0.037 A 
HETATM    6  C24 UNL     1      -3.587  48.277 -27.435  1.00  0.00     0.015 A 
ENDROOT
BRANCH   4   7
HETATM    7  O4  UNL     1      -3.242  48.824 -23.866  1.00  0.00    -0.342 OA
BRANCH   7   8
HETATM    8  C14 UNL     1      -3.509  50.081 -23.244  1.00  0.00     0.278 C 
BRANCH   8   9
HETATM    9  C15 UNL     1      -2.489  51.128 -23.693  1.00  0.00     0.242 C 
HETATM   10  O5  UNL     1      -2.700  52.333 -23.583  1.00  0.00    -0.271 OA
HETATM   11  N1  UNL     1      -1.315  50.600 -24.188  1.00  0.00    -0.354 N 
HETATM   12  H11 UNL     1      -1.344  49.610 -24.415  1.00  0.00     0.162 HD
BRANCH  11  13
HETATM   13  C16 UNL     1      -0.275  51.435 -24.774  1.00  0.00     0.089 C 
HETATM   14  C17 UNL     1      -0.684  52.913 -24.773  1.00  0.00     0.051 C 
HETATM   15  C18 UNL     1      -0.157  53.656 -25.993  1.00  0.00     0.171 C 
HETATM   16  O6  UNL     1       1.142  53.187 -26.337  1.00  0.00    -0.381 OA
HETATM   17  C19 UNL     1       1.176  51.830 -26.808  1.00  0.00     0.055 C 
HETATM   18  C20 UNL     1       2.554  51.284 -26.415  1.00  0.00     0.045 C 
HETATM   19  C21 UNL     1       1.064  51.840 -28.338  1.00  0.00     0.045 C 
HETATM   20  C22 UNL     1       0.055  50.967 -26.191  1.00  0.00     0.062 C 
ENDBRANCH  11  13
ENDBRANCH   8   9
ENDBRANCH   7   8
ENDBRANCH   4   7
BRANCH   1  21
HETATM   21  C9  UNL     1      -5.517  47.792 -28.944  1.00  0.00     0.051 A 
HETATM   22  C8  UNL     1      -5.176  48.679 -30.096  1.00  0.00     0.299 A 
HETATM   23  O2  UNL     1      -5.753  48.364 -31.320  1.00  0.00    -0.271 OA
HETATM   24  O3  UNL     1      -4.424  49.641 -29.980  1.00  0.00    -0.259 OA
HETATM   25  C7  UNL     1      -6.630  47.270 -31.489  1.00  0.00     0.123 A 
HETATM   26  C2  UNL     1      -7.160  47.037 -32.765  1.00  0.00     0.102 A 
HETATM   27  C6  UNL     1      -6.943  46.461 -30.401  1.00  0.00     0.002 A 
HETATM   28  C3  UNL     1      -8.028  45.957 -32.935  1.00  0.00     0.040 A 
HETATM   29  C4  UNL     1      -8.353  45.136 -31.849  1.00  0.00     0.004 A 
HETATM   30  C5  UNL     1      -7.813  45.386 -30.585  1.00  0.00     0.014 A 
HETATM   31  C25 UNL     1      -6.358  46.757 -29.102  1.00  0.00     0.032 A 
BRANCH  26  32
HETATM   32  O1  UNL     1      -6.773  47.905 -33.750  1.00  0.00    -0.353 OA
HETATM   33  C1  UNL     1      -5.484  47.719 -34.317  1.00  0.00     0.210 C 
ENDBRANCH  26  32
ENDBRANCH   1  21
TORSDOF 6
ENDMDL
MODEL 4
REMARK minimizedAffinity -9.29808331
REMARK  6 active torsions:
REMARK  status: ('A' for Active; 'I' for Inactive)
REMARK    1  A    between atoms: O1_2  and  C2_3 
REMARK    2  A    between atoms: C9_12  and  C10_13 
REMARK    3  A    between atoms: C13_16  and  O4_17 
REMARK    4  A    between atoms: O4_17  and  C14_18 
REMARK    5  A    between atoms: C14_18  and  C15_19 
REMARK       I    between atoms: C15_19  and  N1_21 
REMARK    6  A    between atoms: N1_21  and  C16_22 
ROOT
HETATM    1  C10 UNL     1      -0.013  52.349 -21.629  1.00  0.00    -0.020 A 
HETATM    2  C11 UNL     1       0.713  53.434 -21.118  1.00  0.00     0.015 A 
HETATM    3  C12 UNL     1       0.992  53.530 -19.748  1.00  0.00     0.037 A 
HETATM    4  C13 UNL     1       0.546  52.543 -18.870  1.00  0.00     0.069 A 
HETATM    5  C23 UNL     1      -0.180  51.463 -19.375  1.00  0.00     0.037 A 
HETATM    6  C24 UNL     1      -0.459  51.364 -20.741  1.00  0.00     0.015 A 
ENDROOT
BRANCH   4   7
HETATM    7  O4  UNL     1       0.744  52.517 -17.519  1.00  0.00    -0.342 OA
BRANCH   7   8
HETATM    8  C14 UNL     1       0.719  51.238 -16.888  1.00  0.00     0.278 C 
BRANCH   8   9
HETATM    9  C15 UNL     1       0.335  51.373 -15.414  1.00  0.00     0.242 C 
HETATM   10  O5  UNL     1       1.086  51.886 -14.589  1.00  0.00    -0.271 OA
HETATM   11  N1  UNL     1      -0.929  50.910 -15.113  1.00  0.00    -0.354 N 
HETATM   12  H11 UNL     1      -1.363  50.332 -15.829  1.00  0.00     0.162 HD
BRANCH  11  13
HETATM   13  C16 UNL     1      -1.427  50.844 -13.747  1.00  0.00     0.089 C 
HETATM   14  C17 UNL     1      -2.328  49.619 -13.543  1.00  0.00     0.051 C 
HETATM   15  C18 UNL     1      -3.461  49.896 -12.564  1.00  0.00     0.171 C 
HETATM   16  O6  UNL     1      -3.012  50.741 -11.511  1.00  0.00    -0.381 OA
HETATM   17  C19 UNL     1      -2.677  52.076 -11.925  1.00  0.00     0.055 C 
HETATM   18  C20 UNL     1      -1.585  52.553 -10.959  1.00  0.00     0.045 C 
HETATM   19  C21 UNL     1      -3.913  52.967 -11.755  1.00  0.00     0.045 C 
HETATM   20  C22 UNL     1      -2.170  52.128 -13.382  1.00  0.00     0.062 C 
ENDBRANCH  11  13
ENDBRANCH   8   9
ENDBRANCH   7   8
ENDBRANCH   4   7
BRANCH   1  21
HETATM   21  C9  UNL     1      -0.302  52.241 -23.074  1.00  0.00     0.051 A 
HETATM   22  C8  UNL     1      -1.709  52.253 -23.571  1.00  0.00     0.299 A 
HETATM   23  O2  UNL     1      -1.888  52.138 -24.945  1.00  0.00    -0.271 OA
HETATM   24  O3  UNL     1      -2.669  52.359 -22.814  1.00  0.00    -0.259 OA
HETATM   25  C7  UNL     1      -0.809  52.005 -25.844  1.00  0.00     0.123 A 
HETATM   26  C2  UNL     1      -1.096  51.895 -27.212  1.00  0.00     0.102 A 
HETATM   27  C6  UNL     1       0.496  51.987 -25.360  1.00  0.00     0.002 A 
HETATM   28  C3  UNL     1      -0.030  51.763 -28.104  1.00  0.00     0.040 A 
HETATM   29  C4  UNL     1       1.287  51.741 -27.630  1.00  0.00     0.004 A 
HETATM   30  C5  UNL     1       1.551  51.853 -26.263  1.00  0.00     0.014 A 
HETATM   31  C25 UNL     1       0.725  52.106 -23.929  1.00  0.00     0.032 A 
BRANCH  26  32
HETATM   32  O1  UNL     1      -2.419  51.927 -27.558  1.00  0.00    -0.353 OA
HETATM   33  C1  UNL     1      -3.035  50.693 -27.900  1.00  0.00     0.210 C 
ENDBRANCH  26  32
ENDBRANCH   1  21
TORSDOF 6
ENDMDL
MODEL 5
REMARK minimizedAffinity -9.07856178
REMARK  6 active torsions:
REMARK  status: ('A' for Active; 'I' for Inactive)
REMARK    1  A    between atoms: O1_2  and  C2_3 
REMARK    2  A    between atoms: C9_12  and  C10_13 
REMARK    3  A    between atoms: C13_16  and  O4_17 
REMARK    4  A    between atoms: O4_17  and  C14_18 
REMARK    5  A    between atoms: C14_18  and  C15_19 
REMARK       I    between atoms: C15_19  and  N1_21 
REMARK    6  A    between atoms: N1_21  and  C16_22 
ROOT
HETATM    1  C10 UNL     1       0.091  52.442 -21.649  1.00  0.00    -0.020 A 
HETATM    2  C11 UNL     1       0.747  53.578 -21.152  1.00  0.00     0.015 A 
HETATM    3  C12 UNL     1       1.055  53.691 -19.790  1.00  0.00     0.037 A 
HETATM    4  C13 UNL     1       0.711  52.670 -18.905  1.00  0.00     0.069 A 
HETATM    5  C23 UNL     1       0.057  51.538 -19.395  1.00  0.00     0.037 A 
HETATM    6  C24 UNL     1      -0.252  51.422 -20.754  1.00  0.00     0.015 A 
ENDROOT
BRANCH   4   7
HETATM    7  O4  UNL     1       0.949  52.654 -17.560  1.00  0.00    -0.342 OA
BRANCH   7   8
HETATM    8  C14 UNL     1       2.314  52.600 -17.147  1.00  0.00     0.278 C 
BRANCH   8   9
HETATM    9  C15 UNL     1       2.410  52.310 -15.649  1.00  0.00     0.242 C 
HETATM   10  O5  UNL     1       3.489  52.183 -15.077  1.00  0.00    -0.271 OA
HETATM   11  N1  UNL     1       1.192  52.247 -15.004  1.00  0.00    -0.354 N 
HETATM   12  H11 UNL     1       0.381  52.165 -15.613  1.00  0.00     0.162 HD
BRANCH  11  13
HETATM   13  C16 UNL     1       1.073  51.863 -13.605  1.00  0.00     0.089 C 
HETATM   14  C17 UNL     1       0.002  52.697 -12.890  1.00  0.00     0.051 C 
HETATM   15  C18 UNL     1       0.364  52.975 -11.438  1.00  0.00     0.171 C 
HETATM   16  O6  UNL     1       1.013  51.847 -10.863  1.00  0.00    -0.381 OA
HETATM   17  C19 UNL     1       2.308  51.562 -11.418  1.00  0.00     0.055 C 
HETATM   18  C20 UNL     1       2.497  50.046 -11.284  1.00  0.00     0.045 C 
HETATM   19  C21 UNL     1       3.371  52.271 -10.570  1.00  0.00     0.045 C 
HETATM   20  C22 UNL     1       2.420  51.993 -12.895  1.00  0.00     0.062 C 
ENDBRANCH  11  13
ENDBRANCH   8   9
ENDBRANCH   7   8
ENDBRANCH   4   7
BRANCH   1  21
HETATM   21  C9  UNL     1      -0.228  52.317 -23.085  1.00  0.00     0.051 A 
HETATM   22  C8  UNL     1      -1.647  52.302 -23.550  1.00  0.00     0.299 A 
HETATM   23  O2  UNL     1      -1.856  52.172 -24.918  1.00  0.00    -0.271 OA
HETATM   24  O3  UNL     1      -2.591  52.398 -22.772  1.00  0.00    -0.259 OA
HETATM   25  C7  UNL     1      -0.795  52.049 -25.841  1.00  0.00     0.123 A 
HETATM   26  C2  UNL     1      -1.112  51.923 -27.201  1.00  0.00     0.102 A 
HETATM   27  C6  UNL     1       0.521  52.057 -25.387  1.00  0.00     0.002 A 
HETATM   28  C3  UNL     1      -0.065  51.801 -28.116  1.00  0.00     0.040 A 
HETATM   29  C4  UNL     1       1.263  51.804 -27.673  1.00  0.00     0.004 A 
HETATM   30  C5  UNL     1       1.557  51.932 -26.314  1.00  0.00     0.014 A 
HETATM   31  C25 UNL     1       0.781  52.191 -23.963  1.00  0.00     0.032 A 
BRANCH  26  32
HETATM   32  O1  UNL     1      -2.443  51.931 -27.516  1.00  0.00    -0.353 OA
HETATM   33  C1  UNL     1      -3.040  50.688 -27.861  1.00  0.00     0.210 C 
ENDBRANCH  26  32
ENDBRANCH   1  21
TORSDOF 6
ENDMDL
MODEL 6
REMARK minimizedAffinity -9.04105186
REMARK  6 active torsions:
REMARK  status: ('A' for Active; 'I' for Inactive)
REMARK    1  A    between atoms: O1_2  and  C2_3 
REMARK    2  A    between atoms: C9_12  and  C10_13 
REMARK    3  A    between atoms: C13_16  and  O4_17 
REMARK    4  A    between atoms: O4_17  and  C14_18 
REMARK    5  A    between atoms: C14_18  and  C15_19 
REMARK       I    between atoms: C15_19  and  N1_21 
REMARK    6  A    between atoms: N1_21  and  C16_22 
ROOT
HETATM    1  C10 UNL     1      -0.233  52.044 -21.330  1.00  0.00    -0.020 A 
HETATM    2  C11 UNL     1      -0.438  50.882 -20.570  1.00  0.00     0.015 A 
HETATM    3  C12 UNL     1      -0.213  50.879 -19.187  1.00  0.00     0.037 A 
HETATM    4  C13 UNL     1       0.223  52.037 -18.545  1.00  0.00     0.069 A 
HETATM    5  C23 UNL     1       0.431  53.194 -19.297  1.00  0.00     0.037 A 
HETATM    6  C24 UNL     1       0.206  53.201 -20.677  1.00  0.00     0.015 A 
ENDROOT
BRANCH   4   7
HETATM    7  O4  UNL     1       0.483  52.169 -17.210  1.00  0.00    -0.342 OA
BRANCH   7   8
HETATM    8  C14 UNL     1      -0.015  51.143 -16.352  1.00  0.00     0.278 C 
BRANCH   8   9
HETATM    9  C15 UNL     1      -0.135  51.655 -14.917  1.00  0.00     0.242 C 
HETATM   10  O5  UNL     1       0.784  52.243 -14.354  1.00  0.00    -0.271 OA
HETATM   11  N1  UNL     1      -1.368  51.435 -14.338  1.00  0.00    -0.354 N 
HETATM   12  H11 UNL     1      -1.964  50.769 -14.823  1.00  0.00     0.162 HD
BRANCH  11  13
HETATM   13  C16 UNL     1      -1.636  51.743 -12.940  1.00  0.00     0.089 C 
HETATM   14  C17 UNL     1      -0.756  50.899 -12.008  1.00  0.00     0.051 C 
HETATM   15  C18 UNL     1      -1.476  50.532 -10.717  1.00  0.00     0.171 C 
HETATM   16  O6  UNL     1      -2.296  51.609 -10.282  1.00  0.00    -0.381 OA
HETATM   17  C19 UNL     1      -3.411  51.891 -11.144  1.00  0.00     0.055 C 
HETATM   18  C20 UNL     1      -3.688  53.392 -10.994  1.00  0.00     0.045 C 
HETATM   19  C21 UNL     1      -4.630  51.109 -10.641  1.00  0.00     0.045 C 
HETATM   20  C22 UNL     1      -3.115  51.539 -12.617  1.00  0.00     0.062 C 
ENDBRANCH  11  13
ENDBRANCH   8   9
ENDBRANCH   7   8
ENDBRANCH   4   7
BRANCH   1  21
HETATM   21  C9  UNL     1      -0.477  52.052 -22.786  1.00  0.00     0.051 A 
HETATM   22  C8  UNL     1      -1.869  52.103 -23.323  1.00  0.00     0.299 A 
HETATM   23  O2  UNL     1      -2.007  52.098 -24.706  1.00  0.00    -0.271 OA
HETATM   24  O3  UNL     1      -2.852  52.147 -22.590  1.00  0.00    -0.259 OA
HETATM   25  C7  UNL     1      -0.900  52.039 -25.581  1.00  0.00     0.123 A 
HETATM   26  C2  UNL     1      -1.146  52.039 -26.960  1.00  0.00     0.102 A 
HETATM   27  C6  UNL     1       0.390  51.983 -25.061  1.00  0.00     0.002 A 
HETATM   28  C3  UNL     1      -0.053  51.979 -27.828  1.00  0.00     0.040 A 
HETATM   29  C4  UNL     1       1.249  51.920 -27.318  1.00  0.00     0.004 A 
HETATM   30  C5  UNL     1       1.472  51.921 -25.939  1.00  0.00     0.014 A 
HETATM   31  C25 UNL     1       0.575  51.986 -23.618  1.00  0.00     0.032 A 
BRANCH  26  32
HETATM   32  O1  UNL     1      -2.458  52.098 -27.343  1.00  0.00    -0.353 OA
HETATM   33  C1  UNL     1      -3.052  50.902 -27.828  1.00  0.00     0.210 C 
ENDBRANCH  26  32
ENDBRANCH   1  21
TORSDOF 6
ENDMDL
MODEL 7
REMARK minimizedAffinity -9.00018311
REMARK  6 active torsions:
REMARK  status: ('A' for Active; 'I' for Inactive)
REMARK    1  A    between atoms: O1_2  and  C2_3 
REMARK    2  A    between atoms: C9_12  and  C10_13 
REMARK    3  A    between atoms: C13_16  and  O4_17 
REMARK    4  A    between atoms: O4_17  and  C14_18 
REMARK    5  A    between atoms: C14_18  and  C15_19 
REMARK       I    between atoms: C15_19  and  N1_21 
REMARK    6  A    between atoms: N1_21  and  C16_22 
ROOT
HETATM    1  C10 UNL     1      -2.080  50.033 -24.418  1.00  0.00    -0.020 A 
HETATM    2  C11 UNL     1      -1.663  50.473 -25.682  1.00  0.00     0.015 A 
HETATM    3  C12 UNL     1      -2.154  49.874 -26.850  1.00  0.00     0.037 A 
HETATM    4  C13 UNL     1      -3.068  48.824 -26.768  1.00  0.00     0.069 A 
HETATM    5  C23 UNL     1      -3.484  48.381 -25.512  1.00  0.00     0.037 A 
HETATM    6  C24 UNL     1      -2.996  48.977 -24.345  1.00  0.00     0.015 A 
ENDROOT
BRANCH   4   7
HETATM    7  O4  UNL     1      -3.620  48.153 -27.823  1.00  0.00    -0.342 OA
BRANCH   7   8
HETATM    8  C14 UNL     1      -4.481  48.898 -28.683  1.00  0.00     0.278 C 
BRANCH   8   9
HETATM    9  C15 UNL     1      -5.653  48.035 -29.149  1.00  0.00     0.242 C 
HETATM   10  O5  UNL     1      -5.511  47.124 -29.960  1.00  0.00    -0.271 OA
HETATM   11  N1  UNL     1      -6.858  48.344 -28.552  1.00  0.00    -0.354 N 
HETATM   12  H11 UNL     1      -6.885  49.235 -28.062  1.00  0.00     0.162 HD
BRANCH  11  13
HETATM   13  C16 UNL     1      -8.107  47.714 -28.953  1.00  0.00     0.089 C 
HETATM   14  C17 UNL     1      -8.626  48.303 -30.271  1.00  0.00     0.051 C 
HETATM   15  C18 UNL     1     -10.148  48.359 -30.316  1.00  0.00     0.171 C 
HETATM   16  O6  UNL     1     -10.706  47.217 -29.676  1.00  0.00    -0.381 OA
HETATM   17  C19 UNL     1     -10.476  47.161 -28.259  1.00  0.00     0.055 C 
HETATM   18  C20 UNL     1     -10.437  45.670 -27.899  1.00  0.00     0.045 C 
HETATM   19  C21 UNL     1     -11.665  47.813 -27.543  1.00  0.00     0.045 C 
HETATM   20  C22 UNL     1      -9.157  47.851 -27.851  1.00  0.00     0.062 C 
ENDBRANCH  11  13
ENDBRANCH   8   9
ENDBRANCH   7   8
ENDBRANCH   4   7
BRANCH   1  21
HETATM   21  C9  UNL     1      -1.569  50.668 -23.186  1.00  0.00     0.051 A 
HETATM   22  C8  UNL     1      -2.120  50.289 -21.851  1.00  0.00     0.299 A 
HETATM   23  O2  UNL     1      -1.588  50.943 -20.746  1.00  0.00    -0.271 OA
HETATM   24  O3  UNL     1      -3.000  49.443 -21.723  1.00  0.00    -0.259 OA
HETATM   25  C7  UNL     1      -0.582  51.928 -20.856  1.00  0.00     0.123 A 
HETATM   26  C2  UNL     1      -0.112  52.529 -19.681  1.00  0.00     0.102 A 
HETATM   27  C6  UNL     1      -0.088  52.274 -22.111  1.00  0.00     0.002 A 
HETATM   28  C3  UNL     1       0.881  53.504 -19.787  1.00  0.00     0.040 A 
HETATM   29  C4  UNL     1       1.386  53.863 -21.042  1.00  0.00     0.004 A 
HETATM   30  C5  UNL     1       0.904  53.251 -22.202  1.00  0.00     0.014 A 
HETATM   31  C25 UNL     1      -0.619  51.611 -23.292  1.00  0.00     0.032 A 
BRANCH  26  32
HETATM   32  O1  UNL     1      -0.680  52.100 -18.512  1.00  0.00    -0.353 OA
HETATM   33  C1  UNL     1       0.135  51.342 -17.629  1.00  0.00     0.210 C 
ENDBRANCH  26  32
ENDBRANCH   1  21
TORSDOF 6
ENDMDL
MODEL 8
REMARK minimizedAffinity -8.98819542
REMARK  6 active torsions:
REMARK  status: ('A' for Active; 'I' for Inactive)
REMARK    1  A    between atoms: O1_2  and  C2_3 
REMARK    2  A    between atoms: C9_12  and  C10_13 
REMARK    3  A    between atoms: C13_16  and  O4_17 
REMARK    4  A    between atoms: O4_17  and  C14_18 
REMARK    5  A    between atoms: C14_18  and  C15_19 
REMARK       I    between atoms: C15_19  and  N1_21 
REMARK    6  A    between atoms: N1_21  and  C16_22 
ROOT
HETATM    1  C10 UNL     1      -3.695  49.157 -23.165  1.00  0.00    -0.020 A 
HETATM    2  C11 UNL     1      -2.709  48.303 -22.649  1.00  0.00     0.015 A 
HETATM    3  C12 UNL     1      -1.758  48.773 -21.734  1.00  0.00     0.037 A 
HETATM    4  C13 UNL     1      -1.779  50.105 -21.323  1.00  0.00     0.069 A 
HETATM    5  C23 UNL     1      -2.757  50.960 -21.835  1.00  0.00     0.037 A 
HETATM    6  C24 UNL     1      -3.707  50.493 -22.748  1.00  0.00     0.015 A 
ENDROOT
BRANCH   4   7
HETATM    7  O4  UNL     1      -0.913  50.691 -20.443  1.00  0.00    -0.342 OA
BRANCH   7   8
HETATM    8  C14 UNL     1      -0.749  52.105 -20.543  1.00  0.00     0.278 C 
BRANCH   8   9
HETATM    9  C15 UNL     1       0.226  52.454 -21.668  1.00  0.00     0.242 C 
HETATM   10  O5  UNL     1       1.327  52.948 -21.446  1.00  0.00    -0.271 OA
HETATM   11  N1  UNL     1      -0.226  52.129 -22.930  1.00  0.00    -0.354 N 
HETATM   12  H11 UNL     1      -1.219  51.920 -22.997  1.00  0.00     0.162 HD
BRANCH  11  13
HETATM   13  C16 UNL     1       0.507  52.493 -24.134  1.00  0.00     0.089 C 
HETATM   14  C17 UNL     1       0.160  53.918 -24.586  1.00  0.00     0.051 C 
HETATM   15  C18 UNL     1       0.169  54.059 -26.102  1.00  0.00     0.171 C 
HETATM   16  O6  UNL     1       1.213  53.274 -26.667  1.00  0.00    -0.381 OA
HETATM   17  C19 UNL     1       1.030  51.855 -26.526  1.00  0.00     0.055 C 
HETATM   18  C20 UNL     1       2.440  51.255 -26.468  1.00  0.00     0.045 C 
HETATM   19  C21 UNL     1       0.316  51.326 -27.775  1.00  0.00     0.045 C 
HETATM   20  C22 UNL     1       0.234  51.491 -25.255  1.00  0.00     0.062 C 
ENDBRANCH  11  13
ENDBRANCH   8   9
ENDBRANCH   7   8
ENDBRANCH   4   7
BRANCH   1  21
HETATM   21  C9  UNL     1      -4.703  48.662 -24.124  1.00  0.00     0.051 A 
HETATM   22  C8  UNL     1      -6.033  48.181 -23.647  1.00  0.00     0.299 A 
HETATM   23  O2  UNL     1      -6.917  47.724 -24.617  1.00  0.00    -0.271 OA
HETATM   24  O3  UNL     1      -6.343  48.183 -22.460  1.00  0.00    -0.259 OA
HETATM   25  C7  UNL     1      -6.593  47.697 -25.991  1.00  0.00     0.123 A 
HETATM   26  C2  UNL     1      -7.555  47.218 -26.890  1.00  0.00     0.102 A 
HETATM   27  C6  UNL     1      -5.344  48.142 -26.414  1.00  0.00     0.002 A 
HETATM   28  C3  UNL     1      -7.236  47.189 -28.249  1.00  0.00     0.040 A 
HETATM   29  C4  UNL     1      -5.983  47.632 -28.688  1.00  0.00     0.004 A 
HETATM   30  C5  UNL     1      -5.038  48.107 -27.775  1.00  0.00     0.014 A 
HETATM   31  C25 UNL     1      -4.390  48.629 -25.429  1.00  0.00     0.032 A 
BRANCH  26  32
HETATM   32  O1  UNL     1      -8.743  46.811 -26.346  1.00  0.00    -0.353 OA
HETATM   33  C1  UNL     1      -9.878  47.638 -26.562  1.00  0.00     0.210 C 
ENDBRANCH  26  32
ENDBRANCH   1  21
TORSDOF 6
ENDMDL
MODEL 9
REMARK minimizedAffinity -8.9284153
REMARK  6 active torsions:
REMARK  status: ('A' for Active; 'I' for Inactive)
REMARK    1  A    between atoms: O1_2  and  C2_3 
REMARK    2  A    between atoms: C9_12  and  C10_13 
REMARK    3  A    between atoms: C13_16  and  O4_17 
REMARK    4  A    between atoms: O4_17  and  C14_18 
REMARK    5  A    between atoms: C14_18  and  C15_19 
REMARK       I    between atoms: C15_19  and  N1_21 
REMARK    6  A    between atoms: N1_21  and  C16_22 
ROOT
HETATM    1  C10 UNL     1      -2.186  50.712 -24.629  1.00  0.00    -0.020 A 
HETATM    2  C11 UNL     1      -2.432  51.664 -25.630  1.00  0.00     0.015 A 
HETATM    3  C12 UNL     1      -2.937  51.280 -26.879  1.00  0.00     0.037 A 
HETATM    4  C13 UNL     1      -3.201  49.938 -27.146  1.00  0.00     0.069 A 
HETATM    5  C23 UNL     1      -2.956  48.986 -26.154  1.00  0.00     0.037 A 
HETATM    6  C24 UNL     1      -2.452  49.367 -24.907  1.00  0.00     0.015 A 
ENDROOT
BRANCH   4   7
HETATM    7  O4  UNL     1      -3.689  49.429 -28.317  1.00  0.00    -0.342 OA
BRANCH   7   8
HETATM    8  C14 UNL     1      -4.550  48.296 -28.219  1.00  0.00     0.278 C 
BRANCH   8   9
HETATM    9  C15 UNL     1      -5.432  48.183 -29.462  1.00  0.00     0.242 C 
HETATM   10  O5  UNL     1      -4.996  48.384 -30.592  1.00  0.00    -0.271 OA
HETATM   11  N1  UNL     1      -6.732  47.801 -29.202  1.00  0.00    -0.354 N 
HETATM   12  H11 UNL     1      -7.018  47.864 -28.229  1.00  0.00     0.162 HD
BRANCH  11  13
HETATM   13  C16 UNL     1      -7.750  47.755 -30.242  1.00  0.00     0.089 C 
HETATM   14  C17 UNL     1      -8.954  48.634 -29.878  1.00  0.00     0.051 C 
HETATM   15  C18 UNL     1     -10.266  48.047 -30.378  1.00  0.00     0.171 C 
HETATM   16  O6  UNL     1     -10.083  47.429 -31.647  1.00  0.00    -0.381 OA
HETATM   17  C19 UNL     1      -9.252  46.257 -31.621  1.00  0.00     0.055 C 
HETATM   18  C20 UNL     1      -8.577  46.191 -32.996  1.00  0.00     0.045 C 
HETATM   19  C21 UNL     1     -10.147  45.025 -31.448  1.00  0.00     0.045 C 
HETATM   20  C22 UNL     1      -8.192  46.316 -30.500  1.00  0.00     0.062 C 
ENDBRANCH  11  13
ENDBRANCH   8   9
ENDBRANCH   7   8
ENDBRANCH   4   7
BRANCH   1  21
HETATM   21  C9  UNL     1      -1.661  51.116 -23.309  1.00  0.00     0.051 A 
HETATM   22  C8  UNL     1      -2.262  50.573 -22.054  1.00  0.00     0.299 A 
HETATM   23  O2  UNL     1      -1.711  51.014 -20.856  1.00  0.00    -0.271 OA
HETATM   24  O3  UNL     1      -3.195  49.777 -22.067  1.00  0.00    -0.259 OA
HETATM   25  C7  UNL     1      -0.644  51.935 -20.803  1.00  0.00     0.123 A 
HETATM   26  C2  UNL     1      -0.160  52.316 -19.544  1.00  0.00     0.102 A 
HETATM   27  C6  UNL     1      -0.103  52.437 -21.984  1.00  0.00     0.002 A 
HETATM   28  C3  UNL     1       0.895  53.229 -19.488  1.00  0.00     0.040 A 
HETATM   29  C4  UNL     1       1.447  53.743 -20.668  1.00  0.00     0.004 A 
HETATM   30  C5  UNL     1       0.950  53.349 -21.912  1.00  0.00     0.014 A 
HETATM   31  C25 UNL     1      -0.651  52.000 -23.258  1.00  0.00     0.032 A 
BRANCH  26  32
HETATM   32  O1  UNL     1      -0.777  51.752 -18.461  1.00  0.00    -0.353 OA
HETATM   33  C1  UNL     1      -0.092  50.701 -17.793  1.00  0.00     0.210 C 
ENDBRANCH  26  32
ENDBRANCH   1  21
TORSDOF 6
ENDMDL
