MODEL 1
REMARK minimizedAffinity -9.39531517
REMARK  8 active torsions:
REMARK  status: ('A' for Active; 'I' for Inactive)
REMARK    1  A    between atoms: C12_14  and  C13_15 
REMARK    2  A    between atoms: C13_15  and  C15_17 
REMARK    3  A    between atoms: C15_17  and  C16_18 
REMARK    4  A    between atoms: C16_18  and  C17_19 
REMARK    5  A    between atoms: C26_28  and  C27_29 
REMARK    6  A    between atoms: C27_29  and  C28_30 
REMARK    7  A    between atoms: C28_30  and  C29_31 
REMARK    8  A    between atoms: C29_31  and  O4_33 
ROOT
HETATM    1  C1  UNL     1       2.148   7.784   9.995  1.00  0.00     0.025 C 
HETATM    2  C2  UNL     1       0.975   8.077  10.570  1.00  0.00     0.015 C 
HETATM    3  C3  UNL     1      -0.177   8.492   9.739  1.00  0.00     0.289 C 
HETATM    4  O1  UNL     1      -0.301   8.335   8.539  1.00  0.00    -0.260 OA
HETATM    5  O2  UNL     1      -1.076   9.096  10.556  1.00  0.00    -0.311 OA
HETATM    6  C4  UNL     1      -0.512   9.244  11.867  1.00  0.00     0.142 C 
HETATM    7  C5  UNL     1      -1.615   9.152  12.907  1.00  0.00     0.039 C 
HETATM    8  C6  UNL     1      -2.319   7.790  12.850  1.00  0.00     0.006 C 
HETATM    9  C7  UNL     1      -1.308   6.661  13.170  1.00  0.00    -0.027 A 
HETATM   10  C8  UNL     1      -1.617   5.804  14.411  1.00  0.00     0.011 C 
HETATM   11  C9  UNL     1      -3.090   5.445  14.681  1.00  0.00     0.011 C 
HETATM   12  C10 UNL     1      -4.095   6.228  13.832  1.00  0.00    -0.032 C 
HETATM   13  C11 UNL     1      -4.219   5.523  12.456  1.00  0.00     0.016 C 
HETATM   14  C12 UNL     1      -5.504   6.410  14.477  1.00  0.00    -0.002 C 
HETATM   15  C21 UNL     1      -6.050   7.697  13.814  1.00  0.00     0.006 C 
HETATM   16  C22 UNL     1      -4.849   8.390  13.132  1.00  0.00     0.011 C 
HETATM   17  C23 UNL     1      -3.599   7.717  13.737  1.00  0.00    -0.032 C 
HETATM   18  C24 UNL     1      -3.342   8.416  15.114  1.00  0.00     0.016 C 
HETATM   19  C25 UNL     1      -0.690   5.905  12.011  1.00  0.00     0.022 A 
HETATM   20  C26 UNL     1       0.186   6.893  12.743  1.00  0.00    -0.021 A 
HETATM   21  C30 UNL     1       0.592   8.199  12.011  1.00  0.00     0.063 C 
ENDROOT
BRANCH  14  22
HETATM   22  C13 UNL     1      -6.487   5.222  14.681  1.00  0.00    -0.014 C 
HETATM   23  C14 UNL     1      -7.200   5.380  16.038  1.00  0.00     0.010 C 
BRANCH  22  24
HETATM   24  C15 UNL     1      -7.493   4.786  13.587  1.00  0.00     0.008 C 
BRANCH  24  25
HETATM   25  C16 UNL     1      -7.308   3.471  12.817  1.00  0.00     0.028 C 
BRANCH  25  26
HETATM   26  C17 UNL     1      -5.876   3.129  12.510  1.00  0.00    -0.025 C 
HETATM   27  C18 UNL     1      -5.408   2.106  11.768  1.00  0.00    -0.091 C 
HETATM   28  C19 UNL     1      -3.924   1.910  11.589  1.00  0.00     0.042 C 
HETATM   29  C20 UNL     1      -6.253   1.092  11.048  1.00  0.00     0.042 C 
ENDBRANCH  25  26
ENDBRANCH  24  25
ENDBRANCH  22  24
ENDBRANCH  14  22
BRANCH  20  30
HETATM   30  C27 UNL     1       1.250   6.369  13.726  1.00  0.00     0.021 C 
BRANCH  30  31
HETATM   31  C28 UNL     1       2.260   7.379  14.252  1.00  0.00     0.111 C 
BRANCH  31  32
HETATM   32  C29 UNL     1       2.488   7.277  15.736  1.00  0.00     0.139 C 
HETATM   33  O3  UNL     1       1.828   7.779  16.628  1.00  0.00    -0.650 OA
BRANCH  32  34
HETATM   34  O4  UNL     1       3.608   6.582  16.023  1.00  0.00    -0.776 OA
HETATM   35  H43 UNL     1       3.654   6.605  17.003  1.00  0.00     0.167 HD
ENDBRANCH  32  34
ENDBRANCH  31  32
ENDBRANCH  30  31
ENDBRANCH  20  30
TORSDOF 8
ENDMDL
MODEL 2
REMARK minimizedAffinity -8.9909687
REMARK  8 active torsions:
REMARK  status: ('A' for Active; 'I' for Inactive)
REMARK    1  A    between atoms: C12_14  and  C13_15 
REMARK    2  A    between atoms: C13_15  and  C15_17 
REMARK    3  A    between atoms: C15_17  and  C16_18 
REMARK    4  A    between atoms: C16_18  and  C17_19 
REMARK    5  A    between atoms: C26_28  and  C27_29 
REMARK    6  A    between atoms: C27_29  and  C28_30 
REMARK    7  A    between atoms: C28_30  and  C29_31 
REMARK    8  A    between atoms: C29_31  and  O4_33 
ROOT
HETATM    1  C1  UNL     1      -7.273   4.399  14.469  1.00  0.00     0.025 C 
HETATM    2  C2  UNL     1      -6.414   5.418  14.345  1.00  0.00     0.015 C 
HETATM    3  C3  UNL     1      -6.234   6.378  15.458  1.00  0.00     0.289 C 
HETATM    4  O1  UNL     1      -6.561   6.214  16.618  1.00  0.00    -0.260 OA
HETATM    5  O2  UNL     1      -5.647   7.490  14.949  1.00  0.00    -0.311 OA
HETATM    6  C4  UNL     1      -5.565   7.381  13.521  1.00  0.00     0.142 C 
HETATM    7  C5  UNL     1      -4.326   8.106  13.026  1.00  0.00     0.039 C 
HETATM    8  C6  UNL     1      -3.050   7.489  13.616  1.00  0.00     0.006 C 
HETATM    9  C7  UNL     1      -2.919   6.015  13.159  1.00  0.00    -0.027 A 
HETATM   10  C8  UNL     1      -1.669   5.670  12.328  1.00  0.00     0.011 C 
HETATM   11  C9  UNL     1      -0.342   6.343  12.723  1.00  0.00     0.011 C 
HETATM   12  C10 UNL     1      -0.492   7.494  13.722  1.00  0.00    -0.032 C 
HETATM   13  C11 UNL     1      -0.562   6.889  15.149  1.00  0.00     0.016 C 
HETATM   14  C12 UNL     1       0.623   8.582  13.648  1.00  0.00    -0.002 C 
HETATM   15  C21 UNL     1      -0.063   9.853  14.204  1.00  0.00     0.006 C 
HETATM   16  C22 UNL     1      -1.581   9.567  14.220  1.00  0.00     0.011 C 
HETATM   17  C23 UNL     1      -1.767   8.324  13.324  1.00  0.00    -0.032 C 
HETATM   18  C24 UNL     1      -1.783   8.840  11.847  1.00  0.00     0.016 C 
HETATM   19  C25 UNL     1      -3.369   4.927  14.115  1.00  0.00     0.022 A 
HETATM   20  C26 UNL     1      -4.250   5.215  12.922  1.00  0.00    -0.021 A 
HETATM   21  C30 UNL     1      -5.621   5.896  13.170  1.00  0.00     0.063 C 
ENDROOT
BRANCH  14  22
HETATM   22  C13 UNL     1       2.092   8.300  14.076  1.00  0.00    -0.014 C 
HETATM   23  C14 UNL     1       2.094   7.565  15.431  1.00  0.00     0.010 C 
BRANCH  22  24
HETATM   24  C15 UNL     1       3.126   7.664  13.114  1.00  0.00     0.008 C 
BRANCH  24  25
HETATM   25  C16 UNL     1       2.678   6.913  11.853  1.00  0.00     0.028 C 
BRANCH  25  26
HETATM   26  C17 UNL     1       2.685   7.745  10.600  1.00  0.00    -0.025 C 
HETATM   27  C18 UNL     1       2.852   7.330   9.328  1.00  0.00    -0.091 C 
HETATM   28  C19 UNL     1       2.850   8.323   8.195  1.00  0.00     0.042 C 
HETATM   29  C20 UNL     1       3.034   5.902   8.894  1.00  0.00     0.042 C 
ENDBRANCH  25  26
ENDBRANCH  24  25
ENDBRANCH  22  24
ENDBRANCH  14  22
BRANCH  20  30
HETATM   30  C27 UNL     1      -4.241   4.241  11.729  1.00  0.00     0.021 C 
BRANCH  30  31
HETATM   31  C28 UNL     1      -4.595   2.789  12.020  1.00  0.00     0.111 C 
BRANCH  31  32
HETATM   32  C29 UNL     1      -5.490   2.174  10.978  1.00  0.00     0.139 C 
HETATM   33  O3  UNL     1      -6.132   1.143  11.062  1.00  0.00    -0.650 OA
BRANCH  32  34
HETATM   34  O4  UNL     1      -5.472   2.876   9.827  1.00  0.00    -0.776 OA
HETATM   35  H43 UNL     1      -6.067   2.370   9.233  1.00  0.00     0.167 HD
ENDBRANCH  32  34
ENDBRANCH  31  32
ENDBRANCH  30  31
ENDBRANCH  20  30
TORSDOF 8
ENDMDL
MODEL 3
REMARK minimizedAffinity -8.97172546
REMARK  8 active torsions:
REMARK  status: ('A' for Active; 'I' for Inactive)
REMARK    1  A    between atoms: C12_14  and  C13_15 
REMARK    2  A    between atoms: C13_15  and  C15_17 
REMARK    3  A    between atoms: C15_17  and  C16_18 
REMARK    4  A    between atoms: C16_18  and  C17_19 
REMARK    5  A    between atoms: C26_28  and  C27_29 
REMARK    6  A    between atoms: C27_29  and  C28_30 
REMARK    7  A    between atoms: C28_30  and  C29_31 
REMARK    8  A    between atoms: C29_31  and  O4_33 
ROOT
HETATM    1  C1  UNL     1       2.158   7.620   9.943  1.00  0.00     0.025 C 
HETATM    2  C2  UNL     1       1.002   7.951  10.531  1.00  0.00     0.015 C 
HETATM    3  C3  UNL     1      -0.162   8.351   9.709  1.00  0.00     0.289 C 
HETATM    4  O1  UNL     1      -0.314   8.151   8.519  1.00  0.00    -0.260 OA
HETATM    5  O2  UNL     1      -1.035   8.998  10.522  1.00  0.00    -0.311 OA
HETATM    6  C4  UNL     1      -0.442   9.186  11.814  1.00  0.00     0.142 C 
HETATM    7  C5  UNL     1      -1.523   9.149  12.880  1.00  0.00     0.039 C 
HETATM    8  C6  UNL     1      -2.247   7.795  12.889  1.00  0.00     0.006 C 
HETATM    9  C7  UNL     1      -1.244   6.665  13.230  1.00  0.00    -0.027 A 
HETATM   10  C8  UNL     1      -1.538   5.859  14.508  1.00  0.00     0.011 C 
HETATM   11  C9  UNL     1      -3.010   5.531  14.822  1.00  0.00     0.011 C 
HETATM   12  C10 UNL     1      -4.022   6.297  13.966  1.00  0.00    -0.032 C 
HETATM   13  C11 UNL     1      -4.185   5.543  12.619  1.00  0.00     0.016 C 
HETATM   14  C12 UNL     1      -5.414   6.523  14.632  1.00  0.00    -0.002 C 
HETATM   15  C21 UNL     1      -5.957   7.792  13.933  1.00  0.00     0.006 C 
HETATM   16  C22 UNL     1      -4.762   8.441  13.201  1.00  0.00     0.011 C 
HETATM   17  C23 UNL     1      -3.508   7.774  13.804  1.00  0.00    -0.032 C 
HETATM   18  C24 UNL     1      -3.212   8.520  15.148  1.00  0.00     0.016 C 
HETATM   19  C25 UNL     1      -0.661   5.857  12.087  1.00  0.00     0.022 A 
HETATM   20  C26 UNL     1       0.243   6.859  12.764  1.00  0.00    -0.021 A 
HETATM   21  C30 UNL     1       0.651   8.131  11.975  1.00  0.00     0.063 C 
ENDROOT
BRANCH  14  22
HETATM   22  C13 UNL     1      -6.408   5.356  14.901  1.00  0.00    -0.014 C 
HETATM   23  C14 UNL     1      -7.053   5.548  16.287  1.00  0.00     0.010 C 
BRANCH  22  24
HETATM   24  C15 UNL     1      -7.474   4.924  13.863  1.00  0.00     0.008 C 
BRANCH  24  25
HETATM   25  C16 UNL     1      -7.997   5.907  12.807  1.00  0.00     0.028 C 
BRANCH  25  26
HETATM   26  C17 UNL     1      -9.479   6.157  12.872  1.00  0.00    -0.025 C 
HETATM   27  C18 UNL     1     -10.158   6.900  13.767  1.00  0.00    -0.091 C 
HETATM   28  C19 UNL     1     -11.658   7.016  13.683  1.00  0.00     0.042 C 
HETATM   29  C20 UNL     1      -9.544   7.683  14.895  1.00  0.00     0.042 C 
ENDBRANCH  25  26
ENDBRANCH  24  25
ENDBRANCH  22  24
ENDBRANCH  14  22
BRANCH  20  30
HETATM   30  C27 UNL     1       1.321   6.358  13.742  1.00  0.00     0.021 C 
BRANCH  30  31
HETATM   31  C28 UNL     1       2.321   7.386  14.255  1.00  0.00     0.111 C 
BRANCH  31  32
HETATM   32  C29 UNL     1       2.558   7.297  15.739  1.00  0.00     0.139 C 
HETATM   33  O3  UNL     1       1.963   7.883  16.625  1.00  0.00    -0.650 OA
BRANCH  32  34
HETATM   34  O4  UNL     1       3.610   6.505  16.030  1.00  0.00    -0.776 OA
HETATM   35  H43 UNL     1       3.673   6.547  17.008  1.00  0.00     0.167 HD
ENDBRANCH  32  34
ENDBRANCH  31  32
ENDBRANCH  30  31
ENDBRANCH  20  30
TORSDOF 8
ENDMDL
MODEL 4
REMARK minimizedAffinity -8.64860439
REMARK  8 active torsions:
REMARK  status: ('A' for Active; 'I' for Inactive)
REMARK    1  A    between atoms: C12_14  and  C13_15 
REMARK    2  A    between atoms: C13_15  and  C15_17 
REMARK    3  A    between atoms: C15_17  and  C16_18 
REMARK    4  A    between atoms: C16_18  and  C17_19 
REMARK    5  A    between atoms: C26_28  and  C27_29 
REMARK    6  A    between atoms: C27_29  and  C28_30 
REMARK    7  A    between atoms: C28_30  and  C29_31 
REMARK    8  A    between atoms: C29_31  and  O4_33 
ROOT
HETATM    1  C1  UNL     1      -7.069   4.355  14.179  1.00  0.00     0.025 C 
HETATM    2  C2  UNL     1      -6.231   5.397  14.127  1.00  0.00     0.015 C 
HETATM    3  C3  UNL     1      -6.174   6.362  15.248  1.00  0.00     0.289 C 
HETATM    4  O1  UNL     1      -6.594   6.190  16.376  1.00  0.00    -0.260 OA
HETATM    5  O2  UNL     1      -5.574   7.489  14.788  1.00  0.00    -0.311 OA
HETATM    6  C4  UNL     1      -5.367   7.383  13.373  1.00  0.00     0.142 C 
HETATM    7  C5  UNL     1      -4.110   8.140  12.985  1.00  0.00     0.039 C 
HETATM    8  C6  UNL     1      -2.873   7.558  13.684  1.00  0.00     0.006 C 
HETATM    9  C7  UNL     1      -2.664   6.088  13.244  1.00  0.00    -0.027 A 
HETATM   10  C8  UNL     1      -1.339   5.777  12.525  1.00  0.00     0.011 C 
HETATM   11  C9  UNL     1      -0.069   6.486  13.031  1.00  0.00     0.011 C 
HETATM   12  C10 UNL     1      -0.335   7.633  14.010  1.00  0.00    -0.032 C 
HETATM   13  C11 UNL     1      -0.511   7.027  15.427  1.00  0.00     0.016 C 
HETATM   14  C12 UNL     1       0.753   8.750  14.029  1.00  0.00    -0.002 C 
HETATM   15  C21 UNL     1      -0.013  10.003  14.520  1.00  0.00     0.006 C 
HETATM   16  C22 UNL     1      -1.519   9.676  14.406  1.00  0.00     0.011 C 
HETATM   17  C23 UNL     1      -1.593   8.428  13.501  1.00  0.00    -0.032 C 
HETATM   18  C24 UNL     1      -1.496   8.943  12.026  1.00  0.00     0.016 C 
HETATM   19  C25 UNL     1      -3.165   4.989  14.161  1.00  0.00     0.022 A 
HETATM   20  C26 UNL     1      -3.947   5.252  12.896  1.00  0.00    -0.021 A 
HETATM   21  C30 UNL     1      -5.353   5.896  13.023  1.00  0.00     0.063 C 
ENDROOT
BRANCH  14  22
HETATM   22  C13 UNL     1       2.187   8.509  14.583  1.00  0.00    -0.014 C 
HETATM   23  C14 UNL     1       2.091   7.798  15.947  1.00  0.00     0.010 C 
BRANCH  22  24
HETATM   24  C15 UNL     1       3.309   7.879  13.722  1.00  0.00     0.008 C 
BRANCH  24  25
HETATM   25  C16 UNL     1       3.057   7.471  12.264  1.00  0.00     0.028 C 
BRANCH  25  26
HETATM   26  C17 UNL     1       4.280   6.988  11.534  1.00  0.00    -0.025 C 
HETATM   27  C18 UNL     1       5.551   6.948  11.980  1.00  0.00    -0.091 C 
HETATM   28  C19 UNL     1       6.657   6.447  11.087  1.00  0.00     0.042 C 
HETATM   29  C20 UNL     1       6.008   7.359  13.352  1.00  0.00     0.042 C 
ENDBRANCH  25  26
ENDBRANCH  24  25
ENDBRANCH  22  24
ENDBRANCH  14  22
BRANCH  20  30
HETATM   30  C27 UNL     1      -3.809   4.279  11.711  1.00  0.00     0.021 C 
BRANCH  30  31
HETATM   31  C28 UNL     1      -4.112   2.811  11.984  1.00  0.00     0.111 C 
BRANCH  31  32
HETATM   32  C29 UNL     1      -5.219   2.262  11.125  1.00  0.00     0.139 C 
HETATM   33  O3  UNL     1      -5.862   1.243  11.300  1.00  0.00    -0.650 OA
BRANCH  32  34
HETATM   34  O4  UNL     1      -5.414   3.013  10.022  1.00  0.00    -0.776 OA
HETATM   35  H43 UNL     1      -6.133   2.546   9.544  1.00  0.00     0.167 HD
ENDBRANCH  32  34
ENDBRANCH  31  32
ENDBRANCH  30  31
ENDBRANCH  20  30
TORSDOF 8
ENDMDL
MODEL 5
REMARK minimizedAffinity -8.6212225
REMARK  8 active torsions:
REMARK  status: ('A' for Active; 'I' for Inactive)
REMARK    1  A    between atoms: C12_14  and  C13_15 
REMARK    2  A    between atoms: C13_15  and  C15_17 
REMARK    3  A    between atoms: C15_17  and  C16_18 
REMARK    4  A    between atoms: C16_18  and  C17_19 
REMARK    5  A    between atoms: C26_28  and  C27_29 
REMARK    6  A    between atoms: C27_29  and  C28_30 
REMARK    7  A    between atoms: C28_30  and  C29_31 
REMARK    8  A    between atoms: C29_31  and  O4_33 
ROOT
HETATM    1  C1  UNL     1       3.877   6.410  11.180  1.00  0.00     0.025 C 
HETATM    2  C2  UNL     1       2.658   6.944  11.325  1.00  0.00     0.015 C 
HETATM    3  C3  UNL     1       1.651   6.802  10.249  1.00  0.00     0.289 C 
HETATM    4  O1  UNL     1       1.677   6.005   9.331  1.00  0.00    -0.260 OA
HETATM    5  O2  UNL     1       0.690   7.736  10.461  1.00  0.00    -0.311 OA
HETATM    6  C4  UNL     1       1.084   8.597  11.539  1.00  0.00     0.142 C 
HETATM    7  C5  UNL     1      -0.149   9.070  12.288  1.00  0.00     0.039 C 
HETATM    8  C6  UNL     1      -0.919   7.887  12.892  1.00  0.00     0.006 C 
HETATM    9  C7  UNL     1      -0.026   7.148  13.920  1.00  0.00    -0.027 A 
HETATM   10  C8  UNL     1      -0.546   7.113  15.369  1.00  0.00     0.011 C 
HETATM   11  C9  UNL     1      -2.060   6.928  15.580  1.00  0.00     0.011 C 
HETATM   12  C10 UNL     1      -2.897   7.087  14.307  1.00  0.00    -0.032 C 
HETATM   13  C11 UNL     1      -2.880   5.736  13.545  1.00  0.00     0.016 C 
HETATM   14  C12 UNL     1      -4.364   7.562  14.538  1.00  0.00    -0.002 C 
HETATM   15  C21 UNL     1      -4.743   8.254  13.207  1.00  0.00     0.006 C 
HETATM   16  C22 UNL     1      -3.424   8.482  12.435  1.00  0.00     0.011 C 
HETATM   17  C23 UNL     1      -2.306   8.287  13.480  1.00  0.00    -0.032 C 
HETATM   18  C24 UNL     1      -2.191   9.636  14.264  1.00  0.00     0.016 C 
HETATM   19  C25 UNL     1       0.693   5.891  13.470  1.00  0.00     0.022 A 
HETATM   20  C26 UNL     1       1.522   7.141  13.653  1.00  0.00    -0.021 A 
HETATM   21  C30 UNL     1       2.096   7.833  12.389  1.00  0.00     0.063 C 
ENDROOT
BRANCH  14  22
HETATM   22  C13 UNL     1      -5.434   6.661  15.221  1.00  0.00    -0.014 C 
HETATM   23  C14 UNL     1      -6.649   7.524  15.614  1.00  0.00     0.010 C 
BRANCH  22  24
HETATM   24  C15 UNL     1      -5.900   5.319  14.602  1.00  0.00     0.008 C 
BRANCH  24  25
HETATM   25  C16 UNL     1      -6.296   5.223  13.123  1.00  0.00     0.028 C 
BRANCH  25  26
HETATM   26  C17 UNL     1      -6.535   3.820  12.635  1.00  0.00    -0.025 C 
HETATM   27  C18 UNL     1      -5.762   3.084  11.813  1.00  0.00    -0.091 C 
HETATM   28  C19 UNL     1      -6.181   1.693  11.414  1.00  0.00     0.042 C 
HETATM   29  C20 UNL     1      -4.446   3.521  11.230  1.00  0.00     0.042 C 
ENDBRANCH  25  26
ENDBRANCH  24  25
ENDBRANCH  22  24
ENDBRANCH  14  22
BRANCH  20  30
HETATM   30  C27 UNL     1       2.415   7.273  14.900  1.00  0.00     0.021 C 
BRANCH  30  31
HETATM   31  C28 UNL     1       3.440   8.400  14.899  1.00  0.00     0.111 C 
BRANCH  31  32
HETATM   32  C29 UNL     1       4.851   7.922  14.686  1.00  0.00     0.139 C 
HETATM   33  O3  UNL     1       5.601   8.199  13.768  1.00  0.00    -0.650 OA
BRANCH  32  34
HETATM   34  O4  UNL     1       5.227   7.040  15.634  1.00  0.00    -0.776 OA
HETATM   35  H43 UNL     1       6.141   6.792  15.375  1.00  0.00     0.167 HD
ENDBRANCH  32  34
ENDBRANCH  31  32
ENDBRANCH  30  31
ENDBRANCH  20  30
TORSDOF 8
ENDMDL
MODEL 6
REMARK minimizedAffinity -8.48488998
REMARK  8 active torsions:
REMARK  status: ('A' for Active; 'I' for Inactive)
REMARK    1  A    between atoms: C12_14  and  C13_15 
REMARK    2  A    between atoms: C13_15  and  C15_17 
REMARK    3  A    between atoms: C15_17  and  C16_18 
REMARK    4  A    between atoms: C16_18  and  C17_19 
REMARK    5  A    between atoms: C26_28  and  C27_29 
REMARK    6  A    between atoms: C27_29  and  C28_30 
REMARK    7  A    between atoms: C28_30  and  C29_31 
REMARK    8  A    between atoms: C29_31  and  O4_33 
ROOT
HETATM    1  C1  UNL     1       2.664   5.477   8.940  1.00  0.00     0.025 C 
HETATM    2  C2  UNL     1       2.298   6.154  10.035  1.00  0.00     0.015 C 
HETATM    3  C3  UNL     1       2.369   7.632  10.054  1.00  0.00     0.289 C 
HETATM    4  O1  UNL     1       2.453   8.367   9.088  1.00  0.00    -0.260 OA
HETATM    5  O2  UNL     1       2.335   8.028  11.351  1.00  0.00    -0.311 OA
HETATM    6  C4  UNL     1       2.401   6.879  12.208  1.00  0.00     0.142 C 
HETATM    7  C5  UNL     1       1.620   7.149  13.481  1.00  0.00     0.039 C 
HETATM    8  C6  UNL     1       0.140   7.422  13.177  1.00  0.00     0.006 C 
HETATM    9  C7  UNL     1      -0.499   6.176  12.516  1.00  0.00    -0.027 A 
HETATM   10  C8  UNL     1      -1.666   5.525  13.281  1.00  0.00     0.011 C 
HETATM   11  C9  UNL     1      -2.662   6.459  13.994  1.00  0.00     0.011 C 
HETATM   12  C10 UNL     1      -2.201   7.916  14.087  1.00  0.00    -0.032 C 
HETATM   13  C11 UNL     1      -2.558   8.623  12.753  1.00  0.00     0.016 C 
HETATM   14  C12 UNL     1      -2.781   8.715  15.295  1.00  0.00    -0.002 C 
HETATM   15  C21 UNL     1      -1.728   9.822  15.545  1.00  0.00     0.006 C 
HETATM   16  C22 UNL     1      -0.459   9.413  14.764  1.00  0.00     0.011 C 
HETATM   17  C23 UNL     1      -0.664   7.923  14.415  1.00  0.00    -0.032 C 
HETATM   18  C24 UNL     1      -0.257   7.110  15.689  1.00  0.00     0.016 C 
HETATM   19  C25 UNL     1      -0.639   6.160  11.006  1.00  0.00     0.022 A 
HETATM   20  C26 UNL     1       0.429   5.284  11.617  1.00  0.00    -0.021 A 
HETATM   21  C30 UNL     1       1.914   5.677  11.401  1.00  0.00     0.063 C 
ENDROOT
BRANCH  14  22
HETATM   22  C13 UNL     1      -4.284   9.104  15.394  1.00  0.00    -0.014 C 
HETATM   23  C14 UNL     1      -4.404  10.631  15.556  1.00  0.00     0.010 C 
BRANCH  22  24
HETATM   24  C15 UNL     1      -5.340   8.581  14.387  1.00  0.00     0.008 C 
BRANCH  24  25
HETATM   25  C16 UNL     1      -6.325   7.471  14.776  1.00  0.00     0.028 C 
BRANCH  25  26
HETATM   26  C17 UNL     1      -6.057   6.145  14.120  1.00  0.00    -0.025 C 
HETATM   27  C18 UNL     1      -6.881   5.425  13.334  1.00  0.00    -0.091 C 
HETATM   28  C19 UNL     1      -6.439   4.095  12.779  1.00  0.00     0.042 C 
HETATM   29  C20 UNL     1      -8.266   5.836  12.915  1.00  0.00     0.042 C 
ENDBRANCH  25  26
ENDBRANCH  24  25
ENDBRANCH  22  24
ENDBRANCH  14  22
BRANCH  20  30
HETATM   30  C27 UNL     1       0.191   3.765  11.712  1.00  0.00     0.021 C 
BRANCH  30  31
HETATM   31  C28 UNL     1      -1.047   3.215  11.016  1.00  0.00     0.111 C 
BRANCH  31  32
HETATM   32  C29 UNL     1      -1.064   1.713  10.930  1.00  0.00     0.139 C 
HETATM   33  O3  UNL     1      -2.025   0.972  11.022  1.00  0.00    -0.650 OA
BRANCH  32  34
HETATM   34  O4  UNL     1       0.179   1.206  10.796  1.00  0.00    -0.776 OA
HETATM   35  H43 UNL     1       0.037   0.236  10.773  1.00  0.00     0.167 HD
ENDBRANCH  32  34
ENDBRANCH  31  32
ENDBRANCH  30  31
ENDBRANCH  20  30
TORSDOF 8
ENDMDL
MODEL 7
REMARK minimizedAffinity -8.412817
REMARK  8 active torsions:
REMARK  status: ('A' for Active; 'I' for Inactive)
REMARK    1  A    between atoms: C12_14  and  C13_15 
REMARK    2  A    between atoms: C13_15  and  C15_17 
REMARK    3  A    between atoms: C15_17  and  C16_18 
REMARK    4  A    between atoms: C16_18  and  C17_19 
REMARK    5  A    between atoms: C26_28  and  C27_29 
REMARK    6  A    between atoms: C27_29  and  C28_30 
REMARK    7  A    between atoms: C28_30  and  C29_31 
REMARK    8  A    between atoms: C29_31  and  O4_33 
ROOT
HETATM    1  C1  UNL     1      -7.216   4.289  14.548  1.00  0.00     0.025 C 
HETATM    2  C2  UNL     1      -6.454   5.380  14.399  1.00  0.00     0.015 C 
HETATM    3  C3  UNL     1      -6.533   6.481  15.385  1.00  0.00     0.289 C 
HETATM    4  O1  UNL     1      -7.005   6.422  16.504  1.00  0.00    -0.260 OA
HETATM    5  O2  UNL     1      -5.993   7.585  14.810  1.00  0.00    -0.311 OA
HETATM    6  C4  UNL     1      -5.696   7.315  13.433  1.00  0.00     0.142 C 
HETATM    7  C5  UNL     1      -4.477   8.115  13.009  1.00  0.00     0.039 C 
HETATM    8  C6  UNL     1      -3.244   7.729  13.838  1.00  0.00     0.006 C 
HETATM    9  C7  UNL     1      -2.902   6.236  13.606  1.00  0.00    -0.027 A 
HETATM   10  C8  UNL     1      -1.518   5.943  12.999  1.00  0.00     0.011 C 
HETATM   11  C9  UNL     1      -0.335   6.810  13.467  1.00  0.00     0.011 C 
HETATM   12  C10 UNL     1      -0.741   8.048  14.273  1.00  0.00    -0.032 C 
HETATM   13  C11 UNL     1      -0.955   7.616  15.748  1.00  0.00     0.016 C 
HETATM   14  C12 UNL     1       0.258   9.242  14.197  1.00  0.00    -0.002 C 
HETATM   15  C21 UNL     1      -0.624  10.481  14.481  1.00  0.00     0.006 C 
HETATM   16  C22 UNL     1      -2.093  10.023  14.339  1.00  0.00     0.011 C 
HETATM   17  C23 UNL     1      -2.022   8.668  13.604  1.00  0.00    -0.032 C 
HETATM   18  C24 UNL     1      -1.878   8.996  12.080  1.00  0.00     0.016 C 
HETATM   19  C25 UNL     1      -3.374   5.226  14.635  1.00  0.00     0.022 A 
HETATM   20  C26 UNL     1      -4.098   5.262  13.310  1.00  0.00    -0.021 A 
HETATM   21  C30 UNL     1      -5.552   5.802  13.283  1.00  0.00     0.063 C 
ENDROOT
BRANCH  14  22
HETATM   22  C13 UNL     1       1.671   9.190  14.847  1.00  0.00    -0.014 C 
HETATM   23  C14 UNL     1       2.476  10.430  14.414  1.00  0.00     0.010 C 
BRANCH  22  24
HETATM   24  C15 UNL     1       1.876   8.910  16.356  1.00  0.00     0.008 C 
BRANCH  24  25
HETATM   25  C16 UNL     1       1.811  10.044  17.389  1.00  0.00     0.028 C 
BRANCH  25  26
HETATM   26  C17 UNL     1       0.424  10.561  17.656  1.00  0.00    -0.025 C 
HETATM   27  C18 UNL     1      -0.091  10.989  18.825  1.00  0.00    -0.091 C 
HETATM   28  C19 UNL     1      -1.523  11.455  18.903  1.00  0.00     0.042 C 
HETATM   29  C20 UNL     1       0.653  11.070  20.129  1.00  0.00     0.042 C 
ENDBRANCH  25  26
ENDBRANCH  24  25
ENDBRANCH  22  24
ENDBRANCH  14  22
BRANCH  20  30
HETATM   30  C27 UNL     1      -3.820   4.159  12.272  1.00  0.00     0.021 C 
BRANCH  30  31
HETATM   31  C28 UNL     1      -5.009   3.658  11.462  1.00  0.00     0.111 C 
BRANCH  31  32
HETATM   32  C29 UNL     1      -5.091   2.157  11.392  1.00  0.00     0.139 C 
HETATM   33  O3  UNL     1      -6.092   1.464  11.421  1.00  0.00    -0.650 OA
BRANCH  32  34
HETATM   34  O4  UNL     1      -3.868   1.591  11.358  1.00  0.00    -0.776 OA
HETATM   35  H43 UNL     1      -4.054   0.628  11.335  1.00  0.00     0.167 HD
ENDBRANCH  32  34
ENDBRANCH  31  32
ENDBRANCH  30  31
ENDBRANCH  20  30
TORSDOF 8
ENDMDL
MODEL 8
REMARK minimizedAffinity -8.34980106
REMARK  8 active torsions:
REMARK  status: ('A' for Active; 'I' for Inactive)
REMARK    1  A    between atoms: C12_14  and  C13_15 
REMARK    2  A    between atoms: C13_15  and  C15_17 
REMARK    3  A    between atoms: C15_17  and  C16_18 
REMARK    4  A    between atoms: C16_18  and  C17_19 
REMARK    5  A    between atoms: C26_28  and  C27_29 
REMARK    6  A    between atoms: C27_29  and  C28_30 
REMARK    7  A    between atoms: C28_30  and  C29_31 
REMARK    8  A    between atoms: C29_31  and  O4_33 
ROOT
HETATM    1  C1  UNL     1      -7.312   4.801  14.075  1.00  0.00     0.025 C 
HETATM    2  C2  UNL     1      -6.562   5.910  14.097  1.00  0.00     0.015 C 
HETATM    3  C3  UNL     1      -7.038   7.115  14.813  1.00  0.00     0.289 C 
HETATM    4  O1  UNL     1      -7.919   7.162  15.650  1.00  0.00    -0.260 OA
HETATM    5  O2  UNL     1      -6.319   8.172  14.359  1.00  0.00    -0.311 OA
HETATM    6  C4  UNL     1      -5.492   7.757  13.263  1.00  0.00     0.142 C 
HETATM    7  C5  UNL     1      -4.210   8.572  13.256  1.00  0.00     0.039 C 
HETATM    8  C6  UNL     1      -3.412   8.361  14.551  1.00  0.00     0.006 C 
HETATM    9  C7  UNL     1      -2.996   6.874  14.675  1.00  0.00    -0.027 A 
HETATM   10  C8  UNL     1      -1.483   6.594  14.714  1.00  0.00     0.011 C 
HETATM   11  C9  UNL     1      -0.594   7.580  15.494  1.00  0.00     0.011 C 
HETATM   12  C10 UNL     1      -1.297   8.878  15.898  1.00  0.00    -0.032 C 
HETATM   13  C11 UNL     1      -2.083   8.614  17.209  1.00  0.00     0.016 C 
HETATM   14  C12 UNL     1      -0.359  10.112  16.067  1.00  0.00    -0.002 C 
HETATM   15  C21 UNL     1      -1.289  11.322  15.809  1.00  0.00     0.006 C 
HETATM   16  C22 UNL     1      -2.574  10.763  15.157  1.00  0.00     0.011 C 
HETATM   17  C23 UNL     1      -2.205   9.336  14.699  1.00  0.00    -0.032 C 
HETATM   18  C24 UNL     1      -1.462   9.488  13.329  1.00  0.00     0.016 C 
HETATM   19  C25 UNL     1      -3.835   5.969  15.556  1.00  0.00     0.022 A 
HETATM   20  C26 UNL     1      -3.967   5.803  14.061  1.00  0.00    -0.021 A 
HETATM   21  C30 UNL     1      -5.290   6.248  13.386  1.00  0.00     0.063 C 
ENDROOT
BRANCH  14  22
HETATM   22  C13 UNL     1       0.674  10.222  17.226  1.00  0.00    -0.014 C 
HETATM   23  C14 UNL     1       2.007  10.757  16.669  1.00  0.00     0.010 C 
BRANCH  22  24
HETATM   24  C15 UNL     1       0.335  10.908  18.572  1.00  0.00     0.008 C 
BRANCH  24  25
HETATM   25  C16 UNL     1       1.423  11.186  19.618  1.00  0.00     0.028 C 
BRANCH  25  26
HETATM   26  C17 UNL     1       1.417  10.239  20.787  1.00  0.00    -0.025 C 
HETATM   27  C18 UNL     1       2.471   9.784  21.492  1.00  0.00    -0.091 C 
HETATM   28  C19 UNL     1       2.268   8.814  22.628  1.00  0.00     0.042 C 
HETATM   29  C20 UNL     1       3.906  10.174  21.266  1.00  0.00     0.042 C 
ENDBRANCH  25  26
ENDBRANCH  24  25
ENDBRANCH  22  24
ENDBRANCH  14  22
BRANCH  20  30
HETATM   30  C27 UNL     1      -3.288   4.602  13.376  1.00  0.00     0.021 C 
BRANCH  30  31
HETATM   31  C28 UNL     1      -4.040   3.948  12.225  1.00  0.00     0.111 C 
BRANCH  31  32
HETATM   32  C29 UNL     1      -3.151   3.149  11.311  1.00  0.00     0.139 C 
HETATM   33  O3  UNL     1      -2.377   3.569  10.470  1.00  0.00    -0.650 OA
BRANCH  32  34
HETATM   34  O4  UNL     1      -3.343   1.822  11.461  1.00  0.00    -0.776 OA
HETATM   35  H43 UNL     1      -2.732   1.420  10.807  1.00  0.00     0.167 HD
ENDBRANCH  32  34
ENDBRANCH  31  32
ENDBRANCH  30  31
ENDBRANCH  20  30
TORSDOF 8
ENDMDL
MODEL 9
REMARK minimizedAffinity -8.14071083
REMARK  8 active torsions:
REMARK  status: ('A' for Active; 'I' for Inactive)
REMARK    1  A    between atoms: C12_14  and  C13_15 
REMARK    2  A    between atoms: C13_15  and  C15_17 
REMARK    3  A    between atoms: C15_17  and  C16_18 
REMARK    4  A    between atoms: C16_18  and  C17_19 
REMARK    5  A    between atoms: C26_28  and  C27_29 
REMARK    6  A    between atoms: C27_29  and  C28_30 
REMARK    7  A    between atoms: C28_30  and  C29_31 
REMARK    8  A    between atoms: C29_31  and  O4_33 
ROOT
HETATM    1  C1  UNL     1       4.993   9.384  11.387  1.00  0.00     0.025 C 
HETATM    2  C2  UNL     1       4.047   9.138  12.303  1.00  0.00     0.015 C 
HETATM    3  C3  UNL     1       3.528  10.235  13.149  1.00  0.00     0.289 C 
HETATM    4  O1  UNL     1       3.639  11.428  12.940  1.00  0.00    -0.260 OA
HETATM    5  O2  UNL     1       2.909   9.672  14.217  1.00  0.00    -0.311 OA
HETATM    6  C4  UNL     1       3.124   8.254  14.206  1.00  0.00     0.142 C 
HETATM    7  C5  UNL     1       1.921   7.553  14.812  1.00  0.00     0.039 C 
HETATM    8  C6  UNL     1       0.647   7.840  14.004  1.00  0.00     0.006 C 
HETATM    9  C7  UNL     1       0.805   7.294  12.563  1.00  0.00    -0.027 A 
HETATM   10  C8  UNL     1      -0.201   6.211  12.134  1.00  0.00     0.011 C 
HETATM   11  C9  UNL     1      -1.657   6.359  12.611  1.00  0.00     0.011 C 
HETATM   12  C10 UNL     1      -1.860   7.422  13.694  1.00  0.00    -0.032 C 
HETATM   13  C11 UNL     1      -1.991   8.803  12.998  1.00  0.00     0.016 C 
HETATM   14  C12 UNL     1      -3.073   7.176  14.643  1.00  0.00    -0.002 C 
HETATM   15  C21 UNL     1      -2.683   7.921  15.942  1.00  0.00     0.006 C 
HETATM   16  C22 UNL     1      -1.173   8.232  15.840  1.00  0.00     0.011 C 
HETATM   17  C23 UNL     1      -0.653   7.334  14.698  1.00  0.00    -0.032 C 
HETATM   18  C24 UNL     1      -0.416   5.917  15.322  1.00  0.00     0.016 C 
HETATM   19  C25 UNL     1       1.198   8.268  11.469  1.00  0.00     0.022 A 
HETATM   20  C26 UNL     1       2.250   7.295  11.948  1.00  0.00    -0.021 A 
HETATM   21  C30 UNL     1       3.444   7.850  12.769  1.00  0.00     0.063 C 
ENDROOT
BRANCH  14  22
HETATM   22  C13 UNL     1      -4.547   7.282  14.156  1.00  0.00    -0.014 C 
HETATM   23  C14 UNL     1      -4.866   8.751  13.819  1.00  0.00     0.010 C 
BRANCH  22  24
HETATM   24  C15 UNL     1      -5.128   6.339  13.074  1.00  0.00     0.008 C 
BRANCH  24  25
HETATM   25  C16 UNL     1      -6.215   5.311  13.417  1.00  0.00     0.028 C 
BRANCH  25  26
HETATM   26  C17 UNL     1      -6.269   4.131  12.486  1.00  0.00    -0.025 C 
HETATM   27  C18 UNL     1      -5.259   3.320  12.114  1.00  0.00    -0.091 C 
HETATM   28  C19 UNL     1      -5.503   2.192  11.146  1.00  0.00     0.042 C 
HETATM   29  C20 UNL     1      -3.839   3.416  12.599  1.00  0.00     0.042 C 
ENDBRANCH  25  26
ENDBRANCH  24  25
ENDBRANCH  22  24
ENDBRANCH  14  22
BRANCH  20  30
HETATM   30  C27 UNL     1       2.604   6.079  11.072  1.00  0.00     0.021 C 
BRANCH  30  31
HETATM   31  C28 UNL     1       2.814   6.337   9.586  1.00  0.00     0.111 C 
BRANCH  31  32
HETATM   32  C29 UNL     1       3.511   5.206   8.878  1.00  0.00     0.139 C 
HETATM   33  O3  UNL     1       3.347   4.832   7.730  1.00  0.00    -0.650 OA
BRANCH  32  34
HETATM   34  O4  UNL     1       4.350   4.544   9.700  1.00  0.00    -0.776 OA
HETATM   35  H43 UNL     1       4.718   3.831   9.135  1.00  0.00     0.167 HD
ENDBRANCH  32  34
ENDBRANCH  31  32
ENDBRANCH  30  31
ENDBRANCH  20  30
TORSDOF 8
ENDMDL
