MODEL 1
REMARK minimizedAffinity -8.42923832
REMARK CNNscore 0.444574356
REMARK CNNaffinity 7.11123705
REMARK  10 active torsions:
REMARK  status: ('A' for Active; 'I' for Inactive)
REMARK    1  A    between atoms: C2_2  and  C3_4 
REMARK    2  A    between atoms: C10_12  and  O3_13 
REMARK    3  A    between atoms: C13_16  and  C14_17 
REMARK    4  A    between atoms: C14_17  and  C16_19 
REMARK    5  A    between atoms: C16_19  and  C17_20 
REMARK    6  A    between atoms: C17_20  and  C18_21 
REMARK    7  A    between atoms: C26_29  and  C27_30 
REMARK    8  A    between atoms: C27_30  and  C28_31 
REMARK    9  A    between atoms: C28_31  and  C29_32 
REMARK   10  A    between atoms: C29_32  and  O4_33 
ROOT
HETATM    1  C3  UNL     1      -6.061   6.545  14.654  1.00  0.00     0.151 A 
HETATM    2  O2  UNL     1      -7.009   7.455  14.027  1.00  0.00    -0.360 OA
HETATM    3  C4  UNL     1      -5.693   7.946  14.221  1.00  0.00     0.166 A 
HETATM    4  C5  UNL     1      -4.931   8.125  12.954  1.00  0.00     0.041 C 
HETATM    5  C6  UNL     1      -3.739   7.158  12.832  1.00  0.00     0.006 C 
HETATM    6  C7  UNL     1      -4.095   5.636  13.201  1.00  0.00    -0.030 C 
HETATM    7  C8  UNL     1      -3.885   4.715  11.965  1.00  0.00     0.016 C 
HETATM    8  C9  UNL     1      -3.117   5.084  14.285  1.00  0.00     0.042 C 
HETATM    9  C10 UNL     1      -1.600   5.389  14.138  1.00  0.00     0.128 C 
HETATM   10  C11 UNL     1      -1.242   6.691  13.362  1.00  0.00    -0.006 C 
HETATM   11  C12 UNL     1      -0.925   6.347  11.868  1.00  0.00     0.019 C 
HETATM   12  C13 UNL     1      -0.026   7.551  13.876  1.00  0.00     0.001 C 
HETATM   13  C22 UNL     1      -0.349   8.964  13.296  1.00  0.00     0.007 C 
HETATM   14  C23 UNL     1      -1.828   8.961  12.860  1.00  0.00     0.011 C 
HETATM   15  C24 UNL     1      -2.433   7.711  13.525  1.00  0.00    -0.029 C 
HETATM   16  C25 UNL     1      -2.710   8.136  15.004  1.00  0.00     0.016 C 
HETATM   17  C26 UNL     1      -5.606   5.409  13.730  1.00  0.00     0.039 C 
ENDROOT
BRANCH  12  18
HETATM   18  C14 UNL     1       1.445   7.117  13.568  1.00  0.00    -0.013 C 
HETATM   19  C15 UNL     1       2.374   8.328  13.419  1.00  0.00     0.010 C 
BRANCH  18  20
HETATM   20  C16 UNL     1       1.477   6.238  12.286  1.00  0.00     0.008 C 
BRANCH  20  21
HETATM   21  C17 UNL     1       2.718   6.363  11.388  1.00  0.00     0.028 C 
BRANCH  21  22
HETATM   22  C18 UNL     1       2.439   6.975  10.043  1.00  0.00    -0.025 C 
HETATM   23  C19 UNL     1       3.197   7.865   9.372  1.00  0.00    -0.091 C 
HETATM   24  C20 UNL     1       4.465   8.485   9.900  1.00  0.00     0.042 C 
HETATM   25  C21 UNL     1       2.798   8.338   7.998  1.00  0.00     0.042 C 
ENDBRANCH  21  22
ENDBRANCH  20  21
ENDBRANCH  18  20
ENDBRANCH  12  18
BRANCH   9  26
HETATM   26  O3  UNL     1      -1.067   5.438  15.465  1.00  0.00    -0.395 OA
HETATM   27  H14 UNL     1      -1.167   4.551  15.858  1.00  0.00     0.210 HD
ENDBRANCH   9  26
BRANCH  17  28
HETATM   28  C27 UNL     1      -6.665   5.120  12.618  1.00  0.00     0.011 C 
BRANCH  28  29
HETATM   29  C28 UNL     1      -7.854   4.278  13.109  1.00  0.00     0.027 C 
BRANCH  29  30
HETATM   30  C29 UNL     1      -7.453   2.831  13.386  1.00  0.00     0.164 C 
BRANCH  30  31
HETATM   31  O4  UNL     1      -8.214   1.940  12.579  1.00  0.00    -0.401 OA
HETATM   32  H48 UNL     1      -7.861   1.047  12.742  1.00  0.00     0.209 HD
ENDBRANCH  30  31
ENDBRANCH  29  30
ENDBRANCH  28  29
ENDBRANCH  17  28
BRANCH   1  33
HETATM   33  C2  UNL     1      -6.457   6.255  16.071  1.00  0.00     0.160 C 
HETATM   34  C1  UNL     1      -7.565   7.085  16.655  1.00  0.00     0.094 C 
HETATM   35  O1  UNL     1      -5.883   5.388  16.728  1.00  0.00    -0.295 OA
ENDBRANCH   1  33
TORSDOF 10
ENDMDL
MODEL 2
REMARK minimizedAffinity -5.53494596
REMARK CNNscore 0.400297374
REMARK CNNaffinity 6.54932833
REMARK  10 active torsions:
REMARK  status: ('A' for Active; 'I' for Inactive)
REMARK    1  A    between atoms: C2_2  and  C3_4 
REMARK    2  A    between atoms: C10_12  and  O3_13 
REMARK    3  A    between atoms: C13_16  and  C14_17 
REMARK    4  A    between atoms: C14_17  and  C16_19 
REMARK    5  A    between atoms: C16_19  and  C17_20 
REMARK    6  A    between atoms: C17_20  and  C18_21 
REMARK    7  A    between atoms: C26_29  and  C27_30 
REMARK    8  A    between atoms: C27_30  and  C28_31 
REMARK    9  A    between atoms: C28_31  and  C29_32 
REMARK   10  A    between atoms: C29_32  and  O4_33 
ROOT
HETATM    1  C3  UNL     1      -2.167   5.465  13.148  1.00  0.00     0.151 A 
HETATM    2  O2  UNL     1      -2.396   4.265  13.939  1.00  0.00    -0.360 OA
HETATM    3  C4  UNL     1      -1.862   5.385  14.626  1.00  0.00     0.166 A 
HETATM    4  C5  UNL     1      -2.817   6.006  15.586  1.00  0.00     0.041 C 
HETATM    5  C6  UNL     1      -3.249   7.423  15.167  1.00  0.00     0.006 C 
HETATM    6  C7  UNL     1      -3.664   7.547  13.622  1.00  0.00    -0.030 C 
HETATM    7  C8  UNL     1      -5.157   7.966  13.493  1.00  0.00     0.016 C 
HETATM    8  C9  UNL     1      -2.864   8.690  12.921  1.00  0.00     0.042 C 
HETATM    9  C10 UNL     1      -2.696  10.042  13.670  1.00  0.00     0.128 C 
HETATM   10  C11 UNL     1      -2.740   9.967  15.224  1.00  0.00    -0.006 C 
HETATM   11  C12 UNL     1      -4.183  10.308  15.730  1.00  0.00     0.019 C 
HETATM   12  C13 UNL     1      -1.765  10.897  16.040  1.00  0.00     0.001 C 
HETATM   13  C22 UNL     1      -1.655  10.148  17.406  1.00  0.00     0.007 C 
HETATM   14  C23 UNL     1      -2.193   8.718  17.196  1.00  0.00     0.011 C 
HETATM   15  C24 UNL     1      -2.248   8.537  15.668  1.00  0.00    -0.029 C 
HETATM   16  C25 UNL     1      -0.778   8.211  15.249  1.00  0.00     0.016 C 
HETATM   17  C26 UNL     1      -3.460   6.194  12.760  1.00  0.00     0.039 C 
ENDROOT
BRANCH  12  18
HETATM   18  C14 UNL     1      -2.085  12.416  16.233  1.00  0.00    -0.013 C 
HETATM   19  C15 UNL     1      -2.128  13.161  14.893  1.00  0.00     0.010 C 
BRANCH  18  20
HETATM   20  C16 UNL     1      -1.037  13.058  17.186  1.00  0.00     0.008 C 
BRANCH  20  21
HETATM   21  C17 UNL     1       0.378  13.266  16.623  1.00  0.00     0.028 C 
BRANCH  21  22
HETATM   22  C18 UNL     1       0.825  14.702  16.610  1.00  0.00    -0.025 C 
HETATM   23  C19 UNL     1       1.025  15.491  15.535  1.00  0.00    -0.091 C 
HETATM   24  C20 UNL     1       0.903  15.039  14.103  1.00  0.00     0.042 C 
HETATM   25  C21 UNL     1       1.422  16.935  15.701  1.00  0.00     0.042 C 
ENDBRANCH  21  22
ENDBRANCH  20  21
ENDBRANCH  18  20
ENDBRANCH  12  18
BRANCH   9  26
HETATM   26  O3  UNL     1      -1.450  10.594  13.233  1.00  0.00    -0.395 OA
HETATM   27  H14 UNL     1      -1.524  10.776  12.278  1.00  0.00     0.210 HD
ENDBRANCH   9  26
BRANCH  17  28
HETATM   28  C27 UNL     1      -4.681   5.221  12.748  1.00  0.00     0.011 C 
BRANCH  28  29
HETATM   29  C28 UNL     1      -4.651   4.215  11.587  1.00  0.00     0.027 C 
BRANCH  29  30
HETATM   30  C29 UNL     1      -5.645   3.075  11.792  1.00  0.00     0.164 C 
BRANCH  30  31
HETATM   31  O4  UNL     1      -5.528   2.116  10.748  1.00  0.00    -0.401 OA
HETATM   32  H48 UNL     1      -6.127   1.382  10.974  1.00  0.00     0.209 HD
ENDBRANCH  30  31
ENDBRANCH  29  30
ENDBRANCH  28  29
ENDBRANCH  17  28
BRANCH   1  33
HETATM   33  C2  UNL     1      -1.094   5.233  12.126  1.00  0.00     0.160 C 
HETATM   34  C1  UNL     1      -0.908   3.825  11.638  1.00  0.00     0.094 C 
HETATM   35  O1  UNL     1      -0.388   6.157  11.722  1.00  0.00    -0.295 OA
ENDBRANCH   1  33
TORSDOF 10
ENDMDL
MODEL 3
REMARK minimizedAffinity -5.69719028
REMARK CNNscore 0.399941355
REMARK CNNaffinity 5.92204237
REMARK  10 active torsions:
REMARK  status: ('A' for Active; 'I' for Inactive)
REMARK    1  A    between atoms: C2_2  and  C3_4 
REMARK    2  A    between atoms: C10_12  and  O3_13 
REMARK    3  A    between atoms: C13_16  and  C14_17 
REMARK    4  A    between atoms: C14_17  and  C16_19 
REMARK    5  A    between atoms: C16_19  and  C17_20 
REMARK    6  A    between atoms: C17_20  and  C18_21 
REMARK    7  A    between atoms: C26_29  and  C27_30 
REMARK    8  A    between atoms: C27_30  and  C28_31 
REMARK    9  A    between atoms: C28_31  and  C29_32 
REMARK   10  A    between atoms: C29_32  and  O4_33 
ROOT
HETATM    1  C3  UNL     1     -17.115  -0.587  14.447  1.00  0.00     0.151 A 
HETATM    2  O2  UNL     1     -18.265  -0.923  15.274  1.00  0.00    -0.360 OA
HETATM    3  C4  UNL     1     -18.192  -1.551  14.005  1.00  0.00     0.166 A 
HETATM    4  C5  UNL     1     -17.915  -3.013  14.079  1.00  0.00     0.041 C 
HETATM    5  C6  UNL     1     -16.538  -3.390  13.502  1.00  0.00     0.006 C 
HETATM    6  C7  UNL     1     -15.341  -2.447  14.005  1.00  0.00    -0.030 C 
HETATM    7  C8  UNL     1     -14.296  -3.277  14.805  1.00  0.00     0.016 C 
HETATM    8  C9  UNL     1     -14.548  -1.860  12.795  1.00  0.00     0.042 C 
HETATM    9  C10 UNL     1     -14.190  -2.808  11.616  1.00  0.00     0.128 C 
HETATM   10  C11 UNL     1     -15.148  -4.018  11.403  1.00  0.00    -0.006 C 
HETATM   11  C12 UNL     1     -14.555  -5.290  12.099  1.00  0.00     0.019 C 
HETATM   12  C13 UNL     1     -15.481  -4.450   9.925  1.00  0.00     0.001 C 
HETATM   13  C22 UNL     1     -16.837  -5.205  10.097  1.00  0.00     0.007 C 
HETATM   14  C23 UNL     1     -17.396  -4.847  11.489  1.00  0.00     0.011 C 
HETATM   15  C24 UNL     1     -16.575  -3.624  11.941  1.00  0.00    -0.029 C 
HETATM   16  C25 UNL     1     -17.223  -2.410  11.199  1.00  0.00     0.016 C 
HETATM   17  C26 UNL     1     -15.806  -1.214  14.942  1.00  0.00     0.039 C 
ENDROOT
BRANCH  12  18
HETATM   18  C14 UNL     1     -14.455  -5.279   9.084  1.00  0.00    -0.013 C 
HETATM   19  C15 UNL     1     -13.896  -4.466   7.910  1.00  0.00     0.010 C 
BRANCH  18  20
HETATM   20  C16 UNL     1     -15.125  -6.587   8.578  1.00  0.00     0.008 C 
BRANCH  20  21
HETATM   21  C17 UNL     1     -15.553  -6.624   7.103  1.00  0.00     0.028 C 
BRANCH  21  22
HETATM   22  C18 UNL     1     -15.979  -7.984   6.623  1.00  0.00    -0.025 C 
HETATM   23  C19 UNL     1     -17.207  -8.366   6.220  1.00  0.00    -0.091 C 
HETATM   24  C20 UNL     1     -18.432  -7.489   6.248  1.00  0.00     0.042 C 
HETATM   25  C21 UNL     1     -17.453  -9.763   5.712  1.00  0.00     0.042 C 
ENDBRANCH  21  22
ENDBRANCH  20  21
ENDBRANCH  18  20
ENDBRANCH  12  18
BRANCH   9  26
HETATM   26  O3  UNL     1     -14.150  -1.994  10.440  1.00  0.00    -0.395 OA
HETATM   27  H14 UNL     1     -13.425  -1.349  10.550  1.00  0.00     0.210 HD
ENDBRANCH   9  26
BRANCH  17  28
HETATM   28  C27 UNL     1     -15.865  -1.524  16.472  1.00  0.00     0.011 C 
BRANCH  28  29
HETATM   29  C28 UNL     1     -16.339  -2.951  16.789  1.00  0.00     0.027 C 
BRANCH  29  30
HETATM   30  C29 UNL     1     -17.086  -3.022  18.119  1.00  0.00     0.164 C 
BRANCH  30  31
HETATM   31  O4  UNL     1     -16.281  -2.506  19.172  1.00  0.00    -0.401 OA
HETATM   32  H48 UNL     1     -16.836  -2.506  19.973  1.00  0.00     0.209 HD
ENDBRANCH  30  31
ENDBRANCH  29  30
ENDBRANCH  28  29
ENDBRANCH  17  28
BRANCH   1  33
HETATM   33  C2  UNL     1     -17.156   0.855  14.037  1.00  0.00     0.160 C 
HETATM   34  C1  UNL     1     -16.647   1.189  12.663  1.00  0.00     0.094 C 
HETATM   35  O1  UNL     1     -17.571   1.725  14.802  1.00  0.00    -0.295 OA
ENDBRANCH   1  33
TORSDOF 10
ENDMDL
MODEL 4
REMARK minimizedAffinity -6.00315475
REMARK CNNscore 0.311267585
REMARK CNNaffinity 6.09625006
REMARK  10 active torsions:
REMARK  status: ('A' for Active; 'I' for Inactive)
REMARK    1  A    between atoms: C2_2  and  C3_4 
REMARK    2  A    between atoms: C10_12  and  O3_13 
REMARK    3  A    between atoms: C13_16  and  C14_17 
REMARK    4  A    between atoms: C14_17  and  C16_19 
REMARK    5  A    between atoms: C16_19  and  C17_20 
REMARK    6  A    between atoms: C17_20  and  C18_21 
REMARK    7  A    between atoms: C26_29  and  C27_30 
REMARK    8  A    between atoms: C27_30  and  C28_31 
REMARK    9  A    between atoms: C28_31  and  C29_32 
REMARK   10  A    between atoms: C29_32  and  O4_33 
ROOT
HETATM    1  C3  UNL     1      -1.656  14.127  18.004  1.00  0.00     0.151 A 
HETATM    2  O2  UNL     1      -2.432  14.333  19.218  1.00  0.00    -0.360 OA
HETATM    3  C4  UNL     1      -3.052  13.576  18.192  1.00  0.00     0.166 A 
HETATM    4  C5  UNL     1      -3.210  12.134  18.529  1.00  0.00     0.041 C 
HETATM    5  C6  UNL     1      -2.347  11.216  17.644  1.00  0.00     0.006 C 
HETATM    6  C7  UNL     1      -0.829  11.711  17.476  1.00  0.00    -0.030 C 
HETATM    7  C8  UNL     1       0.152  10.657  18.067  1.00  0.00     0.016 C 
HETATM    8  C9  UNL     1      -0.443  11.820  15.968  1.00  0.00     0.042 C 
HETATM    9  C10 UNL     1      -0.873  10.674  15.009  1.00  0.00     0.128 C 
HETATM   10  C11 UNL     1      -2.145   9.880  15.428  1.00  0.00    -0.006 C 
HETATM   11  C12 UNL     1      -1.728   8.572  16.182  1.00  0.00     0.019 C 
HETATM   12  C13 UNL     1      -3.144   9.428  14.296  1.00  0.00     0.001 C 
HETATM   13  C22 UNL     1      -4.479   9.245  15.085  1.00  0.00     0.007 C 
HETATM   14  C23 UNL     1      -4.313   9.944  16.449  1.00  0.00     0.011 C 
HETATM   15  C24 UNL     1      -3.062  10.828  16.290  1.00  0.00    -0.029 C 
HETATM   16  C25 UNL     1      -3.562  12.098  15.527  1.00  0.00     0.016 C 
HETATM   17  C26 UNL     1      -0.504  13.130  18.179  1.00  0.00     0.039 C 
ENDROOT
BRANCH  12  18
HETATM   18  C14 UNL     1      -2.823   8.189  13.397  1.00  0.00    -0.013 C 
HETATM   19  C15 UNL     1      -2.190   8.605  12.063  1.00  0.00     0.010 C 
BRANCH  18  20
HETATM   20  C16 UNL     1      -4.119   7.364  13.158  1.00  0.00     0.008 C 
BRANCH  20  21
HETATM   21  C17 UNL     1      -4.142   5.930  13.711  1.00  0.00     0.028 C 
BRANCH  21  22
HETATM   22  C18 UNL     1      -3.975   4.866  12.661  1.00  0.00    -0.025 C 
HETATM   23  C19 UNL     1      -4.880   3.947  12.272  1.00  0.00    -0.091 C 
HETATM   24  C20 UNL     1      -6.242   3.765  12.891  1.00  0.00     0.042 C 
HETATM   25  C21 UNL     1      -4.570   2.982  11.157  1.00  0.00     0.042 C 
ENDBRANCH  21  22
ENDBRANCH  20  21
ENDBRANCH  18  20
ENDBRANCH  12  18
BRANCH   9  26
HETATM   26  O3  UNL     1      -1.061  11.273  13.723  1.00  0.00    -0.395 OA
HETATM   27  H14 UNL     1      -0.197  11.617  13.426  1.00  0.00     0.210 HD
ENDBRANCH   9  26
BRANCH  17  28
HETATM   28  C27 UNL     1      -0.045  13.046  19.670  1.00  0.00     0.011 C 
BRANCH  28  29
HETATM   29  C28 UNL     1       1.185  13.912  19.982  1.00  0.00     0.027 C 
BRANCH  29  30
HETATM   30  C29 UNL     1       1.969  13.381  21.180  1.00  0.00     0.164 C 
BRANCH  30  31
HETATM   31  O4  UNL     1       3.232  12.875  20.766  1.00  0.00    -0.401 OA
HETATM   32  H48 UNL     1       3.712  12.626  21.576  1.00  0.00     0.209 HD
ENDBRANCH  30  31
ENDBRANCH  29  30
ENDBRANCH  28  29
ENDBRANCH  17  28
BRANCH   1  33
HETATM   33  C2  UNL     1      -1.430  15.425  17.288  1.00  0.00     0.160 C 
HETATM   34  C1  UNL     1      -1.322  15.369  15.790  1.00  0.00     0.094 C 
HETATM   35  O1  UNL     1      -1.320  16.484  17.905  1.00  0.00    -0.295 OA
ENDBRANCH   1  33
TORSDOF 10
ENDMDL
MODEL 5
REMARK minimizedAffinity -5.69868946
REMARK CNNscore 0.298825055
REMARK CNNaffinity 5.58270645
REMARK  10 active torsions:
REMARK  status: ('A' for Active; 'I' for Inactive)
REMARK    1  A    between atoms: C2_2  and  C3_4 
REMARK    2  A    between atoms: C10_12  and  O3_13 
REMARK    3  A    between atoms: C13_16  and  C14_17 
REMARK    4  A    between atoms: C14_17  and  C16_19 
REMARK    5  A    between atoms: C16_19  and  C17_20 
REMARK    6  A    between atoms: C17_20  and  C18_21 
REMARK    7  A    between atoms: C26_29  and  C27_30 
REMARK    8  A    between atoms: C27_30  and  C28_31 
REMARK    9  A    between atoms: C28_31  and  C29_32 
REMARK   10  A    between atoms: C29_32  and  O4_33 
ROOT
HETATM    1  C3  UNL     1     -16.397  -1.548  14.083  1.00  0.00     0.151 A 
HETATM    2  O2  UNL     1     -17.520  -1.926  14.928  1.00  0.00    -0.360 OA
HETATM    3  C4  UNL     1     -17.573  -2.353  13.577  1.00  0.00     0.166 A 
HETATM    4  C5  UNL     1     -17.412  -3.824  13.410  1.00  0.00     0.041 C 
HETATM    5  C6  UNL     1     -16.106  -4.204  12.688  1.00  0.00     0.006 C 
HETATM    6  C7  UNL     1     -14.809  -3.438  13.242  1.00  0.00    -0.030 C 
HETATM    7  C8  UNL     1     -13.789  -4.455  13.832  1.00  0.00     0.016 C 
HETATM    8  C9  UNL     1     -14.043  -2.729  12.081  1.00  0.00     0.042 C 
HETATM    9  C10 UNL     1     -13.833  -3.505  10.751  1.00  0.00     0.128 C 
HETATM   10  C11 UNL     1     -14.896  -4.596  10.427  1.00  0.00    -0.006 C 
HETATM   11  C12 UNL     1     -14.369  -5.999  10.880  1.00  0.00     0.019 C 
HETATM   12  C13 UNL     1     -15.349  -4.768   8.927  1.00  0.00     0.001 C 
HETATM   13  C22 UNL     1     -16.750  -5.442   9.078  1.00  0.00     0.007 C 
HETATM   14  C23 UNL     1     -17.195  -5.266  10.544  1.00  0.00     0.011 C 
HETATM   15  C24 UNL     1     -16.253  -4.190  11.116  1.00  0.00    -0.029 C 
HETATM   16  C25 UNL     1     -16.842  -2.832  10.613  1.00  0.00     0.016 C 
HETATM   17  C26 UNL     1     -15.116  -2.335  14.384  1.00  0.00     0.039 C 
ENDROOT
BRANCH  12  18
HETATM   18  C14 UNL     1     -14.445  -5.527   7.901  1.00  0.00    -0.013 C 
HETATM   19  C15 UNL     1     -13.782  -6.758   8.533  1.00  0.00     0.010 C 
BRANCH  18  20
HETATM   20  C16 UNL     1     -13.372  -4.558   7.328  1.00  0.00     0.008 C 
BRANCH  20  21
HETATM   21  C17 UNL     1     -13.525  -4.146   5.855  1.00  0.00     0.028 C 
BRANCH  21  22
HETATM   22  C18 UNL     1     -12.958  -5.141   4.880  1.00  0.00    -0.025 C 
HETATM   23  C19 UNL     1     -12.283  -4.884   3.742  1.00  0.00    -0.091 C 
HETATM   24  C20 UNL     1     -12.031  -3.507   3.185  1.00  0.00     0.042 C 
HETATM   25  C21 UNL     1     -11.730  -6.006   2.902  1.00  0.00     0.042 C 
ENDBRANCH  21  22
ENDBRANCH  20  21
ENDBRANCH  18  20
ENDBRANCH  12  18
BRANCH   9  26
HETATM   26  O3  UNL     1     -13.795  -2.523   9.711  1.00  0.00    -0.395 OA
HETATM   27  H14 UNL     1     -13.016  -1.956   9.866  1.00  0.00     0.210 HD
ENDBRANCH   9  26
BRANCH  17  28
HETATM   28  C27 UNL     1     -15.111  -2.875  15.851  1.00  0.00     0.011 C 
BRANCH  28  29
HETATM   29  C28 UNL     1     -15.490  -4.360  15.958  1.00  0.00     0.027 C 
BRANCH  29  30
HETATM   30  C29 UNL     1     -16.331  -4.646  17.200  1.00  0.00     0.164 C 
BRANCH  30  31
HETATM   31  O4  UNL     1     -15.607  -5.459  18.116  1.00  0.00    -0.401 OA
HETATM   32  H48 UNL     1     -16.161  -5.541  18.914  1.00  0.00     0.209 HD
ENDBRANCH  30  31
ENDBRANCH  29  30
ENDBRANCH  28  29
ENDBRANCH  17  28
BRANCH   1  33
HETATM   33  C2  UNL     1     -16.345  -0.061  13.898  1.00  0.00     0.160 C 
HETATM   34  C1  UNL     1     -16.834   0.787  15.038  1.00  0.00     0.094 C 
HETATM   35  O1  UNL     1     -15.936   0.438  12.850  1.00  0.00    -0.295 OA
ENDBRANCH   1  33
TORSDOF 10
ENDMDL
MODEL 6
REMARK minimizedAffinity -5.62383986
REMARK CNNscore 0.238745913
REMARK CNNaffinity 5.42823792
REMARK  10 active torsions:
REMARK  status: ('A' for Active; 'I' for Inactive)
REMARK    1  A    between atoms: C2_2  and  C3_4 
REMARK    2  A    between atoms: C10_12  and  O3_13 
REMARK    3  A    between atoms: C13_16  and  C14_17 
REMARK    4  A    between atoms: C14_17  and  C16_19 
REMARK    5  A    between atoms: C16_19  and  C17_20 
REMARK    6  A    between atoms: C17_20  and  C18_21 
REMARK    7  A    between atoms: C26_29  and  C27_30 
REMARK    8  A    between atoms: C27_30  and  C28_31 
REMARK    9  A    between atoms: C28_31  and  C29_32 
REMARK   10  A    between atoms: C29_32  and  O4_33 
ROOT
HETATM    1  C3  UNL     1     -15.030  -2.964  14.498  1.00  0.00     0.151 A 
HETATM    2  O2  UNL     1     -14.654  -2.933  15.903  1.00  0.00    -0.360 OA
HETATM    3  C4  UNL     1     -15.012  -1.693  15.316  1.00  0.00     0.166 A 
HETATM    4  C5  UNL     1     -16.305  -1.147  15.816  1.00  0.00     0.041 C 
HETATM    5  C6  UNL     1     -17.398  -1.114  14.733  1.00  0.00     0.006 C 
HETATM    6  C7  UNL     1     -17.518  -2.472  13.886  1.00  0.00    -0.030 C 
HETATM    7  C8  UNL     1     -18.920  -3.117  14.089  1.00  0.00     0.016 C 
HETATM    8  C9  UNL     1     -17.426  -2.183  12.355  1.00  0.00     0.042 C 
HETATM    9  C10 UNL     1     -18.220  -0.976  11.781  1.00  0.00     0.128 C 
HETATM   10  C11 UNL     1     -18.493   0.190  12.775  1.00  0.00    -0.006 C 
HETATM   11  C12 UNL     1     -19.925   0.036  13.391  1.00  0.00     0.019 C 
HETATM   12  C13 UNL     1     -18.415   1.666  12.228  1.00  0.00     0.001 C 
HETATM   13  C22 UNL     1     -18.138   2.488  13.527  1.00  0.00     0.007 C 
HETATM   14  C23 UNL     1     -17.690   1.496  14.619  1.00  0.00     0.011 C 
HETATM   15  C24 UNL     1     -17.350   0.200  13.859  1.00  0.00    -0.029 C 
HETATM   16  C25 UNL     1     -15.920   0.441  13.274  1.00  0.00     0.016 C 
HETATM   17  C26 UNL     1     -16.408  -3.591  14.250  1.00  0.00     0.039 C 
ENDROOT
BRANCH  12  18
HETATM   18  C14 UNL     1     -19.591   2.272  11.394  1.00  0.00    -0.013 C 
HETATM   19  C15 UNL     1     -20.655   2.910  12.296  1.00  0.00     0.010 C 
BRANCH  18  20
HETATM   20  C16 UNL     1     -20.219   1.172  10.494  1.00  0.00     0.008 C 
BRANCH  20  21
HETATM   21  C17 UNL     1     -21.368   1.603   9.568  1.00  0.00     0.028 C 
BRANCH  21  22
HETATM   22  C18 UNL     1     -20.985   1.685   8.116  1.00  0.00    -0.025 C 
HETATM   23  C19 UNL     1     -21.805   1.660   7.047  1.00  0.00    -0.091 C 
HETATM   24  C20 UNL     1     -23.298   1.464   7.113  1.00  0.00     0.042 C 
HETATM   25  C21 UNL     1     -21.259   1.811   5.651  1.00  0.00     0.042 C 
ENDBRANCH  21  22
ENDBRANCH  20  21
ENDBRANCH  18  20
ENDBRANCH  12  18
BRANCH   9  26
HETATM   26  O3  UNL     1     -17.478  -0.504  10.653  1.00  0.00    -0.395 OA
HETATM   27  H14 UNL     1     -17.469  -1.215   9.984  1.00  0.00     0.210 HD
ENDBRANCH   9  26
BRANCH  17  28
HETATM   28  C27 UNL     1     -16.803  -4.572  15.400  1.00  0.00     0.011 C 
BRANCH  28  29
HETATM   29  C28 UNL     1     -17.791  -3.967  16.410  1.00  0.00     0.027 C 
BRANCH  29  30
HETATM   30  C29 UNL     1     -17.431  -4.330  17.849  1.00  0.00     0.164 C 
BRANCH  30  31
HETATM   31  O4  UNL     1     -16.208  -3.713  18.228  1.00  0.00    -0.401 OA
HETATM   32  H48 UNL     1     -16.074  -3.916  19.172  1.00  0.00     0.209 HD
ENDBRANCH  30  31
ENDBRANCH  29  30
ENDBRANCH  28  29
ENDBRANCH  17  28
BRANCH   1  33
HETATM   33  C2  UNL     1     -13.861  -3.346  13.641  1.00  0.00     0.160 C 
HETATM   34  C1  UNL     1     -12.785  -4.175  14.282  1.00  0.00     0.094 C 
HETATM   35  O1  UNL     1     -13.782  -2.978  12.469  1.00  0.00    -0.295 OA
ENDBRANCH   1  33
TORSDOF 10
ENDMDL
MODEL 7
REMARK minimizedAffinity -6.56629801
REMARK CNNscore 0.234390497
REMARK CNNaffinity 6.19733
REMARK  10 active torsions:
REMARK  status: ('A' for Active; 'I' for Inactive)
REMARK    1  A    between atoms: C2_2  and  C3_4 
REMARK    2  A    between atoms: C10_12  and  O3_13 
REMARK    3  A    between atoms: C13_16  and  C14_17 
REMARK    4  A    between atoms: C14_17  and  C16_19 
REMARK    5  A    between atoms: C16_19  and  C17_20 
REMARK    6  A    between atoms: C17_20  and  C18_21 
REMARK    7  A    between atoms: C26_29  and  C27_30 
REMARK    8  A    between atoms: C27_30  and  C28_31 
REMARK    9  A    between atoms: C28_31  and  C29_32 
REMARK   10  A    between atoms: C29_32  and  O4_33 
ROOT
HETATM    1  C3  UNL     1      -0.224   6.224  12.843  1.00  0.00     0.151 A 
HETATM    2  O2  UNL     1      -0.049   4.901  13.425  1.00  0.00    -0.360 OA
HETATM    3  C4  UNL     1      -0.077   5.993  14.329  1.00  0.00     0.166 A 
HETATM    4  C5  UNL     1      -1.298   6.030  15.181  1.00  0.00     0.041 C 
HETATM    5  C6  UNL     1      -2.202   7.238  14.877  1.00  0.00     0.006 C 
HETATM    6  C7  UNL     1      -2.460   7.482  13.311  1.00  0.00    -0.030 C 
HETATM    7  C8  UNL     1      -3.973   7.335  12.982  1.00  0.00     0.016 C 
HETATM    8  C9  UNL     1      -2.100   8.947  12.909  1.00  0.00     0.042 C 
HETATM    9  C10 UNL     1      -2.560  10.103  13.841  1.00  0.00     0.128 C 
HETATM   10  C11 UNL     1      -2.742   9.734  15.342  1.00  0.00    -0.006 C 
HETATM   11  C12 UNL     1      -4.249   9.419  15.631  1.00  0.00     0.019 C 
HETATM   12  C13 UNL     1      -2.306  10.792  16.426  1.00  0.00     0.001 C 
HETATM   13  C22 UNL     1      -2.062   9.899  17.684  1.00  0.00     0.007 C 
HETATM   14  C23 UNL     1      -1.970   8.436  17.205  1.00  0.00     0.011 C 
HETATM   15  C24 UNL     1      -1.781   8.532  15.680  1.00  0.00    -0.029 C 
HETATM   16  C25 UNL     1      -0.263   8.854  15.482  1.00  0.00     0.016 C 
HETATM   17  C26 UNL     1      -1.647   6.482  12.334  1.00  0.00     0.039 C 
ENDROOT
BRANCH  12  18
HETATM   18  C14 UNL     1      -3.215  12.022  16.751  1.00  0.00    -0.013 C 
HETATM   19  C15 UNL     1      -2.476  13.348  16.531  1.00  0.00     0.010 C 
BRANCH  18  20
HETATM   20  C16 UNL     1      -3.737  11.919  18.212  1.00  0.00     0.008 C 
BRANCH  20  21
HETATM   21  C17 UNL     1      -3.822  13.227  19.014  1.00  0.00     0.028 C 
BRANCH  21  22
HETATM   22  C18 UNL     1      -4.952  13.264  20.006  1.00  0.00    -0.025 C 
HETATM   23  C19 UNL     1      -6.230  13.631  19.783  1.00  0.00    -0.091 C 
HETATM   24  C20 UNL     1      -6.756  14.161  18.475  1.00  0.00     0.042 C 
HETATM   25  C21 UNL     1      -7.257  13.555  20.882  1.00  0.00     0.042 C 
ENDBRANCH  21  22
ENDBRANCH  20  21
ENDBRANCH  18  20
ENDBRANCH  12  18
BRANCH   9  26
HETATM   26  O3  UNL     1      -1.590  11.146  13.699  1.00  0.00    -0.395 OA
HETATM   27  H14 UNL     1      -1.624  11.460  12.776  1.00  0.00     0.210 HD
ENDBRANCH   9  26
BRANCH  17  28
HETATM   28  C27 UNL     1      -2.380   5.146  11.987  1.00  0.00     0.011 C 
BRANCH  28  29
HETATM   29  C28 UNL     1      -3.404   4.716  13.050  1.00  0.00     0.027 C 
BRANCH  29  30
HETATM   30  C29 UNL     1      -4.452   3.764  12.480  1.00  0.00     0.164 C 
BRANCH  30  31
HETATM   31  O4  UNL     1      -5.693   3.926  13.155  1.00  0.00    -0.401 OA
HETATM   32  H48 UNL     1      -6.336   3.353  12.700  1.00  0.00     0.209 HD
ENDBRANCH  30  31
ENDBRANCH  29  30
ENDBRANCH  28  29
ENDBRANCH  17  28
BRANCH   1  33
HETATM   33  C2  UNL     1       0.960   6.596  12.000  1.00  0.00     0.160 C 
HETATM   34  C1  UNL     1       0.785   6.531  10.509  1.00  0.00     0.094 C 
HETATM   35  O1  UNL     1       2.030   6.922  12.512  1.00  0.00    -0.295 OA
ENDBRANCH   1  33
TORSDOF 10
ENDMDL
MODEL 8
REMARK minimizedAffinity -6.83882332
REMARK CNNscore 0.230319336
REMARK CNNaffinity 6.40333128
REMARK  10 active torsions:
REMARK  status: ('A' for Active; 'I' for Inactive)
REMARK    1  A    between atoms: C2_2  and  C3_4 
REMARK    2  A    between atoms: C10_12  and  O3_13 
REMARK    3  A    between atoms: C13_16  and  C14_17 
REMARK    4  A    between atoms: C14_17  and  C16_19 
REMARK    5  A    between atoms: C16_19  and  C17_20 
REMARK    6  A    between atoms: C17_20  and  C18_21 
REMARK    7  A    between atoms: C26_29  and  C27_30 
REMARK    8  A    between atoms: C27_30  and  C28_31 
REMARK    9  A    between atoms: C28_31  and  C29_32 
REMARK   10  A    between atoms: C29_32  and  O4_33 
ROOT
HETATM    1  C3  UNL     1       0.585   6.544  11.467  1.00  0.00     0.151 A 
HETATM    2  O2  UNL     1       1.519   5.447  11.668  1.00  0.00    -0.360 OA
HETATM    3  C4  UNL     1       1.690   6.583  12.498  1.00  0.00     0.166 A 
HETATM    4  C5  UNL     1       1.343   6.335  13.926  1.00  0.00     0.041 C 
HETATM    5  C6  UNL     1       0.104   7.126  14.385  1.00  0.00     0.006 C 
HETATM    6  C7  UNL     1      -1.132   7.051  13.364  1.00  0.00    -0.030 C 
HETATM    7  C8  UNL     1      -2.357   6.371  14.043  1.00  0.00     0.016 C 
HETATM    8  C9  UNL     1      -1.627   8.482  12.983  1.00  0.00     0.042 C 
HETATM    9  C10 UNL     1      -1.767   9.541  14.112  1.00  0.00     0.128 C 
HETATM   10  C11 UNL     1      -0.838   9.345  15.346  1.00  0.00    -0.006 C 
HETATM   11  C12 UNL     1      -1.616   8.596  16.481  1.00  0.00     0.019 C 
HETATM   12  C13 UNL     1      -0.218  10.627  16.020  1.00  0.00     0.001 C 
HETATM   13  C22 UNL     1       1.038  10.048  16.744  1.00  0.00     0.007 C 
HETATM   14  C23 UNL     1       1.305   8.645  16.163  1.00  0.00     0.011 C 
HETATM   15  C24 UNL     1       0.460   8.584  14.877  1.00  0.00    -0.029 C 
HETATM   16  C25 UNL     1       1.299   9.355  13.807  1.00  0.00     0.016 C 
HETATM   17  C26 UNL     1      -0.825   6.248  11.995  1.00  0.00     0.039 C 
ENDROOT
BRANCH  12  18
HETATM   18  C14 UNL     1      -1.078  11.524  16.972  1.00  0.00    -0.013 C 
HETATM   19  C15 UNL     1      -0.588  11.442  18.423  1.00  0.00     0.010 C 
BRANCH  18  20
HETATM   20  C16 UNL     1      -2.574  11.113  16.872  1.00  0.00     0.008 C 
BRANCH  20  21
HETATM   21  C17 UNL     1      -3.615  12.222  17.092  1.00  0.00     0.028 C 
BRANCH  21  22
HETATM   22  C18 UNL     1      -4.031  12.393  18.527  1.00  0.00    -0.025 C 
HETATM   23  C19 UNL     1      -4.957  13.240  19.019  1.00  0.00    -0.091 C 
HETATM   24  C20 UNL     1      -5.713  14.255  18.203  1.00  0.00     0.042 C 
HETATM   25  C21 UNL     1      -5.296  13.245  20.488  1.00  0.00     0.042 C 
ENDBRANCH  21  22
ENDBRANCH  20  21
ENDBRANCH  18  20
ENDBRANCH  12  18
BRANCH   9  26
HETATM   26  O3  UNL     1      -1.525  10.814  13.504  1.00  0.00    -0.395 OA
HETATM   27  H14 UNL     1      -2.229  10.968  12.846  1.00  0.00     0.210 HD
ENDBRANCH   9  26
BRANCH  17  28
HETATM   28  C27 UNL     1      -1.102   4.711  12.046  1.00  0.00     0.011 C 
BRANCH  28  29
HETATM   29  C28 UNL     1      -1.939   4.200  10.863  1.00  0.00     0.027 C 
BRANCH  29  30
HETATM   30  C29 UNL     1      -3.355   3.817  11.288  1.00  0.00     0.164 C 
BRANCH  30  31
HETATM   31  O4  UNL     1      -3.684   2.518  10.812  1.00  0.00    -0.401 OA
HETATM   32  H48 UNL     1      -4.560   2.300  11.177  1.00  0.00     0.209 HD
ENDBRANCH  30  31
ENDBRANCH  29  30
ENDBRANCH  28  29
ENDBRANCH  17  28
BRANCH   1  33
HETATM   33  C2  UNL     1       0.771   7.164  10.114  1.00  0.00     0.160 C 
HETATM   34  C1  UNL     1       1.788   6.531   9.208  1.00  0.00     0.094 C 
HETATM   35  O1  UNL     1       0.130   8.157   9.774  1.00  0.00    -0.295 OA
ENDBRANCH   1  33
TORSDOF 10
ENDMDL
MODEL 9
REMARK minimizedAffinity -6.12640953
REMARK CNNscore 0.229332075
REMARK CNNaffinity 5.96840286
REMARK  10 active torsions:
REMARK  status: ('A' for Active; 'I' for Inactive)
REMARK    1  A    between atoms: C2_2  and  C3_4 
REMARK    2  A    between atoms: C10_12  and  O3_13 
REMARK    3  A    between atoms: C13_16  and  C14_17 
REMARK    4  A    between atoms: C14_17  and  C16_19 
REMARK    5  A    between atoms: C16_19  and  C17_20 
REMARK    6  A    between atoms: C17_20  and  C18_21 
REMARK    7  A    between atoms: C26_29  and  C27_30 
REMARK    8  A    between atoms: C27_30  and  C28_31 
REMARK    9  A    between atoms: C28_31  and  C29_32 
REMARK   10  A    between atoms: C29_32  and  O4_33 
ROOT
HETATM    1  C3  UNL     1      -2.154  13.443  18.528  1.00  0.00     0.151 A 
HETATM    2  O2  UNL     1      -0.889  13.575  19.236  1.00  0.00    -0.360 OA
HETATM    3  C4  UNL     1      -1.268  12.263  18.853  1.00  0.00     0.166 A 
HETATM    4  C5  UNL     1      -0.418  11.688  17.773  1.00  0.00     0.041 C 
HETATM    5  C6  UNL     1      -1.188  11.479  16.456  1.00  0.00     0.006 C 
HETATM    6  C7  UNL     1      -2.084  12.738  16.018  1.00  0.00    -0.030 C 
HETATM    7  C8  UNL     1      -1.589  13.309  14.658  1.00  0.00     0.016 C 
HETATM    8  C9  UNL     1      -3.561  12.305  15.759  1.00  0.00     0.042 C 
HETATM    9  C10 UNL     1      -3.821  11.000  14.956  1.00  0.00     0.128 C 
HETATM   10  C11 UNL     1      -2.699   9.922  15.033  1.00  0.00    -0.006 C 
HETATM   11  C12 UNL     1      -1.760  10.045  13.786  1.00  0.00     0.019 C 
HETATM   12  C13 UNL     1      -3.129   8.407  15.103  1.00  0.00     0.001 C 
HETATM   13  C22 UNL     1      -1.880   7.737  15.756  1.00  0.00     0.007 C 
HETATM   14  C23 UNL     1      -1.017   8.858  16.370  1.00  0.00     0.011 C 
HETATM   15  C24 UNL     1      -1.939  10.091  16.403  1.00  0.00    -0.029 C 
HETATM   16  C25 UNL     1      -2.841   9.885  17.663  1.00  0.00     0.016 C 
HETATM   17  C26 UNL     1      -2.099  13.954  17.083  1.00  0.00     0.039 C 
ENDROOT
BRANCH  12  18
HETATM   18  C14 UNL     1      -3.592   7.649  13.815  1.00  0.00    -0.013 C 
HETATM   19  C15 UNL     1      -4.859   8.271  13.216  1.00  0.00     0.010 C 
BRANCH  18  20
HETATM   20  C16 UNL     1      -3.819   6.146  14.143  1.00  0.00     0.008 C 
BRANCH  20  21
HETATM   21  C17 UNL     1      -4.308   5.250  12.994  1.00  0.00     0.028 C 
BRANCH  21  22
HETATM   22  C18 UNL     1      -5.610   4.552  13.275  1.00  0.00    -0.025 C 
HETATM   23  C19 UNL     1      -6.182   3.561  12.562  1.00  0.00    -0.091 C 
HETATM   24  C20 UNL     1      -5.639   3.008  11.270  1.00  0.00     0.042 C 
HETATM   25  C21 UNL     1      -7.471   2.928  13.017  1.00  0.00     0.042 C 
ENDBRANCH  21  22
ENDBRANCH  20  21
ENDBRANCH  18  20
ENDBRANCH  12  18
BRANCH   9  26
HETATM   26  O3  UNL     1      -5.057  10.467  15.439  1.00  0.00    -0.395 OA
HETATM   27  H14 UNL     1      -5.761  11.107  15.224  1.00  0.00     0.210 HD
ENDBRANCH   9  26
BRANCH  17  28
HETATM   28  C27 UNL     1      -0.968  15.017  16.897  1.00  0.00     0.011 C 
BRANCH  28  29
HETATM   29  C28 UNL     1       0.369  14.415  16.441  1.00  0.00     0.027 C 
BRANCH  29  30
HETATM   30  C29 UNL     1       1.559  15.078  17.131  1.00  0.00     0.164 C 
BRANCH  30  31
HETATM   31  O4  UNL     1       2.023  14.273  18.208  1.00  0.00    -0.401 OA
HETATM   32  H48 UNL     1       2.824  14.706  18.555  1.00  0.00     0.209 HD
ENDBRANCH  30  31
ENDBRANCH  29  30
ENDBRANCH  28  29
ENDBRANCH  17  28
BRANCH   1  33
HETATM   33  C2  UNL     1      -3.304  13.812  19.417  1.00  0.00     0.160 C 
HETATM   34  C1  UNL     1      -4.567  13.013  19.267  1.00  0.00     0.094 C 
HETATM   35  O1  UNL     1      -3.218  14.741  20.219  1.00  0.00    -0.295 OA
ENDBRANCH   1  33
TORSDOF 10
ENDMDL
