MODEL 1
REMARK minimizedAffinity -7.44077921
REMARK CNNscore 0.809770584
REMARK CNNaffinity 7.37516832
REMARK  6 active torsions:
REMARK  status: ('A' for Active; 'I' for Inactive)
REMARK    1  A    between atoms: C2_2  and  C30_31 
REMARK    2  A    between atoms: C3_3  and  C4_4 
REMARK    3  A    between atoms: C4_4  and  C5_5 
REMARK    4  A    between atoms: C5_5  and  C6_6 
REMARK    5  A    between atoms: C6_6  and  C8_8 
REMARK    6  A    between atoms: C30_31  and  O3_33 
ROOT
HETATM    1  C8  UNL     1      -1.916  52.128 -11.364  1.00  0.00    -0.002 C 
HETATM    2  C9  UNL     1      -1.263  50.740 -11.605  1.00  0.00     0.007 C 
HETATM    3  C10 UNL     1       0.257  50.910 -11.366  1.00  0.00     0.015 C 
HETATM    4  C11 UNL     1       0.480  52.434 -11.244  1.00  0.00    -0.013 C 
HETATM    5  C12 UNL     1       0.632  52.973 -12.701  1.00  0.00     0.021 C 
HETATM    6  C13 UNL     1       1.703  52.938 -10.486  1.00  0.00    -0.070 C 
HETATM    7  C14 UNL     1       2.871  52.270 -10.476  1.00  0.00    -0.022 C 
HETATM    8  C15 UNL     1       4.129  52.763  -9.823  1.00  0.00     0.034 C 
HETATM    9  C16 UNL     1       3.936  54.028  -8.955  1.00  0.00     0.013 C 
HETATM   10  C17 UNL     1       5.271  54.599  -8.362  1.00  0.00     0.018 C 
HETATM   11  C18 UNL     1       5.847  53.580  -7.343  1.00  0.00     0.023 C 
HETATM   12  C19 UNL     1       6.386  54.891  -9.379  1.00  0.00     0.023 C 
HETATM   13  C20 UNL     1       4.970  55.906  -7.612  1.00  0.00     0.135 C 
HETATM   14  O1  UNL     1       5.465  56.172  -6.516  1.00  0.00    -0.297 OA
HETATM   15  C21 UNL     1       4.099  56.920  -8.315  1.00  0.00     0.080 C 
HETATM   16  C22 UNL     1       2.781  56.282  -8.721  1.00  0.00     0.017 C 
HETATM   17  C23 UNL     1       2.950  55.047  -9.644  1.00  0.00    -0.031 C 
HETATM   18  C24 UNL     1       3.423  55.515 -11.041  1.00  0.00     0.016 C 
HETATM   19  C25 UNL     1       1.561  54.288  -9.770  1.00  0.00     0.024 C 
HETATM   20  C26 UNL     1       0.385  55.146 -10.299  1.00  0.00     0.010 C 
HETATM   21  C27 UNL     1      -0.956  54.401 -10.509  1.00  0.00     0.011 C 
HETATM   22  C28 UNL     1      -0.834  52.865 -10.509  1.00  0.00    -0.029 C 
HETATM   23  C29 UNL     1      -0.921  52.357  -9.036  1.00  0.00     0.016 C 
ENDROOT
BRANCH   1  24
HETATM   24  C6  UNL     1      -3.385  52.169 -10.846  1.00  0.00    -0.014 C 
HETATM   25  C7  UNL     1      -3.937  53.550 -10.479  1.00  0.00     0.010 C 
BRANCH  24  26
HETATM   26  C5  UNL     1      -3.601  51.176  -9.672  1.00  0.00     0.008 C 
BRANCH  26  27
HETATM   27  C4  UNL     1      -4.255  49.846 -10.053  1.00  0.00     0.028 C 
BRANCH  27  28
HETATM   28  C3  UNL     1      -5.710  50.026 -10.396  1.00  0.00    -0.013 C 
HETATM   29  C2  UNL     1      -6.754  49.287  -9.964  1.00  0.00     0.008 C 
HETATM   30  C1  UNL     1      -8.172  49.617 -10.330  1.00  0.00     0.055 C 
BRANCH  29  31
HETATM   31  C30 UNL     1      -6.561  48.077  -9.133  1.00  0.00     0.171 C 
HETATM   32  O2  UNL     1      -6.256  46.962  -9.514  1.00  0.00    -0.646 OA
BRANCH  31  33
HETATM   33  O3  UNL     1      -6.782  48.338  -7.833  1.00  0.00    -0.773 OA
HETATM   34  H46 UNL     1      -6.603  47.480  -7.395  1.00  0.00     0.167 HD
ENDBRANCH  31  33
ENDBRANCH  29  31
ENDBRANCH  27  28
ENDBRANCH  26  27
ENDBRANCH  24  26
ENDBRANCH   1  24
TORSDOF 6
ENDMDL
MODEL 2
REMARK minimizedAffinity -6.91919565
REMARK CNNscore 0.794691861
REMARK CNNaffinity 7.16393661
REMARK  6 active torsions:
REMARK  status: ('A' for Active; 'I' for Inactive)
REMARK    1  A    between atoms: C2_2  and  C30_31 
REMARK    2  A    between atoms: C3_3  and  C4_4 
REMARK    3  A    between atoms: C4_4  and  C5_5 
REMARK    4  A    between atoms: C5_5  and  C6_6 
REMARK    5  A    between atoms: C6_6  and  C8_8 
REMARK    6  A    between atoms: C30_31  and  O3_33 
ROOT
HETATM    1  C8  UNL     1       2.677  55.679  -8.430  1.00  0.00    -0.002 C 
HETATM    2  C9  UNL     1       2.532  55.221  -6.954  1.00  0.00     0.007 C 
HETATM    3  C10 UNL     1       1.272  54.323  -6.883  1.00  0.00     0.015 C 
HETATM    4  C11 UNL     1       0.580  54.489  -8.254  1.00  0.00    -0.013 C 
HETATM    5  C12 UNL     1      -0.307  55.769  -8.145  1.00  0.00     0.021 C 
HETATM    6  C13 UNL     1      -0.349  53.383  -8.745  1.00  0.00    -0.070 C 
HETATM    7  C14 UNL     1      -1.093  52.641  -7.905  1.00  0.00    -0.022 C 
HETATM    8  C15 UNL     1      -2.088  51.604  -8.339  1.00  0.00     0.034 C 
HETATM    9  C16 UNL     1      -2.046  51.282  -9.851  1.00  0.00     0.013 C 
HETATM   10  C17 UNL     1      -3.157  50.277 -10.315  1.00  0.00     0.018 C 
HETATM   11  C18 UNL     1      -2.884  48.892  -9.672  1.00  0.00     0.023 C 
HETATM   12  C19 UNL     1      -4.602  50.659  -9.954  1.00  0.00     0.023 C 
HETATM   13  C20 UNL     1      -3.084  50.117 -11.842  1.00  0.00     0.135 C 
HETATM   14  O1  UNL     1      -3.178  49.023 -12.400  1.00  0.00    -0.297 OA
HETATM   15  C21 UNL     1      -2.983  51.381 -12.664  1.00  0.00     0.080 C 
HETATM   16  C22 UNL     1      -1.790  52.204 -12.207  1.00  0.00     0.017 C 
HETATM   17  C23 UNL     1      -1.843  52.591 -10.706  1.00  0.00    -0.031 C 
HETATM   18  C24 UNL     1      -2.954  53.647 -10.491  1.00  0.00     0.016 C 
HETATM   19  C25 UNL     1      -0.439  53.185 -10.264  1.00  0.00     0.024 C 
HETATM   20  C26 UNL     1       0.045  54.412 -11.076  1.00  0.00     0.010 C 
HETATM   21  C27 UNL     1       1.371  55.055 -10.604  1.00  0.00     0.011 C 
HETATM   22  C28 UNL     1       1.823  54.618  -9.198  1.00  0.00    -0.029 C 
HETATM   23  C29 UNL     1       2.649  53.300  -9.326  1.00  0.00     0.016 C 
ENDROOT
BRANCH   1  24
HETATM   24  C6  UNL     1       4.110  55.969  -8.972  1.00  0.00    -0.014 C 
HETATM   25  C7  UNL     1       4.298  55.852 -10.488  1.00  0.00     0.010 C 
BRANCH  24  26
HETATM   26  C5  UNL     1       5.179  55.121  -8.232  1.00  0.00     0.008 C 
BRANCH  26  27
HETATM   27  C4  UNL     1       6.396  55.900  -7.728  1.00  0.00     0.028 C 
BRANCH  27  28
HETATM   28  C3  UNL     1       6.028  56.833  -6.606  1.00  0.00    -0.013 C 
HETATM   29  C2  UNL     1       6.821  57.268  -5.603  1.00  0.00     0.008 C 
HETATM   30  C1  UNL     1       6.346  58.258  -4.581  1.00  0.00     0.055 C 
BRANCH  29  31
HETATM   31  C30 UNL     1       8.201  56.760  -5.427  1.00  0.00     0.171 C 
HETATM   32  O2  UNL     1       9.117  57.306  -4.842  1.00  0.00    -0.646 OA
BRANCH  31  33
HETATM   33  O3  UNL     1       8.362  55.568  -6.027  1.00  0.00    -0.773 OA
HETATM   34  H46 UNL     1       9.291  55.334  -5.822  1.00  0.00     0.167 HD
ENDBRANCH  31  33
ENDBRANCH  29  31
ENDBRANCH  27  28
ENDBRANCH  26  27
ENDBRANCH  24  26
ENDBRANCH   1  24
TORSDOF 6
ENDMDL
MODEL 3
REMARK minimizedAffinity -7.29835224
REMARK CNNscore 0.690435052
REMARK CNNaffinity 7.02380991
REMARK  6 active torsions:
REMARK  status: ('A' for Active; 'I' for Inactive)
REMARK    1  A    between atoms: C2_2  and  C30_31 
REMARK    2  A    between atoms: C3_3  and  C4_4 
REMARK    3  A    between atoms: C4_4  and  C5_5 
REMARK    4  A    between atoms: C5_5  and  C6_6 
REMARK    5  A    between atoms: C6_6  and  C8_8 
REMARK    6  A    between atoms: C30_31  and  O3_33 
ROOT
HETATM    1  C8  UNL     1       4.290  54.036  -8.697  1.00  0.00    -0.002 C 
HETATM    2  C9  UNL     1       4.890  52.756  -9.338  1.00  0.00     0.007 C 
HETATM    3  C10 UNL     1       3.702  51.927  -9.885  1.00  0.00     0.015 C 
HETATM    4  C11 UNL     1       2.437  52.617  -9.328  1.00  0.00    -0.013 C 
HETATM    5  C12 UNL     1       2.210  52.028  -7.900  1.00  0.00     0.021 C 
HETATM    6  C13 UNL     1       1.116  52.432 -10.066  1.00  0.00    -0.070 C 
HETATM    7  C14 UNL     1       0.808  51.298 -10.722  1.00  0.00    -0.022 C 
HETATM    8  C15 UNL     1      -0.510  51.029 -11.388  1.00  0.00     0.034 C 
HETATM    9  C16 UNL     1      -1.444  52.259 -11.458  1.00  0.00     0.013 C 
HETATM   10  C17 UNL     1      -2.859  51.946 -12.059  1.00  0.00     0.018 C 
HETATM   11  C18 UNL     1      -2.698  51.563 -13.554  1.00  0.00     0.023 C 
HETATM   12  C19 UNL     1      -3.635  50.802 -11.387  1.00  0.00     0.023 C 
HETATM   13  C20 UNL     1      -3.729  53.210 -11.981  1.00  0.00     0.135 C 
HETATM   14  O1  UNL     1      -4.450  53.578 -12.909  1.00  0.00    -0.297 OA
HETATM   15  C21 UNL     1      -3.744  53.957 -10.668  1.00  0.00     0.080 C 
HETATM   16  C22 UNL     1      -2.327  54.321 -10.260  1.00  0.00     0.017 C 
HETATM   17  C23 UNL     1      -1.388  53.094 -10.122  1.00  0.00    -0.031 C 
HETATM   18  C24 UNL     1      -1.791  52.281  -8.869  1.00  0.00     0.016 C 
HETATM   19  C25 UNL     1       0.113  53.592  -9.985  1.00  0.00     0.024 C 
HETATM   20  C26 UNL     1       0.384  54.558  -8.805  1.00  0.00     0.010 C 
HETATM   21  C27 UNL     1       1.858  54.985  -8.605  1.00  0.00     0.011 C 
HETATM   22  C28 UNL     1       2.879  54.119  -9.366  1.00  0.00    -0.029 C 
HETATM   23  C29 UNL     1       3.037  54.686 -10.812  1.00  0.00     0.016 C 
ENDROOT
BRANCH   1  24
HETATM   24  C6  UNL     1       5.155  55.332  -8.695  1.00  0.00    -0.014 C 
HETATM   25  C7  UNL     1       6.610  55.177  -9.148  1.00  0.00     0.010 C 
BRANCH  24  26
HETATM   26  C5  UNL     1       5.095  56.054  -7.321  1.00  0.00     0.008 C 
BRANCH  26  27
HETATM   27  C4  UNL     1       6.449  56.466  -6.741  1.00  0.00     0.028 C 
BRANCH  27  28
HETATM   28  C3  UNL     1       6.339  57.726  -5.924  1.00  0.00    -0.013 C 
HETATM   29  C2  UNL     1       7.300  58.307  -5.174  1.00  0.00     0.008 C 
HETATM   30  C1  UNL     1       7.078  59.607  -4.460  1.00  0.00     0.055 C 
BRANCH  29  31
HETATM   31  C30 UNL     1       8.624  57.673  -4.978  1.00  0.00     0.171 C 
HETATM   32  O2  UNL     1       8.852  56.498  -4.760  1.00  0.00    -0.646 OA
BRANCH  31  33
HETATM   33  O3  UNL     1       9.614  58.579  -5.054  1.00  0.00    -0.773 OA
HETATM   34  H46 UNL     1      10.424  58.041  -4.932  1.00  0.00     0.167 HD
ENDBRANCH  31  33
ENDBRANCH  29  31
ENDBRANCH  27  28
ENDBRANCH  26  27
ENDBRANCH  24  26
ENDBRANCH   1  24
TORSDOF 6
ENDMDL
MODEL 4
REMARK minimizedAffinity -7.59597158
REMARK CNNscore 0.645244002
REMARK CNNaffinity 6.21156454
REMARK  6 active torsions:
REMARK  status: ('A' for Active; 'I' for Inactive)
REMARK    1  A    between atoms: C2_2  and  C30_31 
REMARK    2  A    between atoms: C3_3  and  C4_4 
REMARK    3  A    between atoms: C4_4  and  C5_5 
REMARK    4  A    between atoms: C5_5  and  C6_6 
REMARK    5  A    between atoms: C6_6  and  C8_8 
REMARK    6  A    between atoms: C30_31  and  O3_33 
ROOT
HETATM    1  C8  UNL     1     -13.058  46.860 -26.813  1.00  0.00    -0.002 C 
HETATM    2  C9  UNL     1     -13.856  46.029 -27.854  1.00  0.00     0.007 C 
HETATM    3  C10 UNL     1     -13.015  46.007 -29.153  1.00  0.00     0.015 C 
HETATM    4  C11 UNL     1     -11.880  47.029 -28.919  1.00  0.00    -0.013 C 
HETATM    5  C12 UNL     1     -12.463  48.426 -29.301  1.00  0.00     0.021 C 
HETATM    6  C13 UNL     1     -10.589  46.887 -29.717  1.00  0.00    -0.070 C 
HETATM    7  C14 UNL     1     -10.568  46.410 -30.975  1.00  0.00    -0.022 C 
HETATM    8  C15 UNL     1      -9.340  46.333 -31.836  1.00  0.00     0.034 C 
HETATM    9  C16 UNL     1      -8.024  46.647 -31.088  1.00  0.00     0.013 C 
HETATM   10  C17 UNL     1      -6.759  46.669 -32.016  1.00  0.00     0.018 C 
HETATM   11  C18 UNL     1      -6.503  45.236 -32.553  1.00  0.00     0.023 C 
HETATM   12  C19 UNL     1      -6.839  47.596 -33.240  1.00  0.00     0.023 C 
HETATM   13  C20 UNL     1      -5.536  47.094 -31.188  1.00  0.00     0.135 C 
HETATM   14  O1  UNL     1      -4.442  46.537 -31.286  1.00  0.00    -0.297 OA
HETATM   15  C21 UNL     1      -5.693  48.302 -30.295  1.00  0.00     0.080 C 
HETATM   16  C22 UNL     1      -6.868  48.103 -29.353  1.00  0.00     0.017 C 
HETATM   17  C23 UNL     1      -8.212  47.848 -30.084  1.00  0.00    -0.031 C 
HETATM   18  C24 UNL     1      -8.678  49.156 -30.767  1.00  0.00     0.016 C 
HETATM   19  C25 UNL     1      -9.302  47.368 -29.034  1.00  0.00     0.024 C 
HETATM   20  C26 UNL     1      -9.555  48.340 -27.854  1.00  0.00     0.010 C 
HETATM   21  C27 UNL     1     -10.675  47.927 -26.868  1.00  0.00     0.011 C 
HETATM   22  C28 UNL     1     -11.605  46.817 -27.392  1.00  0.00    -0.029 C 
HETATM   23  C29 UNL     1     -10.968  45.432 -27.058  1.00  0.00     0.016 C 
ENDROOT
BRANCH   1  24
HETATM   24  C6  UNL     1     -13.235  46.513 -25.304  1.00  0.00    -0.014 C 
HETATM   25  C7  UNL     1     -12.305  45.433 -24.742  1.00  0.00     0.010 C 
BRANCH  24  26
HETATM   26  C5  UNL     1     -14.713  46.176 -24.969  1.00  0.00     0.008 C 
BRANCH  26  27
HETATM   27  C4  UNL     1     -15.482  47.274 -24.231  1.00  0.00     0.028 C 
BRANCH  27  28
HETATM   28  C3  UNL     1     -16.423  46.696 -23.207  1.00  0.00    -0.013 C 
HETATM   29  C2  UNL     1     -17.727  46.389 -23.370  1.00  0.00     0.008 C 
HETATM   30  C1  UNL     1     -18.538  45.750 -22.282  1.00  0.00     0.055 C 
BRANCH  29  31
HETATM   31  C30 UNL     1     -18.450  46.701 -24.624  1.00  0.00     0.171 C 
HETATM   32  O2  UNL     1     -19.080  47.711 -24.879  1.00  0.00    -0.646 OA
BRANCH  31  33
HETATM   33  O3  UNL     1     -18.353  45.693 -25.508  1.00  0.00    -0.773 OA
HETATM   34  H46 UNL     1     -18.843  46.025 -26.288  1.00  0.00     0.167 HD
ENDBRANCH  31  33
ENDBRANCH  29  31
ENDBRANCH  27  28
ENDBRANCH  26  27
ENDBRANCH  24  26
ENDBRANCH   1  24
TORSDOF 6
ENDMDL
MODEL 5
REMARK minimizedAffinity -6.80838108
REMARK CNNscore 0.528830826
REMARK CNNaffinity 6.98180008
REMARK  6 active torsions:
REMARK  status: ('A' for Active; 'I' for Inactive)
REMARK    1  A    between atoms: C2_2  and  C30_31 
REMARK    2  A    between atoms: C3_3  and  C4_4 
REMARK    3  A    between atoms: C4_4  and  C5_5 
REMARK    4  A    between atoms: C5_5  and  C6_6 
REMARK    5  A    between atoms: C6_6  and  C8_8 
REMARK    6  A    between atoms: C30_31  and  O3_33 
ROOT
HETATM    1  C8  UNL     1      -2.017  51.993 -11.119  1.00  0.00    -0.002 C 
HETATM    2  C9  UNL     1      -2.916  53.257 -11.184  1.00  0.00     0.007 C 
HETATM    3  C10 UNL     1      -2.265  54.319 -10.264  1.00  0.00     0.015 C 
HETATM    4  C11 UNL     1      -1.157  53.565  -9.496  1.00  0.00    -0.013 C 
HETATM    5  C12 UNL     1      -1.850  52.901  -8.265  1.00  0.00     0.021 C 
HETATM    6  C13 UNL     1       0.015  54.361  -8.931  1.00  0.00    -0.070 C 
HETATM    7  C14 UNL     1      -0.120  55.624  -8.485  1.00  0.00    -0.022 C 
HETATM    8  C15 UNL     1       0.977  56.420  -7.839  1.00  0.00     0.034 C 
HETATM    9  C16 UNL     1       2.370  55.752  -7.912  1.00  0.00     0.013 C 
HETATM   10  C17 UNL     1       3.489  56.537  -7.144  1.00  0.00     0.018 C 
HETATM   11  C18 UNL     1       3.732  57.895  -7.855  1.00  0.00     0.023 C 
HETATM   12  C19 UNL     1       3.195  56.854  -5.668  1.00  0.00     0.023 C 
HETATM   13  C20 UNL     1       4.796  55.730  -7.197  1.00  0.00     0.135 C 
HETATM   14  O1  UNL     1       5.889  56.252  -7.419  1.00  0.00    -0.297 OA
HETATM   15  C21 UNL     1       4.711  54.258  -6.871  1.00  0.00     0.080 C 
HETATM   16  C22 UNL     1       3.690  53.584  -7.773  1.00  0.00     0.017 C 
HETATM   17  C23 UNL     1       2.270  54.198  -7.668  1.00  0.00    -0.031 C 
HETATM   18  C24 UNL     1       1.654  53.827  -6.298  1.00  0.00     0.016 C 
HETATM   19  C25 UNL     1       1.362  53.632  -8.841  1.00  0.00     0.024 C 
HETATM   20  C26 UNL     1       1.233  52.089  -8.890  1.00  0.00     0.010 C 
HETATM   21  C27 UNL     1       0.283  51.525  -9.975  1.00  0.00     0.011 C 
HETATM   22  C28 UNL     1      -0.660  52.570 -10.599  1.00  0.00    -0.029 C 
HETATM   23  C29 UNL     1       0.080  53.268 -11.782  1.00  0.00     0.016 C 
ENDROOT
BRANCH   1  24
HETATM   24  C6  UNL     1      -1.964  51.063 -12.369  1.00  0.00    -0.014 C 
HETATM   25  C7  UNL     1      -1.231  49.730 -12.193  1.00  0.00     0.010 C 
BRANCH  24  26
HETATM   26  C5  UNL     1      -1.419  51.816 -13.613  1.00  0.00     0.008 C 
BRANCH  26  27
HETATM   27  C4  UNL     1      -0.669  50.947 -14.625  1.00  0.00     0.028 C 
BRANCH  27  28
HETATM   28  C3  UNL     1       0.659  51.551 -14.994  1.00  0.00    -0.013 C 
HETATM   29  C2  UNL     1       1.146  51.773 -16.234  1.00  0.00     0.008 C 
HETATM   30  C1  UNL     1       2.464  52.451 -16.465  1.00  0.00     0.055 C 
BRANCH  29  31
HETATM   31  C30 UNL     1       0.423  51.323 -17.445  1.00  0.00     0.171 C 
HETATM   32  O2  UNL     1       0.148  50.178 -17.756  1.00  0.00    -0.646 OA
BRANCH  31  33
HETATM   33  O3  UNL     1       0.090  52.362 -18.230  1.00  0.00    -0.773 OA
HETATM   34  H46 UNL     1      -0.393  51.943 -18.972  1.00  0.00     0.167 HD
ENDBRANCH  31  33
ENDBRANCH  29  31
ENDBRANCH  27  28
ENDBRANCH  26  27
ENDBRANCH  24  26
ENDBRANCH   1  24
TORSDOF 6
ENDMDL
MODEL 6
REMARK minimizedAffinity -7.13210917
REMARK CNNscore 0.507355273
REMARK CNNaffinity 5.64810514
REMARK  6 active torsions:
REMARK  status: ('A' for Active; 'I' for Inactive)
REMARK    1  A    between atoms: C2_2  and  C30_31 
REMARK    2  A    between atoms: C3_3  and  C4_4 
REMARK    3  A    between atoms: C4_4  and  C5_5 
REMARK    4  A    between atoms: C5_5  and  C6_6 
REMARK    5  A    between atoms: C6_6  and  C8_8 
REMARK    6  A    between atoms: C30_31  and  O3_33 
ROOT
HETATM    1  C8  UNL     1     -12.495  47.030 -26.991  1.00  0.00    -0.002 C 
HETATM    2  C9  UNL     1     -12.574  48.362 -27.784  1.00  0.00     0.007 C 
HETATM    3  C10 UNL     1     -12.054  48.067 -29.212  1.00  0.00     0.015 C 
HETATM    4  C11 UNL     1     -11.452  46.647 -29.139  1.00  0.00    -0.013 C 
HETATM    5  C12 UNL     1      -9.988  46.818 -28.623  1.00  0.00     0.021 C 
HETATM    6  C13 UNL     1     -11.346  45.828 -30.421  1.00  0.00    -0.070 C 
HETATM    7  C14 UNL     1     -11.125  46.394 -31.621  1.00  0.00    -0.022 C 
HETATM    8  C15 UNL     1     -10.923  45.630 -32.898  1.00  0.00     0.034 C 
HETATM    9  C16 UNL     1     -11.207  44.115 -32.780  1.00  0.00     0.013 C 
HETATM   10  C17 UNL     1     -10.894  43.308 -34.087  1.00  0.00     0.018 C 
HETATM   11  C18 UNL     1     -11.882  43.747 -35.200  1.00  0.00     0.023 C 
HETATM   12  C19 UNL     1      -9.476  43.479 -34.658  1.00  0.00     0.023 C 
HETATM   13  C20 UNL     1     -11.111  41.811 -33.818  1.00  0.00     0.135 C 
HETATM   14  O1  UNL     1     -11.685  41.070 -34.617  1.00  0.00    -0.297 OA
HETATM   15  C21 UNL     1     -10.506  41.242 -32.557  1.00  0.00     0.080 C 
HETATM   16  C22 UNL     1     -10.991  42.024 -31.348  1.00  0.00     0.017 C 
HETATM   17  C23 UNL     1     -10.661  43.538 -31.418  1.00  0.00    -0.031 C 
HETATM   18  C24 UNL     1      -9.137  43.737 -31.231  1.00  0.00     0.016 C 
HETATM   19  C25 UNL     1     -11.451  44.304 -30.274  1.00  0.00     0.024 C 
HETATM   20  C26 UNL     1     -11.179  43.803 -28.834  1.00  0.00     0.010 C 
HETATM   21  C27 UNL     1     -11.876  44.593 -27.700  1.00  0.00     0.011 C 
HETATM   22  C28 UNL     1     -12.436  45.962 -28.132  1.00  0.00    -0.029 C 
HETATM   23  C29 UNL     1     -13.873  45.756 -28.706  1.00  0.00     0.016 C 
ENDROOT
BRANCH   1  24
HETATM   24  C6  UNL     1     -13.525  46.793 -25.845  1.00  0.00    -0.014 C 
HETATM   25  C7  UNL     1     -13.007  46.049 -24.610  1.00  0.00     0.010 C 
BRANCH  24  26
HETATM   26  C5  UNL     1     -14.818  46.118 -26.375  1.00  0.00     0.008 C 
BRANCH  26  27
HETATM   27  C4  UNL     1     -15.987  46.079 -25.388  1.00  0.00     0.028 C 
BRANCH  27  28
HETATM   28  C3  UNL     1     -17.186  45.388 -25.979  1.00  0.00    -0.013 C 
HETATM   29  C2  UNL     1     -18.481  45.546 -25.630  1.00  0.00     0.008 C 
HETATM   30  C1  UNL     1     -19.593  44.843 -26.351  1.00  0.00     0.055 C 
BRANCH  29  31
HETATM   31  C30 UNL     1     -18.880  46.394 -24.484  1.00  0.00     0.171 C 
HETATM   32  O2  UNL     1     -19.065  46.040 -23.334  1.00  0.00    -0.646 OA
BRANCH  31  33
HETATM   33  O3  UNL     1     -19.046  47.674 -24.859  1.00  0.00    -0.773 OA
HETATM   34  H46 UNL     1     -19.283  48.128 -24.023  1.00  0.00     0.167 HD
ENDBRANCH  31  33
ENDBRANCH  29  31
ENDBRANCH  27  28
ENDBRANCH  26  27
ENDBRANCH  24  26
ENDBRANCH   1  24
TORSDOF 6
ENDMDL
MODEL 7
REMARK minimizedAffinity -8.21301079
REMARK CNNscore 0.488082021
REMARK CNNaffinity 5.84963036
REMARK  6 active torsions:
REMARK  status: ('A' for Active; 'I' for Inactive)
REMARK    1  A    between atoms: C2_2  and  C30_31 
REMARK    2  A    between atoms: C3_3  and  C4_4 
REMARK    3  A    between atoms: C4_4  and  C5_5 
REMARK    4  A    between atoms: C5_5  and  C6_6 
REMARK    5  A    between atoms: C6_6  and  C8_8 
REMARK    6  A    between atoms: C30_31  and  O3_33 
ROOT
HETATM    1  C8  UNL     1     -10.876  46.347 -28.421  1.00  0.00    -0.002 C 
HETATM    2  C9  UNL     1     -11.055  45.179 -29.429  1.00  0.00     0.007 C 
HETATM    3  C10 UNL     1     -12.365  44.449 -29.043  1.00  0.00     0.015 C 
HETATM    4  C11 UNL     1     -12.776  45.047 -27.679  1.00  0.00    -0.013 C 
HETATM    5  C12 UNL     1     -11.991  44.246 -26.594  1.00  0.00     0.021 C 
HETATM    6  C13 UNL     1     -14.241  44.983 -27.262  1.00  0.00    -0.070 C 
HETATM    7  C14 UNL     1     -15.047  43.964 -27.614  1.00  0.00    -0.022 C 
HETATM    8  C15 UNL     1     -16.468  43.806 -27.157  1.00  0.00     0.034 C 
HETATM    9  C16 UNL     1     -17.031  45.035 -26.407  1.00  0.00     0.013 C 
HETATM   10  C17 UNL     1     -18.478  44.822 -25.841  1.00  0.00     0.018 C 
HETATM   11  C18 UNL     1     -19.467  44.675 -27.028  1.00  0.00     0.023 C 
HETATM   12  C19 UNL     1     -18.674  43.591 -24.942  1.00  0.00     0.023 C 
HETATM   13  C20 UNL     1     -18.888  46.062 -25.030  1.00  0.00     0.135 C 
HETATM   14  O1  UNL     1     -20.007  46.571 -25.115  1.00  0.00    -0.297 OA
HETATM   15  C21 UNL     1     -17.886  46.597 -24.035  1.00  0.00     0.080 C 
HETATM   16  C22 UNL     1     -16.567  46.889 -24.730  1.00  0.00     0.017 C 
HETATM   17  C23 UNL     1     -15.952  45.653 -25.438  1.00  0.00    -0.031 C 
HETATM   18  C24 UNL     1     -15.439  44.658 -24.370  1.00  0.00     0.016 C 
HETATM   19  C25 UNL     1     -14.752  46.119 -26.365  1.00  0.00     0.024 C 
HETATM   20  C26 UNL     1     -13.619  46.891 -25.643  1.00  0.00     0.010 C 
HETATM   21  C27 UNL     1     -12.401  47.278 -26.516  1.00  0.00     0.011 C 
HETATM   22  C28 UNL     1     -12.325  46.536 -27.864  1.00  0.00    -0.029 C 
HETATM   23  C29 UNL     1     -13.173  47.319 -28.914  1.00  0.00     0.016 C 
ENDROOT
BRANCH   1  24
HETATM   24  C6  UNL     1     -10.125  47.625 -28.903  1.00  0.00    -0.014 C 
HETATM   25  C7  UNL     1      -9.877  47.738 -30.410  1.00  0.00     0.010 C 
BRANCH  24  26
HETATM   26  C5  UNL     1      -8.798  47.831 -28.124  1.00  0.00     0.008 C 
BRANCH  26  27
HETATM   27  C4  UNL     1      -7.531  47.408 -28.869  1.00  0.00     0.028 C 
BRANCH  27  28
HETATM   28  C3  UNL     1      -6.293  47.697 -28.062  1.00  0.00    -0.013 C 
HETATM   29  C2  UNL     1      -5.107  48.160 -28.512  1.00  0.00     0.008 C 
HETATM   30  C1  UNL     1      -3.970  48.473 -27.585  1.00  0.00     0.055 C 
BRANCH  29  31
HETATM   31  C30 UNL     1      -4.844  48.350 -29.956  1.00  0.00     0.171 C 
HETATM   32  O2  UNL     1      -4.836  47.495 -30.822  1.00  0.00    -0.646 OA
BRANCH  31  33
HETATM   33  O3  UNL     1      -4.581  49.637 -30.239  1.00  0.00    -0.773 OA
HETATM   34  H46 UNL     1      -4.448  49.635 -31.210  1.00  0.00     0.167 HD
ENDBRANCH  31  33
ENDBRANCH  29  31
ENDBRANCH  27  28
ENDBRANCH  26  27
ENDBRANCH  24  26
ENDBRANCH   1  24
TORSDOF 6
ENDMDL
MODEL 8
REMARK minimizedAffinity -7.45352316
REMARK CNNscore 0.480852157
REMARK CNNaffinity 5.81897974
REMARK  6 active torsions:
REMARK  status: ('A' for Active; 'I' for Inactive)
REMARK    1  A    between atoms: C2_2  and  C30_31 
REMARK    2  A    between atoms: C3_3  and  C4_4 
REMARK    3  A    between atoms: C4_4  and  C5_5 
REMARK    4  A    between atoms: C5_5  and  C6_6 
REMARK    5  A    between atoms: C6_6  and  C8_8 
REMARK    6  A    between atoms: C30_31  and  O3_33 
ROOT
HETATM    1  C8  UNL     1     -13.778  45.903 -25.750  1.00  0.00    -0.002 C 
HETATM    2  C9  UNL     1     -13.191  44.531 -25.323  1.00  0.00     0.007 C 
HETATM    3  C10 UNL     1     -12.022  44.221 -26.289  1.00  0.00     0.015 C 
HETATM    4  C11 UNL     1     -12.121  45.289 -27.401  1.00  0.00    -0.013 C 
HETATM    5  C12 UNL     1     -13.148  44.743 -28.443  1.00  0.00     0.021 C 
HETATM    6  C13 UNL     1     -10.868  45.637 -28.198  1.00  0.00    -0.070 C 
HETATM    7  C14 UNL     1      -9.914  44.730 -28.472  1.00  0.00    -0.022 C 
HETATM    8  C15 UNL     1      -8.707  44.995 -29.326  1.00  0.00     0.034 C 
HETATM    9  C16 UNL     1      -8.516  46.481 -29.705  1.00  0.00     0.013 C 
HETATM   10  C17 UNL     1      -7.317  46.736 -30.683  1.00  0.00     0.018 C 
HETATM   11  C18 UNL     1      -5.990  46.406 -29.949  1.00  0.00     0.023 C 
HETATM   12  C19 UNL     1      -7.323  45.915 -31.982  1.00  0.00     0.023 C 
HETATM   13  C20 UNL     1      -7.291  48.223 -31.070  1.00  0.00     0.135 C 
HETATM   14  O1  UNL     1      -6.249  48.879 -31.117  1.00  0.00    -0.297 OA
HETATM   15  C21 UNL     1      -8.600  48.849 -31.490  1.00  0.00     0.080 C 
HETATM   16  C22 UNL     1      -9.643  48.652 -30.403  1.00  0.00     0.017 C 
HETATM   17  C23 UNL     1      -9.896  47.162 -30.051  1.00  0.00    -0.031 C 
HETATM   18  C24 UNL     1     -10.645  46.481 -31.221  1.00  0.00     0.016 C 
HETATM   19  C25 UNL     1     -10.767  47.074 -28.727  1.00  0.00     0.024 C 
HETATM   20  C26 UNL     1     -12.130  47.809 -28.782  1.00  0.00     0.010 C 
HETATM   21  C27 UNL     1     -13.028  47.662 -27.530  1.00  0.00     0.011 C 
HETATM   22  C28 UNL     1     -12.606  46.529 -26.575  1.00  0.00    -0.029 C 
HETATM   23  C29 UNL     1     -11.530  47.081 -25.589  1.00  0.00     0.016 C 
ENDROOT
BRANCH   1  24
HETATM   24  C6  UNL     1     -14.433  46.796 -24.653  1.00  0.00    -0.014 C 
HETATM   25  C7  UNL     1     -13.798  46.736 -23.261  1.00  0.00     0.010 C 
BRANCH  24  26
HETATM   26  C5  UNL     1     -15.962  46.545 -24.556  1.00  0.00     0.008 C 
BRANCH  26  27
HETATM   27  C4  UNL     1     -16.582  46.811 -23.183  1.00  0.00     0.028 C 
BRANCH  27  28
HETATM   28  C3  UNL     1     -17.705  45.852 -22.889  1.00  0.00    -0.013 C 
HETATM   29  C2  UNL     1     -18.845  45.681 -23.591  1.00  0.00     0.008 C 
HETATM   30  C1  UNL     1     -19.858  44.636 -23.227  1.00  0.00     0.055 C 
BRANCH  29  31
HETATM   31  C30 UNL     1     -19.187  46.547 -24.743  1.00  0.00     0.171 C 
HETATM   32  O2  UNL     1     -19.237  47.762 -24.762  1.00  0.00    -0.646 OA
BRANCH  31  33
HETATM   33  O3  UNL     1     -19.469  45.816 -25.836  1.00  0.00    -0.773 OA
HETATM   34  H46 UNL     1     -19.653  46.491 -26.521  1.00  0.00     0.167 HD
ENDBRANCH  31  33
ENDBRANCH  29  31
ENDBRANCH  27  28
ENDBRANCH  26  27
ENDBRANCH  24  26
ENDBRANCH   1  24
TORSDOF 6
ENDMDL
MODEL 9
REMARK minimizedAffinity -6.72115612
REMARK CNNscore 0.465949893
REMARK CNNaffinity 5.67822886
REMARK  6 active torsions:
REMARK  status: ('A' for Active; 'I' for Inactive)
REMARK    1  A    between atoms: C2_2  and  C30_31 
REMARK    2  A    between atoms: C3_3  and  C4_4 
REMARK    3  A    between atoms: C4_4  and  C5_5 
REMARK    4  A    between atoms: C5_5  and  C6_6 
REMARK    5  A    between atoms: C6_6  and  C8_8 
REMARK    6  A    between atoms: C30_31  and  O3_33 
ROOT
HETATM    1  C8  UNL     1     -11.578  45.529 -26.262  1.00  0.00    -0.002 C 
HETATM    2  C9  UNL     1     -11.305  44.103 -25.714  1.00  0.00     0.007 C 
HETATM    3  C10 UNL     1      -9.993  44.179 -24.894  1.00  0.00     0.015 C 
HETATM    4  C11 UNL     1      -9.408  45.577 -25.196  1.00  0.00    -0.013 C 
HETATM    5  C12 UNL     1      -8.591  45.434 -26.519  1.00  0.00     0.021 C 
HETATM    6  C13 UNL     1      -8.454  46.205 -24.187  1.00  0.00    -0.070 C 
HETATM    7  C14 UNL     1      -7.611  45.472 -23.437  1.00  0.00    -0.022 C 
HETATM    8  C15 UNL     1      -6.591  46.044 -22.496  1.00  0.00     0.034 C 
HETATM    9  C16 UNL     1      -6.719  47.569 -22.276  1.00  0.00     0.013 C 
HETATM   10  C17 UNL     1      -5.587  48.175 -21.376  1.00  0.00     0.018 C 
HETATM   11  C18 UNL     1      -5.734  47.618 -19.936  1.00  0.00     0.023 C 
HETATM   12  C19 UNL     1      -4.145  47.883 -21.822  1.00  0.00     0.023 C 
HETATM   13  C20 UNL     1      -5.756  49.702 -21.317  1.00  0.00     0.135 C 
HETATM   14  O1  UNL     1      -5.638  50.343 -20.272  1.00  0.00    -0.297 OA
HETATM   15  C21 UNL     1      -5.986  50.422 -22.625  1.00  0.00     0.080 C 
HETATM   16  C22 UNL     1      -7.190  49.830 -23.339  1.00  0.00     0.017 C 
HETATM   17  C23 UNL     1      -7.055  48.312 -23.625  1.00  0.00    -0.031 C 
HETATM   18  C24 UNL     1      -5.995  48.093 -24.732  1.00  0.00     0.016 C 
HETATM   19  C25 UNL     1      -8.457  47.738 -24.099  1.00  0.00     0.024 C 
HETATM   20  C26 UNL     1      -9.066  48.426 -25.346  1.00  0.00     0.010 C 
HETATM   21  C27 UNL     1     -10.391  47.823 -25.872  1.00  0.00     0.011 C 
HETATM   22  C28 UNL     1     -10.719  46.426 -25.312  1.00  0.00    -0.029 C 
HETATM   23  C29 UNL     1     -11.475  46.595 -23.956  1.00  0.00     0.016 C 
ENDROOT
BRANCH   1  24
HETATM   24  C6  UNL     1     -13.059  45.955 -26.499  1.00  0.00    -0.014 C 
HETATM   25  C7  UNL     1     -13.276  47.343 -27.108  1.00  0.00     0.010 C 
BRANCH  24  26
HETATM   26  C5  UNL     1     -13.908  45.795 -25.209  1.00  0.00     0.008 C 
BRANCH  26  27
HETATM   27  C4  UNL     1     -15.221  46.581 -25.190  1.00  0.00     0.028 C 
BRANCH  27  28
HETATM   28  C3  UNL     1     -16.339  45.803 -25.832  1.00  0.00    -0.013 C 
HETATM   29  C2  UNL     1     -17.652  45.844 -25.522  1.00  0.00     0.008 C 
HETATM   30  C1  UNL     1     -18.678  45.064 -26.291  1.00  0.00     0.055 C 
BRANCH  29  31
HETATM   31  C30 UNL     1     -18.157  46.631 -24.375  1.00  0.00     0.171 C 
HETATM   32  O2  UNL     1     -17.854  46.503 -23.203  1.00  0.00    -0.646 OA
BRANCH  31  33
HETATM   33  O3  UNL     1     -19.053  47.552 -24.771  1.00  0.00    -0.773 OA
HETATM   34  H46 UNL     1     -19.289  48.012 -23.940  1.00  0.00     0.167 HD
ENDBRANCH  31  33
ENDBRANCH  29  31
ENDBRANCH  27  28
ENDBRANCH  26  27
ENDBRANCH  24  26
ENDBRANCH   1  24
TORSDOF 6
ENDMDL
